# generated using pymatgen
data_MnH12C10(NO3)2
_symmetry_space_group_name_H-M   'P 1'
_cell_length_a   8.12942000
_cell_length_b   8.12941000
_cell_length_c   8.25325000
_cell_angle_alpha   89.03630000
_cell_angle_beta   89.03630000
_cell_angle_gamma   75.91300000
_symmetry_Int_Tables_number   1
_chemical_formula_structural   MnH12C10(NO3)2
_chemical_formula_sum   'Mn2 H24 C20 N4 O12'
_cell_volume   528.91262189
_cell_formula_units_Z   2
loop_
 _symmetry_equiv_pos_site_id
 _symmetry_equiv_pos_as_xyz
  1  'x, y, z'
loop_
 _atom_site_type_symbol
 _atom_site_label
 _atom_site_symmetry_multiplicity
 _atom_site_fract_x
 _atom_site_fract_y
 _atom_site_fract_z
 _atom_site_occupancy
  Mn  Mn0  1  0.15065000  0.84935000  0.25000000  1.0
  Mn  Mn1  1  0.84935000  0.15065000  0.75000000  1.0
  H  H2  1  0.98393000  0.78989000  0.93725000  1.0
  H  H3  1  0.21011000  0.01607000  0.56275000  1.0
  H  H4  1  0.01607000  0.21011000  0.06275000  1.0
  H  H5  1  0.78989000  0.98393000  0.43725000  1.0
  H  H6  1  0.41504000  0.41024000  0.88088000  1.0
  H  H7  1  0.58976000  0.58496000  0.61912000  1.0
  H  H8  1  0.58496000  0.58976000  0.11912000  1.0
  H  H9  1  0.41024000  0.41504000  0.38088000  1.0
  H  H10  1  0.23652000  0.32481000  0.91407000  1.0
  H  H11  1  0.67519000  0.76348000  0.58593000  1.0
  H  H12  1  0.76348000  0.67519000  0.08593000  1.0
  H  H13  1  0.32481000  0.23652000  0.41407000  1.0
  H  H14  1  0.19080000  0.38083000  0.63061000  1.0
  H  H15  1  0.61917000  0.80920000  0.86939000  1.0
  H  H16  1  0.80920000  0.61917000  0.36939000  1.0
  H  H17  1  0.38083000  0.19080000  0.13061000  1.0
  H  H18  1  0.30296000  0.54210000  0.62873000  1.0
  H  H19  1  0.45790000  0.69704000  0.87128000  1.0
  H  H20  1  0.69703000  0.45790000  0.37128000  1.0
  H  H21  1  0.54210000  0.30297000  0.12872000  1.0
  H  H22  1  0.93752000  0.56279000  0.72295000  1.0
  H  H23  1  0.43721000  0.06248000  0.77705000  1.0
  H  H24  1  0.06248000  0.43721000  0.27705000  1.0
  H  H25  1  0.56279000  0.93752000  0.22295000  1.0
  C  C26  1  0.18715000  0.58515000  0.97256000  1.0
  C  C27  1  0.41484000  0.81285000  0.52744000  1.0
  C  C28  1  0.81285000  0.41484000  0.02744000  1.0
  C  C29  1  0.58516000  0.18715000  0.47255000  1.0
  C  C30  1  0.27681000  0.43724000  0.86963000  1.0
  C  C31  1  0.56276000  0.72319000  0.63037000  1.0
  C  C32  1  0.72319000  0.56276000  0.13037000  1.0
  C  C33  1  0.43724000  0.27681000  0.36963000  1.0
  C  C34  1  0.21271000  0.48754000  0.69824000  1.0
  C  C35  1  0.51246000  0.78729000  0.80176000  1.0
  C  C36  1  0.78729000  0.51246000  0.30176000  1.0
  C  C37  1  0.48754000  0.21271000  0.19824000  1.0
  C  C38  1  0.04585000  0.62298000  0.72341000  1.0
  C  C39  1  0.37702000  0.95415000  0.77659000  1.0
  C  C40  1  0.95415000  0.37702000  0.27659000  1.0
  C  C41  1  0.62298000  0.04585000  0.22341000  1.0
  C  C42  1  0.00613000  0.76191000  0.59301000  1.0
  C  C43  1  0.23809000  0.99387000  0.90699000  1.0
  C  C44  1  0.99387000  0.23809000  0.40699000  1.0
  C  C45  1  0.76191000  0.00613000  0.09301000  1.0
  N  N46  1  0.06384000  0.68592000  0.88520000  1.0
  N  N47  1  0.31408000  0.93616000  0.61480000  1.0
  N  N48  1  0.93616000  0.31408000  0.11480000  1.0
  N  N49  1  0.68592000  0.06384000  0.38520000  1.0
  O  O50  1  0.05969000  0.72047000  0.45084000  1.0
  O  O51  1  0.27953000  0.94032000  0.04916000  1.0
  O  O52  1  0.94031000  0.27953000  0.54916000  1.0
  O  O53  1  0.72047000  0.05968000  0.95084000  1.0
  O  O54  1  0.91106000  0.90546000  0.63168000  1.0
  O  O55  1  0.09454000  0.08894000  0.86832000  1.0
  O  O56  1  0.08894000  0.09455000  0.36832000  1.0
  O  O57  1  0.90546000  0.91106000  0.13168000  1.0
  O  O58  1  0.22055000  0.60866000  0.11755000  1.0
  O  O59  1  0.39134000  0.77945000  0.38245000  1.0
  O  O60  1  0.77945000  0.39134000  0.88245000  1.0
  O  O61  1  0.60866000  0.22055000  0.61755000  1.0
