# generated using pymatgen
data_Sm2H10C14N4O15
_symmetry_space_group_name_H-M   'P 1'
_cell_length_a   10.98770000
_cell_length_b   11.91250000
_cell_length_c   19.17390000
_cell_angle_alpha   89.99990000
_cell_angle_beta   89.99990000
_cell_angle_gamma   90.00000000
_symmetry_Int_Tables_number   1
_chemical_formula_structural   Sm2H10C14N4O15
_chemical_formula_sum   'Sm8 H40 C56 N16 O60'
_cell_volume   2509.69048951
_cell_formula_units_Z   4
loop_
 _symmetry_equiv_pos_site_id
 _symmetry_equiv_pos_as_xyz
  1  'x, y, z'
loop_
 _atom_site_type_symbol
 _atom_site_label
 _atom_site_symmetry_multiplicity
 _atom_site_fract_x
 _atom_site_fract_y
 _atom_site_fract_z
 _atom_site_occupancy
  Sm  Sm0  1  0.36116000  0.66191000  0.59924000  1.0
  Sm  Sm1  1  0.63884000  0.33809000  0.09924000  1.0
  Sm  Sm2  1  0.86116000  0.83809000  0.09924000  1.0
  Sm  Sm3  1  0.13884000  0.16191000  0.59924000  1.0
  Sm  Sm4  1  0.88235000  0.47841000  0.81951000  1.0
  Sm  Sm5  1  0.11765000  0.52160000  0.31951000  1.0
  Sm  Sm6  1  0.38234000  0.02159000  0.31951000  1.0
  Sm  Sm7  1  0.61765000  0.97840000  0.81951000  1.0
  H  H8  1  0.14113000  0.50568000  0.70057000  1.0
  H  H9  1  0.85887000  0.49432000  0.20057000  1.0
  H  H10  1  0.64113000  0.99432000  0.20057000  1.0
  H  H11  1  0.35886000  0.00568000  0.70057000  1.0
  H  H12  1  0.28937000  0.75580000  0.88238000  1.0
  H  H13  1  0.71063000  0.24419000  0.38238000  1.0
  H  H14  1  0.78937000  0.74420000  0.38238000  1.0
  H  H15  1  0.21063000  0.25580000  0.88238000  1.0
  H  H16  1  0.64257000  0.61517000  0.70456000  1.0
  H  H17  1  0.35743000  0.38483000  0.20456000  1.0
  H  H18  1  0.14258000  0.88483000  0.20456000  1.0
  H  H19  1  0.85743000  0.11517000  0.70456000  1.0
  H  H20  1  0.48884000  0.23245000  0.70326000  1.0
  H  H21  1  0.51116000  0.76755000  0.20326000  1.0
  H  H22  1  0.98885000  0.26755000  0.20326000  1.0
  H  H23  1  0.01116000  0.73245000  0.70326000  1.0
  H  H24  1  0.59595000  0.60500000  0.54053000  1.0
  H  H25  1  0.40405000  0.39500000  0.04053000  1.0
  H  H26  1  0.09595000  0.89501000  0.04053000  1.0
  H  H27  1  0.90405000  0.10500000  0.54053000  1.0
  H  H28  1  0.59245000  0.73454000  0.53121000  1.0
  H  H29  1  0.40755000  0.26546000  0.03121000  1.0
  H  H30  1  0.09245000  0.76546000  0.03121000  1.0
  H  H31  1  0.90755000  0.23454000  0.53121000  1.0
  H  H32  1  0.41044000  0.85923000  0.49350000  1.0
  H  H33  1  0.58956000  0.14077000  0.99350000  1.0
  H  H34  1  0.91044000  0.64077000  0.99350000  1.0
  H  H35  1  0.08956000  0.35923000  0.49350000  1.0
  H  H36  1  0.32725000  0.89901000  0.55861000  1.0
  H  H37  1  0.67275000  0.10099000  0.05861000  1.0
  H  H38  1  0.82725000  0.60099000  0.05861000  1.0
  H  H39  1  0.17275000  0.39901000  0.55861000  1.0
  H  H40  1  0.96392000  0.37853000  0.68275000  1.0
  H  H41  1  0.03608000  0.62147000  0.18275000  1.0
  H  H42  1  0.46392000  0.12147000  0.18275000  1.0
  H  H43  1  0.53608000  0.87853000  0.68275000  1.0
  H  H44  1  0.88959000  0.48197000  0.64989000  1.0
  H  H45  1  0.11041000  0.51803000  0.14989000  1.0
  H  H46  1  0.38959000  0.01803000  0.14989000  1.0
  H  H47  1  0.61041000  0.98197000  0.64989000  1.0
  C  C48  1  0.17385000  0.56243000  0.74097000  1.0
  C  C49  1  0.82615000  0.43756000  0.24097000  1.0
  C  C50  1  0.67385000  0.93757000  0.24097000  1.0
  C  C51  1  0.32615000  0.06243000  0.74097000  1.0
  C  C52  1  0.14825000  0.63984000  0.84918000  1.0
  C  C53  1  0.85175000  0.36015000  0.34917000  1.0
  C  C54  1  0.64825000  0.86016000  0.34918000  1.0
  C  C55  1  0.35175000  0.13985000  0.84917000  1.0
  C  C56  1  0.25576000  0.70086000  0.84137000  1.0
  C  C57  1  0.74424000  0.29913000  0.34137000  1.0
  C  C58  1  0.75577000  0.79914000  0.34137000  1.0
  C  C59  1  0.24424000  0.20086000  0.84137000  1.0
  C  C60  1  0.31458000  0.69219000  0.77750000  1.0
  C  C61  1  0.68542000  0.30780000  0.27750000  1.0
  C  C62  1  0.81458000  0.80781000  0.27750000  1.0
  C  C63  1  0.18542000  0.19220000  0.77750000  1.0
  C  C64  1  0.41826000  0.77017000  0.75870000  1.0
  C  C65  1  0.58174000  0.22982000  0.25870000  1.0
  C  C66  1  0.91827000  0.72983000  0.25870000  1.0
  C  C67  1  0.08174000  0.27018000  0.75870000  1.0
  C  C68  1  0.07318000  0.65005000  0.91489000  1.0
  C  C69  1  0.92682000  0.34994000  0.41489000  1.0
  C  C70  1  0.57318000  0.84994000  0.41489000  1.0
  C  C71  1  0.42682000  0.15006000  0.91489000  1.0
  C  C72  1  0.60854000  0.52937000  0.70440000  1.0
  C  C73  1  0.39146000  0.47064000  0.20440000  1.0
  C  C74  1  0.10854000  0.97064000  0.20440000  1.0
  C  C75  1  0.89146000  0.02936000  0.70440000  1.0
  C  C76  1  0.63070000  0.34570000  0.73776000  1.0
  C  C77  1  0.36930000  0.65430000  0.23776000  1.0
  C  C78  1  0.13071000  0.15430000  0.23776000  1.0
  C  C79  1  0.86930000  0.84570000  0.73776000  1.0
  C  C80  1  0.52281000  0.31806000  0.70398000  1.0
  C  C81  1  0.47719000  0.68195000  0.20397000  1.0
  C  C82  1  0.02282000  0.18194000  0.20397000  1.0
  C  C83  1  0.97719000  0.81806000  0.70398000  1.0
  C  C84  1  0.46058000  0.40484000  0.67113000  1.0
  C  C85  1  0.53942000  0.59516000  0.17113000  1.0
  C  C86  1  0.96058000  0.09516000  0.17113000  1.0
  C  C87  1  0.03942000  0.90484000  0.67113000  1.0
  C  C88  1  0.33869000  0.38494000  0.63711000  1.0
  C  C89  1  0.66131000  0.61506000  0.13711000  1.0
  C  C90  1  0.83869000  0.11506000  0.13711000  1.0
  C  C91  1  0.16131000  0.88494000  0.63711000  1.0
  C  C92  1  0.70557000  0.25714000  0.77516000  1.0
  C  C93  1  0.29443000  0.74287000  0.27516000  1.0
  C  C94  1  0.20557000  0.24287000  0.27516000  1.0
  C  C95  1  0.79444000  0.75713000  0.77516000  1.0
  C  C96  1  0.82278000  0.38484000  0.97218000  1.0
  C  C97  1  0.17722000  0.61515000  0.47218000  1.0
  C  C98  1  0.32277000  0.11516000  0.47218000  1.0
  C  C99  1  0.67722000  0.88484000  0.97218000  1.0
  C  C100  1  0.69897000  0.43327000  0.94587000  1.0
  C  C101  1  0.30103000  0.56673000  0.44587000  1.0
  C  C102  1  0.19897000  0.06674000  0.44587000  1.0
  C  C103  1  0.80103000  0.93326000  0.94587000  1.0
  N  N104  1  0.27566000  0.62014000  0.72802000  1.0
  N  N105  1  0.72434000  0.37985000  0.22802000  1.0
  N  N106  1  0.77566000  0.87986000  0.22802000  1.0
  N  N107  1  0.22434000  0.12015000  0.72802000  1.0
  N  N108  1  0.10545000  0.57269000  0.79850000  1.0
  N  N109  1  0.89455000  0.42730000  0.29849000  1.0
  N  N110  1  0.60545000  0.92731000  0.29849000  1.0
  N  N111  1  0.39454000  0.07269000  0.79849000  1.0
  N  N112  1  0.50413000  0.51025000  0.66995000  1.0
  N  N113  1  0.49587000  0.48975000  0.16995000  1.0
  N  N114  1  0.00414000  0.98975000  0.16995000  1.0
  N  N115  1  0.99587000  0.01025000  0.66995000  1.0
  N  N116  1  0.67320000  0.45180000  0.73880000  1.0
  N  N117  1  0.32680000  0.54820000  0.23880000  1.0
  N  N118  1  0.17320000  0.04820000  0.23880000  1.0
  N  N119  1  0.82680000  0.95180000  0.73880000  1.0
  O  O120  1  0.46088000  0.76146000  0.69660000  1.0
  O  O121  1  0.53912000  0.23853000  0.19660000  1.0
  O  O122  1  0.96088000  0.73854000  0.19660000  1.0
  O  O123  1  0.03912000  0.26147000  0.69660000  1.0
  O  O124  1  0.45052000  0.84040000  0.80372000  1.0
  O  O125  1  0.54948000  0.15959000  0.30372000  1.0
  O  O126  1  0.95052000  0.65960000  0.30372000  1.0
  O  O127  1  0.04949000  0.34041000  0.80372000  1.0
  O  O128  1  0.96270000  0.61696000  0.91096000  1.0
  O  O129  1  0.03731000  0.38303000  0.41096000  1.0
  O  O130  1  0.46270000  0.88304000  0.41096000  1.0
  O  O131  1  0.53731000  0.11696000  0.91096000  1.0
  O  O132  1  0.12779000  0.69009000  0.96672000  1.0
  O  O133  1  0.87222000  0.30990000  0.46672000  1.0
  O  O134  1  0.62778000  0.80991000  0.46672000  1.0
  O  O135  1  0.37221000  0.19009000  0.96672000  1.0
  O  O136  1  0.29123000  0.46640000  0.60358000  1.0
  O  O137  1  0.70877000  0.53360000  0.10358000  1.0
  O  O138  1  0.79124000  0.03360000  0.10358000  1.0
  O  O139  1  0.20877000  0.96640000  0.60358000  1.0
  O  O140  1  0.29158000  0.29020000  0.64652000  1.0
  O  O141  1  0.70842000  0.70980000  0.14652000  1.0
  O  O142  1  0.79158000  0.20980000  0.14652000  1.0
  O  O143  1  0.20842000  0.79020000  0.64652000  1.0
  O  O144  1  0.80190000  0.28919000  0.80446000  1.0
  O  O145  1  0.19810000  0.71082000  0.30446000  1.0
  O  O146  1  0.30190000  0.21082000  0.30446000  1.0
  O  O147  1  0.69810000  0.78918000  0.80446000  1.0
  O  O148  1  0.66523000  0.15737000  0.77225000  1.0
  O  O149  1  0.33477000  0.84264000  0.27225000  1.0
  O  O150  1  0.16524000  0.34263000  0.27225000  1.0
  O  O151  1  0.83477000  0.65737000  0.77225000  1.0
  O  O152  1  0.82423000  0.34550000  0.03360000  1.0
  O  O153  1  0.17577000  0.65449000  0.53359000  1.0
  O  O154  1  0.32423000  0.15449000  0.53359000  1.0
  O  O155  1  0.67577000  0.84551000  0.03359000  1.0
  O  O156  1  0.91166000  0.39015000  0.93060000  1.0
  O  O157  1  0.08835000  0.60984000  0.43060000  1.0
  O  O158  1  0.41166000  0.10984000  0.43060000  1.0
  O  O159  1  0.58834000  0.89015000  0.93060000  1.0
  O  O160  1  0.60657000  0.41683000  0.98416000  1.0
  O  O161  1  0.39343000  0.58315000  0.48416000  1.0
  O  O162  1  0.10657000  0.08317000  0.48415000  1.0
  O  O163  1  0.89343000  0.91684000  0.98416000  1.0
  O  O164  1  0.70092000  0.48569000  0.88843000  1.0
  O  O165  1  0.29909000  0.51431000  0.38843000  1.0
  O  O166  1  0.20091000  0.01431000  0.38842000  1.0
  O  O167  1  0.79908000  0.98569000  0.88843000  1.0
  O  O168  1  0.57911000  0.67307000  0.56703000  1.0
  O  O169  1  0.42089000  0.32693000  0.06703000  1.0
  O  O170  1  0.07911000  0.82693000  0.06703000  1.0
  O  O171  1  0.92089000  0.17307000  0.56703000  1.0
  O  O172  1  0.38686000  0.84197000  0.54275000  1.0
  O  O173  1  0.61314000  0.15802000  0.04275000  1.0
  O  O174  1  0.88687000  0.65802000  0.04275000  1.0
  O  O175  1  0.11314000  0.34198000  0.54275000  1.0
  O  O176  1  0.93083000  0.45603000  0.69159000  1.0
  O  O177  1  0.06917000  0.54397000  0.19159000  1.0
  O  O178  1  0.43083000  0.04397000  0.19159000  1.0
  O  O179  1  0.56917000  0.95603000  0.69159000  1.0
