# generated using pymatgen
data_ZnH15C20N3O5
_symmetry_space_group_name_H-M   'P 1'
_cell_length_a   8.80336000
_cell_length_b   9.06205000
_cell_length_c   12.63310000
_cell_angle_alpha   77.48500000
_cell_angle_beta   72.83200000
_cell_angle_gamma   89.70060000
_symmetry_Int_Tables_number   1
_chemical_formula_structural   ZnH15C20N3O5
_chemical_formula_sum   'Zn2 H30 C40 N6 O10'
_cell_volume   938.17372168
_cell_formula_units_Z   2
loop_
 _symmetry_equiv_pos_site_id
 _symmetry_equiv_pos_as_xyz
  1  'x, y, z'
loop_
 _atom_site_type_symbol
 _atom_site_label
 _atom_site_symmetry_multiplicity
 _atom_site_fract_x
 _atom_site_fract_y
 _atom_site_fract_z
 _atom_site_occupancy
  Zn  Zn0  1  0.43128000  0.16527000  0.70817000  1.0
  Zn  Zn1  1  0.56872000  0.83473000  0.29183000  1.0
  H  H2  1  0.45511000  0.83880000  0.68818000  1.0
  H  H3  1  0.54490000  0.16119000  0.31182000  1.0
  H  H4  1  0.55800000  0.60448000  0.77986000  1.0
  H  H5  1  0.44200000  0.39552000  0.22014000  1.0
  H  H6  1  0.70594000  0.87062000  0.98307000  1.0
  H  H7  1  0.29406000  0.12938000  0.01693000  1.0
  H  H8  1  0.59994000  0.09453000  0.87997000  1.0
  H  H9  1  0.40005000  0.90547000  0.12002000  1.0
  H  H10  1  0.86510000  0.44019000  0.22480000  1.0
  H  H11  1  0.13490000  0.55981000  0.77520000  1.0
  H  H12  1  0.96305000  0.17906000  0.23241000  1.0
  H  H13  1  0.03695000  0.82094000  0.76760000  1.0
  H  H14  1  0.95414000  0.04018000  0.08752000  1.0
  H  H15  1  0.04586000  0.95982000  0.91248000  1.0
  H  H16  1  0.85272000  0.15527000  0.92424000  1.0
  H  H17  1  0.14728000  0.84473000  0.07576000  1.0
  H  H18  1  0.29352000  0.99986000  0.46102000  1.0
  H  H19  1  0.70647000  0.00014000  0.53898000  1.0
  H  H20  1  0.83746000  0.09084000  0.66756000  1.0
  H  H21  1  0.16254000  0.90916000  0.33245000  1.0
  H  H22  1  0.81073000  0.39115000  0.42110000  1.0
  H  H23  1  0.18928000  0.60885000  0.57890000  1.0
  H  H24  1  0.92422000  0.49051000  0.70708000  1.0
  H  H25  1  0.07578000  0.50950000  0.29292000  1.0
  H  H26  1  0.70659000  0.42493000  0.84417000  1.0
  H  H27  1  0.29341000  0.57507000  0.15583000  1.0
  H  H28  1  0.16555000  0.20697000  0.80692000  1.0
  H  H29  1  0.83445000  0.79303000  0.19308000  1.0
  H  H30  1  0.26006000  0.29766000  0.87820000  1.0
  H  H31  1  0.73994000  0.70234000  0.12180000  1.0
  C  C32  1  0.51248000  0.84043000  0.75354000  1.0
  C  C33  1  0.48752000  0.15957000  0.24645000  1.0
  C  C34  1  0.56991000  0.71023000  0.80540000  1.0
  C  C35  1  0.43010000  0.28976000  0.19460000  1.0
  C  C36  1  0.63990000  0.71749000  0.89097000  1.0
  C  C37  1  0.36010000  0.28251000  0.10903000  1.0
  C  C38  1  0.65067000  0.85853000  0.91861000  1.0
  C  C39  1  0.34933000  0.14147000  0.08139000  1.0
  C  C40  1  0.59171000  0.98298000  0.86211000  1.0
  C  C41  1  0.40828000  0.01702000  0.13789000  1.0
  C  C42  1  0.70252000  0.58657000  0.95005000  1.0
  C  C43  1  0.29748000  0.41343000  0.04995000  1.0
  C  C44  1  0.80315000  0.44274000  0.07035000  1.0
  C  C45  1  0.19685000  0.55726000  0.92965000  1.0
  C  C46  1  0.86260000  0.37834000  0.16033000  1.0
  C  C47  1  0.13739000  0.62166000  0.83967000  1.0
  C  C48  1  0.91646000  0.23354000  0.16365000  1.0
  C  C49  1  0.08354000  0.76646000  0.83635000  1.0
  C  C50  1  0.91202000  0.15390000  0.07986000  1.0
  C  C51  1  0.08798000  0.84610000  0.92014000  1.0
  C  C52  1  0.85292000  0.21535000  0.99020000  1.0
  C  C53  1  0.14708000  0.78465000  0.00980000  1.0
  C  C54  1  0.79766000  0.36067000  0.98730000  1.0
  C  C55  1  0.20234000  0.63933000  0.01270000  1.0
  C  C56  1  0.15015000  0.10853000  0.64680000  1.0
  C  C57  1  0.84985000  0.89147000  0.35320000  1.0
  C  C58  1  0.07283000  0.05196000  0.57093000  1.0
  C  C59  1  0.92716000  0.94804000  0.42907000  1.0
  C  C60  1  0.16526000  0.00049000  0.47660000  1.0
  C  C61  1  0.83474000  0.99951000  0.52340000  1.0
  C  C62  1  0.90713000  0.05061000  0.59392000  1.0
  C  C63  1  0.09286000  0.94939000  0.40608000  1.0
  C  C64  1  0.69344000  0.35987000  0.64652000  1.0
  C  C65  1  0.30656000  0.64013000  0.35348000  1.0
  C  C66  1  0.85034000  0.43550000  0.57111000  1.0
  C  C67  1  0.14967000  0.56450000  0.42889000  1.0
  C  C68  1  0.89477000  0.43991000  0.45428000  1.0
  C  C69  1  0.10524000  0.56009000  0.54572000  1.0
  C  C70  1  0.95707000  0.49593000  0.61622000  1.0
  C  C71  1  0.04293000  0.50406000  0.38378000  1.0
  N  N72  1  0.52268000  0.97495000  0.78107000  1.0
  N  N73  1  0.47732000  0.02506000  0.21893000  1.0
  N  N74  1  0.74341000  0.58224000  0.04470000  1.0
  N  N75  1  0.25659000  0.41776000  0.95530000  1.0
  N  N76  1  0.73188000  0.45444000  0.91352000  1.0
  N  N77  1  0.26812000  0.54556000  0.08648000  1.0
  O  O78  1  0.30319000  0.10164000  0.62005000  1.0
  O  O79  1  0.69680000  0.89836000  0.37995000  1.0
  O  O80  1  0.26082000  0.21310000  0.83546000  1.0
  O  O81  1  0.73918000  0.78690000  0.16453000  1.0
  O  O82  1  0.06409000  0.15711000  0.72992000  1.0
  O  O83  1  0.93591000  0.84290000  0.27008000  1.0
  O  O84  1  0.60825000  0.29877000  0.59820000  1.0
  O  O85  1  0.39175000  0.70123000  0.40180000  1.0
  O  O86  1  0.64968000  0.35261000  0.75262000  1.0
  O  O87  1  0.35032000  0.64739000  0.24738000  1.0
