# generated using pymatgen
data_CoH4C6(N2O)2
_symmetry_space_group_name_H-M   'P 1'
_cell_length_a   5.86243000
_cell_length_b   10.15920000
_cell_length_c   12.58020000
_cell_angle_alpha   89.99990000
_cell_angle_beta   89.99970000
_cell_angle_gamma   89.99920000
_symmetry_Int_Tables_number   1
_chemical_formula_structural   CoH4C6(N2O)2
_chemical_formula_sum   'Co4 H16 C24 N16 O8'
_cell_volume   749.24650504
_cell_formula_units_Z   4
loop_
 _symmetry_equiv_pos_site_id
 _symmetry_equiv_pos_as_xyz
  1  'x, y, z'
loop_
 _atom_site_type_symbol
 _atom_site_label
 _atom_site_symmetry_multiplicity
 _atom_site_fract_x
 _atom_site_fract_y
 _atom_site_fract_z
 _atom_site_occupancy
  Co  Co0  1  0.20842000  0.68006000  0.49368000  1.0
  Co  Co1  1  0.29157000  0.31994000  0.99368000  1.0
  Co  Co2  1  0.79157000  0.18004000  0.00632000  1.0
  Co  Co3  1  0.70842000  0.81996000  0.50633000  1.0
  H  H4  1  0.71507000  0.03683000  0.21244000  1.0
  H  H5  1  0.78492000  0.96318000  0.71244000  1.0
  H  H6  1  0.28489000  0.53683000  0.28755000  1.0
  H  H7  1  0.21509000  0.46316000  0.78755000  1.0
  H  H8  1  0.47542000  0.99607000  0.90328000  1.0
  H  H9  1  0.02458000  0.00392000  0.40329000  1.0
  H  H10  1  0.52459000  0.49610000  0.59671000  1.0
  H  H11  1  0.97543000  0.50391000  0.09671000  1.0
  H  H12  1  0.18587000  0.75355000  0.15137000  1.0
  H  H13  1  0.31414000  0.24644000  0.65136000  1.0
  H  H14  1  0.81413000  0.25356000  0.34863000  1.0
  H  H15  1  0.68590000  0.74646000  0.84864000  1.0
  H  H16  1  0.20276000  0.82059000  0.95719000  1.0
  H  H17  1  0.29725000  0.17940000  0.45719000  1.0
  H  H18  1  0.79726000  0.32061000  0.54281000  1.0
  H  H19  1  0.70279000  0.67941000  0.04282000  1.0
  C  C20  1  0.45575000  0.85142000  0.31075000  1.0
  C  C21  1  0.04425000  0.14858000  0.81075000  1.0
  C  C22  1  0.54423000  0.35141000  0.18925000  1.0
  C  C23  1  0.95576000  0.64859000  0.68925000  1.0
  C  C24  1  0.60135000  0.98577000  0.15795000  1.0
  C  C25  1  0.89864000  0.01424000  0.65795000  1.0
  C  C26  1  0.39862000  0.48577000  0.34205000  1.0
  C  C27  1  0.10136000  0.51422000  0.84205000  1.0
  C  C28  1  0.46530000  0.96310000  0.98548000  1.0
  C  C29  1  0.03470000  0.03690000  0.48547000  1.0
  C  C30  1  0.53470000  0.46311000  0.51452000  1.0
  C  C31  1  0.96531000  0.53689000  0.01453000  1.0
  C  C32  1  0.30559000  0.82776000  0.12310000  1.0
  C  C33  1  0.19442000  0.17223000  0.62310000  1.0
  C  C34  1  0.69440000  0.32777000  0.37690000  1.0
  C  C35  1  0.80562000  0.67224000  0.87690000  1.0
  C  C36  1  0.45456000  0.88807000  0.19516000  1.0
  C  C37  1  0.04543000  0.11192000  0.69516000  1.0
  C  C38  1  0.54541000  0.38808000  0.30484000  1.0
  C  C39  1  0.95459000  0.61192000  0.80485000  1.0
  C  C40  1  0.31355000  0.86509000  0.01657000  1.0
  C  C41  1  0.18646000  0.13490000  0.51656000  1.0
  C  C42  1  0.68646000  0.36511000  0.48343000  1.0
  C  C43  1  0.81355000  0.63490000  0.98344000  1.0
  N  N44  1  0.37332000  0.83237000  0.66551000  1.0
  N  N45  1  0.12668000  0.16762000  0.16551000  1.0
  N  N46  1  0.62669000  0.33239000  0.83449000  1.0
  N  N47  1  0.87330000  0.66762000  0.33449000  1.0
  N  N48  1  0.40041000  0.81344000  0.57073000  1.0
  N  N49  1  0.09959000  0.18655000  0.07073000  1.0
  N  N50  1  0.59959000  0.31344000  0.92928000  1.0
  N  N51  1  0.90039000  0.68656000  0.42928000  1.0
  N  N52  1  0.60441000  0.02424000  0.05547000  1.0
  N  N53  1  0.89559000  0.97577000  0.55547000  1.0
  N  N54  1  0.39559000  0.52425000  0.44452000  1.0
  N  N55  1  0.10441000  0.47575000  0.94452000  1.0
  N  N56  1  0.34691000  0.85304000  0.75520000  1.0
  N  N57  1  0.15309000  0.14695000  0.25520000  1.0
  N  N58  1  0.65309000  0.35306000  0.74481000  1.0
  N  N59  1  0.84691000  0.64695000  0.24481000  1.0
  O  O60  1  0.30513000  0.77126000  0.34202000  1.0
  O  O61  1  0.19487000  0.22874000  0.84202000  1.0
  O  O62  1  0.69484000  0.27125000  0.15798000  1.0
  O  O63  1  0.80517000  0.72876000  0.65798000  1.0
  O  O64  1  0.61206000  0.90337000  0.36842000  1.0
  O  O65  1  0.88792000  0.09664000  0.86842000  1.0
  O  O66  1  0.38790000  0.40336000  0.13158000  1.0
  O  O67  1  0.11209000  0.59663000  0.63158000  1.0
