# generated using pymatgen
data_CdH12C16N4(ClO)2
_symmetry_space_group_name_H-M   'P 1'
_cell_length_a   3.74377000
_cell_length_b   14.49745035
_cell_length_c   15.74194029
_cell_angle_alpha   71.87538902
_cell_angle_beta   83.19480170
_cell_angle_gamma   82.59755937
_symmetry_Int_Tables_number   1
_chemical_formula_structural   CdH12C16N4(ClO)2
_chemical_formula_sum   'Cd2 H24 C32 N8 Cl4 O4'
_cell_volume   802.44298048
_cell_formula_units_Z   2
loop_
 _symmetry_equiv_pos_site_id
 _symmetry_equiv_pos_as_xyz
  1  'x, y, z'
loop_
 _atom_site_type_symbol
 _atom_site_label
 _atom_site_symmetry_multiplicity
 _atom_site_fract_x
 _atom_site_fract_y
 _atom_site_fract_z
 _atom_site_occupancy
  Cd  Cd0  1  0.59136000  0.75003000  0.24997000  1.0
  Cd  Cd1  1  0.40864000  0.24997000  0.75003000  1.0
  H  H2  1  0.49514000  0.81598000  0.41996000  1.0
  H  H3  1  0.73079000  0.68407000  0.07999000  1.0
  H  H4  1  0.50486000  0.18402000  0.58004000  1.0
  H  H5  1  0.26921000  0.31593000  0.92001000  1.0
  H  H6  1  0.86294000  0.20899000  0.23946000  1.0
  H  H7  1  0.31145000  0.29101000  0.26039000  1.0
  H  H8  1  0.13705000  0.79101000  0.76054000  1.0
  H  H9  1  0.68854000  0.70899000  0.73962000  1.0
  H  H10  1  0.99797000  0.24632000  0.07453000  1.0
  H  H11  1  0.31845000  0.25373000  0.42534000  1.0
  H  H12  1  0.00204000  0.75368000  0.92547000  1.0
  H  H13  1  0.68155000  0.74627000  0.57466000  1.0
  H  H14  1  0.37288000  0.12340000  0.01151000  1.0
  H  H15  1  0.50694000  0.37672000  0.48842000  1.0
  H  H16  1  0.62714000  0.87660000  0.98848000  1.0
  H  H17  1  0.49306000  0.62328000  0.51158000  1.0
  H  H18  1  0.59425000  0.96246000  0.11270000  1.0
  H  H19  1  0.66920000  0.53759000  0.38724000  1.0
  H  H20  1  0.40575000  0.03754000  0.88730000  1.0
  H  H21  1  0.33080000  0.46241000  0.61276000  1.0
  H  H22  1  0.17810000  0.93258000  0.48446000  1.0
  H  H23  1  0.59507000  0.56746000  0.01543000  1.0
  H  H24  1  0.82190000  0.06742000  0.51554000  1.0
  H  H25  1  0.40493000  0.43254000  0.98457000  1.0
  C  C26  1  0.40254000  0.88668000  0.37483000  1.0
  C  C27  1  0.66370000  0.61337000  0.12512000  1.0
  C  C28  1  0.59746000  0.11332000  0.62517000  1.0
  C  C29  1  0.33628000  0.38663000  0.87489000  1.0
  C  C30  1  0.07579000  0.04365000  0.36491000  1.0
  C  C31  1  0.48415000  0.45638000  0.13498000  1.0
  C  C32  1  0.92421000  0.95635000  0.63509000  1.0
  C  C33  1  0.51585000  0.54362000  0.86502000  1.0
  C  C34  1  0.14791000  0.06539000  0.26844000  1.0
  C  C35  1  0.48166000  0.43463000  0.23145000  1.0
  C  C36  1  0.85209000  0.93461000  0.73156000  1.0
  C  C37  1  0.51834000  0.56537000  0.76855000  1.0
  C  C38  1  0.02195000  0.15607000  0.21060000  1.0
  C  C39  1  0.38861000  0.34393000  0.28928000  1.0
  C  C40  1  0.97805000  0.84393000  0.78940000  1.0
  C  C41  1  0.61139000  0.65607000  0.71072000  1.0
  C  C42  1  0.09936000  0.17622000  0.11888000  1.0
  C  C43  1  0.39405000  0.32383000  0.38100000  1.0
  C  C44  1  0.90064000  0.82378000  0.88112000  1.0
  C  C45  1  0.60595000  0.67617000  0.61900000  1.0
  C  C46  1  0.30724000  0.10651000  0.08367000  1.0
  C  C47  1  0.49674000  0.39358000  0.41625000  1.0
  C  C48  1  0.69276000  0.89349000  0.91633000  1.0
  C  C49  1  0.50326000  0.60642000  0.58375000  1.0
  C  C50  1  0.43072000  0.01635000  0.13950000  1.0
  C  C51  1  0.58633000  0.48369000  0.36042000  1.0
  C  C52  1  0.56928000  0.98365000  0.86049000  1.0
  C  C53  1  0.41368000  0.51631000  0.63958000  1.0
  C  C54  1  0.34942000  0.99377000  0.23276000  1.0
  C  C55  1  0.57602000  0.50625000  0.26715000  1.0
  C  C56  1  0.65057000  0.00623000  0.76724000  1.0
  C  C57  1  0.42398000  0.49375000  0.73285000  1.0
  N  N58  1  0.46826000  0.90259000  0.28849000  1.0
  N  N59  1  0.65929000  0.59745000  0.21144000  1.0
  N  N60  1  0.53174000  0.09741000  0.71150000  1.0
  N  N61  1  0.34071000  0.40255000  0.78856000  1.0
  N  N62  1  0.22177000  0.95234000  0.41383000  1.0
  N  N63  1  0.58770000  0.54769000  0.08608000  1.0
  N  N64  1  0.77823000  0.04766000  0.58617000  1.0
  N  N65  1  0.41230000  0.45231000  0.91392000  1.0
  Cl  Cl66  1  0.05123000  0.69083000  0.37302000  1.0
  Cl  Cl67  1  0.11509000  0.80927000  0.12692000  1.0
  Cl  Cl68  1  0.94877000  0.30917000  0.62698000  1.0
  Cl  Cl69  1  0.88491000  0.19073000  0.87308000  1.0
  O  O70  1  0.89691000  0.10002000  0.40407000  1.0
  O  O71  1  0.40063000  0.39998000  0.09582000  1.0
  O  O72  1  0.10309000  0.89998000  0.59593000  1.0
  O  O73  1  0.59937000  0.60002000  0.90418000  1.0
