# generated using pymatgen
data_AgH5(C3O2)3
_symmetry_space_group_name_H-M   'P 1'
_cell_length_a   3.81142000
_cell_length_b   7.65037000
_cell_length_c   15.44630000
_cell_angle_alpha   101.46480000
_cell_angle_beta   90.88400000
_cell_angle_gamma   102.89210000
_symmetry_Int_Tables_number   1
_chemical_formula_structural   AgH5(C3O2)3
_chemical_formula_sum   'Ag2 H10 C18 O12'
_cell_volume   429.43828031
_cell_formula_units_Z   2
loop_
 _symmetry_equiv_pos_site_id
 _symmetry_equiv_pos_as_xyz
  1  'x, y, z'
loop_
 _atom_site_type_symbol
 _atom_site_label
 _atom_site_symmetry_multiplicity
 _atom_site_fract_x
 _atom_site_fract_y
 _atom_site_fract_z
 _atom_site_occupancy
  Ag  Ag0  1  0.49643000  0.13675000  0.94995000  1.0
  Ag  Ag1  1  0.50356000  0.86325000  0.05005000  1.0
  H  H2  1  0.27712000  0.48486000  0.56001000  1.0
  H  H3  1  0.72288000  0.51514000  0.43999000  1.0
  H  H4  1  0.06400000  0.29109000  0.66923000  1.0
  H  H5  1  0.93600000  0.70892000  0.33076000  1.0
  H  H6  1  0.04618000  0.95153000  0.73764000  1.0
  H  H7  1  0.95382000  0.04848000  0.26236000  1.0
  H  H8  1  0.25851000  0.52675000  0.90389000  1.0
  H  H9  1  0.74149000  0.47325000  0.09611000  1.0
  H  H10  1  0.37954000  0.09095000  0.55141000  1.0
  H  H11  1  0.62047000  0.90905000  0.44859000  1.0
  C  C12  1  0.83288000  0.38937000  0.82818000  1.0
  C  C13  1  0.16712000  0.61063000  0.17182000  1.0
  C  C14  1  0.79553000  0.79077000  0.86747000  1.0
  C  C15  1  0.20447000  0.20923000  0.13253000  1.0
  C  C16  1  0.31028000  0.84642000  0.57756000  1.0
  C  C17  1  0.68972000  0.15358000  0.42244000  1.0
  C  C18  1  0.17238000  0.73043000  0.64146000  1.0
  C  C19  1  0.82762000  0.26957000  0.35854000  1.0
  C  C20  1  0.17611000  0.54381000  0.62204000  1.0
  C  C21  1  0.82390000  0.45619000  0.37796000  1.0
  C  C22  1  0.05729000  0.43550000  0.68295000  1.0
  C  C23  1  0.94272000  0.56450000  0.31705000  1.0
  C  C24  1  0.93848000  0.51214000  0.76404000  1.0
  C  C25  1  0.06152000  0.48786000  0.23596000  1.0
  C  C26  1  0.92982000  0.69916000  0.78366000  1.0
  C  C27  1  0.07019000  0.30084000  0.21634000  1.0
  C  C28  1  0.04774000  0.80662000  0.72164000  1.0
  C  C29  1  0.95226000  0.19338000  0.27836000  1.0
  O  O30  1  0.03754000  0.42312000  0.90244000  1.0
  O  O31  1  0.96246000  0.57687000  0.09756000  1.0
  O  O32  1  0.56920000  0.25805000  0.81207000  1.0
  O  O33  1  0.43080000  0.74195000  0.18793000  1.0
  O  O34  1  0.59918000  0.69321000  0.91522000  1.0
  O  O35  1  0.40081000  0.30679000  0.08478000  1.0
  O  O36  1  0.88433000  0.96456000  0.88674000  1.0
  O  O37  1  0.11567000  0.03544000  0.11326000  1.0
  O  O38  1  0.26291000  0.01511000  0.59683000  1.0
  O  O39  1  0.73710000  0.98488000  0.40317000  1.0
  O  O40  1  0.46312000  0.78577000  0.51079000  1.0
  O  O41  1  0.53688000  0.21423000  0.48920000  1.0
