# generated using pymatgen
data_Zn2H6C4S(N2O)4
_symmetry_space_group_name_H-M   'P 1'
_cell_length_a   7.79908000
_cell_length_b   9.29719000
_cell_length_c   9.64103000
_cell_angle_alpha   94.36340000
_cell_angle_beta   113.60800000
_cell_angle_gamma   110.82900000
_symmetry_Int_Tables_number   1
_chemical_formula_structural   Zn2H6C4S(N2O)4
_chemical_formula_sum   'Zn4 H12 C8 S2 N16 O8'
_cell_volume   578.88622717
_cell_formula_units_Z   2
loop_
 _symmetry_equiv_pos_site_id
 _symmetry_equiv_pos_as_xyz
  1  'x, y, z'
loop_
 _atom_site_type_symbol
 _atom_site_label
 _atom_site_symmetry_multiplicity
 _atom_site_fract_x
 _atom_site_fract_y
 _atom_site_fract_z
 _atom_site_occupancy
  Zn  Zn0  1  0.67942000  0.00149000  0.69427000  1.0
  Zn  Zn1  1  0.32057000  0.99851000  0.30573000  1.0
  Zn  Zn2  1  0.46715000  0.52476000  0.80980000  1.0
  Zn  Zn3  1  0.53285000  0.47524000  0.19020000  1.0
  H  H4  1  0.05968000  0.24013000  0.39117000  1.0
  H  H5  1  0.94032000  0.75988000  0.60883000  1.0
  H  H6  1  0.22971000  0.43073000  0.46539000  1.0
  H  H7  1  0.77030000  0.56928000  0.53461000  1.0
  H  H8  1  0.89304000  0.11541000  0.05394000  1.0
  H  H9  1  0.10696000  0.88459000  0.94606000  1.0
  H  H10  1  0.12790000  0.24886000  0.19704000  1.0
  H  H11  1  0.87211000  0.75114000  0.80297000  1.0
  H  H12  1  0.74127000  0.33189000  0.85219000  1.0
  H  H13  1  0.25873000  0.66810000  0.14781000  1.0
  H  H14  1  0.01072000  0.24108000  0.62334000  1.0
  H  H15  1  0.98926000  0.75893000  0.37666000  1.0
  C  C16  1  0.36147000  0.28192000  0.52610000  1.0
  C  C17  1  0.63853000  0.71808000  0.47389000  1.0
  C  C18  1  0.61906000  0.29491000  0.73295000  1.0
  C  C19  1  0.38094000  0.70508000  0.26705000  1.0
  C  C20  1  0.09401000  0.22790000  0.97477000  1.0
  C  C21  1  0.90599000  0.77210000  0.02524000  1.0
  C  C22  1  0.07314000  0.25606000  0.74932000  1.0
  C  C23  1  0.92684000  0.74394000  0.25068000  1.0
  S  S24  1  0.33819000  0.78412000  0.75495000  1.0
  S  S25  1  0.66181000  0.21588000  0.24505000  1.0
  N  N26  1  0.55979000  0.16290000  0.63008000  1.0
  N  N27  1  0.44020000  0.83710000  0.36991000  1.0
  N  N28  1  0.39543000  0.15393000  0.49597000  1.0
  N  N29  1  0.60457000  0.84607000  0.50403000  1.0
  N  N30  1  0.50085000  0.37347000  0.67384000  1.0
  N  N31  1  0.49915000  0.62652000  0.32616000  1.0
  N  N32  1  0.21072000  0.31900000  0.42268000  1.0
  N  N33  1  0.78929000  0.68101000  0.57733000  1.0
  N  N34  1  0.96824000  0.16549000  0.81775000  1.0
  N  N35  1  0.03175000  0.83451000  0.18225000  1.0
  N  N36  1  0.25440000  0.36652000  0.85455000  1.0
  N  N37  1  0.74559000  0.63348000  0.14545000  1.0
  N  N38  1  0.27068000  0.34974000  0.00029000  1.0
  N  N39  1  0.72932000  0.65025000  0.99971000  1.0
  N  N40  1  0.04685000  0.17365000  0.08655000  1.0
  N  N41  1  0.95316000  0.82635000  0.91345000  1.0
  O  O42  1  0.56069000  0.90884000  0.82877000  1.0
  O  O43  1  0.43933000  0.09117000  0.17124000  1.0
  O  O44  1  0.33453000  0.63630000  0.66780000  1.0
  O  O45  1  0.66547000  0.36369000  0.33219000  1.0
  O  O46  1  0.27989000  0.74594000  0.87832000  1.0
  O  O47  1  0.72012000  0.25406000  0.12169000  1.0
  O  O48  1  0.20272000  0.83912000  0.63700000  1.0
  O  O49  1  0.79727000  0.16088000  0.36300000  1.0
