# generated using pymatgen
data_FeH2C4O5
_symmetry_space_group_name_H-M   'P 1'
_cell_length_a   6.84521000
_cell_length_b   15.12180000
_cell_length_c   15.12170000
_cell_angle_alpha   117.75900000
_cell_angle_beta   98.68020000
_cell_angle_gamma   98.67820000
_symmetry_Int_Tables_number   1
_chemical_formula_structural   FeH2C4O5
_chemical_formula_sum   'Fe6 H12 C24 O30'
_cell_volume   1324.78120425
_cell_formula_units_Z   6
loop_
 _symmetry_equiv_pos_site_id
 _symmetry_equiv_pos_as_xyz
  1  'x, y, z'
loop_
 _atom_site_type_symbol
 _atom_site_label
 _atom_site_symmetry_multiplicity
 _atom_site_fract_x
 _atom_site_fract_y
 _atom_site_fract_z
 _atom_site_occupancy
  Fe  Fe0  1  0.46283000  0.25743000  0.56762000  1.0
  Fe  Fe1  1  0.20554000  0.31024000  0.74259000  1.0
  Fe  Fe2  1  0.89526000  0.43237000  0.68981000  1.0
  Fe  Fe3  1  0.53717000  0.74257000  0.43237000  1.0
  Fe  Fe4  1  0.79445000  0.68974000  0.25741000  1.0
  Fe  Fe5  1  0.10475000  0.56765000  0.31021000  1.0
  H  H6  1  0.18393000  0.55360000  0.53666000  1.0
  H  H7  1  0.07270000  0.21277000  0.35160000  1.0
  H  H8  1  0.63025000  0.98303000  0.44638000  1.0
  H  H9  1  0.86000000  0.13883000  0.78722000  1.0
  H  H10  1  0.64731000  0.46332000  0.01695000  1.0
  H  H11  1  0.72116000  0.64837000  0.86115000  1.0
  H  H12  1  0.81608000  0.44642000  0.46334000  1.0
  H  H13  1  0.92728000  0.78726000  0.64841000  1.0
  H  H14  1  0.36974000  0.01695000  0.55359000  1.0
  H  H15  1  0.13995000  0.86115000  0.21275000  1.0
  H  H16  1  0.35270000  0.53668000  0.98307000  1.0
  H  H17  1  0.27881000  0.35163000  0.13887000  1.0
  C  C18  1  0.27049000  0.43680000  0.61563000  1.0
  C  C19  1  0.39119000  0.46675000  0.55599000  1.0
  C  C20  1  0.57361000  0.43606000  0.53523000  1.0
  C  C21  1  0.32253000  0.52961000  0.52019000  1.0
  C  C22  1  0.83372000  0.17885000  0.56323000  1.0
  C  C23  1  0.92447000  0.08923000  0.53323000  1.0
  C  C24  1  0.13755000  0.09916000  0.56391000  1.0
  C  C25  1  0.79287000  0.99059000  0.47038000  1.0
  C  C26  1  0.65493000  0.38436000  0.82114000  1.0
  C  C27  1  0.83527000  0.44397000  0.91074000  1.0
  C  C28  1  0.03841000  0.46477000  0.90084000  1.0
  C  C29  1  0.80235000  0.47975000  0.00941000  1.0
  C  C30  1  0.72952000  0.56321000  0.38436000  1.0
  C  C31  1  0.60880000  0.53327000  0.44401000  1.0
  C  C32  1  0.42641000  0.56396000  0.46477000  1.0
  C  C33  1  0.67748000  0.47041000  0.47981000  1.0
  C  C34  1  0.16629000  0.82115000  0.43676000  1.0
  C  C35  1  0.07553000  0.91075000  0.46676000  1.0
  C  C36  1  0.86245000  0.90083000  0.43608000  1.0
  C  C37  1  0.20712000  0.00939000  0.52960000  1.0
  C  C38  1  0.34508000  0.61564000  0.17887000  1.0
  C  C39  1  0.16472000  0.55603000  0.08926000  1.0
  C  C40  1  0.96160000  0.53523000  0.09918000  1.0
  C  C41  1  0.19766000  0.52025000  0.99060000  1.0
  O  O42  1  0.32240000  0.37619000  0.64681000  1.0
  O  O43  1  0.11533000  0.47332000  0.63496000  1.0
  O  O44  1  0.65176000  0.37513000  0.56608000  1.0
  O  O45  1  0.09878000  0.22696000  0.42305000  1.0
  O  O46  1  0.29251000  0.20219000  0.43377000  1.0
  O  O47  1  0.94626000  0.27061000  0.62384000  1.0
  O  O48  1  0.64205000  0.16165000  0.52674000  1.0
  O  O49  1  0.27658000  0.19093000  0.62483000  1.0
  O  O50  1  0.87195000  0.19611000  0.77305000  1.0
  O  O51  1  0.09043000  0.23159000  0.79783000  1.0
  O  O52  1  0.67571000  0.35321000  0.72937000  1.0
  O  O53  1  0.48048000  0.36506000  0.83832000  1.0
  O  O54  1  0.08568000  0.43387000  0.80903000  1.0
  O  O55  1  0.67584000  0.57693000  0.80386000  1.0
  O  O56  1  0.85890000  0.56626000  0.76842000  1.0
  O  O57  1  0.67759000  0.62380000  0.35317000  1.0
  O  O58  1  0.88470000  0.52669000  0.36505000  1.0
  O  O59  1  0.34826000  0.62489000  0.43393000  1.0
  O  O60  1  0.90121000  0.77303000  0.57694000  1.0
  O  O61  1  0.70748000  0.79780000  0.56621000  1.0
  O  O62  1  0.05375000  0.72937000  0.37617000  1.0
  O  O63  1  0.35796000  0.83835000  0.47324000  1.0
  O  O64  1  0.72341000  0.80905000  0.37515000  1.0
  O  O65  1  0.12805000  0.80389000  0.22696000  1.0
  O  O66  1  0.90957000  0.76839000  0.20218000  1.0
  O  O67  1  0.32430000  0.64680000  0.27064000  1.0
  O  O68  1  0.51953000  0.63492000  0.16168000  1.0
  O  O69  1  0.91433000  0.56612000  0.19097000  1.0
  O  O70  1  0.32415000  0.42307000  0.19613000  1.0
  O  O71  1  0.14111000  0.43377000  0.23160000  1.0
