# generated using pymatgen
data_AgH9C14(N2O)2
_symmetry_space_group_name_H-M   'P 1'
_cell_length_a   6.41119000
_cell_length_b   10.67890000
_cell_length_c   18.63550000
_cell_angle_alpha   89.99980000
_cell_angle_beta   87.54490000
_cell_angle_gamma   89.99960000
_symmetry_Int_Tables_number   1
_chemical_formula_structural   AgH9C14(N2O)2
_chemical_formula_sum   'Ag4 H36 C56 N16 O8'
_cell_volume   1274.69826236
_cell_formula_units_Z   4
loop_
 _symmetry_equiv_pos_site_id
 _symmetry_equiv_pos_as_xyz
  1  'x, y, z'
loop_
 _atom_site_type_symbol
 _atom_site_label
 _atom_site_symmetry_multiplicity
 _atom_site_fract_x
 _atom_site_fract_y
 _atom_site_fract_z
 _atom_site_occupancy
  Ag  Ag0  1  0.27138000  0.28423000  0.39383000  1.0
  Ag  Ag1  1  0.22862000  0.78427000  0.10617000  1.0
  Ag  Ag2  1  0.72861000  0.71574000  0.60617000  1.0
  Ag  Ag3  1  0.77138000  0.21577000  0.89383000  1.0
  H  H4  1  0.84608000  0.11269000  0.18373000  1.0
  H  H5  1  0.65397000  0.61268000  0.31627000  1.0
  H  H6  1  0.15397000  0.88732000  0.81627000  1.0
  H  H7  1  0.34606000  0.38729000  0.68373000  1.0
  H  H8  1  0.15444000  0.12618000  0.26307000  1.0
  H  H9  1  0.34561000  0.62621000  0.23692000  1.0
  H  H10  1  0.84562000  0.87380000  0.73693000  1.0
  H  H11  1  0.65441000  0.37381000  0.76308000  1.0
  H  H12  1  0.08305000  0.73171000  0.31007000  1.0
  H  H13  1  0.41691000  0.23173000  0.18993000  1.0
  H  H14  1  0.91690000  0.26827000  0.68993000  1.0
  H  H15  1  0.58303000  0.76828000  0.81007000  1.0
  H  H16  1  0.78506000  0.72290000  0.23072000  1.0
  H  H17  1  0.71490000  0.22289000  0.26928000  1.0
  H  H18  1  0.21488000  0.27712000  0.76929000  1.0
  H  H19  1  0.28504000  0.77708000  0.73071000  1.0
  H  H20  1  0.71742000  0.85062000  0.42282000  1.0
  H  H21  1  0.78255000  0.35066000  0.07720000  1.0
  H  H22  1  0.28256000  0.14935000  0.57720000  1.0
  H  H23  1  0.21740000  0.64937000  0.92281000  1.0
  H  H24  1  0.41511000  0.74883000  0.34011000  1.0
  H  H25  1  0.08487000  0.24887000  0.15991000  1.0
  H  H26  1  0.58487000  0.25114000  0.65991000  1.0
  H  H27  1  0.91509000  0.75115000  0.84010000  1.0
  H  H28  1  0.58748000  0.41922000  0.49007000  1.0
  H  H29  1  0.91255000  0.91927000  0.00992000  1.0
  H  H30  1  0.41255000  0.58075000  0.50993000  1.0
  H  H31  1  0.08751000  0.08076000  0.99007000  1.0
  H  H32  1  0.92328000  0.36963000  0.54818000  1.0
  H  H33  1  0.57677000  0.86968000  0.95181000  1.0
  H  H34  1  0.07675000  0.63034000  0.45182000  1.0
  H  H35  1  0.42330000  0.13036000  0.04817000  1.0
  H  H36  1  0.91710000  0.01522000  0.45452000  1.0
  H  H37  1  0.58291000  0.51527000  0.04547000  1.0
  H  H38  1  0.08290000  0.98475000  0.54548000  1.0
  H  H39  1  0.41707000  0.48479000  0.95453000  1.0
  C  C40  1  0.79394000  0.91861000  0.20399000  1.0
  C  C41  1  0.70606000  0.41860000  0.29601000  1.0
  C  C42  1  0.20605000  0.08140000  0.79601000  1.0
  C  C43  1  0.29393000  0.58137000  0.70399000  1.0
  C  C44  1  0.90215000  0.03105000  0.21206000  1.0
  C  C45  1  0.59788000  0.53105000  0.28794000  1.0
  C  C46  1  0.09788000  0.96895000  0.78795000  1.0
  C  C47  1  0.40213000  0.46894000  0.71206000  1.0
  C  C48  1  0.07308000  0.03829000  0.25521000  1.0
  C  C49  1  0.42696000  0.53830000  0.24479000  1.0
  C  C50  1  0.92696000  0.96170000  0.74479000  1.0
  C  C51  1  0.57305000  0.46169000  0.75521000  1.0
  C  C52  1  0.13864000  0.93065000  0.29071000  1.0
  C  C53  1  0.36137000  0.43067000  0.20929000  1.0
  C  C54  1  0.86136000  0.06934000  0.70929000  1.0
  C  C55  1  0.63862000  0.56934000  0.79071000  1.0
  C  C56  1  0.03656000  0.81605000  0.28191000  1.0
  C  C57  1  0.46340000  0.31606000  0.21809000  1.0
  C  C58  1  0.96340000  0.18395000  0.71809000  1.0
  C  C59  1  0.53655000  0.68394000  0.78191000  1.0
  C  C60  1  0.86621000  0.81101000  0.23806000  1.0
  C  C61  1  0.63377000  0.31101000  0.26194000  1.0
  C  C62  1  0.13375000  0.18900000  0.76195000  1.0
  C  C63  1  0.36619000  0.68898000  0.73805000  1.0
  C  C64  1  0.59948000  0.91705000  0.16120000  1.0
  C  C65  1  0.90052000  0.41702000  0.33880000  1.0
  C  C66  1  0.40052000  0.08298000  0.83881000  1.0
  C  C67  1  0.09947000  0.58295000  0.66120000  1.0
  C  C68  1  0.54065000  0.02803000  0.39886000  1.0
  C  C69  1  0.95936000  0.52807000  0.10113000  1.0
  C  C70  1  0.45935000  0.97194000  0.60114000  1.0
  C  C71  1  0.04063000  0.47196000  0.89886000  1.0
  C  C72  1  0.59030000  0.89814000  0.39740000  1.0
  C  C73  1  0.90970000  0.39818000  0.10261000  1.0
  C  C74  1  0.40968000  0.10184000  0.60261000  1.0
  C  C75  1  0.09029000  0.60185000  0.89740000  1.0
  C  C76  1  0.43973000  0.84465000  0.35654000  1.0
  C  C77  1  0.06025000  0.34470000  0.14347000  1.0
  C  C78  1  0.56026000  0.15533000  0.64348000  1.0
  C  C79  1  0.93972000  0.65534000  0.85653000  1.0
  C  C80  1  0.64544000  0.12771000  0.43678000  1.0
  C  C81  1  0.85458000  0.62775000  0.06321000  1.0
  C  C82  1  0.35456000  0.87226000  0.56322000  1.0
  C  C83  1  0.14543000  0.37228000  0.93678000  1.0
  C  C84  1  0.65846000  0.32707000  0.48400000  1.0
  C  C85  1  0.84155000  0.82711000  0.01599000  1.0
  C  C86  1  0.34154000  0.67291000  0.51600000  1.0
  C  C87  1  0.15848000  0.17293000  0.98400000  1.0
  C  C88  1  0.84709000  0.30016000  0.51504000  1.0
  C  C89  1  0.65295000  0.80021000  0.98495000  1.0
  C  C90  1  0.15293000  0.69981000  0.48497000  1.0
  C  C91  1  0.34709000  0.19984000  0.01504000  1.0
  C  C92  1  0.84134000  0.10513000  0.46520000  1.0
  C  C93  1  0.65869000  0.60518000  0.03479000  1.0
  C  C94  1  0.15867000  0.89484000  0.53480000  1.0
  C  C95  1  0.34132000  0.39487000  0.96520000  1.0
  N  N96  1  0.31147000  0.93931000  0.33549000  1.0
  N  N97  1  0.18854000  0.43934000  0.16451000  1.0
  N  N98  1  0.68853000  0.06067000  0.66452000  1.0
  N  N99  1  0.81145000  0.56068000  0.83548000  1.0
  N  N100  1  0.37133000  0.05159000  0.36085000  1.0
  N  N101  1  0.12870000  0.55162000  0.13914000  1.0
  N  N102  1  0.62869000  0.94838000  0.63915000  1.0
  N  N103  1  0.87131000  0.44840000  0.86085000  1.0
  N  N104  1  0.55559000  0.24206000  0.44571000  1.0
  N  N105  1  0.94443000  0.74211000  0.05429000  1.0
  N  N106  1  0.44443000  0.75790000  0.55429000  1.0
  N  N107  1  0.05560000  0.25793000  0.94571000  1.0
  N  N108  1  0.94081000  0.18828000  0.50475000  1.0
  N  N109  1  0.55922000  0.68832000  0.99524000  1.0
  N  N110  1  0.05921000  0.81169000  0.49525000  1.0
  N  N111  1  0.44080000  0.31173000  0.00475000  1.0
  O  O112  1  0.54399000  0.01435000  0.12965000  1.0
  O  O113  1  0.95604000  0.51432000  0.37034000  1.0
  O  O114  1  0.45606000  0.98568000  0.87034000  1.0
  O  O115  1  0.04395000  0.48564000  0.62965000  1.0
  O  O116  1  0.50349000  0.81035000  0.16203000  1.0
  O  O117  1  0.99649000  0.31032000  0.33798000  1.0
  O  O118  1  0.49648000  0.18969000  0.83798000  1.0
  O  O119  1  0.00348000  0.68964000  0.66202000  1.0
