# generated using pymatgen
data_AlH7C14S2N2O11
_symmetry_space_group_name_H-M   'P 1'
_cell_length_a   6.63218000
_cell_length_b   22.70800000
_cell_length_c   26.42040000
_cell_angle_alpha   79.33200000
_cell_angle_beta   89.99970000
_cell_angle_gamma   89.99870000
_symmetry_Int_Tables_number   1
_chemical_formula_structural   AlH7C14S2N2O11
_chemical_formula_sum   'Al4 H28 C56 S8 N8 O44'
_cell_volume   3910.23407005
_cell_formula_units_Z   4
loop_
 _symmetry_equiv_pos_site_id
 _symmetry_equiv_pos_as_xyz
  1  'x, y, z'
loop_
 _atom_site_type_symbol
 _atom_site_label
 _atom_site_symmetry_multiplicity
 _atom_site_fract_x
 _atom_site_fract_y
 _atom_site_fract_z
 _atom_site_occupancy
  Al  Al0  1  0.23966000  0.75036000  0.74921000  1.0
  Al  Al1  1  0.79087000  0.25058000  0.24952000  1.0
  Al  Al2  1  0.73966000  0.74964000  0.75079000  1.0
  Al  Al3  1  0.29087000  0.24942000  0.25048000  1.0
  H  H4  1  0.31713000  0.95055000  0.53890000  1.0
  H  H5  1  0.69125000  0.04993000  0.46130000  1.0
  H  H6  1  0.81713000  0.54945000  0.96110000  1.0
  H  H7  1  0.19125000  0.45007000  0.03870000  1.0
  H  H8  1  0.33634000  0.02865000  0.45881000  1.0
  H  H9  1  0.67176000  0.97163000  0.54132000  1.0
  H  H10  1  0.83634000  0.47135000  0.04119000  1.0
  H  H11  1  0.17177000  0.52837000  0.95868000  1.0
  H  H12  1  0.46837000  0.23299000  0.01669000  1.0
  H  H13  1  0.51359000  0.78748000  0.91797000  1.0
  H  H14  1  0.96835000  0.26700000  0.48332000  1.0
  H  H15  1  0.01357000  0.71253000  0.58202000  1.0
  H  H16  1  0.37230000  0.04822000  0.97770000  1.0
  H  H17  1  0.36232000  0.94305000  0.02005000  1.0
  H  H18  1  0.87230000  0.45177000  0.52230000  1.0
  H  H19  1  0.86232000  0.55695000  0.47995000  1.0
  H  H20  1  0.77075000  0.03595000  0.11426000  1.0
  H  H21  1  0.77172000  0.97402000  0.88166000  1.0
  H  H22  1  0.27074000  0.46406000  0.38574000  1.0
  H  H23  1  0.27173000  0.52598000  0.61834000  1.0
  H  H24  1  0.79329000  0.10521000  0.17757000  1.0
  H  H25  1  0.77697000  0.90551000  0.81760000  1.0
  H  H26  1  0.29328000  0.39480000  0.32243000  1.0
  H  H27  1  0.27699000  0.59450000  0.68240000  1.0
  H  H28  1  0.49244000  0.82260000  0.71964000  1.0
  H  H29  1  0.54349000  0.17681000  0.27937000  1.0
  H  H30  1  0.99245000  0.67740000  0.78036000  1.0
  H  H31  1  0.04348000  0.32318000  0.22063000  1.0
  C  C32  1  0.49013000  0.69168000  0.68174000  1.0
  C  C33  1  0.54051000  0.30767000  0.31884000  1.0
  C  C34  1  0.99008000  0.80833000  0.81826000  1.0
  C  C35  1  0.04052000  0.19233000  0.18117000  1.0
  C  C36  1  0.48854000  0.66926000  0.82359000  1.0
  C  C37  1  0.53951000  0.33055000  0.17633000  1.0
  C  C38  1  0.98851000  0.83073000  0.67641000  1.0
  C  C39  1  0.03949000  0.16944000  0.32367000  1.0
  C  C40  1  0.19195000  0.01592000  0.47725000  1.0
  C  C41  1  0.81629000  0.98448000  0.52299000  1.0
  C  C42  1  0.69196000  0.48407000  0.02274000  1.0
  C  C43  1  0.31631000  0.51551000  0.97701000  1.0
  C  C44  1  0.01493000  0.04404000  0.45499000  1.0
  C  C45  1  0.99345000  0.95648000  0.54528000  1.0
  C  C46  1  0.51495000  0.45595000  0.04500000  1.0
  C  C47  1  0.49345000  0.54351000  0.95472000  1.0
  C  C48  1  0.82693000  0.02773000  0.47854000  1.0
  C  C49  1  0.18142000  0.97275000  0.52169000  1.0
  C  C50  1  0.32694000  0.47226000  0.02145000  1.0
  C  C51  1  0.68143000  0.52725000  0.97831000  1.0
  C  C52  1  0.02561000  0.08767000  0.40939000  1.0
  C  C53  1  0.98561000  0.91293000  0.59097000  1.0
  C  C54  1  0.52563000  0.41232000  0.09062000  1.0
  C  C55  1  0.48562000  0.58707000  0.90903000  1.0
  C  C56  1  0.98525000  0.87568000  0.63057000  1.0
  C  C57  1  0.03427000  0.12492000  0.36985000  1.0
  C  C58  1  0.48526000  0.62432000  0.86942000  1.0
  C  C59  1  0.53430000  0.37507000  0.13014000  1.0
  C  C60  1  0.16654000  0.16505000  0.09532000  1.0
  C  C61  1  0.11130000  0.83245000  0.90491000  1.0
  C  C62  1  0.66652000  0.33496000  0.40468000  1.0
  C  C63  1  0.61130000  0.66755000  0.59508000  1.0
  C  C64  1  0.16025000  0.12413000  0.06104000  1.0
  C  C65  1  0.12331000  0.87401000  0.93843000  1.0
  C  C66  1  0.66024000  0.37586000  0.43896000  1.0
  C  C67  1  0.62331000  0.62599000  0.56157000  1.0
  C  C68  1  0.01290000  0.07847000  0.06741000  1.0
  C  C69  1  0.99458000  0.92428000  0.93077000  1.0
  C  C70  1  0.51289000  0.42153000  0.43259000  1.0
  C  C71  1  0.49459000  0.57573000  0.56923000  1.0
  C  C72  1  0.88307000  0.07147000  0.10984000  1.0
  C  C73  1  0.87013000  0.93500000  0.88703000  1.0
  C  C74  1  0.38305000  0.42853000  0.39016000  1.0
  C  C75  1  0.37015000  0.56501000  0.61297000  1.0
  C  C76  1  0.89565000  0.10969000  0.14485000  1.0
  C  C77  1  0.87194000  0.89684000  0.85183000  1.0
  C  C78  1  0.39564000  0.39031000  0.35515000  1.0
  C  C79  1  0.37196000  0.60316000  0.64817000  1.0
  C  C80  1  0.03606000  0.15635000  0.13825000  1.0
  C  C81  1  0.99123000  0.84511000  0.86047000  1.0
  C  C82  1  0.53605000  0.34365000  0.36175000  1.0
  C  C83  1  0.49124000  0.65489000  0.63954000  1.0
  C  C84  1  0.96906000  0.96499000  0.96759000  1.0
  C  C85  1  0.97677000  0.03793000  0.03080000  1.0
  C  C86  1  0.46907000  0.53502000  0.53241000  1.0
  C  C87  1  0.47676000  0.46207000  0.46920000  1.0
  S  S88  1  0.30922000  0.23514000  0.08572000  1.0
  S  S89  1  0.21361000  0.75756000  0.92331000  1.0
  S  S90  1  0.80920000  0.26486000  0.41428000  1.0
  S  S91  1  0.71359000  0.74244000  0.57669000  1.0
  S  S92  1  0.35120000  0.12549000  0.01213000  1.0
  S  S93  1  0.33156000  0.86752000  0.98401000  1.0
  S  S94  1  0.85119000  0.37451000  0.48787000  1.0
  S  S95  1  0.83155000  0.63248000  0.51599000  1.0
  N  N96  1  0.95111000  0.97922000  0.05050000  1.0
  N  N97  1  0.93412000  0.02344000  0.94855000  1.0
  N  N98  1  0.45111000  0.52078000  0.44950000  1.0
  N  N99  1  0.43411000  0.47656000  0.55145000  1.0
  N  N100  1  0.94357000  0.94143000  0.01811000  1.0
  N  N101  1  0.93410000  0.06122000  0.98100000  1.0
  N  N102  1  0.44358000  0.55857000  0.48190000  1.0
  N  N103  1  0.43409000  0.43879000  0.51901000  1.0
  O  O104  1  0.66117000  0.68775000  0.80634000  1.0
  O  O105  1  0.37007000  0.31262000  0.19606000  1.0
  O  O106  1  0.16117000  0.81225000  0.69366000  1.0
  O  O107  1  0.87005000  0.18737000  0.30394000  1.0
  O  O108  1  0.31721000  0.70394000  0.69727000  1.0
  O  O109  1  0.71229000  0.29786000  0.30106000  1.0
  O  O110  1  0.81719000  0.79606000  0.80273000  1.0
  O  O111  1  0.21230000  0.20213000  0.19895000  1.0
  O  O112  1  0.31960000  0.68689000  0.80334000  1.0
  O  O113  1  0.71194000  0.31312000  0.19437000  1.0
  O  O114  1  0.81960000  0.81311000  0.69666000  1.0
  O  O115  1  0.21192000  0.18688000  0.30564000  1.0
  O  O116  1  0.16060000  0.79862000  0.79983000  1.0
  O  O117  1  0.86938000  0.20436000  0.19780000  1.0
  O  O118  1  0.66062000  0.70137000  0.70017000  1.0
  O  O119  1  0.36939000  0.29563000  0.30221000  1.0
  O  O120  1  0.48999000  0.78677000  0.74625000  1.0
  O  O121  1  0.54146000  0.21325000  0.25345000  1.0
  O  O122  1  0.98999000  0.71323000  0.75375000  1.0
  O  O123  1  0.04146000  0.28674000  0.24655000  1.0
  O  O124  1  0.16645000  0.27862000  0.09635000  1.0
  O  O125  1  0.50264000  0.22614000  0.11014000  1.0
  O  O126  1  0.34046000  0.25152000  0.02456000  1.0
  O  O127  1  0.22647000  0.74612000  0.97857000  1.0
  O  O128  1  0.09845000  0.71895000  0.89733000  1.0
  O  O129  1  0.43330000  0.76190000  0.89885000  1.0
  O  O130  1  0.66644000  0.22138000  0.40365000  1.0
  O  O131  1  0.00263000  0.27385000  0.38987000  1.0
  O  O132  1  0.84041000  0.24848000  0.47544000  1.0
  O  O133  1  0.72643000  0.75389000  0.52143000  1.0
  O  O134  1  0.59842000  0.78106000  0.60267000  1.0
  O  O135  1  0.93328000  0.73810000  0.60115000  1.0
  O  O136  1  0.28186000  0.15142000  0.96144000  1.0
  O  O137  1  0.53708000  0.14505000  0.03198000  1.0
  O  O138  1  0.37882000  0.05370000  0.01369000  1.0
  O  O139  1  0.28286000  0.84091000  0.03590000  1.0
  O  O140  1  0.50321000  0.84897000  0.95714000  1.0
  O  O141  1  0.37438000  0.93854000  0.98391000  1.0
  O  O142  1  0.78188000  0.34858000  0.53856000  1.0
  O  O143  1  0.03707000  0.35495000  0.46802000  1.0
  O  O144  1  0.87879000  0.44630000  0.48631000  1.0
  O  O145  1  0.78284000  0.65909000  0.46411000  1.0
  O  O146  1  0.00320000  0.65103000  0.54286000  1.0
  O  O147  1  0.87439000  0.56147000  0.51609000  1.0
