# generated using pymatgen
data_CuH10C12N10O
_symmetry_space_group_name_H-M   'P 1'
_cell_length_a   8.02579000
_cell_length_b   8.67186000
_cell_length_c   12.56740000
_cell_angle_alpha   90.00710000
_cell_angle_beta   90.00080000
_cell_angle_gamma   62.44300000
_symmetry_Int_Tables_number   1
_chemical_formula_structural   CuH10C12N10O
_chemical_formula_sum   'Cu2 H20 C24 N20 O2'
_cell_volume   775.44182640
_cell_formula_units_Z   2
loop_
 _symmetry_equiv_pos_site_id
 _symmetry_equiv_pos_as_xyz
  1  'x, y, z'
loop_
 _atom_site_type_symbol
 _atom_site_label
 _atom_site_symmetry_multiplicity
 _atom_site_fract_x
 _atom_site_fract_y
 _atom_site_fract_z
 _atom_site_occupancy
  Cu  Cu0  1  0.23972000  0.00002000  0.00002000  1.0
  Cu  Cu1  1  0.73973000  0.00001000  0.49997000  1.0
  H  H2  1  0.55578000  0.04319000  0.06109000  1.0
  H  H3  1  0.59901000  0.95672000  0.93884000  1.0
  H  H4  1  0.09898000  0.95677000  0.56117000  1.0
  H  H5  1  0.05575000  0.04318000  0.43887000  1.0
  H  H6  1  0.82825000  0.37860000  0.44356000  1.0
  H  H7  1  0.20690000  0.62160000  0.55630000  1.0
  H  H8  1  0.70689000  0.62159000  0.94367000  1.0
  H  H9  1  0.32816000  0.37866000  0.05650000  1.0
  H  H10  1  0.69632000  0.67187000  0.52844000  1.0
  H  H11  1  0.36803000  0.32839000  0.47134000  1.0
  H  H12  1  0.86800000  0.32839000  0.02865000  1.0
  H  H13  1  0.19621000  0.67190000  0.97158000  1.0
  H  H14  1  0.02184000  0.81868000  0.33847000  1.0
  H  H15  1  0.84012000  0.18120000  0.66158000  1.0
  H  H16  1  0.34011000  0.18119000  0.83844000  1.0
  H  H17  1  0.52182000  0.81870000  0.16149000  1.0
  H  H18  1  0.16538000  0.53311000  0.24541000  1.0
  H  H19  1  0.69827000  0.46662000  0.75473000  1.0
  H  H20  1  0.19830000  0.46665000  0.74529000  1.0
  H  H21  1  0.66540000  0.53314000  0.25458000  1.0
  C  C22  1  0.07728000  0.26995000  0.27758000  1.0
  C  C23  1  0.34708000  0.73001000  0.72243000  1.0
  C  C24  1  0.84710000  0.73002000  0.77756000  1.0
  C  C25  1  0.57729000  0.26996000  0.22243000  1.0
  C  C26  1  0.01016000  0.43130000  0.33785000  1.0
  C  C27  1  0.44133000  0.56869000  0.66213000  1.0
  C  C28  1  0.94132000  0.56869000  0.83787000  1.0
  C  C29  1  0.51013000  0.43134000  0.16214000  1.0
  C  C30  1  0.87829000  0.47094000  0.42016000  1.0
  C  C31  1  0.34922000  0.52919000  0.57970000  1.0
  C  C32  1  0.84921000  0.52915000  0.92030000  1.0
  C  C33  1  0.37822000  0.47100000  0.07986000  1.0
  C  C34  1  0.80271000  0.63494000  0.46648000  1.0
  C  C35  1  0.43756000  0.36519000  0.53333000  1.0
  C  C36  1  0.93751000  0.36518000  0.96666000  1.0
  C  C37  1  0.30259000  0.63499000  0.03353000  1.0
  C  C38  1  0.98369000  0.71762000  0.35998000  1.0
  C  C39  1  0.70101000  0.28234000  0.64001000  1.0
  C  C40  1  0.20097000  0.28235000  0.86001000  1.0
  C  C41  1  0.48363000  0.71765000  0.14000000  1.0
  C  C42  1  0.06421000  0.55784000  0.30893000  1.0
  C  C43  1  0.62183000  0.44209000  0.69112000  1.0
  C  C44  1  0.12184000  0.44207000  0.80888000  1.0
  C  C45  1  0.56420000  0.55789000  0.19106000  1.0
  N  N46  1  0.12553000  0.25765000  0.17434000  1.0
  N  N47  1  0.38306000  0.74231000  0.82567000  1.0
  N  N48  1  0.88308000  0.74235000  0.67433000  1.0
  N  N49  1  0.62558000  0.25762000  0.32567000  1.0
  N  N50  1  0.15923000  0.09710000  0.14734000  1.0
  N  N51  1  0.25626000  0.90286000  0.85269000  1.0
  N  N52  1  0.75629000  0.90290000  0.64734000  1.0
  N  N53  1  0.65932000  0.09705000  0.35263000  1.0
  N  N54  1  0.13620000  0.01195000  0.23022000  1.0
  N  N55  1  0.14811000  0.98802000  0.76981000  1.0
  N  N56  1  0.64806000  0.98803000  0.73022000  1.0
  N  N57  1  0.63618000  0.01194000  0.26974000  1.0
  N  N58  1  0.08431000  0.11948000  0.31293000  1.0
  N  N59  1  0.20371000  0.88053000  0.68709000  1.0
  N  N60  1  0.70371000  0.88054000  0.81292000  1.0
  N  N61  1  0.58433000  0.11948000  0.18706000  1.0
  N  N62  1  0.85356000  0.75629000  0.43696000  1.0
  N  N63  1  0.60965000  0.24376000  0.56294000  1.0
  N  N64  1  0.10963000  0.24376000  0.93708000  1.0
  N  N65  1  0.35350000  0.75632000  0.06302000  1.0
  O  O66  1  0.51035000  0.99967000  0.00004000  1.0
  O  O67  1  0.01032000  0.99979000  0.49998000  1.0
