# generated using pymatgen
data_ZnH20(C2O)12
_symmetry_space_group_name_H-M   'P 1'
_cell_length_a   7.16122000
_cell_length_b   8.10303000
_cell_length_c   19.46100000
_cell_angle_alpha   85.22120000
_cell_angle_beta   88.18380000
_cell_angle_gamma   88.96940000
_symmetry_Int_Tables_number   1
_chemical_formula_structural   ZnH20(C2O)12
_chemical_formula_sum   'Zn2 H40 C48 O24'
_cell_volume   1124.65026287
_cell_formula_units_Z   2
loop_
 _symmetry_equiv_pos_site_id
 _symmetry_equiv_pos_as_xyz
  1  'x, y, z'
loop_
 _atom_site_type_symbol
 _atom_site_label
 _atom_site_symmetry_multiplicity
 _atom_site_fract_x
 _atom_site_fract_y
 _atom_site_fract_z
 _atom_site_occupancy
  Zn  Zn0  1  0.42520000  0.33493000  0.45198000  1.0
  Zn  Zn1  1  0.57481000  0.66507000  0.54802000  1.0
  H  H2  1  0.13014000  0.76684000  0.36687000  1.0
  H  H3  1  0.86986000  0.23316000  0.63313000  1.0
  H  H4  1  0.17014000  0.79193000  0.14396000  1.0
  H  H5  1  0.82986000  0.20808000  0.85604000  1.0
  H  H6  1  0.35537000  0.19812000  0.25390000  1.0
  H  H7  1  0.64463000  0.80188000  0.74611000  1.0
  H  H8  1  0.42417000  0.90977000  0.07706000  1.0
  H  H9  1  0.57581000  0.09022000  0.92294000  1.0
  H  H10  1  0.43756000  0.11657000  0.03827000  1.0
  H  H11  1  0.56243000  0.88342000  0.96173000  1.0
  H  H12  1  0.26551000  0.80816000  0.97819000  1.0
  H  H13  1  0.73448000  0.19184000  0.02181000  1.0
  H  H14  1  0.02635000  0.21004000  0.08495000  1.0
  H  H15  1  0.97364000  0.78997000  0.91505000  1.0
  H  H16  1  0.55046000  0.57323000  0.27186000  1.0
  H  H17  1  0.44956000  0.42677000  0.72814000  1.0
  H  H18  1  0.76261000  0.01036000  0.15467000  1.0
  H  H19  1  0.23741000  0.98963000  0.84533000  1.0
  H  H20  1  0.74238000  0.97512000  0.37821000  1.0
  H  H21  1  0.25761000  0.02488000  0.62179000  1.0
  H  H22  1  0.41229000  0.55949000  0.17122000  1.0
  H  H23  1  0.58770000  0.44053000  0.82877000  1.0
  H  H24  1  0.64271000  0.47115000  0.16849000  1.0
  H  H25  1  0.35728000  0.52885000  0.83151000  1.0
  H  H26  1  0.23218000  0.47103000  0.08440000  1.0
  H  H27  1  0.76782000  0.52898000  0.91560000  1.0
  H  H28  1  0.80901000  0.58671000  0.03832000  1.0
  H  H29  1  0.19097000  0.41330000  0.96167000  1.0
  H  H30  1  0.95192000  0.40969000  0.31392000  1.0
  H  H31  1  0.04808000  0.59031000  0.68609000  1.0
  H  H32  1  0.94281000  0.36564000  0.20542000  1.0
  H  H33  1  0.05720000  0.63437000  0.79458000  1.0
  H  H34  1  0.10555000  0.48697000  0.40332000  1.0
  H  H35  1  0.89446000  0.51304000  0.59668000  1.0
  H  H36  1  0.03208000  0.38963000  0.47138000  1.0
  H  H37  1  0.96792000  0.61034000  0.52861000  1.0
  H  H38  1  0.76078000  0.21971000  0.41496000  1.0
  H  H39  1  0.23922000  0.78029000  0.58504000  1.0
  H  H40  1  0.73457000  0.15744000  0.49516000  1.0
  H  H41  1  0.26543000  0.84256000  0.50484000  1.0
  C  C42  1  0.24493000  0.98987000  0.31685000  1.0
  C  C43  1  0.75508000  0.01013000  0.68315000  1.0
  C  C44  1  0.16854000  0.83231000  0.31757000  1.0
  C  C45  1  0.83146000  0.16768000  0.68244000  1.0
  C  C46  1  0.14407000  0.76240000  0.25522000  1.0
  C  C47  1  0.85594000  0.23759000  0.74479000  1.0
  C  C48  1  0.19357000  0.84884000  0.19158000  1.0
  C  C49  1  0.80643000  0.15114000  0.80842000  1.0
  C  C50  1  0.26978000  0.00617000  0.19167000  1.0
  C  C51  1  0.73022000  0.99382000  0.80833000  1.0
  C  C52  1  0.29350000  0.07622000  0.25417000  1.0
  C  C53  1  0.70650000  0.92378000  0.74583000  1.0
  C  C54  1  0.06358000  0.59648000  0.25516000  1.0
  C  C55  1  0.93643000  0.40352000  0.74484000  1.0
  C  C56  1  0.28213000  0.06490000  0.38341000  1.0
  C  C57  1  0.71787000  0.93510000  0.61659000  1.0
  C  C58  1  0.34859000  0.02934000  0.07015000  1.0
  C  C59  1  0.65140000  0.97065000  0.92985000  1.0
  C  C60  1  0.16641000  0.01215000  0.03533000  1.0
  C  C61  1  0.83358000  0.98785000  0.96467000  1.0
  C  C62  1  0.14962000  0.89332000  0.98777000  1.0
  C  C63  1  0.85039000  0.10669000  0.01223000  1.0
  C  C64  1  0.01529000  0.11861000  0.04738000  1.0
  C  C65  1  0.98470000  0.88140000  0.95262000  1.0
  C  C66  1  0.58980000  0.67134000  0.39702000  1.0
  C  C67  1  0.41020000  0.32866000  0.60297000  1.0
  C  C68  1  0.64289000  0.76644000  0.33014000  1.0
  C  C69  1  0.35710000  0.23356000  0.66986000  1.0
  C  C70  1  0.61134000  0.69577000  0.26839000  1.0
  C  C71  1  0.38867000  0.30422000  0.73161000  1.0
  C  C72  1  0.65553000  0.78380000  0.20545000  1.0
  C  C73  1  0.34448000  0.21620000  0.79455000  1.0
  C  C74  1  0.72939000  0.94277000  0.20406000  1.0
  C  C75  1  0.27063000  0.05723000  0.79594000  1.0
  C  C76  1  0.75894000  0.01239000  0.26606000  1.0
  C  C77  1  0.24107000  0.98761000  0.73394000  1.0
  C  C78  1  0.71783000  0.92372000  0.32954000  1.0
  C  C79  1  0.28218000  0.07628000  0.67046000  1.0
  C  C80  1  0.83561000  0.17986000  0.26504000  1.0
  C  C81  1  0.16440000  0.82014000  0.73496000  1.0
  C  C82  1  0.54766000  0.56359000  0.14276000  1.0
  C  C83  1  0.45234000  0.43642000  0.85724000  1.0
  C  C84  1  0.52314000  0.53080000  0.06898000  1.0
  C  C85  1  0.47684000  0.46920000  0.93101000  1.0
  C  C86  1  0.34923000  0.48304000  0.04713000  1.0
  C  C87  1  0.65075000  0.51697000  0.95286000  1.0
  C  C88  1  0.67391000  0.54796000  0.02143000  1.0
  C  C89  1  0.32607000  0.45205000  0.97856000  1.0
  O  O90  1  0.23227000  0.99138000  0.43991000  1.0
  O  O91  1  0.76772000  0.00863000  0.56009000  1.0
  O  O92  1  0.36636000  0.20499000  0.37477000  1.0
  O  O93  1  0.63364000  0.79503000  0.62523000  1.0
  O  O94  1  0.01615000  0.52436000  0.31663000  1.0
  O  O95  1  0.98386000  0.47564000  0.68337000  1.0
  O  O96  1  0.04091000  0.52798000  0.20056000  1.0
  O  O97  1  0.95910000  0.47202000  0.79944000  1.0
  O  O98  1  0.33091000  0.10252000  0.13467000  1.0
  O  O99  1  0.66909000  0.89748000  0.86533000  1.0
  O  O100  1  0.50383000  0.53706000  0.39305000  1.0
  O  O101  1  0.49617000  0.46294000  0.60695000  1.0
  O  O102  1  0.63443000  0.73571000  0.45142000  1.0
  O  O103  1  0.36556000  0.26429000  0.54858000  1.0
  O  O104  1  0.86040000  0.24840000  0.31958000  1.0
  O  O105  1  0.13961000  0.75159000  0.68042000  1.0
  O  O106  1  0.87575000  0.25272000  0.20331000  1.0
  O  O107  1  0.12427000  0.74727000  0.79669000  1.0
  O  O108  1  0.62737000  0.72597000  0.14275000  1.0
  O  O109  1  0.37264000  0.27403000  0.85725000  1.0
  O  O110  1  0.13883000  0.45182000  0.45090000  1.0
  O  O111  1  0.86116000  0.54817000  0.54910000  1.0
  O  O112  1  0.71460000  0.25245000  0.45991000  1.0
  O  O113  1  0.28539000  0.74755000  0.54009000  1.0
