# generated using pymatgen
data_VCuP2H24C25N3O8
_symmetry_space_group_name_H-M   'P 1'
_cell_length_a   8.97712000
_cell_length_b   11.02750000
_cell_length_c   13.61210000
_cell_angle_alpha   74.90100000
_cell_angle_beta   82.00680000
_cell_angle_gamma   81.34520000
_symmetry_Int_Tables_number   1
_chemical_formula_structural   VCuP2H24C25N3O8
_chemical_formula_sum   'V2 Cu2 P4 H48 C50 N6 O16'
_cell_volume   1279.13889573
_cell_formula_units_Z   2
loop_
 _symmetry_equiv_pos_site_id
 _symmetry_equiv_pos_as_xyz
  1  'x, y, z'
loop_
 _atom_site_type_symbol
 _atom_site_label
 _atom_site_symmetry_multiplicity
 _atom_site_fract_x
 _atom_site_fract_y
 _atom_site_fract_z
 _atom_site_occupancy
  V  V0  1  0.98934000  0.95708000  0.78594000  1.0
  V  V1  1  0.01065000  0.04292000  0.21406000  1.0
  Cu  Cu2  1  0.63114000  0.78479000  0.83609000  1.0
  Cu  Cu3  1  0.36885000  0.21521000  0.16393000  1.0
  P  P4  1  0.29535000  0.79517000  0.72036000  1.0
  P  P5  1  0.70464000  0.20483000  0.27964000  1.0
  P  P6  1  0.16206000  0.11900000  0.37514000  1.0
  P  P7  1  0.83796000  0.88101000  0.62484000  1.0
  H  H8  1  0.55595000  0.06392000  0.71359000  1.0
  H  H9  1  0.44405000  0.93608000  0.28642000  1.0
  H  H10  1  0.34381000  0.23637000  0.73210000  1.0
  H  H11  1  0.65619000  0.76363000  0.26790000  1.0
  H  H12  1  0.16261000  0.20175000  0.89340000  1.0
  H  H13  1  0.83740000  0.79825000  0.10660000  1.0
  H  H14  1  0.20154000  0.00258000  0.02805000  1.0
  H  H15  1  0.79847000  0.99743000  0.97195000  1.0
  H  H16  1  0.26615000  0.82273000  0.13955000  1.0
  H  H17  1  0.73385000  0.17727000  0.86044000  1.0
  H  H18  1  0.58383000  0.47922000  0.17504000  1.0
  H  H19  1  0.41616000  0.52078000  0.82496000  1.0
  H  H20  1  0.77655000  0.38649000  0.09689000  1.0
  H  H21  1  0.22345000  0.61352000  0.90310000  1.0
  H  H22  1  0.97803000  0.28802000  0.98796000  1.0
  H  H23  1  0.02197000  0.71198000  0.01203000  1.0
  H  H24  1  0.02947000  0.40233000  0.80062000  1.0
  H  H25  1  0.97053000  0.59767000  0.19937000  1.0
  H  H26  1  0.88070000  0.61318000  0.73630000  1.0
  H  H27  1  0.11929000  0.38682000  0.26371000  1.0
  H  H28  1  0.20589000  0.77730000  0.28893000  1.0
  H  H29  1  0.79411000  0.22270000  0.71107000  1.0
  H  H30  1  0.09922000  0.70118000  0.46643000  1.0
  H  H31  1  0.90078000  0.29882000  0.53357000  1.0
  H  H32  1  0.37251000  0.34286000  0.48436000  1.0
  H  H33  1  0.62749000  0.65714000  0.51564000  1.0
  H  H34  1  0.47695000  0.41442000  0.30543000  1.0
  H  H35  1  0.52305000  0.58559000  0.69457000  1.0
  H  H36  1  0.14635000  0.37139000  0.61512000  1.0
  H  H37  1  0.85365000  0.62861000  0.38488000  1.0
  H  H38  1  0.05874000  0.52769000  0.61490000  1.0
  H  H39  1  0.94126000  0.47231000  0.38510000  1.0
  H  H40  1  0.24507000  0.48026000  0.65011000  1.0
  H  H41  1  0.75493000  0.51974000  0.34989000  1.0
  H  H42  1  0.39275000  0.91515000  0.43645000  1.0
  H  H43  1  0.60726000  0.08485000  0.56355000  1.0
  H  H44  1  0.23511000  0.83990000  0.49975000  1.0
  H  H45  1  0.76489000  0.16010000  0.50025000  1.0
  H  H46  1  0.28061000  0.10141000  0.52283000  1.0
  H  H47  1  0.71939000  0.89859000  0.47717000  1.0
  H  H48  1  0.11210000  0.02901000  0.55317000  1.0
  H  H49  1  0.88790000  0.97099000  0.44682000  1.0
  H  H50  1  0.46259000  0.92840000  0.60939000  1.0
  H  H51  1  0.53741000  0.07160000  0.39061000  1.0
  H  H52  1  0.48272000  0.77813000  0.58637000  1.0
  H  H53  1  0.51728000  0.22187000  0.41363000  1.0
  H  H54  1  0.09392000  0.73558000  0.66696000  1.0
  H  H55  1  0.90608000  0.26442000  0.33304000  1.0
  C  C56  1  0.47394000  0.05474000  0.78134000  1.0
  C  C57  1  0.52606000  0.94526000  0.21866000  1.0
  C  C58  1  0.35602000  0.14966000  0.79250000  1.0
  C  C59  1  0.64398000  0.85035000  0.20750000  1.0
  C  C60  1  0.25691000  0.13077000  0.88188000  1.0
  C  C61  1  0.74309000  0.86923000  0.11812000  1.0
  C  C62  1  0.27832000  0.01877000  0.95771000  1.0
  C  C63  1  0.72168000  0.98123000  0.04229000  1.0
  C  C64  1  0.39835000  0.92791000  0.94111000  1.0
  C  C65  1  0.60165000  0.07208000  0.05890000  1.0
  C  C66  1  0.43531000  0.80581000  0.01434000  1.0
  C  C67  1  0.56468000  0.19420000  0.98566000  1.0
  C  C68  1  0.36439000  0.76430000  0.11273000  1.0
  C  C69  1  0.63562000  0.23569000  0.88727000  1.0
  C  C70  1  0.41930000  0.64700000  0.17553000  1.0
  C  C71  1  0.58070000  0.35300000  0.82448000  1.0
  C  C72  1  0.54066000  0.57318000  0.13275000  1.0
  C  C73  1  0.45935000  0.42683000  0.86725000  1.0
  C  C74  1  0.60324000  0.61823000  0.03260000  1.0
  C  C75  1  0.39677000  0.38176000  0.96740000  1.0
  C  C76  1  0.72442000  0.55076000  0.97527000  1.0
  C  C77  1  0.27557000  0.44925000  0.02474000  1.0
  C  C78  1  0.80358000  0.43417000  0.01711000  1.0
  C  C79  1  0.19642000  0.56584000  0.98288000  1.0
  C  C80  1  0.91515000  0.37890000  0.95472000  1.0
  C  C81  1  0.08485000  0.62110000  0.04528000  1.0
  C  C82  1  0.94429000  0.44205000  0.85246000  1.0
  C  C83  1  0.05572000  0.55796000  0.14754000  1.0
  C  C84  1  0.86152000  0.55913000  0.81535000  1.0
  C  C85  1  0.13849000  0.44087000  0.18465000  1.0
  C  C86  1  0.35378000  0.60319000  0.28251000  1.0
  C  C87  1  0.64622000  0.39681000  0.71749000  1.0
  C  C88  1  0.24559000  0.68186000  0.33038000  1.0
  C  C89  1  0.75440000  0.31814000  0.66962000  1.0
  C  C90  1  0.18427000  0.63914000  0.43123000  1.0
  C  C91  1  0.81573000  0.36086000  0.56877000  1.0
  C  C92  1  0.22934000  0.51694000  0.48887000  1.0
  C  C93  1  0.77065000  0.48306000  0.51114000  1.0
  C  C94  1  0.33708000  0.43881000  0.44118000  1.0
  C  C95  1  0.66292000  0.56118000  0.55882000  1.0
  C  C96  1  0.39786000  0.48009000  0.34036000  1.0
  C  C97  1  0.60214000  0.51991000  0.65964000  1.0
  C  C98  1  0.16597000  0.47111000  0.59811000  1.0
  C  C99  1  0.83403000  0.52889000  0.40189000  1.0
  C  C100  1  0.30942000  0.90812000  0.50456000  1.0
  C  C101  1  0.69059000  0.09188000  0.49544000  1.0
  C  C102  1  0.21638000  0.03701000  0.50044000  1.0
  C  C103  1  0.78362000  0.96298000  0.49956000  1.0
  C  C104  1  0.39777000  0.85723000  0.59795000  1.0
  C  C105  1  0.60223000  0.14277000  0.40205000  1.0
  N  N106  1  0.49408000  0.94681000  0.85315000  1.0
  N  N107  1  0.50593000  0.05320000  0.14685000  1.0
  N  N108  1  0.55207000  0.73296000  0.97750000  1.0
  N  N109  1  0.44793000  0.26704000  0.02251000  1.0
  N  N110  1  0.75453000  0.61204000  0.87530000  1.0
  N  N111  1  0.24546000  0.38796000  0.12469000  1.0
  O  O112  1  0.40264000  0.72717000  0.79778000  1.0
  O  O113  1  0.59735000  0.27282000  0.20223000  1.0
  O  O114  1  0.19010000  0.69985000  0.70760000  1.0
  O  O115  1  0.80990000  0.30015000  0.29239000  1.0
  O  O116  1  0.19420000  0.91351000  0.74972000  1.0
  O  O117  1  0.80579000  0.08649000  0.25028000  1.0
  O  O118  1  0.95950000  0.08643000  0.82711000  1.0
  O  O119  1  0.04050000  0.91356000  0.17289000  1.0
  O  O120  1  0.30577000  0.16006000  0.30782000  1.0
  O  O121  1  0.69421000  0.83993000  0.69219000  1.0
  O  O122  1  0.91320000  0.84356000  0.87203000  1.0
  O  O123  1  0.08680000  0.15643000  0.12798000  1.0
  O  O124  1  0.10215000  0.01416000  0.33346000  1.0
  O  O125  1  0.89785000  0.98583000  0.66654000  1.0
  O  O126  1  0.03582000  0.22442000  0.38734000  1.0
  O  O127  1  0.96418000  0.77559000  0.61266000  1.0
