# generated using pymatgen
data_Cd2H26C22N2O11
_symmetry_space_group_name_H-M   'P 1'
_cell_length_a   8.80862000
_cell_length_b   15.38490000
_cell_length_c   21.57330000
_cell_angle_alpha   90.00080000
_cell_angle_beta   90.00050000
_cell_angle_gamma   96.34550000
_symmetry_Int_Tables_number   1
_chemical_formula_structural   Cd2H26C22N2O11
_chemical_formula_sum   'Cd8 H104 C88 N8 O44'
_cell_volume   2905.69647368
_cell_formula_units_Z   4
loop_
 _symmetry_equiv_pos_site_id
 _symmetry_equiv_pos_as_xyz
  1  'x, y, z'
loop_
 _atom_site_type_symbol
 _atom_site_label
 _atom_site_symmetry_multiplicity
 _atom_site_fract_x
 _atom_site_fract_y
 _atom_site_fract_z
 _atom_site_occupancy
  Cd  Cd0  1  0.31757000  0.59909000  0.18695000  1.0
  Cd  Cd1  1  0.18244000  0.90091000  0.68695000  1.0
  Cd  Cd2  1  0.68243000  0.40092000  0.81305000  1.0
  Cd  Cd3  1  0.81756000  0.09909000  0.31305000  1.0
  Cd  Cd4  1  0.22213000  0.90863000  0.98987000  1.0
  Cd  Cd5  1  0.27787000  0.59138000  0.48987000  1.0
  Cd  Cd6  1  0.77787000  0.09137000  0.01012000  1.0
  Cd  Cd7  1  0.72212000  0.40863000  0.51012000  1.0
  H  H8  1  0.10660000  0.71987000  0.76095000  1.0
  H  H9  1  0.39340000  0.78013000  0.26095000  1.0
  H  H10  1  0.89339000  0.28014000  0.23905000  1.0
  H  H11  1  0.60662000  0.21985000  0.73905000  1.0
  H  H12  1  0.86614000  0.93553000  0.74977000  1.0
  H  H13  1  0.63389000  0.56447000  0.24976000  1.0
  H  H14  1  0.13385000  0.06447000  0.25022000  1.0
  H  H15  1  0.36616000  0.43552000  0.75024000  1.0
  H  H16  1  0.14946000  0.07619000  0.02746000  1.0
  H  H17  1  0.35054000  0.42380000  0.52746000  1.0
  H  H18  1  0.85055000  0.92380000  0.97254000  1.0
  H  H19  1  0.64947000  0.57620000  0.47253000  1.0
  H  H20  1  0.08892000  0.01192000  0.07947000  1.0
  H  H21  1  0.41107000  0.48809000  0.57947000  1.0
  H  H22  1  0.91109000  0.98809000  0.92053000  1.0
  H  H23  1  0.58891000  0.51191000  0.42052000  1.0
  H  H24  1  0.24949000  0.87541000  0.86131000  1.0
  H  H25  1  0.25051000  0.62459000  0.36131000  1.0
  H  H26  1  0.75050000  0.12459000  0.13869000  1.0
  H  H27  1  0.74949000  0.37542000  0.63868000  1.0
  H  H28  1  0.13556000  0.79726000  0.88160000  1.0
  H  H29  1  0.36445000  0.70274000  0.38160000  1.0
  H  H30  1  0.86442000  0.20274000  0.11840000  1.0
  H  H31  1  0.63558000  0.29726000  0.61841000  1.0
  H  H32  1  0.54269000  0.91574000  0.03204000  1.0
  H  H33  1  0.95730000  0.58426000  0.53204000  1.0
  H  H34  1  0.45730000  0.08426000  0.96796000  1.0
  H  H35  1  0.04268000  0.41574000  0.46796000  1.0
  H  H36  1  0.27205000  0.67074000  0.05306000  1.0
  H  H37  1  0.22797000  0.82926000  0.55305000  1.0
  H  H38  1  0.72792000  0.32927000  0.94696000  1.0
  H  H39  1  0.77206000  0.17074000  0.44695000  1.0
  H  H40  1  0.40576000  0.69278000  0.95140000  1.0
  H  H41  1  0.09427000  0.80723000  0.45139000  1.0
  H  H42  1  0.59422000  0.30724000  0.04861000  1.0
  H  H43  1  0.90577000  0.19276000  0.54861000  1.0
  H  H44  1  0.75879000  0.54736000  0.02434000  1.0
  H  H45  1  0.74123000  0.95263000  0.52434000  1.0
  H  H46  1  0.24120000  0.45265000  0.97566000  1.0
  H  H47  1  0.25879000  0.04735000  0.47566000  1.0
  H  H48  1  0.60739000  0.52894000  0.12240000  1.0
  H  H49  1  0.89263000  0.97105000  0.62240000  1.0
  H  H50  1  0.39260000  0.47107000  0.87760000  1.0
  H  H51  1  0.10739000  0.02895000  0.37759000  1.0
  H  H52  1  0.79397000  0.61094000  0.92476000  1.0
  H  H53  1  0.70605000  0.88907000  0.42476000  1.0
  H  H54  1  0.20600000  0.38907000  0.07524000  1.0
  H  H55  1  0.29398000  0.11091000  0.57524000  1.0
  H  H56  1  0.62440000  0.60591000  0.88066000  1.0
  H  H57  1  0.87560000  0.89409000  0.38065000  1.0
  H  H58  1  0.37556000  0.39410000  0.11935000  1.0
  H  H59  1  0.12443000  0.10590000  0.61935000  1.0
  H  H60  1  0.76993000  0.77063000  0.94798000  1.0
  H  H61  1  0.73006000  0.72938000  0.44798000  1.0
  H  H62  1  0.23005000  0.22938000  0.05202000  1.0
  H  H63  1  0.26996000  0.27060000  0.55202000  1.0
  H  H64  1  0.60176000  0.76438000  0.90338000  1.0
  H  H65  1  0.89823000  0.73562000  0.40339000  1.0
  H  H66  1  0.39822000  0.23563000  0.09661000  1.0
  H  H67  1  0.10179000  0.26437000  0.59661000  1.0
  H  H68  1  0.69378000  0.88213000  0.83665000  1.0
  H  H69  1  0.80623000  0.61788000  0.33665000  1.0
  H  H70  1  0.30620000  0.11786000  0.16334000  1.0
  H  H71  1  0.19383000  0.38214000  0.66334000  1.0
  H  H72  1  0.94641000  0.65724000  0.84936000  1.0
  H  H73  1  0.55359000  0.84275000  0.34936000  1.0
  H  H74  1  0.05358000  0.34275000  0.15064000  1.0
  H  H75  1  0.44641000  0.15724000  0.65064000  1.0
  H  H76  1  0.73882000  0.81947000  0.23361000  1.0
  H  H77  1  0.76119000  0.68053000  0.73362000  1.0
  H  H78  1  0.26118000  0.18055000  0.76639000  1.0
  H  H79  1  0.23881000  0.31946000  0.26639000  1.0
  H  H80  1  0.01261000  0.82562000  0.24556000  1.0
  H  H81  1  0.48740000  0.67438000  0.74557000  1.0
  H  H82  1  0.98740000  0.17439000  0.75444000  1.0
  H  H83  1  0.51259000  0.32561000  0.25443000  1.0
  H  H84  1  0.04638000  0.88085000  0.17440000  1.0
  H  H85  1  0.45363000  0.61915000  0.67441000  1.0
  H  H86  1  0.95362000  0.11916000  0.82559000  1.0
  H  H87  1  0.54638000  0.38084000  0.32559000  1.0
  H  H88  1  0.85865000  0.70269000  0.18956000  1.0
  H  H89  1  0.64135000  0.79731000  0.68956000  1.0
  H  H90  1  0.14134000  0.29732000  0.81045000  1.0
  H  H91  1  0.35865000  0.20269000  0.31044000  1.0
  H  H92  1  0.87014000  0.69074000  0.07799000  1.0
  H  H93  1  0.62986000  0.80925000  0.57799000  1.0
  H  H94  1  0.12986000  0.30926000  0.92202000  1.0
  H  H95  1  0.37012000  0.19074000  0.42201000  1.0
  H  H96  1  0.67928000  0.79839000  0.05776000  1.0
  H  H97  1  0.82073000  0.70161000  0.55777000  1.0
  H  H98  1  0.32073000  0.20161000  0.94224000  1.0
  H  H99  1  0.17927000  0.29839000  0.44223000  1.0
  H  H100  1  0.65124000  0.73694000  0.12645000  1.0
  H  H101  1  0.84876000  0.76307000  0.62645000  1.0
  H  H102  1  0.34876000  0.26307000  0.87355000  1.0
  H  H103  1  0.15123000  0.23693000  0.37355000  1.0
  H  H104  1  0.60151000  0.87725000  0.15432000  1.0
  H  H105  1  0.89850000  0.62275000  0.65432000  1.0
  H  H106  1  0.39849000  0.12276000  0.84568000  1.0
  H  H107  1  0.10151000  0.37725000  0.34568000  1.0
  H  H108  1  0.52873000  0.90108000  0.96082000  1.0
  H  H109  1  0.97128000  0.59892000  0.46082000  1.0
  H  H110  1  0.47127000  0.09892000  0.03918000  1.0
  H  H111  1  0.02872000  0.40107000  0.53918000  1.0
  C  C112  1  0.01319000  0.75315000  0.77942000  1.0
  C  C113  1  0.48681000  0.74685000  0.27942000  1.0
  C  C114  1  0.98680000  0.24685000  0.22058000  1.0
  C  C115  1  0.51321000  0.25315000  0.72058000  1.0
  C  C116  1  0.87784000  0.87330000  0.77258000  1.0
  C  C117  1  0.62218000  0.62670000  0.27258000  1.0
  C  C118  1  0.12215000  0.12669000  0.22741000  1.0
  C  C119  1  0.37786000  0.37330000  0.72742000  1.0
  C  C120  1  0.37929000  0.64360000  0.04405000  1.0
  C  C121  1  0.12073000  0.85640000  0.54404000  1.0
  C  C122  1  0.62068000  0.35641000  0.95596000  1.0
  C  C123  1  0.87930000  0.14359000  0.45596000  1.0
  C  C124  1  0.45510000  0.65548000  0.98775000  1.0
  C  C125  1  0.04492000  0.84453000  0.48774000  1.0
  C  C126  1  0.54486000  0.34453000  0.01226000  1.0
  C  C127  1  0.95511000  0.15546000  0.51226000  1.0
  C  C128  1  0.59544000  0.62208000  0.97909000  1.0
  C  C129  1  0.90458000  0.87792000  0.47909000  1.0
  C  C130  1  0.40453000  0.37793000  0.02091000  1.0
  C  C131  1  0.09545000  0.12206000  0.52091000  1.0
  C  C132  1  0.65079000  0.57539000  0.02836000  1.0
  C  C133  1  0.84923000  0.92460000  0.52836000  1.0
  C  C134  1  0.34919000  0.42462000  0.97164000  1.0
  C  C135  1  0.15078000  0.07538000  0.47163000  1.0
  C  C136  1  0.56772000  0.56515000  0.08318000  1.0
  C  C137  1  0.93230000  0.93484000  0.58318000  1.0
  C  C138  1  0.43227000  0.43485000  0.91682000  1.0
  C  C139  1  0.06772000  0.06515000  0.41682000  1.0
  C  C140  1  0.68504000  0.63908000  0.92027000  1.0
  C  C141  1  0.81497000  0.86093000  0.42027000  1.0
  C  C142  1  0.31492000  0.36093000  0.07973000  1.0
  C  C143  1  0.18506000  0.13906000  0.57974000  1.0
  C  C144  1  0.71206000  0.73771000  0.90752000  1.0
  C  C145  1  0.78794000  0.76229000  0.40752000  1.0
  C  C146  1  0.28791000  0.26230000  0.09248000  1.0
  C  C147  1  0.21209000  0.23769000  0.59248000  1.0
  C  C148  1  0.80657000  0.76557000  0.85181000  1.0
  C  C149  1  0.69343000  0.73442000  0.35181000  1.0
  C  C150  1  0.19340000  0.23442000  0.14819000  1.0
  C  C151  1  0.30660000  0.26557000  0.64819000  1.0
  C  C152  1  0.78340000  0.84355000  0.82139000  1.0
  C  C153  1  0.71661000  0.65645000  0.32139000  1.0
  C  C154  1  0.21658000  0.15645000  0.17860000  1.0
  C  C155  1  0.28343000  0.34355000  0.67861000  1.0
  C  C156  1  0.92441000  0.71971000  0.82934000  1.0
  C  C157  1  0.57559000  0.78028000  0.32934000  1.0
  C  C158  1  0.07558000  0.28028000  0.17066000  1.0
  C  C159  1  0.42443000  0.21971000  0.67067000  1.0
  C  C160  1  0.81398000  0.95199000  0.24233000  1.0
  C  C161  1  0.68603000  0.54801000  0.74233000  1.0
  C  C162  1  0.18602000  0.04802000  0.75767000  1.0
  C  C163  1  0.31397000  0.45198000  0.25767000  1.0
  C  C164  1  0.80920000  0.86784000  0.20493000  1.0
  C  C165  1  0.69080000  0.63216000  0.70493000  1.0
  C  C166  1  0.19079000  0.13216000  0.79507000  1.0
  C  C167  1  0.30920000  0.36784000  0.29507000  1.0
  C  C168  1  0.96544000  0.83376000  0.19921000  1.0
  C  C169  1  0.53456000  0.66625000  0.69921000  1.0
  C  C170  1  0.03455000  0.16625000  0.80079000  1.0
  C  C171  1  0.46543000  0.33375000  0.30079000  1.0
  C  C172  1  0.94757000  0.74643000  0.16504000  1.0
  C  C173  1  0.55243000  0.75357000  0.66504000  1.0
  C  C174  1  0.05243000  0.25358000  0.83497000  1.0
  C  C175  1  0.44756000  0.24642000  0.33496000  1.0
  C  C176  1  0.08609000  0.69631000  0.16804000  1.0
  C  C177  1  0.41391000  0.80370000  0.66804000  1.0
  C  C178  1  0.91390000  0.30370000  0.83197000  1.0
  C  C179  1  0.58609000  0.19630000  0.33196000  1.0
  C  C180  1  0.88518000  0.75631000  0.09929000  1.0
  C  C181  1  0.61482000  0.74369000  0.59929000  1.0
  C  C182  1  0.11482000  0.24369000  0.90072000  1.0
  C  C183  1  0.38517000  0.25631000  0.40071000  1.0
  C  C184  1  0.72728000  0.78904000  0.10388000  1.0
  C  C185  1  0.77272000  0.71095000  0.60388000  1.0
  C  C186  1  0.27271000  0.21095000  0.89613000  1.0
  C  C187  1  0.22728000  0.28905000  0.39613000  1.0
  C  C188  1  0.72229000  0.87258000  0.14354000  1.0
  C  C189  1  0.77773000  0.62742000  0.64354000  1.0
  C  C190  1  0.27772000  0.12743000  0.85646000  1.0
  C  C191  1  0.22228000  0.37258000  0.35646000  1.0
  C  C192  1  0.99759000  0.80916000  0.05598000  1.0
  C  C193  1  0.50241000  0.69084000  0.55598000  1.0
  C  C194  1  0.00242000  0.19084000  0.94403000  1.0
  C  C195  1  0.49758000  0.30915000  0.44402000  1.0
  C  C196  1  0.77246000  0.95414000  0.10591000  1.0
  C  C197  1  0.72754000  0.54587000  0.60591000  1.0
  C  C198  1  0.22754000  0.04586000  0.89409000  1.0
  C  C199  1  0.27245000  0.45414000  0.39409000  1.0
  N  N200  1  0.99142000  0.82923000  0.75177000  1.0
  N  N201  1  0.50860000  0.67076000  0.25176000  1.0
  N  N202  1  0.00858000  0.17076000  0.24823000  1.0
  N  N203  1  0.49144000  0.32922000  0.74824000  1.0
  N  N204  1  0.43503000  0.59930000  0.09128000  1.0
  N  N205  1  0.06499000  0.90069000  0.59128000  1.0
  N  N206  1  0.56494000  0.40069000  0.90872000  1.0
  N  N207  1  0.93504000  0.09931000  0.40872000  1.0
  O  O208  1  0.08599000  0.62661000  0.13579000  1.0
  O  O209  1  0.41403000  0.87339000  0.63580000  1.0
  O  O210  1  0.91401000  0.37339000  0.86422000  1.0
  O  O211  1  0.58598000  0.12660000  0.36420000  1.0
  O  O212  1  0.19291000  0.72175000  0.20600000  1.0
  O  O213  1  0.30707000  0.77825000  0.70599000  1.0
  O  O214  1  0.80708000  0.27825000  0.79401000  1.0
  O  O215  1  0.69292000  0.22176000  0.29401000  1.0
  O  O216  1  0.14005000  0.81498000  0.06830000  1.0
  O  O217  1  0.35995000  0.68503000  0.56829000  1.0
  O  O218  1  0.85995000  0.18503000  0.93171000  1.0
  O  O219  1  0.64004000  0.31497000  0.43170000  1.0
  O  O220  1  0.94885000  0.84320000  0.00663000  1.0
  O  O221  1  0.55114000  0.65679000  0.50663000  1.0
  O  O222  1  0.05115000  0.15679000  0.99337000  1.0
  O  O223  1  0.44885000  0.34320000  0.49338000  1.0
  O  O224  1  0.90525000  0.99336000  0.10836000  1.0
  O  O225  1  0.59475000  0.50665000  0.60837000  1.0
  O  O226  1  0.09476000  0.00664000  0.89163000  1.0
  O  O227  1  0.40524000  0.49336000  0.39163000  1.0
  O  O228  1  0.66761000  0.98067000  0.07034000  1.0
  O  O229  1  0.83238000  0.51933000  0.57034000  1.0
  O  O230  1  0.33239000  0.01932000  0.92966000  1.0
  O  O231  1  0.16760000  0.48068000  0.42965000  1.0
  O  O232  1  0.90571000  0.96214000  0.28849000  1.0
  O  O233  1  0.59429000  0.53787000  0.78849000  1.0
  O  O234  1  0.09427000  0.03788000  0.71151000  1.0
  O  O235  1  0.40571000  0.46212000  0.21151000  1.0
  O  O236  1  0.72328000  0.00833000  0.22857000  1.0
  O  O237  1  0.77671000  0.49168000  0.72857000  1.0
  O  O238  1  0.27672000  0.99169000  0.77142000  1.0
  O  O239  1  0.22328000  0.50832000  0.27143000  1.0
  O  O240  1  0.18152000  0.02880000  0.05403000  1.0
  O  O241  1  0.31848000  0.47120000  0.55402000  1.0
  O  O242  1  0.81849000  0.97120000  0.94597000  1.0
  O  O243  1  0.68152000  0.52880000  0.44596000  1.0
  O  O244  1  0.23485000  0.82859000  0.89232000  1.0
  O  O245  1  0.26514000  0.67141000  0.39231000  1.0
  O  O246  1  0.76513000  0.17141000  0.10769000  1.0
  O  O247  1  0.73486000  0.32860000  0.60768000  1.0
  O  O248  1  0.47936000  0.88108000  0.99951000  1.0
  O  O249  1  0.02065000  0.61892000  0.49951000  1.0
  O  O250  1  0.52064000  0.11892000  0.00048000  1.0
  O  O251  1  0.97935000  0.38108000  0.50049000  1.0
