# generated using pymatgen
data_Al3H25(C27O7)2
_symmetry_space_group_name_H-M   'P 1'
_cell_length_a   12.43921601
_cell_length_b   12.55880000
_cell_length_c   27.02260000
_cell_angle_alpha   90.06230000
_cell_angle_beta   90.04158301
_cell_angle_gamma   60.35531498
_symmetry_Int_Tables_number   1
_chemical_formula_structural   Al3H25(C27O7)2
_chemical_formula_sum   'Al6 H50 C108 O28'
_cell_volume   3668.95585565
_cell_formula_units_Z   2
loop_
 _symmetry_equiv_pos_site_id
 _symmetry_equiv_pos_as_xyz
  1  'x, y, z'
loop_
 _atom_site_type_symbol
 _atom_site_label
 _atom_site_symmetry_multiplicity
 _atom_site_fract_x
 _atom_site_fract_y
 _atom_site_fract_z
 _atom_site_occupancy
  Al  Al0  1  0.76703000  0.76263000  0.25105000  1.0
  Al  Al1  1  0.51585000  0.75055000  0.25003000  1.0
  Al  Al2  1  0.75535000  0.51307000  0.25004000  1.0
  Al  Al3  1  0.52981000  0.23648000  0.74915000  1.0
  Al  Al4  1  0.26614000  0.24943000  0.74987000  1.0
  Al  Al5  1  0.26850000  0.48675000  0.74985000  1.0
  H  H6  1  0.21647000  0.76249000  0.95793000  1.0
  H  H7  1  0.02298000  0.21584000  0.54830000  1.0
  H  H8  1  0.75740000  0.01944000  0.95450000  1.0
  H  H9  1  0.21444000  0.76513000  0.54098000  1.0
  H  H10  1  0.02333000  0.21644000  0.95185000  1.0
  H  H11  1  0.75821000  0.01969000  0.54530000  1.0
  H  H12  1  0.97921000  0.23544000  0.45845000  1.0
  H  H13  1  0.24009000  0.78294000  0.04775000  1.0
  H  H14  1  0.77749000  0.98054000  0.45480000  1.0
  H  H15  1  0.97928000  0.23660000  0.04162000  1.0
  H  H16  1  0.23901000  0.78422000  0.45116000  1.0
  H  H17  1  0.77749000  0.98034000  0.04494000  1.0
  H  H18  1  0.63374000  0.29938000  0.87904000  1.0
  H  H19  1  0.07206000  0.63505000  0.62411000  1.0
  H  H20  1  0.28861000  0.06437000  0.87723000  1.0
  H  H21  1  0.63032000  0.30273000  0.62096000  1.0
  H  H22  1  0.07215000  0.63555000  0.87607000  1.0
  H  H23  1  0.29052000  0.06368000  0.62313000  1.0
  H  H24  1  0.93380000  0.69796000  0.37901000  1.0
  H  H25  1  0.70771000  0.36476000  0.12396000  1.0
  H  H26  1  0.35353000  0.93599000  0.37725000  1.0
  H  H27  1  0.93353000  0.69961000  0.12092000  1.0
  H  H28  1  0.70732000  0.36477000  0.37604000  1.0
  H  H29  1  0.35439000  0.93568000  0.12309000  1.0
  H  H30  1  0.29308000  0.64175000  0.87955000  1.0
  H  H31  1  0.07260000  0.29265000  0.62517000  1.0
  H  H32  1  0.63370000  0.06369000  0.87691000  1.0
  H  H33  1  0.28965000  0.64515000  0.61949000  1.0
  H  H34  1  0.07325000  0.29299000  0.87488000  1.0
  H  H35  1  0.63576000  0.06308000  0.62315000  1.0
  H  H36  1  0.93462000  0.35580000  0.38008000  1.0
  H  H37  1  0.36620000  0.70688000  0.12478000  1.0
  H  H38  1  0.69822000  0.93650000  0.37709000  1.0
  H  H39  1  0.93466000  0.35740000  0.12008000  1.0
  H  H40  1  0.36563000  0.70694000  0.37440000  1.0
  H  H41  1  0.69883000  0.93631000  0.12266000  1.0
  H  H42  1  0.75674000  0.22012000  0.95660000  1.0
  H  H43  1  0.02180000  0.75812000  0.54648000  1.0
  H  H44  1  0.21078000  0.01896000  0.95510000  1.0
  H  H45  1  0.75463000  0.22270000  0.54364000  1.0
  H  H46  1  0.02176000  0.75886000  0.95364000  1.0
  H  H47  1  0.21154000  0.01917000  0.54536000  1.0
  H  H48  1  0.97753000  0.77793000  0.45656000  1.0
  H  H49  1  0.78073000  0.24094000  0.04647000  1.0
  H  H50  1  0.23032000  0.98109000  0.45502000  1.0
  H  H51  1  0.97725000  0.77922000  0.04351000  1.0
  H  H52  1  0.77963000  0.24218000  0.45376000  1.0
  H  H53  1  0.23048000  0.98062000  0.04538000  1.0
  H  H54  1  0.88003000  0.85423000  0.22196000  1.0
  H  H55  1  0.73421000  0.18303000  0.76940000  1.0
  C  C56  1  0.55392000  0.88757000  0.17915000  1.0
  C  C57  1  0.56290000  0.56008000  0.31896000  1.0
  C  C58  1  0.89053000  0.55251000  0.17796000  1.0
  C  C59  1  0.55274000  0.88771000  0.32105000  1.0
  C  C60  1  0.56301000  0.56064000  0.18066000  1.0
  C  C61  1  0.88984000  0.55127000  0.32238000  1.0
  C  C62  1  0.44190000  0.11109000  0.67936000  1.0
  C  C63  1  0.12357000  0.43976000  0.81920000  1.0
  C  C64  1  0.43979000  0.44945000  0.67736000  1.0
  C  C65  1  0.43961000  0.11286000  0.82091000  1.0
  C  C66  1  0.12292000  0.43929000  0.68090000  1.0
  C  C67  1  0.44419000  0.44720000  0.82173000  1.0
  C  C68  1  0.50586000  0.50815000  0.02790000  1.0
  C  C69  1  0.98786000  0.50241000  0.47662000  1.0
  C  C70  1  0.49984000  0.98826000  0.02583000  1.0
  C  C71  1  0.50457000  0.50973000  0.47167000  1.0
  C  C72  1  0.98782000  0.50348000  0.02347000  1.0
  C  C73  1  0.50011000  0.98839000  0.47428000  1.0
  C  C74  1  0.01413000  0.49057000  0.52817000  1.0
  C  C75  1  0.49175000  0.49584000  0.97635000  1.0
  C  C76  1  0.48866000  0.01163000  0.52599000  1.0
  C  C77  1  0.01421000  0.49138000  0.97193000  1.0
  C  C78  1  0.48985000  0.49816000  0.52322000  1.0
  C  C79  1  0.48782000  0.01171000  0.97415000  1.0
  C  C80  1  0.30953000  0.70371000  0.02736000  1.0
  C  C81  1  0.98877000  0.30597000  0.47830000  1.0
  C  C82  1  0.69773000  0.98901000  0.02463000  1.0
  C  C83  1  0.30824000  0.70535000  0.47174000  1.0
  C  C84  1  0.98881000  0.30707000  0.02180000  1.0
  C  C85  1  0.69798000  0.98918000  0.47524000  1.0
  C  C86  1  0.01331000  0.29488000  0.52782000  1.0
  C  C87  1  0.29637000  0.69215000  0.97784000  1.0
  C  C88  1  0.68723000  0.01100000  0.52492000  1.0
  C  C89  1  0.01354000  0.29568000  0.97229000  1.0
  C  C90  1  0.29456000  0.69452000  0.52125000  1.0
  C  C91  1  0.68652000  0.01087000  0.97498000  1.0
  C  C92  1  0.43273000  0.62588000  0.10447000  1.0
  C  C93  1  0.94700000  0.42434000  0.40015000  1.0
  C  C94  1  0.61777000  0.94896000  0.10224000  1.0
  C  C95  1  0.43209000  0.62631000  0.39488000  1.0
  C  C96  1  0.94700000  0.42583000  0.09998000  1.0
  C  C97  1  0.61740000  0.94915000  0.39770000  1.0
  C  C98  1  0.05828000  0.37351000  0.60482000  1.0
  C  C99  1  0.37370000  0.57337000  0.89973000  1.0
  C  C100  1  0.56742000  0.05051000  0.60257000  1.0
  C  C101  1  0.05871000  0.37397000  0.89526000  1.0
  C  C102  1  0.37056000  0.57648000  0.59953000  1.0
  C  C103  1  0.56556000  0.05112000  0.89757000  1.0
  C  C104  1  0.46283000  0.46972000  0.87448000  1.0
  C  C105  1  0.07469000  0.46269000  0.62942000  1.0
  C  C106  1  0.45994000  0.06681000  0.87271000  1.0
  C  C107  1  0.45905000  0.47280000  0.62487000  1.0
  C  C108  1  0.07511000  0.46311000  0.87069000  1.0
  C  C109  1  0.46211000  0.06576000  0.62750000  1.0
  C  C110  1  0.93217000  0.52802000  0.37491000  1.0
  C  C111  1  0.53816000  0.53697000  0.12915000  1.0
  C  C112  1  0.52731000  0.93365000  0.37282000  1.0
  C  C113  1  0.93228000  0.52956000  0.12529000  1.0
  C  C114  1  0.53777000  0.53702000  0.37043000  1.0
  C  C115  1  0.52810000  0.93342000  0.12732000  1.0
  C  C116  1  0.41476000  0.61324000  0.05408000  1.0
  C  C117  1  0.97482000  0.40975000  0.45089000  1.0
  C  C118  1  0.60570000  0.97618000  0.05167000  1.0
  C  C119  1  0.41374000  0.61444000  0.44527000  1.0
  C  C120  1  0.97475000  0.41100000  0.04923000  1.0
  C  C121  1  0.60572000  0.97633000  0.44830000  1.0
  C  C122  1  0.02796000  0.38568000  0.55443000  1.0
  C  C123  1  0.38635000  0.58822000  0.95051000  1.0
  C  C124  1  0.58240000  0.02366000  0.55194000  1.0
  C  C125  1  0.02820000  0.38634000  0.94565000  1.0
  C  C126  1  0.38411000  0.59091000  0.54880000  1.0
  C  C127  1  0.58129000  0.02380000  0.94812000  1.0
  C  C128  1  0.62612000  0.43225000  0.10403000  1.0
  C  C129  1  0.94667000  0.61809000  0.39977000  1.0
  C  C130  1  0.42258000  0.94858000  0.10265000  1.0
  C  C131  1  0.62556000  0.43266000  0.39578000  1.0
  C  C132  1  0.94658000  0.61942000  0.10031000  1.0
  C  C133  1  0.42196000  0.94886000  0.39759000  1.0
  C  C134  1  0.05811000  0.56727000  0.60423000  1.0
  C  C135  1  0.56672000  0.37975000  0.89956000  1.0
  C  C136  1  0.37167000  0.05082000  0.60274000  1.0
  C  C137  1  0.05829000  0.56779000  0.89592000  1.0
  C  C138  1  0.56364000  0.38266000  0.60013000  1.0
  C  C139  1  0.36993000  0.05149000  0.89753000  1.0
  C  C140  1  0.61171000  0.41602000  0.05362000  1.0
  C  C141  1  0.97444000  0.60715000  0.45037000  1.0
  C  C142  1  0.40659000  0.97606000  0.05199000  1.0
  C  C143  1  0.61069000  0.41717000  0.44620000  1.0
  C  C144  1  0.97429000  0.60836000  0.04971000  1.0
  C  C145  1  0.40649000  0.97633000  0.44825000  1.0
  C  C146  1  0.02775000  0.58303000  0.55380000  1.0
  C  C147  1  0.58313000  0.39090000  0.95020000  1.0
  C  C148  1  0.38316000  0.02365000  0.55207000  1.0
  C  C149  1  0.02780000  0.58374000  0.94633000  1.0
  C  C150  1  0.58087000  0.39350000  0.54958000  1.0
  C  C151  1  0.38209000  0.02384000  0.94817000  1.0
  C  C152  1  0.68770000  0.29962000  0.97699000  1.0
  C  C153  1  0.01262000  0.68749000  0.52654000  1.0
  C  C154  1  0.29044000  0.01072000  0.97532000  1.0
  C  C155  1  0.68585000  0.30189000  0.52305000  1.0
  C  C156  1  0.01253000  0.68836000  0.97358000  1.0
  C  C157  1  0.29106000  0.01083000  0.52503000  1.0
  C  C158  1  0.98782000  0.69866000  0.47706000  1.0
  C  C159  1  0.70107000  0.31132000  0.02646000  1.0
  C  C160  1  0.30165000  0.98934000  0.47532000  1.0
  C  C161  1  0.98763000  0.69977000  0.02304000  1.0
  C  C162  1  0.69978000  0.31287000  0.47359000  1.0
  C  C163  1  0.30158000  0.98901000  0.02502000  1.0
  O  O164  1  0.87022000  0.65244000  0.19722000  1.0
  O  O165  1  0.47153000  0.86778000  0.29946000  1.0
  O  O166  1  0.66486000  0.48213000  0.20085000  1.0
  O  O167  1  0.86745000  0.65224000  0.30376000  1.0
  O  O168  1  0.47252000  0.86824000  0.20078000  1.0
  O  O169  1  0.66508000  0.48163000  0.29889000  1.0
  O  O170  1  0.51805000  0.34830000  0.69593000  1.0
  O  O171  1  0.33888000  0.13194000  0.79923000  1.0
  O  O172  1  0.14641000  0.51775000  0.70118000  1.0
  O  O173  1  0.52434000  0.34783000  0.80221000  1.0
  O  O174  1  0.34018000  0.13208000  0.70058000  1.0
  O  O175  1  0.14760000  0.51809000  0.79924000  1.0
  O  O176  1  0.65635000  0.86459000  0.19769000  1.0
  O  O177  1  0.48423000  0.66096000  0.29854000  1.0
  O  O178  1  0.87254000  0.47113000  0.19982000  1.0
  O  O179  1  0.65484000  0.86514000  0.30239000  1.0
  O  O180  1  0.48433000  0.66195000  0.20077000  1.0
  O  O181  1  0.87339000  0.46937000  0.29990000  1.0
  O  O182  1  0.52221000  0.13211000  0.69844000  1.0
  O  O183  1  0.14552000  0.33886000  0.79884000  1.0
  O  O184  1  0.34164000  0.53142000  0.69988000  1.0
  O  O185  1  0.51878000  0.13626000  0.80253000  1.0
  O  O186  1  0.14541000  0.33806000  0.70111000  1.0
  O  O187  1  0.34457000  0.52821000  0.80001000  1.0
  O  O188  1  0.67849000  0.67414000  0.24997000  1.0
  O  O189  1  0.35269000  0.32565000  0.74997000  1.0
  O  O190  1  0.84938000  0.84320000  0.25326000  1.0
  O  O191  1  0.69264000  0.15443000  0.74738000  1.0
