# generated using pymatgen
data_CdH10C11S3N3O5
_symmetry_space_group_name_H-M   'P 1'
_cell_length_a   8.39250000
_cell_length_b   12.55050000
_cell_length_c   15.70000000
_cell_angle_alpha   113.35700000
_cell_angle_beta   90.00000000
_cell_angle_gamma   90.00000000
_symmetry_Int_Tables_number   1
_chemical_formula_structural   CdH10C11S3N3O5
_chemical_formula_sum   'Cd4 H40 C44 S12 N12 O20'
_cell_volume   1518.16687645
_cell_formula_units_Z   4
loop_
 _symmetry_equiv_pos_site_id
 _symmetry_equiv_pos_as_xyz
  1  'x, y, z'
loop_
 _atom_site_type_symbol
 _atom_site_label
 _atom_site_symmetry_multiplicity
 _atom_site_fract_x
 _atom_site_fract_y
 _atom_site_fract_z
 _atom_site_occupancy
  Cd  Cd0  1  0.46078000  0.33059000  0.79664000  1.0
  Cd  Cd1  1  0.96078000  0.16941000  0.70336000  1.0
  Cd  Cd2  1  0.53921000  0.66941000  0.20336000  1.0
  Cd  Cd3  1  0.03922000  0.83059000  0.29664000  1.0
  H  H4  1  0.19447000  0.24722000  0.03117000  1.0
  H  H5  1  0.69447000  0.25278000  0.46883000  1.0
  H  H6  1  0.80553000  0.75278000  0.96883000  1.0
  H  H7  1  0.30553000  0.74722000  0.53117000  1.0
  H  H8  1  0.34425000  0.34001000  0.10134000  1.0
  H  H9  1  0.84425000  0.15999000  0.39866000  1.0
  H  H10  1  0.65575000  0.65999000  0.89866000  1.0
  H  H11  1  0.15575000  0.84001000  0.60134000  1.0
  H  H12  1  0.50181000  0.07443000  0.38899000  1.0
  H  H13  1  0.00181000  0.42557000  0.11101000  1.0
  H  H14  1  0.49819000  0.92557000  0.61101000  1.0
  H  H15  1  0.99819000  0.57443000  0.88899000  1.0
  H  H16  1  0.38947000  0.02799000  0.46346000  1.0
  H  H17  1  0.88947000  0.47201000  0.03654000  1.0
  H  H18  1  0.61053000  0.97201000  0.53655000  1.0
  H  H19  1  0.11053000  0.52799000  0.96346000  1.0
  H  H20  1  0.30604000  0.28279000  0.60274000  1.0
  H  H21  1  0.80604000  0.21721000  0.89726000  1.0
  H  H22  1  0.69396000  0.71721000  0.39726000  1.0
  H  H23  1  0.19396000  0.78279000  0.10274000  1.0
  H  H24  1  0.30623000  0.35164000  0.47609000  1.0
  H  H25  1  0.80623000  0.14836000  0.02391000  1.0
  H  H26  1  0.69377000  0.64836000  0.52391000  1.0
  H  H27  1  0.19377000  0.85164000  0.97609000  1.0
  H  H28  1  0.69070000  0.58556000  0.62090000  1.0
  H  H29  1  0.19070000  0.91444000  0.87910000  1.0
  H  H30  1  0.30930000  0.41444000  0.37910000  1.0
  H  H31  1  0.80930000  0.08556000  0.12090000  1.0
  H  H32  1  0.67395000  0.50381000  0.73987000  1.0
  H  H33  1  0.17395000  0.99619000  0.76013000  1.0
  H  H34  1  0.32605000  0.49619000  0.26013000  1.0
  H  H35  1  0.82605000  0.00381000  0.23987000  1.0
  H  H36  1  0.77071000  0.41956000  0.85826000  1.0
  H  H37  1  0.27071000  0.08044000  0.64174000  1.0
  H  H38  1  0.22929000  0.58044000  0.14174000  1.0
  H  H39  1  0.72929000  0.91956000  0.35826000  1.0
  H  H40  1  0.65231000  0.50679000  0.93660000  1.0
  H  H41  1  0.15231000  0.99321000  0.56340000  1.0
  H  H42  1  0.34769000  0.49321000  0.06340000  1.0
  H  H43  1  0.84769000  0.00679000  0.43660000  1.0
  C  C44  1  0.37578000  0.29024000  0.95404000  1.0
  C  C45  1  0.87578000  0.20976000  0.54596000  1.0
  C  C46  1  0.62422000  0.70976000  0.04596000  1.0
  C  C47  1  0.12422000  0.79024000  0.45404000  1.0
  C  C48  1  0.32345000  0.26467000  0.03632000  1.0
  C  C49  1  0.82345000  0.23532000  0.46368000  1.0
  C  C50  1  0.67655000  0.73532000  0.96368000  1.0
  C  C51  1  0.17655000  0.76468000  0.53632000  1.0
  C  C52  1  0.34686000  0.14877000  0.14460000  1.0
  C  C53  1  0.84686000  0.35122000  0.35540000  1.0
  C  C54  1  0.65314000  0.85122000  0.85540000  1.0
  C  C55  1  0.15314000  0.64878000  0.64460000  1.0
  C  C56  1  0.26904000  0.12840000  0.28355000  1.0
  C  C57  1  0.76904000  0.37160000  0.21645000  1.0
  C  C58  1  0.73096000  0.87160000  0.71645000  1.0
  C  C59  1  0.23096000  0.62840000  0.78355000  1.0
  C  C60  1  0.39737000  0.02335000  0.39219000  1.0
  C  C61  1  0.89737000  0.47665000  0.10781000  1.0
  C  C62  1  0.60263000  0.97665000  0.60781000  1.0
  C  C63  1  0.10263000  0.52335000  0.89219000  1.0
  C  C64  1  0.42322000  0.89622000  0.32775000  1.0
  C  C65  1  0.92322000  0.60378000  0.17225000  1.0
  C  C66  1  0.57678000  0.10378000  0.67225000  1.0
  C  C67  1  0.07678000  0.39622000  0.82775000  1.0
  C  C68  1  0.39088000  0.34857000  0.60295000  1.0
  C  C69  1  0.89088000  0.15143000  0.89705000  1.0
  C  C70  1  0.60912000  0.65143000  0.39704000  1.0
  C  C71  1  0.10912000  0.84857000  0.10295000  1.0
  C  C72  1  0.39203000  0.38838000  0.53218000  1.0
  C  C73  1  0.89203000  0.11162000  0.96782000  1.0
  C  C74  1  0.60797000  0.61162000  0.46782000  1.0
  C  C75  1  0.10797000  0.88838000  0.03218000  1.0
  C  C76  1  0.49916000  0.47628000  0.53616000  1.0
  C  C77  1  0.99916000  0.02372000  0.96384000  1.0
  C  C78  1  0.50084000  0.52371000  0.46384000  1.0
  C  C79  1  0.00084000  0.97629000  0.03616000  1.0
  C  C80  1  0.60379000  0.51764000  0.61209000  1.0
  C  C81  1  0.10379000  0.98236000  0.88791000  1.0
  C  C82  1  0.39621000  0.48236000  0.38791000  1.0
  C  C83  1  0.89621000  0.01764000  0.11209000  1.0
  C  C84  1  0.59579000  0.47265000  0.67964000  1.0
  C  C85  1  0.09579000  0.02735000  0.82036000  1.0
  C  C86  1  0.40420000  0.52734000  0.32036000  1.0
  C  C87  1  0.90421000  0.97265000  0.17964000  1.0
  S  S88  1  0.42695000  0.13992000  0.04003000  1.0
  S  S89  1  0.92695000  0.36007000  0.45997000  1.0
  S  S90  1  0.57305000  0.86008000  0.95997000  1.0
  S  S91  1  0.07305000  0.63993000  0.54003000  1.0
  S  S92  1  0.40882000  0.05716000  0.19717000  1.0
  S  S93  1  0.90883000  0.44284000  0.30284000  1.0
  S  S94  1  0.59118000  0.94284000  0.80284000  1.0
  S  S95  1  0.09118000  0.55716000  0.69716000  1.0
  S  S96  1  0.21815000  0.09246000  0.37646000  1.0
  S  S97  1  0.71815000  0.40754000  0.12355000  1.0
  S  S98  1  0.78185000  0.90754000  0.62355000  1.0
  S  S99  1  0.28185000  0.59246000  0.87645000  1.0
  N  N100  1  0.23365000  0.22249000  0.19045000  1.0
  N  N101  1  0.73365000  0.27751000  0.30955000  1.0
  N  N102  1  0.76635000  0.77751000  0.80955000  1.0
  N  N103  1  0.26635000  0.72249000  0.69045000  1.0
  N  N104  1  0.19098000  0.21138000  0.27022000  1.0
  N  N105  1  0.69098000  0.28862000  0.22978000  1.0
  N  N106  1  0.80902000  0.78862000  0.72978000  1.0
  N  N107  1  0.30902000  0.71138000  0.77022000  1.0
  N  N108  1  0.49073000  0.38999000  0.67579000  1.0
  N  N109  1  0.99073000  0.11001000  0.82421000  1.0
  N  N110  1  0.50927000  0.61001000  0.32421000  1.0
  N  N111  1  0.00927000  0.88999000  0.17579000  1.0
  O  O112  1  0.35169000  0.39364000  0.95961000  1.0
  O  O113  1  0.85169000  0.10635000  0.54039000  1.0
  O  O114  1  0.64831000  0.60636000  0.04038000  1.0
  O  O115  1  0.14831000  0.89365000  0.45962000  1.0
  O  O116  1  0.43608000  0.21130000  0.88343000  1.0
  O  O117  1  0.93607000  0.28870000  0.61657000  1.0
  O  O118  1  0.56393000  0.78869000  0.11657000  1.0
  O  O119  1  0.06393000  0.71131000  0.38343000  1.0
  O  O120  1  0.56130000  0.85646000  0.33230000  1.0
  O  O121  1  0.06130000  0.64354000  0.16770000  1.0
  O  O122  1  0.43870000  0.14354000  0.66770000  1.0
  O  O123  1  0.93870000  0.35646000  0.83230000  1.0
  O  O124  1  0.31681000  0.83435000  0.27390000  1.0
  O  O125  1  0.81681000  0.66565000  0.22610000  1.0
  O  O126  1  0.68319000  0.16565000  0.72610000  1.0
  O  O127  1  0.18319000  0.33435000  0.77390000  1.0
  O  O128  1  0.66094000  0.45361000  0.86919000  1.0
  O  O129  1  0.16094000  0.04639000  0.63081000  1.0
  O  O130  1  0.33906000  0.54639000  0.13081000  1.0
  O  O131  1  0.83905000  0.95361000  0.36919000  1.0
