# generated using pymatgen
data_DyH16C15O11
_symmetry_space_group_name_H-M   'P 1'
_cell_length_a   8.04888000
_cell_length_b   9.33781000
_cell_length_c   12.76250000
_cell_angle_alpha   104.41000000
_cell_angle_beta   95.30990000
_cell_angle_gamma   109.61300000
_symmetry_Int_Tables_number   1
_chemical_formula_structural   DyH16C15O11
_chemical_formula_sum   'Dy2 H32 C30 O22'
_cell_volume   858.68449887
_cell_formula_units_Z   2
loop_
 _symmetry_equiv_pos_site_id
 _symmetry_equiv_pos_as_xyz
  1  'x, y, z'
loop_
 _atom_site_type_symbol
 _atom_site_label
 _atom_site_symmetry_multiplicity
 _atom_site_fract_x
 _atom_site_fract_y
 _atom_site_fract_z
 _atom_site_occupancy
  Dy  Dy0  1  0.63485000  0.22113000  0.51207000  1.0
  Dy  Dy1  1  0.36517000  0.77888000  0.48793000  1.0
  H  H2  1  0.96142000  0.22107000  0.47390000  1.0
  H  H3  1  0.03860000  0.77891000  0.52610000  1.0
  H  H4  1  0.04986000  0.36005000  0.58807000  1.0
  H  H5  1  0.95014000  0.63993000  0.41193000  1.0
  H  H6  1  0.86807000  0.55332000  0.55911000  1.0
  H  H7  1  0.13195000  0.44669000  0.44090000  1.0
  H  H8  1  0.68262000  0.56654000  0.58090000  1.0
  H  H9  1  0.31739000  0.43347000  0.41911000  1.0
  H  H10  1  0.92981000  0.81007000  0.32575000  1.0
  H  H11  1  0.07019000  0.18991000  0.67425000  1.0
  H  H12  1  0.74958000  0.76184000  0.21739000  1.0
  H  H13  1  0.25041000  0.23815000  0.78261000  1.0
  H  H14  1  0.09479000  0.26260000  0.23365000  1.0
  H  H15  1  0.90523000  0.73738000  0.76635000  1.0
  H  H16  1  0.03897000  0.33527000  0.06175000  1.0
  H  H17  1  0.96103000  0.66473000  0.93826000  1.0
  H  H18  1  0.59061000  0.88722000  0.92932000  1.0
  H  H19  1  0.40939000  0.11278000  0.07068000  1.0
  H  H20  1  0.65555000  0.81054000  0.09188000  1.0
  H  H21  1  0.34446000  0.18945000  0.90811000  1.0
  H  H22  1  0.53999000  0.01075000  0.80469000  1.0
  H  H23  1  0.46005000  0.98928000  0.19529000  1.0
  H  H24  1  0.71594000  0.93999000  0.77532000  1.0
  H  H25  1  0.28407000  0.06004000  0.22468000  1.0
  H  H26  1  0.35683000  0.34304000  0.22194000  1.0
  H  H27  1  0.64314000  0.65695000  0.77807000  1.0
  H  H28  1  0.51106000  0.53424000  0.30443000  1.0
  H  H29  1  0.48891000  0.46575000  0.69558000  1.0
  H  H30  1  0.74210000  0.39148000  0.00542000  1.0
  H  H31  1  0.25784000  0.60852000  0.99458000  1.0
  H  H32  1  0.34656000  0.54025000  0.15909000  1.0
  H  H33  1  0.65338000  0.45975000  0.84091000  1.0
  C  C34  1  0.72688000  0.90077000  0.37443000  1.0
  C  C35  1  0.27314000  0.09923000  0.62557000  1.0
  C  C36  1  0.83830000  0.85794000  0.28990000  1.0
  C  C37  1  0.16171000  0.14205000  0.71009000  1.0
  C  C38  1  0.88742000  0.02892000  0.17218000  1.0
  C  C39  1  0.11259000  0.97106000  0.82781000  1.0
  C  C40  1  0.98932000  0.17910000  0.16430000  1.0
  C  C41  1  0.01069000  0.82090000  0.83570000  1.0
  C  C42  1  0.95585000  0.22088000  0.06985000  1.0
  C  C43  1  0.04415000  0.77913000  0.93015000  1.0
  C  C44  1  0.81658000  0.11423000  0.98225000  1.0
  C  C45  1  0.18342000  0.88576000  0.01775000  1.0
  C  C46  1  0.70580000  0.96947000  0.99319000  1.0
  C  C47  1  0.29419000  0.03053000  0.00682000  1.0
  C  C48  1  0.74185000  0.92647000  0.08811000  1.0
  C  C49  1  0.25815000  0.07352000  0.91189000  1.0
  C  C50  1  0.68189000  0.04751000  0.79460000  1.0
  C  C51  1  0.31814000  0.95252000  0.20540000  1.0
  C  C52  1  0.69236000  0.10655000  0.69449000  1.0
  C  C53  1  0.30766000  0.89346000  0.30551000  1.0
  C  C54  1  0.54864000  0.33965000  0.34547000  1.0
  C  C55  1  0.45136000  0.66036000  0.65452000  1.0
  C  C56  1  0.49934000  0.41241000  0.26069000  1.0
  C  C57  1  0.50064000  0.58759000  0.73930000  1.0
  C  C58  1  0.55181000  0.46012000  0.09295000  1.0
  C  C59  1  0.44814000  0.53990000  0.90705000  1.0
  C  C60  1  0.63753000  0.44080000  0.00323000  1.0
  C  C61  1  0.36241000  0.55921000  0.99677000  1.0
  C  C62  1  0.41400000  0.52046000  0.08991000  1.0
  C  C63  1  0.58593000  0.47953000  0.91010000  1.0
  O  O64  1  0.77248000  0.04712000  0.42711000  1.0
  O  O65  1  0.22753000  0.95287000  0.57288000  1.0
  O  O66  1  0.59779000  0.78707000  0.38734000  1.0
  O  O67  1  0.40221000  0.21293000  0.61266000  1.0
  O  O68  1  0.94929000  0.99278000  0.26363000  1.0
  O  O69  1  0.05073000  0.00721000  0.73637000  1.0
  O  O70  1  0.79973000  0.16426000  0.88988000  1.0
  O  O71  1  0.20026000  0.83574000  0.11012000  1.0
  O  O72  1  0.78708000  0.24584000  0.69599000  1.0
  O  O73  1  0.21296000  0.75417000  0.30401000  1.0
  O  O74  1  0.59092000  0.00513000  0.60380000  1.0
  O  O75  1  0.40912000  0.99489000  0.39619000  1.0
  O  O76  1  0.44701000  0.32617000  0.41779000  1.0
  O  O77  1  0.55300000  0.67382000  0.58222000  1.0
  O  O78  1  0.68096000  0.29564000  0.34811000  1.0
  O  O79  1  0.31903000  0.70436000  0.65188000  1.0
  O  O80  1  0.60915000  0.41473000  0.18009000  1.0
  O  O81  1  0.39081000  0.58527000  0.81990000  1.0
  O  O82  1  0.98137000  0.33333333  0.51414000  1.0
  O  O83  1  0.01864000  0.66666667  0.48586000  1.0
  O  O84  1  0.75946000  0.50213000  0.58688000  1.0
  O  O85  1  0.24056000  0.49788000  0.41312000  1.0
