# generated using pymatgen
data_Zn2H16C21N2O9
_symmetry_space_group_name_H-M   'P 1'
_cell_length_a   9.79181000
_cell_length_b   11.56860000
_cell_length_c   11.92280000
_cell_angle_alpha   115.52100000
_cell_angle_beta   101.57800000
_cell_angle_gamma   96.62790000
_symmetry_Int_Tables_number   1
_chemical_formula_structural   Zn2H16C21N2O9
_chemical_formula_sum   'Zn4 H32 C42 N4 O18'
_cell_volume   1162.45397159
_cell_formula_units_Z   2
loop_
 _symmetry_equiv_pos_site_id
 _symmetry_equiv_pos_as_xyz
  1  'x, y, z'
loop_
 _atom_site_type_symbol
 _atom_site_label
 _atom_site_symmetry_multiplicity
 _atom_site_fract_x
 _atom_site_fract_y
 _atom_site_fract_z
 _atom_site_occupancy
  Zn  Zn0  1  0.16825000  0.54783000  0.56244000  1.0
  Zn  Zn1  1  0.83175000  0.45217000  0.43756000  1.0
  Zn  Zn2  1  0.07867000  0.52371000  0.28793000  1.0
  Zn  Zn3  1  0.92132000  0.47628000  0.71207000  1.0
  H  H4  1  0.13991000  0.13349000  0.05447000  1.0
  H  H5  1  0.86010000  0.86651000  0.94552000  1.0
  H  H6  1  0.43865000  0.90693000  0.12262000  1.0
  H  H7  1  0.56135000  0.09307000  0.87738000  1.0
  H  H8  1  0.39918000  0.25976000  0.43918000  1.0
  H  H9  1  0.60082000  0.74025000  0.56083000  1.0
  H  H10  1  0.64124000  0.08297000  0.54403000  1.0
  H  H11  1  0.35875000  0.91702000  0.45597000  1.0
  H  H12  1  0.49267000  0.15739000  0.54530000  1.0
  H  H13  1  0.50732000  0.84260000  0.45470000  1.0
  H  H14  1  0.20623000  0.01865000  0.84349000  1.0
  H  H15  1  0.79377000  0.98135000  0.15651000  1.0
  H  H16  1  0.05409000  0.95167000  0.87631000  1.0
  H  H17  1  0.94592000  0.04834000  0.12369000  1.0
  H  H18  1  0.27971000  0.33337000  0.61041000  1.0
  H  H19  1  0.72029000  0.66666667  0.38959000  1.0
  H  H20  1  0.48474000  0.31109000  0.75598000  1.0
  H  H21  1  0.51527000  0.68891000  0.24402000  1.0
  H  H22  1  0.62175000  0.73601000  0.95056000  1.0
  H  H23  1  0.37825000  0.26399000  0.04944000  1.0
  H  H24  1  0.41471000  0.73854000  0.79389000  1.0
  H  H25  1  0.58529000  0.26145000  0.20610000  1.0
  H  H26  1  0.61772000  0.31737000  0.92070000  1.0
  H  H27  1  0.38227000  0.68264000  0.07931000  1.0
  H  H28  1  0.82416000  0.32256000  0.08402000  1.0
  H  H29  1  0.17583000  0.67744000  0.91598000  1.0
  H  H30  1  0.01922000  0.70289000  0.17786000  1.0
  H  H31  1  0.98078000  0.29711000  0.82214000  1.0
  H  H32  1  0.82166000  0.71294000  0.01700000  1.0
  H  H33  1  0.17834000  0.28707000  0.98300000  1.0
  H  H34  1  0.98620000  0.32690000  0.50626000  1.0
  H  H35  1  0.01379000  0.67309000  0.49373000  1.0
  C  C36  1  0.26357000  0.20375000  0.25132000  1.0
  C  C37  1  0.73643000  0.79626000  0.74867000  1.0
  C  C38  1  0.21984000  0.11513000  0.11863000  1.0
  C  C39  1  0.78016000  0.88487000  0.88136000  1.0
  C  C40  1  0.28224000  0.00690000  0.07319000  1.0
  C  C41  1  0.71777000  0.99310000  0.92682000  1.0
  C  C42  1  0.38731000  0.98899000  0.15933000  1.0
  C  C43  1  0.61270000  0.01101000  0.84067000  1.0
  C  C44  1  0.42872000  0.07770000  0.29144000  1.0
  C  C45  1  0.57128000  0.92231000  0.70856000  1.0
  C  C46  1  0.36574000  0.18533000  0.33840000  1.0
  C  C47  1  0.63427000  0.81468000  0.66160000  1.0
  C  C48  1  0.20678000  0.32563000  0.30196000  1.0
  C  C49  1  0.79322000  0.67437000  0.69804000  1.0
  C  C50  1  0.58265000  0.13693000  0.50240000  1.0
  C  C51  1  0.41734000  0.86307000  0.49761000  1.0
  C  C52  1  0.68375000  0.26738000  0.54103000  1.0
  C  C53  1  0.31626000  0.73262000  0.45899000  1.0
  C  C54  1  0.15482000  0.93360000  0.85143000  1.0
  C  C55  1  0.84518000  0.06640000  0.14857000  1.0
  C  C56  1  0.11686000  0.81092000  0.71988000  1.0
  C  C57  1  0.88314000  0.18908000  0.28012000  1.0
  C  C58  1  0.35930000  0.41958000  0.68749000  1.0
  C  C59  1  0.64070000  0.58041000  0.31252000  1.0
  C  C60  1  0.47340000  0.40850000  0.76988000  1.0
  C  C61  1  0.52660000  0.59150000  0.23012000  1.0
  C  C62  1  0.57376000  0.52244000  0.86707000  1.0
  C  C63  1  0.42624000  0.47756000  0.13293000  1.0
  C  C64  1  0.55034000  0.64319000  0.87658000  1.0
  C  C65  1  0.44967000  0.35681000  0.12341000  1.0
  C  C66  1  0.43458000  0.64611000  0.78939000  1.0
  C  C67  1  0.56542000  0.35388000  0.21061000  1.0
  C  C68  1  0.69803000  0.51707000  0.95687000  1.0
  C  C69  1  0.30197000  0.48294000  0.04313000  1.0
  C  C70  1  0.70405000  0.40525000  0.97454000  1.0
  C  C71  1  0.29595000  0.59475000  0.02545000  1.0
  C  C72  1  0.81938000  0.40634000  0.06466000  1.0
  C  C73  1  0.18062000  0.59366000  0.93534000  1.0
  C  C74  1  0.92716000  0.62004000  0.11853000  1.0
  C  C75  1  0.07284000  0.37996000  0.88146000  1.0
  C  C76  1  0.81527000  0.62542000  0.03025000  1.0
  C  C77  1  0.18473000  0.37458000  0.96975000  1.0
  N  N78  1  0.34079000  0.53615000  0.69586000  1.0
  N  N79  1  0.65921000  0.46385000  0.30413000  1.0
  N  N80  1  0.92887000  0.51300000  0.13672000  1.0
  N  N81  1  0.07113000  0.48700000  0.86328000  1.0
  O  O82  1  0.23119000  0.39196000  0.42272000  1.0
  O  O83  1  0.76883000  0.60805000  0.57727000  1.0
  O  O84  1  0.13892000  0.35564000  0.21742000  1.0
  O  O85  1  0.86106000  0.64435000  0.78257000  1.0
  O  O86  1  0.24884000  0.91343000  0.94670000  1.0
  O  O87  1  0.75116000  0.08658000  0.05330000  1.0
  O  O88  1  0.05743000  0.82351000  0.62329000  1.0
  O  O89  1  0.94258000  0.17649000  0.37671000  1.0
  O  O90  1  0.14618000  0.70694000  0.72172000  1.0
  O  O91  1  0.85382000  0.29306000  0.27829000  1.0
  O  O92  1  0.53236000  0.05081000  0.36656000  1.0
  O  O93  1  0.46764000  0.94919000  0.63344000  1.0
  O  O94  1  0.68390000  0.30712000  0.45876000  1.0
  O  O95  1  0.31612000  0.69288000  0.54126000  1.0
  O  O96  1  0.75975000  0.32449000  0.66029000  1.0
  O  O97  1  0.24026000  0.67550000  0.33972000  1.0
  O  O98  1  0.99969000  0.42386000  0.56486000  1.0
  O  O99  1  0.00031000  0.57613000  0.43513000  1.0
