# generated using pymatgen
data_AlH11(C8O3)2
_symmetry_space_group_name_H-M   'P 1'
_cell_length_a   6.69901000
_cell_length_b   19.16700000
_cell_length_c   21.84370000
_cell_angle_alpha   99.47510000
_cell_angle_beta   89.99730000
_cell_angle_gamma   90.00000000
_symmetry_Int_Tables_number   1
_chemical_formula_structural   AlH11(C8O3)2
_chemical_formula_sum   'Al4 H44 C64 O24'
_cell_volume   2766.46516942
_cell_formula_units_Z   4
loop_
 _symmetry_equiv_pos_site_id
 _symmetry_equiv_pos_as_xyz
  1  'x, y, z'
loop_
 _atom_site_type_symbol
 _atom_site_label
 _atom_site_symmetry_multiplicity
 _atom_site_fract_x
 _atom_site_fract_y
 _atom_site_fract_z
 _atom_site_occupancy
  Al  Al0  1  0.10326000  0.50223000  0.50146000  1.0
  Al  Al1  1  0.60326000  0.49778000  0.49853000  1.0
  Al  Al2  1  0.66891000  0.99886000  0.99751000  1.0
  Al  Al3  1  0.16891000  0.00115000  0.00250000  1.0
  H  H4  1  0.10438000  0.76838000  0.95345000  1.0
  H  H5  1  0.60430000  0.23163000  0.04654000  1.0
  H  H6  1  0.14870000  0.65626000  0.87885000  1.0
  H  H7  1  0.64865000  0.34374000  0.12114000  1.0
  H  H8  1  0.78910000  0.85946000  0.81476000  1.0
  H  H9  1  0.28915000  0.14054000  0.18525000  1.0
  H  H10  1  0.68926000  0.73175000  0.54371000  1.0
  H  H11  1  0.18945000  0.26824000  0.45631000  1.0
  H  H12  1  0.64526000  0.84654000  0.61537000  1.0
  H  H13  1  0.14538000  0.15346000  0.38465000  1.0
  H  H14  1  0.01071000  0.57836000  0.66602000  1.0
  H  H15  1  0.51072000  0.42163000  0.33399000  1.0
  H  H16  1  0.84235000  0.37911000  0.78737000  1.0
  H  H17  1  0.34235000  0.62089000  0.21263000  1.0
  H  H18  1  0.87116000  0.30485000  0.86006000  1.0
  H  H19  1  0.37122000  0.69514000  0.13994000  1.0
  H  H20  1  0.21337000  0.18698000  0.76220000  1.0
  H  H21  1  0.71338000  0.81301000  0.23780000  1.0
  H  H22  1  0.18466000  0.33097000  0.73882000  1.0
  H  H23  1  0.68468000  0.66902000  0.26118000  1.0
  H  H24  1  0.18289000  0.25357000  0.68219000  1.0
  H  H25  1  0.68288000  0.74642000  0.31781000  1.0
  H  H26  1  0.66431000  0.15034000  0.74378000  1.0
  H  H27  1  0.16431000  0.84966000  0.25622000  1.0
  H  H28  1  0.62923000  0.23107000  0.67508000  1.0
  H  H29  1  0.12923000  0.76893000  0.32492000  1.0
  H  H30  1  0.62187000  0.33662000  0.75684000  1.0
  H  H31  1  0.12188000  0.66339000  0.24317000  1.0
  H  H32  1  0.85727000  0.19824000  0.64017000  1.0
  H  H33  1  0.35727000  0.80175000  0.35983000  1.0
  H  H34  1  0.18581000  0.26327000  0.81930000  1.0
  H  H35  1  0.68585000  0.73672000  0.18070000  1.0
  H  H36  1  0.93927000  0.06539000  0.73861000  1.0
  H  H37  1  0.43926000  0.93461000  0.26138000  1.0
  H  H38  1  0.50005000  0.22094000  0.80812000  1.0
  H  H39  1  0.00008000  0.77905000  0.19187000  1.0
  H  H40  1  0.11346000  0.58800000  0.77506000  1.0
  H  H41  1  0.61347000  0.41200000  0.22494000  1.0
  H  H42  1  0.74199000  0.85723000  0.72490000  1.0
  H  H43  1  0.24200000  0.14277000  0.27512000  1.0
  H  H44  1  0.36233000  0.54795000  0.57447000  1.0
  H  H45  1  0.86238000  0.45202000  0.42555000  1.0
  H  H46  1  0.40901000  0.95182000  0.92586000  1.0
  H  H47  1  0.90899000  0.04818000  0.07414000  1.0
  C  C48  1  0.35318000  0.57279000  0.41934000  1.0
  C  C49  1  0.85327000  0.42721000  0.58065000  1.0
  C  C50  1  0.34789000  0.38739000  0.43137000  1.0
  C  C51  1  0.84787000  0.61262000  0.56862000  1.0
  C  C52  1  0.07340000  0.70143000  0.86451000  1.0
  C  C53  1  0.57335000  0.29858000  0.13548000  1.0
  C  C54  1  0.94225000  0.81980000  0.88738000  1.0
  C  C55  1  0.44223000  0.18021000  0.11262000  1.0
  C  C56  1  0.73869000  0.73741000  0.59184000  1.0
  C  C57  1  0.23879000  0.26259000  0.40818000  1.0
  C  C58  1  0.71168000  0.80149000  0.63244000  1.0
  C  C59  1  0.21176000  0.19851000  0.36758000  1.0
  C  C60  1  0.76675000  0.80721000  0.69414000  1.0
  C  C61  1  0.26677000  0.19279000  0.30587000  1.0
  C  C62  1  0.85405000  0.74988000  0.71759000  1.0
  C  C63  1  0.35406000  0.25013000  0.28241000  1.0
  C  C64  1  0.89148000  0.68562000  0.67565000  1.0
  C  C65  1  0.39148000  0.31438000  0.32435000  1.0
  C  C66  1  0.90915000  0.75425000  0.78245000  1.0
  C  C67  1  0.40915000  0.24576000  0.21755000  1.0
  C  C68  1  0.00787000  0.69579000  0.80228000  1.0
  C  C69  1  0.50785000  0.30422000  0.19772000  1.0
  C  C70  1  0.04073000  0.63250000  0.75874000  1.0
  C  C71  1  0.54072000  0.36750000  0.24126000  1.0
  C  C72  1  0.98377000  0.62726000  0.69819000  1.0
  C  C73  1  0.48378000  0.37274000  0.30182000  1.0
  C  C74  1  0.87077000  0.81470000  0.82723000  1.0
  C  C75  1  0.37078000  0.18530000  0.17277000  1.0
  C  C76  1  0.04758000  0.76312000  0.90615000  1.0
  C  C77  1  0.54752000  0.23690000  0.09384000  1.0
  C  C78  1  0.82950000  0.68074000  0.61283000  1.0
  C  C79  1  0.32955000  0.31926000  0.38718000  1.0
  C  C80  1  0.79057000  0.27799000  0.81904000  1.0
  C  C81  1  0.29061000  0.72200000  0.18096000  1.0
  C  C82  1  0.12037000  0.23406000  0.77655000  1.0
  C  C83  1  0.62039000  0.76593000  0.22344000  1.0
  C  C84  1  0.10929000  0.27995000  0.72471000  1.0
  C  C85  1  0.60930000  0.72004000  0.27529000  1.0
  C  C86  1  0.85927000  0.37981000  0.62559000  1.0
  C  C87  1  0.35929000  0.62018000  0.37440000  1.0
  C  C88  1  0.90949000  0.20973000  0.79257000  1.0
  C  C89  1  0.40953000  0.79026000  0.20743000  1.0
  C  C90  1  0.77796000  0.32724000  0.76898000  1.0
  C  C91  1  0.27798000  0.67276000  0.23102000  1.0
  C  C92  1  0.88841000  0.29350000  0.70916000  1.0
  C  C93  1  0.38842000  0.70649000  0.29084000  1.0
  C  C94  1  0.78744000  0.22180000  0.68428000  1.0
  C  C95  1  0.28745000  0.77820000  0.31572000  1.0
  C  C96  1  0.81001000  0.17075000  0.73120000  1.0
  C  C97  1  0.31001000  0.82924000  0.26880000  1.0
  C  C98  1  0.87366000  0.34025000  0.66346000  1.0
  C  C99  1  0.37367000  0.65974000  0.33654000  1.0
  C  C100  1  0.91768000  0.16321000  0.83875000  1.0
  C  C101  1  0.41773000  0.83678000  0.16125000  1.0
  C  C102  1  0.92230000  0.12409000  0.87718000  1.0
  C  C103  1  0.42236000  0.87591000  0.12283000  1.0
  C  C104  1  0.42395000  0.11203000  0.06906000  1.0
  C  C105  1  0.92398000  0.88798000  0.93095000  1.0
  C  C106  1  0.42199000  0.92453000  0.07868000  1.0
  C  C107  1  0.92194000  0.07548000  0.92132000  1.0
  C  C108  1  0.93237000  0.10523000  0.70670000  1.0
  C  C109  1  0.43237000  0.89476000  0.29330000  1.0
  C  C110  1  0.58215000  0.26335000  0.83948000  1.0
  C  C111  1  0.08222000  0.73664000  0.16052000  1.0
  O  O112  1  0.52088000  0.41199000  0.44625000  1.0
  O  O113  1  0.02079000  0.58796000  0.55381000  1.0
  O  O114  1  0.18200000  0.55731000  0.43852000  1.0
  O  O115  1  0.68203000  0.44280000  0.56153000  1.0
  O  O116  1  0.18318000  0.41587000  0.45060000  1.0
  O  O117  1  0.68308000  0.58421000  0.54930000  1.0
  O  O118  1  0.02243000  0.44935000  0.56531000  1.0
  O  O119  1  0.52235000  0.55054000  0.43462000  1.0
  O  O120  1  0.35508000  0.51235000  0.53741000  1.0
  O  O121  1  0.85508000  0.48765000  0.46258000  1.0
  O  O122  1  0.25059000  0.94556000  0.06445000  1.0
  O  O123  1  0.75055000  0.05446000  0.93557000  1.0
  O  O124  1  0.58871000  0.08508000  0.04789000  1.0
  O  O125  1  0.08875000  0.91492000  0.95213000  1.0
  O  O126  1  0.59141000  0.94197000  0.05966000  1.0
  O  O127  1  0.09137000  0.05802000  0.94033000  1.0
  O  O128  1  0.75179000  0.91501000  0.94284000  1.0
  O  O129  1  0.25175000  0.08501000  0.05715000  1.0
  O  O130  1  0.41604000  0.98817000  0.96239000  1.0
  O  O131  1  0.91604000  0.01184000  0.03761000  1.0
  O  O132  1  0.01942000  0.09521000  0.65702000  1.0
  O  O133  1  0.51942000  0.90478000  0.34297000  1.0
  O  O134  1  0.49867000  0.29644000  0.88478000  1.0
  O  O135  1  0.99876000  0.70354000  0.11520000  1.0
