# generated using pymatgen
data_CuH4C18N2(O2F5)2
_symmetry_space_group_name_H-M   'P 1'
_cell_length_a   4.77367000
_cell_length_b   12.85880000
_cell_length_c   15.39240000
_cell_angle_alpha   89.18400000
_cell_angle_beta   89.15770000
_cell_angle_gamma   87.58980000
_symmetry_Int_Tables_number   1
_chemical_formula_structural   CuH4C18N2(O2F5)2
_chemical_formula_sum   'Cu2 H8 C36 N4 O8 F20'
_cell_volume   943.81634814
_cell_formula_units_Z   2
loop_
 _symmetry_equiv_pos_site_id
 _symmetry_equiv_pos_as_xyz
  1  'x, y, z'
loop_
 _atom_site_type_symbol
 _atom_site_label
 _atom_site_symmetry_multiplicity
 _atom_site_fract_x
 _atom_site_fract_y
 _atom_site_fract_z
 _atom_site_occupancy
  Cu  Cu0  1  0.23609000  0.75042000  0.48042000  1.0
  Cu  Cu1  1  0.76391000  0.24957000  0.51958000  1.0
  H  H2  1  0.78419000  0.86015000  0.58205000  1.0
  H  H3  1  0.21582000  0.13985000  0.41796000  1.0
  H  H4  1  0.36785000  0.95095000  0.39541000  1.0
  H  H5  1  0.63216000  0.04905000  0.60459000  1.0
  H  H6  1  0.12210000  0.54363000  0.40000000  1.0
  H  H7  1  0.87788000  0.45637000  0.59999000  1.0
  H  H8  1  0.69690000  0.64086000  0.58029000  1.0
  H  H9  1  0.30309000  0.35915000  0.41970000  1.0
  C  C10  1  0.79268000  0.74738000  0.35660000  1.0
  C  C11  1  0.20731000  0.25262000  0.64340000  1.0
  C  C12  1  0.24433000  0.74666000  0.66141000  1.0
  C  C13  1  0.75570000  0.25335000  0.33859000  1.0
  C  C14  1  0.67895000  0.72135000  0.26889000  1.0
  C  C15  1  0.32106000  0.27865000  0.73111000  1.0
  C  C16  1  0.48292000  0.78874000  0.22742000  1.0
  C  C17  1  0.51706000  0.21125000  0.77258000  1.0
  C  C18  1  0.35996000  0.76417000  0.14935000  1.0
  C  C19  1  0.64003000  0.23582000  0.85065000  1.0
  C  C20  1  0.43373000  0.66992000  0.10964000  1.0
  C  C21  1  0.56628000  0.33007000  0.89036000  1.0
  C  C22  1  0.63177000  0.60161000  0.14792000  1.0
  C  C23  1  0.36825000  0.39839000  0.85207000  1.0
  C  C24  1  0.75002000  0.62770000  0.22664000  1.0
  C  C25  1  0.25001000  0.37230000  0.77336000  1.0
  C  C26  1  0.36911000  0.77062000  0.74829000  1.0
  C  C27  1  0.63090000  0.22938000  0.25171000  1.0
  C  C28  1  0.32638000  0.86812000  0.78559000  1.0
  C  C29  1  0.67362000  0.13188000  0.21441000  1.0
  C  C30  1  0.44715000  0.89227000  0.86430000  1.0
  C  C31  1  0.55286000  0.10773000  0.13570000  1.0
  C  C32  1  0.61883000  0.81689000  0.90588000  1.0
  C  C33  1  0.38117000  0.18311000  0.09412000  1.0
  C  C34  1  0.66503000  0.71852000  0.86968000  1.0
  C  C35  1  0.33495000  0.28149000  0.13033000  1.0
  C  C36  1  0.53799000  0.69635000  0.79162000  1.0
  C  C37  1  0.46201000  0.30366000  0.20839000  1.0
  C  C38  1  0.88249000  0.92272000  0.54601000  1.0
  C  C39  1  0.11751000  0.07728000  0.45399000  1.0
  C  C40  1  0.20313000  0.97373000  0.44178000  1.0
  C  C41  1  0.79687000  0.02627000  0.55822000  1.0
  C  C42  1  0.28872000  0.52379000  0.44554000  1.0
  C  C43  1  0.71126000  0.47622000  0.55446000  1.0
  C  C44  1  0.60642000  0.57830000  0.54448000  1.0
  C  C45  1  0.39356000  0.42170000  0.45551000  1.0
  N  N46  1  0.08471000  0.89748000  0.48772000  1.0
  N  N47  1  0.91529000  0.10252000  0.51228000  1.0
  N  N48  1  0.39391000  0.60177000  0.49023000  1.0
  N  N49  1  0.60608000  0.39823000  0.50977000  1.0
  O  O50  1  0.04911000  0.71682000  0.37012000  1.0
  O  O51  1  0.95087000  0.28317000  0.62989000  1.0
  O  O52  1  0.39363000  0.77976000  0.59660000  1.0
  O  O53  1  0.60636000  0.22025000  0.40341000  1.0
  O  O54  1  0.63619000  0.79523000  0.41002000  1.0
  O  O55  1  0.36379000  0.20477000  0.58998000  1.0
  O  O56  1  0.02370000  0.69970000  0.65710000  1.0
  O  O57  1  0.97631000  0.30030000  0.34290000  1.0
  F  F58  1  0.40765000  0.88235000  0.26128000  1.0
  F  F59  1  0.59232000  0.11764000  0.73872000  1.0
  F  F60  1  0.17152000  0.83074000  0.11181000  1.0
  F  F61  1  0.82844000  0.16924000  0.88819000  1.0
  F  F62  1  0.31453000  0.64546000  0.03457000  1.0
  F  F63  1  0.68546000  0.35454000  0.96544000  1.0
  F  F64  1  0.93152000  0.55634000  0.26256000  1.0
  F  F65  1  0.06852000  0.44366000  0.73743000  1.0
  F  F66  1  0.16273000  0.94212000  0.74462000  1.0
  F  F67  1  0.83727000  0.05788000  0.25538000  1.0
  F  F68  1  0.39934000  0.98627000  0.90028000  1.0
  F  F69  1  0.60066000  0.01374000  0.09972000  1.0
  F  F70  1  0.73801000  0.83850000  0.98194000  1.0
  F  F71  1  0.26200000  0.16151000  0.01807000  1.0
  F  F72  1  0.83003000  0.64659000  0.91074000  1.0
  F  F73  1  0.16994000  0.35341000  0.08927000  1.0
  F  F74  1  0.58215000  0.60088000  0.75716000  1.0
  F  F75  1  0.41787000  0.39913000  0.24284000  1.0
  F  F76  1  0.70610000  0.51157000  0.10895000  1.0
  F  F77  1  0.29396000  0.48844000  0.89104000  1.0
