# generated using pymatgen
data_ZnH5C11N3O8
_symmetry_space_group_name_H-M   'P 1'
_cell_length_a   9.83183000
_cell_length_b   10.94540000
_cell_length_c   11.12220000
_cell_angle_alpha   90.77750000
_cell_angle_beta   99.43600000
_cell_angle_gamma   91.04010000
_symmetry_Int_Tables_number   1
_chemical_formula_structural   ZnH5C11N3O8
_chemical_formula_sum   'Zn2 H10 C22 N6 O16'
_cell_volume   1180.34133277
_cell_formula_units_Z   2
loop_
 _symmetry_equiv_pos_site_id
 _symmetry_equiv_pos_as_xyz
  1  'x, y, z'
loop_
 _atom_site_type_symbol
 _atom_site_label
 _atom_site_symmetry_multiplicity
 _atom_site_fract_x
 _atom_site_fract_y
 _atom_site_fract_z
 _atom_site_occupancy
  Zn  Zn0  1  0.36478000  0.49624000  0.48165000  1.0
  Zn  Zn1  1  0.64929000  0.50283000  0.52967000  1.0
  H  H2  1  0.72597000  0.58031000  0.15000000  1.0
  H  H3  1  0.72246000  0.58595000  0.92626000  1.0
  H  H4  1  0.28451000  0.28468000  0.85630000  1.0
  H  H5  1  0.19635000  0.42185000  0.07295000  1.0
  H  H6  1  0.70114000  0.12086000  0.59552000  1.0
  H  H7  1  0.70715000  0.89214000  0.58968000  1.0
  H  H8  1  0.29105000  0.87841000  0.39592000  1.0
  H  H9  1  0.28495000  0.10622000  0.40096000  1.0
  H  H10  1  0.89875000  0.67355000  0.61560000  1.0
  H  H11  1  0.84875000  0.32530000  0.45744000  1.0
  C  C12  1  0.48852000  0.26305000  0.50427000  1.0
  C  C13  1  0.50125000  0.73580000  0.49458000  1.0
  C  C14  1  0.52738000  0.48992000  0.27272000  1.0
  C  C15  1  0.52394000  0.50388000  0.74364000  1.0
  C  C16  1  0.41904000  0.44305000  0.05442000  1.0
  C  C17  1  0.41624000  0.44769000  0.92921000  1.0
  C  C18  1  0.52808000  0.49050000  0.13862000  1.0
  C  C19  1  0.52308000  0.49981000  0.87766000  1.0
  C  C20  1  0.63743000  0.54219000  0.08814000  1.0
  C  C21  1  0.63512000  0.54623000  0.96208000  1.0
  C  C22  1  0.28202000  0.37449000  0.90025000  1.0
  C  C23  1  0.28267000  0.37571000  0.04205000  1.0
  C  C24  1  0.61205000  0.06687000  0.55181000  1.0
  C  C25  1  0.61536000  0.94004000  0.54867000  1.0
  C  C26  1  0.49886000  0.87199000  0.49361000  1.0
  C  C27  1  0.49227000  0.12691000  0.49971000  1.0
  C  C28  1  0.38011000  0.93210000  0.43986000  1.0
  C  C29  1  0.37669000  0.05900000  0.44293000  1.0
  C  C30  1  0.94317000  0.59671000  0.57352000  1.0
  C  C31  1  0.91531000  0.40493000  0.48468000  1.0
  C  C32  1  0.07909000  0.59989000  0.55124000  1.0
  C  C33  1  0.04853000  0.41524000  0.45925000  1.0
  N  N34  1  0.13345000  0.51121000  0.49218000  1.0
  N  N35  1  0.86341000  0.49859000  0.54006000  1.0
  N  N36  1  0.16112000  0.43919000  0.82785000  1.0
  N  N37  1  0.28247000  0.24713000  0.09249000  1.0
  N  N38  1  0.15892000  0.71345000  0.59314000  1.0
  N  N39  1  0.09264000  0.31895000  0.37985000  1.0
  O  O40  1  0.37033000  0.31233000  0.48620000  1.0
  O  O41  1  0.38473000  0.67858000  0.47554000  1.0
  O  O42  1  0.60421000  0.32091000  0.52640000  1.0
  O  O43  1  0.61858000  0.68582000  0.51558000  1.0
  O  O44  1  0.40928000  0.48706000  0.30523000  1.0
  O  O45  1  0.40819000  0.49025000  0.67394000  1.0
  O  O46  1  0.64396000  0.49404000  0.34228000  1.0
  O  O47  1  0.64110000  0.51941000  0.71072000  1.0
  O  O48  1  0.10416000  0.38766000  0.73250000  1.0
  O  O49  1  0.12773000  0.53809000  0.86762000  1.0
  O  O50  1  0.17742000  0.18463000  0.05638000  1.0
  O  O51  1  0.38465000  0.21524000  0.16366000  1.0
  O  O52  1  0.11938000  0.80413000  0.53316000  1.0
  O  O53  1  0.24589000  0.70907000  0.68536000  1.0
  O  O54  1  0.06349000  0.21276000  0.40287000  1.0
  O  O55  1  0.14752000  0.35561000  0.29469000  1.0
