# generated using pymatgen
data_LiBH15C5NO
_symmetry_space_group_name_H-M   'P 1'
_cell_length_a   7.49741000
_cell_length_b   10.95350000
_cell_length_c   11.04830000
_cell_angle_alpha   117.58600000
_cell_angle_beta   90.00000000
_cell_angle_gamma   90.00000000
_symmetry_Int_Tables_number   1
_chemical_formula_structural   LiBH15C5NO
_chemical_formula_sum   'Li4 B4 H60 C20 N4 O4'
_cell_volume   804.17134256
_cell_formula_units_Z   4
loop_
 _symmetry_equiv_pos_site_id
 _symmetry_equiv_pos_as_xyz
  1  'x, y, z'
loop_
 _atom_site_type_symbol
 _atom_site_label
 _atom_site_symmetry_multiplicity
 _atom_site_fract_x
 _atom_site_fract_y
 _atom_site_fract_z
 _atom_site_occupancy
  Li  Li0  1  0.89572000  0.63001000  0.55204000  1.0
  Li  Li1  1  0.39572000  0.36999000  0.94796000  1.0
  Li  Li2  1  0.10428000  0.36999000  0.44796000  1.0
  Li  Li3  1  0.60428000  0.63001000  0.05204000  1.0
  B  B4  1  0.78828000  0.39672000  0.44778000  1.0
  B  B5  1  0.28828000  0.60328000  0.05222000  1.0
  B  B6  1  0.21172000  0.60328000  0.55222000  1.0
  B  B7  1  0.71172000  0.39672000  0.94778000  1.0
  H  H8  1  0.90399000  0.61124000  0.23552000  1.0
  H  H9  1  0.40399000  0.38876000  0.26448000  1.0
  H  H10  1  0.09601000  0.38876000  0.76448000  1.0
  H  H11  1  0.59601000  0.61124000  0.73552000  1.0
  H  H12  1  0.61310000  0.56922000  0.29176000  1.0
  H  H13  1  0.11310000  0.43078000  0.20824000  1.0
  H  H14  1  0.38690000  0.43078000  0.70824000  1.0
  H  H15  1  0.88690000  0.56922000  0.79176000  1.0
  H  H16  1  0.40113000  0.75600000  0.32055000  1.0
  H  H17  1  0.90113000  0.24400000  0.17945000  1.0
  H  H18  1  0.59887000  0.24400000  0.67945000  1.0
  H  H19  1  0.09887000  0.75600000  0.82055000  1.0
  H  H20  1  0.84658000  0.92503000  0.38924000  1.0
  H  H21  1  0.34658000  0.07497000  0.11076000  1.0
  H  H22  1  0.15342000  0.07497000  0.61076000  1.0
  H  H23  1  0.65342000  0.92503000  0.88924000  1.0
  H  H24  1  0.53737000  0.88010000  0.45427000  1.0
  H  H25  1  0.03737000  0.11990000  0.04573000  1.0
  H  H26  1  0.46263000  0.11990000  0.54573000  1.0
  H  H27  1  0.96263000  0.88010000  0.95427000  1.0
  H  H28  1  0.91310000  0.82596000  0.21509000  1.0
  H  H29  1  0.41310000  0.17404000  0.28491000  1.0
  H  H30  1  0.08690000  0.17404000  0.78491000  1.0
  H  H31  1  0.58691000  0.82596000  0.71509000  1.0
  H  H32  1  0.04047000  0.73464000  0.36796000  1.0
  H  H33  1  0.54047000  0.26536000  0.13204000  1.0
  H  H34  1  0.95953000  0.26536000  0.63204000  1.0
  H  H35  1  0.45953000  0.73464000  0.86796000  1.0
  H  H36  1  0.53984000  0.65925000  0.46502000  1.0
  H  H37  1  0.03984000  0.34075000  0.03498000  1.0
  H  H38  1  0.46017000  0.34075000  0.53498000  1.0
  H  H39  1  0.96016000  0.65925000  0.96502000  1.0
  H  H40  1  0.65309000  0.92310000  0.15517000  1.0
  H  H41  1  0.15309000  0.07690000  0.34483000  1.0
  H  H42  1  0.34691000  0.07690000  0.84483000  1.0
  H  H43  1  0.84691000  0.92310000  0.65517000  1.0
  H  H44  1  0.43630000  0.89483000  0.20358000  1.0
  H  H45  1  0.93630000  0.10517000  0.29642000  1.0
  H  H46  1  0.56370000  0.10517000  0.79642000  1.0
  H  H47  1  0.06370000  0.89483000  0.70358000  1.0
  H  H48  1  0.71907000  0.49544000  0.54415000  1.0
  H  H49  1  0.21907000  0.50456000  0.95585000  1.0
  H  H50  1  0.28093000  0.50456000  0.45585000  1.0
  H  H51  1  0.78093000  0.49544000  0.04415000  1.0
  H  H52  1  0.89484000  0.43813000  0.38980000  1.0
  H  H53  1  0.39484000  0.56187000  0.11020000  1.0
  H  H54  1  0.10516000  0.56187000  0.61020000  1.0
  H  H55  1  0.60516000  0.43813000  0.88980000  1.0
  H  H56  1  0.86466000  0.32609000  0.49130000  1.0
  H  H57  1  0.36466000  0.67391000  0.00870000  1.0
  H  H58  1  0.13534000  0.67391000  0.50870000  1.0
  H  H59  1  0.63534000  0.32609000  0.99130000  1.0
  H  H60  1  0.67468000  0.32846000  0.36554000  1.0
  H  H61  1  0.17469000  0.67154000  0.13446000  1.0
  H  H62  1  0.32531000  0.67155000  0.63446000  1.0
  H  H63  1  0.82531000  0.32846000  0.86554000  1.0
  H  H64  1  0.58673000  0.01253000  0.33075000  1.0
  H  H65  1  0.08673000  0.98747000  0.16925000  1.0
  H  H66  1  0.41327000  0.98747000  0.66925000  1.0
  H  H67  1  0.91327000  0.01253000  0.83075000  1.0
  C  C68  1  0.61542000  0.66924000  0.38503000  1.0
  C  C69  1  0.11543000  0.33076000  0.11497000  1.0
  C  C70  1  0.38458000  0.33076000  0.61497000  1.0
  C  C71  1  0.88458000  0.66924000  0.88503000  1.0
  C  C72  1  0.53894000  0.78206000  0.35759000  1.0
  C  C73  1  0.03894000  0.21794000  0.14241000  1.0
  C  C74  1  0.46106000  0.21794000  0.64241000  1.0
  C  C75  1  0.96106000  0.78206000  0.85759000  1.0
  C  C76  1  0.83279000  0.82342000  0.29717000  1.0
  C  C77  1  0.33279000  0.17658000  0.20283000  1.0
  C  C78  1  0.16721000  0.17658000  0.70283000  1.0
  C  C79  1  0.66721000  0.82342000  0.79717000  1.0
  C  C80  1  0.90396000  0.71153000  0.32830000  1.0
  C  C81  1  0.40396000  0.28847000  0.17170000  1.0
  C  C82  1  0.09604000  0.28847000  0.67170000  1.0
  C  C83  1  0.59604000  0.71153000  0.82830000  1.0
  C  C84  1  0.57651000  0.91407000  0.23533000  1.0
  C  C85  1  0.07651000  0.08593000  0.26467000  1.0
  C  C86  1  0.42349000  0.08593000  0.76467000  1.0
  C  C87  1  0.92349000  0.91408000  0.73533000  1.0
  N  N88  1  0.64505000  0.79842000  0.25360000  1.0
  N  N89  1  0.14505000  0.20158000  0.24641000  1.0
  N  N90  1  0.35495000  0.20158000  0.74641000  1.0
  N  N91  1  0.85495000  0.79842000  0.75359000  1.0
  O  O92  1  0.79732000  0.70149000  0.43196000  1.0
  O  O93  1  0.29732000  0.29851000  0.06804000  1.0
  O  O94  1  0.20268000  0.29851000  0.56804000  1.0
  O  O95  1  0.70268000  0.70149000  0.93196000  1.0
