# generated using pymatgen
data_Al3H19C48I6(Br3O7)2
_symmetry_space_group_name_H-M   'P 1'
_cell_length_a   13.85590000
_cell_length_b   14.19410000
_cell_length_c   26.74820000
_cell_angle_alpha   87.37400000
_cell_angle_beta   89.50290000
_cell_angle_gamma   64.01920000
_symmetry_Int_Tables_number   1
_chemical_formula_structural   Al3H19C48I6(Br3O7)2
_chemical_formula_sum   'Al6 H38 C96 I12 Br12 O28'
_cell_volume   4723.64263758
_cell_formula_units_Z   2
loop_
 _symmetry_equiv_pos_site_id
 _symmetry_equiv_pos_as_xyz
  1  'x, y, z'
loop_
 _atom_site_type_symbol
 _atom_site_label
 _atom_site_symmetry_multiplicity
 _atom_site_fract_x
 _atom_site_fract_y
 _atom_site_fract_z
 _atom_site_occupancy
  Al  Al0  1  0.56717000  0.61061000  0.49598000  1.0
  Al  Al1  1  0.60596000  0.81623000  0.49374000  1.0
  Al  Al2  1  0.79932000  0.60747000  0.49374000  1.0
  Al  Al3  1  0.12216000  0.03033000  0.99124000  1.0
  Al  Al4  1  0.06163000  0.84172000  0.98210000  1.0
  Al  Al5  1  0.88128000  0.05801000  0.98431000  1.0
  H  H6  1  0.66007000  0.80575000  0.26547000  1.0
  H  H7  1  0.81033000  0.47082000  0.23884000  1.0
  H  H8  1  0.47398000  0.86980000  0.25262000  1.0
  H  H9  1  0.67810000  0.78497000  0.18028000  1.0
  H  H10  1  0.80641000  0.38364000  0.16838000  1.0
  H  H11  1  0.42325000  0.86717000  0.17116000  1.0
  H  H12  1  0.72836000  0.02371000  0.17935000  1.0
  H  H13  1  0.06362000  0.17992000  0.23001000  1.0
  H  H14  1  0.41023000  0.61927000  0.21060000  1.0
  H  H15  1  0.92476000  0.62456000  0.62667000  1.0
  H  H16  1  0.61247000  0.49822000  0.64166000  1.0
  H  H17  1  0.48700000  0.92599000  0.63368000  1.0
  H  H18  1  0.99505000  0.59454000  0.80282000  1.0
  H  H19  1  0.59988000  0.42745000  0.81778000  1.0
  H  H20  1  0.43417000  0.99004000  0.80832000  1.0
  H  H21  1  0.71554000  0.11853000  0.74766000  1.0
  H  H22  1  0.12938000  0.18846000  0.75940000  1.0
  H  H23  1  0.18336000  0.68496000  0.75983000  1.0
  H  H24  1  0.78596000  0.69641000  0.27323000  1.0
  H  H25  1  0.69713000  0.45347000  0.25765000  1.0
  H  H26  1  0.34574000  0.97199000  0.26243000  1.0
  H  H27  1  0.73182000  0.95407000  0.59383000  1.0
  H  H28  1  0.94811000  0.36064000  0.60649000  1.0
  H  H29  1  0.33838000  0.72441000  0.60432000  1.0
  H  H30  1  0.94500000  0.85661000  0.27160000  1.0
  H  H31  1  0.84762000  0.20126000  0.33280000  1.0
  H  H32  1  0.21768000  0.79939000  0.30723000  1.0
  H  H33  1  0.95651000  0.72851000  0.26549000  1.0
  H  H34  1  0.73116000  0.27504000  0.29577000  1.0
  H  H35  1  0.19260000  0.92537000  0.28109000  1.0
  H  H36  1  0.96056000  0.75446000  0.18005000  1.0
  H  H37  1  0.81466000  0.14326000  0.23854000  1.0
  H  H38  1  0.15597000  0.87033000  0.20660000  1.0
  H  H39  1  0.77169000  0.00524000  0.26148000  1.0
  H  H40  1  0.01292000  0.23238000  0.30846000  1.0
  H  H41  1  0.39175000  0.65518000  0.29242000  1.0
  H  H42  1  0.49125000  0.49971000  0.52431000  1.0
  H  H43  1  0.19813000  0.14592000  0.97438000  1.0
  C  C44  1  0.76004000  0.48904000  0.42622000  1.0
  C  C45  1  0.45929000  0.79897000  0.42843000  1.0
  C  C46  1  0.76620000  0.78126000  0.42212000  1.0
  C  C47  1  0.70999000  0.96267000  0.19726000  1.0
  C  C48  1  0.99143000  0.25502000  0.22875000  1.0
  C  C49  1  0.42311000  0.68860000  0.21673000  1.0
  C  C50  1  0.72557000  0.96087000  0.25461000  1.0
  C  C51  1  0.96786000  0.29810000  0.28186000  1.0
  C  C52  1  0.42814000  0.70170000  0.27348000  1.0
  C  C53  1  0.79450000  0.85849000  0.12308000  1.0
  C  C54  1  0.91782000  0.18622000  0.16176000  1.0
  C  C55  1  0.30237000  0.77721000  0.14189000  1.0
  C  C56  1  0.79468000  0.83220000  0.32923000  1.0
  C  C57  1  0.81664000  0.39370000  0.34008000  1.0
  C  C58  1  0.37839000  0.83295000  0.33811000  1.0
  C  C59  1  0.79311000  0.80940000  0.37350000  1.0
  C  C60  1  0.79012000  0.43296000  0.38047000  1.0
  C  C61  1  0.39999000  0.83411000  0.38193000  1.0
  C  C62  1  0.21154000  0.86068000  0.91772000  1.0
  C  C63  1  0.89440000  0.90867000  0.90915000  1.0
  C  C64  1  0.93265000  0.18999000  0.92290000  1.0
  C  C65  1  0.20778000  0.82736000  0.05341000  1.0
  C  C66  1  0.86588000  0.89226000  0.03795000  1.0
  C  C67  1  0.95073000  0.12963000  0.06710000  1.0
  C  C68  1  0.88910000  0.70467000  0.63902000  1.0
  C  C69  1  0.69563000  0.45179000  0.65358000  1.0
  C  C70  1  0.43934000  0.88612000  0.64681000  1.0
  C  C71  1  0.90125000  0.72373000  0.68888000  1.0
  C  C72  1  0.71943000  0.41409000  0.70345000  1.0
  C  C73  1  0.40483000  0.89444000  0.69649000  1.0
  C  C74  1  0.90073000  0.76342000  0.79281000  1.0
  C  C75  1  0.77271000  0.35005000  0.80707000  1.0
  C  C76  1  0.35678000  0.88728000  0.80065000  1.0
  C  C77  1  0.74875000  0.48982000  0.56861000  1.0
  C  C78  1  0.47356000  0.79590000  0.56571000  1.0
  C  C79  1  0.79292000  0.76219000  0.55721000  1.0
  C  C80  1  0.95422000  0.65921000  0.77563000  1.0
  C  C81  1  0.66360000  0.40766000  0.79047000  1.0
  C  C82  1  0.41085000  0.94714000  0.78210000  1.0
  C  C83  1  0.95750000  0.64107000  0.72591000  1.0
  C  C84  1  0.63860000  0.43599000  0.74114000  1.0
  C  C85  1  0.43066000  0.95268000  0.73232000  1.0
  C  C86  1  0.89679000  0.78563000  0.84370000  1.0
  C  C87  1  0.80182000  0.31688000  0.85755000  1.0
  C  C88  1  0.33275000  0.88132000  0.85164000  1.0
  C  C89  1  0.85737000  0.88946000  0.85976000  1.0
  C  C90  1  0.90897000  0.25180000  0.87316000  1.0
  C  C91  1  0.27010000  0.83045000  0.86900000  1.0
  C  C92  1  0.78067000  0.89077000  0.62032000  1.0
  C  C93  1  0.88472000  0.37384000  0.63347000  1.0
  C  C94  1  0.35477000  0.77274000  0.63025000  1.0
  C  C95  1  0.79520000  0.91358000  0.66922000  1.0
  C  C96  1  0.91171000  0.33060000  0.68247000  1.0
  C  C97  1  0.31599000  0.78167000  0.67910000  1.0
  C  C98  1  0.85113000  0.82919000  0.70535000  1.0
  C  C99  1  0.82920000  0.35390000  0.71925000  1.0
  C  C100  1  0.34565000  0.83837000  0.71416000  1.0
  C  C101  1  0.75107000  0.01838000  0.68653000  1.0
  C  C102  1  0.02013000  0.26664000  0.69929000  1.0
  C  C103  1  0.25195000  0.73109000  0.69756000  1.0
  C  C104  1  0.75211000  0.03807000  0.73583000  1.0
  C  C105  1  0.04590000  0.23566000  0.74829000  1.0
  C  C106  1  0.23020000  0.72597000  0.74713000  1.0
  C  C107  1  0.79997000  0.95473000  0.77295000  1.0
  C  C108  1  0.96555000  0.26337000  0.78600000  1.0
  C  C109  1  0.26664000  0.77485000  0.78324000  1.0
  C  C110  1  0.74490000  0.77469000  0.25488000  1.0
  C  C111  1  0.78175000  0.41099000  0.24801000  1.0
  C  C112  1  0.38759000  0.89130000  0.25039000  1.0
  C  C113  1  0.85308000  0.84956000  0.75698000  1.0
  C  C114  1  0.85581000  0.32073000  0.77066000  1.0
  C  C115  1  0.32054000  0.83569000  0.76591000  1.0
  C  C116  1  0.79921000  0.97279000  0.82472000  1.0
  C  C117  1  0.99077000  0.23365000  0.83747000  1.0
  C  C118  1  0.24866000  0.76782000  0.83525000  1.0
  C  C119  1  0.82504000  0.78710000  0.60580000  1.0
  C  C120  1  0.77770000  0.43511000  0.61926000  1.0
  C  C121  1  0.41869000  0.82185000  0.61480000  1.0
  C  C122  1  0.90766000  0.81162000  0.25461000  1.0
  C  C123  1  0.81899000  0.24508000  0.29697000  1.0
  C  C124  1  0.24228000  0.84077000  0.27800000  1.0
  C  C125  1  0.90379000  0.82569000  0.19740000  1.0
  C  C126  1  0.86799000  0.17427000  0.25309000  1.0
  C  C127  1  0.22696000  0.80964000  0.22577000  1.0
  C  C128  1  0.81842000  0.86226000  0.07952000  1.0
  C  C129  1  0.92917000  0.16087000  0.11844000  1.0
  C  C130  1  0.26688000  0.78726000  0.09962000  1.0
  C  C131  1  0.79256000  0.84619000  0.27514000  1.0
  C  C132  1  0.84599000  0.34058000  0.29317000  1.0
  C  C133  1  0.36090000  0.81836000  0.28638000  1.0
  C  C134  1  0.75452000  0.77093000  0.19789000  1.0
  C  C135  1  0.79598000  0.34442000  0.20275000  1.0
  C  C136  1  0.35651000  0.88146000  0.19665000  1.0
  C  C137  1  0.78890000  0.85433000  0.17711000  1.0
  C  C138  1  0.89536000  0.23562000  0.20992000  1.0
  C  C139  1  0.32746000  0.78748000  0.19334000  1.0
  I  I140  1  0.86165000  0.61404000  0.17414000  1.0
  I  I141  1  0.65146000  0.32486000  0.18462000  1.0
  I  I142  1  0.23299000  0.02744000  0.16375000  1.0
  I  I143  1  0.69740000  0.12519000  0.84714000  1.0
  I  I144  1  0.15488000  0.16722000  0.85810000  1.0
  I  I145  1  0.20344000  0.64953000  0.85995000  1.0
  I  I146  1  0.58300000  0.04555000  0.29799000  1.0
  I  I147  1  0.03098000  0.40782000  0.30024000  1.0
  I  I148  1  0.58483000  0.63209000  0.30909000  1.0
  I  I149  1  0.54926000  0.00688000  0.16694000  1.0
  I  I150  1  0.03813000  0.33873000  0.17008000  1.0
  I  I151  1  0.56708000  0.65402000  0.17259000  1.0
  Br  Br152  1  0.93061000  0.67201000  0.89187000  1.0
  Br  Br153  1  0.69120000  0.37232000  0.90602000  1.0
  Br  Br154  1  0.39653000  0.93445000  0.89875000  1.0
  Br  Br155  1  0.03812000  0.50161000  0.70583000  1.0
  Br  Br156  1  0.49084000  0.50866000  0.72266000  1.0
  Br  Br157  1  0.49556000  0.04049000  0.71028000  1.0
  Br  Br158  1  0.68552000  0.13527000  0.64013000  1.0
  Br  Br159  1  0.13456000  0.22424000  0.65255000  1.0
  Br  Br160  1  0.19658000  0.66678000  0.65217000  1.0
  Br  Br161  1  0.94945000  0.93276000  0.17170000  1.0
  Br  Br162  1  0.99486000  0.04697000  0.27824000  1.0
  Br  Br163  1  0.19482000  0.68611000  0.22857000  1.0
  O  O164  1  0.48393000  0.70463000  0.44170000  1.0
  O  O165  1  0.67618000  0.84671000  0.43935000  1.0
  O  O166  1  0.83362000  0.51050000  0.44516000  1.0
  O  O167  1  0.04708000  0.09589000  0.05326000  1.0
  O  O168  1  0.15017000  0.78312000  0.03811000  1.0
  O  O169  1  0.81964000  0.99021000  0.02499000  1.0
  O  O170  1  0.66734000  0.51474000  0.44321000  1.0
  O  O171  1  0.48709000  0.86207000  0.45061000  1.0
  O  O172  1  0.82881000  0.69285000  0.44294000  1.0
  O  O173  1  0.47839000  0.71562000  0.54526000  1.0
  O  O174  1  0.70825000  0.83199000  0.53569000  1.0
  O  O175  1  0.82322000  0.50253000  0.54428000  1.0
  O  O176  1  0.65247000  0.52343000  0.55367000  1.0
  O  O177  1  0.51706000  0.85497000  0.54863000  1.0
  O  O178  1  0.84775000  0.66977000  0.54152000  1.0
  O  O179  1  0.65863000  0.67834000  0.49421000  1.0
  O  O180  1  0.02166000  0.15898000  0.94510000  1.0
  O  O181  1  0.18370000  0.79613000  0.94191000  1.0
  O  O182  1  0.84082000  0.99348000  0.93077000  1.0
  O  O183  1  0.18507000  0.95355000  0.92992000  1.0
  O  O184  1  0.98667000  0.83899000  0.92449000  1.0
  O  O185  1  0.85772000  0.16450000  0.93789000  1.0
  O  O186  1  0.02009000  0.97747000  0.98616000  1.0
  O  O187  1  0.21319000  0.90688000  0.03287000  1.0
  O  O188  1  0.95279000  0.82388000  0.02000000  1.0
  O  O189  1  0.87032000  0.13874000  0.04002000  1.0
  O  O190  1  0.48484000  0.54605000  0.49560000  1.0
  O  O191  1  0.21474000  0.08270000  0.99488000  1.0
