# generated using pymatgen
data_Zn8H32C49O44
_symmetry_space_group_name_H-M   'P 1'
_cell_length_a   18.10776386
_cell_length_b   18.28980000
_cell_length_c   18.52006925
_cell_angle_alpha   62.91136643
_cell_angle_beta   61.34526469
_cell_angle_gamma   61.16221757
_symmetry_Int_Tables_number   1
_chemical_formula_structural   Zn8H32C49O44
_chemical_formula_sum   'Zn8 H32 C49 O44'
_cell_volume   4510.15939329
_cell_formula_units_Z   1
loop_
 _symmetry_equiv_pos_site_id
 _symmetry_equiv_pos_as_xyz
  1  'x, y, z'
loop_
 _atom_site_type_symbol
 _atom_site_label
 _atom_site_symmetry_multiplicity
 _atom_site_fract_x
 _atom_site_fract_y
 _atom_site_fract_z
 _atom_site_occupancy
  Zn  Zn0  1  0.54079000  0.86746000  0.54050000  1.0
  Zn  Zn1  1  0.55330000  0.04283000  0.52894000  1.0
  Zn  Zn2  1  0.37262000  0.04118000  0.54121000  1.0
  Zn  Zn3  1  0.54640000  0.02994000  0.36667000  1.0
  Zn  Zn4  1  0.95073000  0.62928000  0.96687000  1.0
  Zn  Zn5  1  0.13158000  0.46515000  0.95821000  1.0
  Zn  Zn6  1  0.95466000  0.46087000  0.95387000  1.0
  Zn  Zn7  1  0.96331000  0.45002000  0.12589000  1.0
  H  H8  1  0.66344000  0.87699000  0.19613000  1.0
  H  H9  1  0.36657000  0.21556000  0.69798000  1.0
  H  H10  1  0.68263000  0.70275000  0.71705000  1.0
  H  H11  1  0.82573000  0.80368000  0.13023000  1.0
  H  H12  1  0.72569000  0.67229000  0.41937000  1.0
  H  H13  1  0.64382000  0.68176000  0.38539000  1.0
  H  H14  1  0.90919000  0.56849000  0.28538000  1.0
  H  H15  1  0.96270000  0.71599000  0.10719000  1.0
  H  H16  1  0.28467000  0.73038000  0.84774000  1.0
  H  H17  1  0.09640000  0.93364000  0.74354000  1.0
  H  H18  1  0.07005000  0.29632000  0.38011000  1.0
  H  H19  1  0.83595000  0.74615000  0.30737000  1.0
  H  H20  1  0.29276000  0.40744000  0.07672000  1.0
  H  H21  1  0.22367000  0.25483000  0.44951000  1.0
  H  H22  1  0.40488000  0.14100000  0.22681000  1.0
  H  H23  1  0.56175000  0.26582000  0.41683000  1.0
  H  H24  1  0.83909000  0.16034000  0.20348000  1.0
  H  H25  1  0.29529000  0.14911000  0.84925000  1.0
  H  H26  1  0.81425000  0.59103000  0.71595000  1.0
  H  H27  1  0.62635000  0.70752000  0.18301000  1.0
  H  H28  1  0.67635000  0.81338000  0.82146000  1.0
  H  H29  1  0.73673000  0.91967000  0.62255000  1.0
  H  H30  1  0.09515000  0.79995000  0.77019000  1.0
  H  H31  1  0.74821000  0.83350000  0.06237000  1.0
  H  H32  1  0.79982000  0.92090000  0.16697000  1.0
  H  H33  1  0.79494000  0.52279000  0.29629000  1.0
  H  H34  1  0.33376000  0.74284000  0.69607000  1.0
  H  H35  1  0.58673000  0.82161000  0.27309000  1.0
  H  H36  1  0.77134000  0.32037000  0.30055000  1.0
  H  H37  1  0.76662000  0.31525000  0.13817000  1.0
  H  H38  1  0.12042000  0.33344000  0.75827000  1.0
  H  H39  1  0.20065000  0.21095000  0.69390000  1.0
  C  C40  1  0.63927000  0.13328000  0.34951000  1.0
  C  C41  1  0.29931000  0.81278000  0.68477000  1.0
  C  C42  1  0.16554000  0.30904000  0.27441000  1.0
  C  C43  1  0.35615000  0.86691000  0.62912000  1.0
  C  C44  1  0.19635000  0.35065000  0.18667000  1.0
  C  C45  1  0.22229000  0.25651000  0.32999000  1.0
  C  C46  1  0.30578000  0.19640000  0.30583000  1.0
  C  C47  1  0.75520000  0.30019000  0.26413000  1.0
  C  C48  1  0.78723000  0.32675000  0.17745000  1.0
  C  C49  1  0.69638000  0.24880000  0.31461000  1.0
  C  C50  1  0.70118000  0.18480000  0.29177000  1.0
  C  C51  1  0.70787000  0.69062000  0.36319000  1.0
  C  C52  1  0.18221000  0.28385000  0.77018000  1.0
  C  C53  1  0.19930000  0.28172000  0.83532000  1.0
  C  C54  1  0.23613000  0.22712000  0.71548000  1.0
  C  C55  1  0.64836000  0.86559000  0.62069000  1.0
  C  C56  1  0.32643000  0.19688000  0.68490000  1.0
  C  C57  1  0.78155000  0.67506000  0.76954000  1.0
  C  C58  1  0.79621000  0.69870000  0.82109000  1.0
  C  C59  1  0.72147000  0.73187000  0.71943000  1.0
  C  C60  1  0.71315000  0.81548000  0.66950000  1.0
  C  C61  1  0.14189000  0.38601000  0.13153000  1.0
  C  C62  1  0.70068000  0.78561000  0.30995000  1.0
  C  C63  1  0.86308000  0.63866000  0.86557000  1.0
  C  C64  1  0.12524000  0.64786000  0.88573000  1.0
  C  C65  1  0.85188000  0.37433000  0.12869000  1.0
  C  C66  1  0.13989000  0.35435000  0.87641000  1.0
  C  C67  1  0.36093000  0.13341000  0.36437000  1.0
  C  C68  1  0.85449000  0.62849000  0.14931000  1.0
  C  C69  1  0.37672000  0.13893000  0.62914000  1.0
  C  C70  1  0.64314000  0.84770000  0.36539000  1.0
  C  C71  1  0.65814000  0.81360000  0.24224000  1.0
  C  C72  1  0.70219000  0.74156000  0.19669000  1.0
  C  C73  1  0.79488000  0.68406000  0.21062000  1.0
  C  C74  1  0.79860000  0.78873000  0.26218000  1.0
  C  C75  1  0.25540000  0.67891000  0.87160000  1.0
  C  C76  1  0.27940000  0.37123000  0.14612000  1.0
  C  C77  1  0.18028000  0.26361000  0.41808000  1.0
  C  C78  1  0.62888000  0.26872000  0.39777000  1.0
  C  C79  1  0.77471000  0.15537000  0.21612000  1.0
  C  C80  1  0.26769000  0.20679000  0.87235000  1.0
  C  C81  1  0.73868000  0.78423000  0.83759000  1.0
  C  C82  1  0.70792000  0.78960000  0.10193000  1.0
  C  C83  1  0.80426000  0.87867000  0.23249000  1.0
  C  C84  1  0.84036000  0.75035000  0.18729000  1.0
  C  C85  1  0.77987000  0.62906000  0.30839000  1.0
  C  C86  1  0.15849000  0.78059000  0.77912000  1.0
  C  C87  1  0.18156000  0.70543000  0.84061000  1.0
  C  C88  1  0.20865000  0.84088000  0.72287000  1.0
  O  O89  1  0.50355000  0.99586000  0.49302000  1.0
  O  O90  1  0.87957000  0.39040000  0.04723000  1.0
  O  O91  1  0.17942000  0.38370000  0.89246000  1.0
  O  O92  1  0.60599000  0.11618000  0.31490000  1.0
  O  O93  1  0.89308000  0.54751000  0.18030000  1.0
  O  O94  1  0.05662000  0.38014000  0.88917000  1.0
  O  O95  1  0.86379000  0.66908000  0.06997000  1.0
  O  O96  1  0.04276000  0.68210000  0.92565000  1.0
  O  O97  1  0.87520000  0.39344000  0.17124000  1.0
  O  O98  1  0.17650000  0.42318000  0.05143000  1.0
  O  O99  1  0.87401000  0.55730000  0.89292000  1.0
  O  O100  1  0.60747000  0.82675000  0.61906000  1.0
  O  O101  1  0.44063000  0.82444000  0.60659000  1.0
  O  O102  1  0.64131000  0.94631000  0.58483000  1.0
  O  O103  1  0.32467000  0.12303000  0.44458000  1.0
  O  O104  1  0.46211000  0.11440000  0.60554000  1.0
  O  O105  1  0.61663000  0.92852000  0.32434000  1.0
  O  O106  1  0.33244000  0.11789000  0.60940000  1.0
  O  O107  1  0.62497000  0.81525000  0.44633000  1.0
  O  O108  1  0.85962000  0.59878000  0.32706000  1.0
  O  O109  1  0.93514000  0.71368000  0.16778000  1.0
  O  O110  1  0.27953000  0.60871000  0.92323000  1.0
  O  O111  1  0.44168000  0.09427000  0.32434000  1.0
  O  O112  1  0.15879000  0.92702000  0.70791000  1.0
  O  O113  1  0.07989000  0.31541000  0.31619000  1.0
  O  O114  1  0.32926000  0.35568000  0.18273000  1.0
  O  O115  1  0.09825000  0.28255000  0.45612000  1.0
  O  O116  1  0.34497000  0.18531000  0.22806000  1.0
  O  O117  1  0.64597000  0.28909000  0.44075000  1.0
  O  O118  1  0.76866000  0.12557000  0.17290000  1.0
  O  O119  1  0.28938000  0.20306000  0.92745000  1.0
  O  O120  1  0.82582000  0.59307000  0.76124000  1.0
  O  O121  1  0.64802000  0.69047000  0.23022000  1.0
  O  O122  1  0.62746000  0.10975000  0.42968000  1.0
  O  O123  1  0.75169000  0.82115000  0.86915000  1.0
  O  O124  1  0.75942000  0.86077000  0.65979000  1.0
  O  O125  1  0.66187000  0.78477000  0.07418000  1.0
  O  O126  1  0.81366000  0.90490000  0.27636000  1.0
  O  O127  1  0.75046000  0.55987000  0.33371000  1.0
  O  O128  1  0.31965000  0.95015000  0.60746000  1.0
  O  O129  1  0.99982000  0.50178000  0.00096000  1.0
  O  O130  1  0.06533000  0.37668000  0.16477000  1.0
  O  O131  1  0.90308000  0.67348000  0.87519000  1.0
  O  O132  1  0.16545000  0.57131000  0.87865000  1.0
