# generated using pymatgen
data_Zn2H13(C3O)7
_symmetry_space_group_name_H-M   'P 1'
_cell_length_a   15.04680000
_cell_length_b   15.07110000
_cell_length_c   19.62030000
_cell_angle_alpha   90.96270000
_cell_angle_beta   91.40040000
_cell_angle_gamma   90.08340000
_symmetry_Int_Tables_number   1
_chemical_formula_structural   Zn2H13(C3O)7
_chemical_formula_sum   'Zn4 H26 C42 O14'
_cell_volume   4447.36674735
_cell_formula_units_Z   2
loop_
 _symmetry_equiv_pos_site_id
 _symmetry_equiv_pos_as_xyz
  1  'x, y, z'
loop_
 _atom_site_type_symbol
 _atom_site_label
 _atom_site_symmetry_multiplicity
 _atom_site_fract_x
 _atom_site_fract_y
 _atom_site_fract_z
 _atom_site_occupancy
  Zn  Zn0  1  0.56508000  0.56907000  0.56853000  1.0
  Zn  Zn1  1  0.57846000  0.43082000  0.43845000  1.0
  Zn  Zn2  1  0.42903000  0.57282000  0.43891000  1.0
  Zn  Zn3  1  0.42490000  0.41878000  0.55287000  1.0
  H  H4  1  0.62637000  0.52728000  0.76771000  1.0
  H  H5  1  0.83508000  0.53392000  0.63120000  1.0
  H  H6  1  0.99929000  0.47286000  0.36221000  1.0
  H  H7  1  0.43939000  0.64311000  0.23506000  1.0
  H  H8  1  0.00034000  0.52773000  0.64403000  1.0
  H  H9  1  0.16471000  0.48027000  0.37325000  1.0
  H  H10  1  0.14875000  0.50634000  0.59129000  1.0
  H  H11  1  0.61157000  0.41662000  0.22460000  1.0
  H  H12  1  0.37872000  0.40670000  0.90035000  1.0
  H  H13  1  0.44422000  0.65814000  0.10965000  1.0
  H  H14  1  0.49799000  0.41089000  0.00880000  1.0
  H  H15  1  0.61505000  0.42929000  0.09804000  1.0
  H  H16  1  0.63962000  0.52503000  0.89434000  1.0
  H  H17  1  0.52124000  0.63553000  0.93287000  1.0
  H  H18  1  0.48990000  0.68508000  0.01149000  1.0
  H  H19  1  0.60305000  0.66441000  0.99664000  1.0
  H  H20  1  0.37414000  0.29175000  0.71820000  1.0
  H  H21  1  0.26112000  0.31125000  0.74164000  1.0
  H  H22  1  0.34179000  0.27967000  0.80559000  1.0
  H  H23  1  0.46119000  0.14776000  0.57888000  1.0
  H  H24  1  0.54365000  0.15963000  0.37101000  1.0
  H  H25  1  0.45267000  0.00139000  0.63581000  1.0
  H  H26  1  0.53922000  0.99444000  0.36112000  1.0
  H  H27  1  0.46185000  0.83631000  0.62885000  1.0
  H  H28  1  0.51039000  0.84777000  0.41393000  1.0
  H  H29  1  0.85169000  0.47775000  0.41643000  1.0
  C  C30  1  0.49977000  0.26144000  0.48081000  1.0
  C  C31  1  0.51298000  0.47177000  0.98168000  1.0
  C  C32  1  0.52665000  0.54731000  0.01897000  1.0
  C  C33  1  0.48724000  0.73429000  0.51562000  1.0
  C  C34  1  0.52423000  0.52829000  0.23751000  1.0
  C  C35  1  0.50078000  0.16257000  0.47562000  1.0
  C  C36  1  0.48529000  0.83321000  0.52027000  1.0
  C  C37  1  0.46673000  0.96758000  0.58761000  1.0
  C  C38  1  0.47092000  0.87643000  0.58387000  1.0
  C  C39  1  0.49932000  0.88206000  0.46242000  1.0
  C  C40  1  0.50157000  0.97589000  0.46587000  1.0
  C  C41  1  0.51002000  0.46612000  0.90675000  1.0
  C  C42  1  0.48199000  0.01967000  0.52932000  1.0
  C  C43  1  0.47922000  0.11343000  0.53186000  1.0
  C  C44  1  0.52498000  0.11929000  0.41396000  1.0
  C  C45  1  0.73558000  0.50459000  0.51576000  1.0
  C  C46  1  0.52313000  0.02812000  0.40891000  1.0
  C  C47  1  0.83450000  0.50472000  0.52278000  1.0
  C  C48  1  0.16542000  0.49277000  0.48337000  1.0
  C  C49  1  0.03219000  0.48173000  0.41207000  1.0
  C  C50  1  0.12337000  0.48497000  0.41796000  1.0
  C  C51  1  0.11534000  0.50049000  0.54141000  1.0
  C  C52  1  0.43504000  0.43095000  0.87192000  1.0
  C  C53  1  0.02139000  0.50308000  0.53640000  1.0
  C  C54  1  0.97886000  0.49113000  0.47053000  1.0
  C  C55  1  0.88500000  0.48969000  0.46573000  1.0
  C  C56  1  0.87653000  0.52064000  0.58745000  1.0
  C  C57  1  0.26443000  0.49413000  0.48892000  1.0
  C  C58  1  0.96773000  0.51779000  0.59417000  1.0
  C  C59  1  0.51837000  0.51856000  0.31271000  1.0
  C  C60  1  0.49354000  0.47428000  0.68682000  1.0
  C  C61  1  0.49693000  0.46741000  0.76253000  1.0
  C  C62  1  0.57298000  0.50015000  0.79763000  1.0
  C  C63  1  0.42704000  0.43276000  0.80077000  1.0
  C  C64  1  0.58000000  0.49934000  0.86821000  1.0
  C  C65  1  0.53562000  0.63742000  0.98786000  1.0
  C  C66  1  0.33090000  0.31740000  0.75846000  1.0
  C  C67  1  0.48119000  0.60482000  0.13422000  1.0
  C  C68  1  0.47810000  0.59684000  0.20459000  1.0
  C  C69  1  0.57426000  0.46853000  0.19863000  1.0
  C  C70  1  0.57565000  0.47563000  0.12806000  1.0
  C  C71  1  0.52814000  0.54305000  0.09431000  1.0
  O  O72  1  0.50013000  0.49712000  0.49954000  1.0
  O  O73  1  0.56717000  0.45961000  0.34100000  1.0
  O  O74  1  0.44850000  0.41702000  0.65188000  1.0
  O  O75  1  0.46399000  0.56972000  0.34324000  1.0
  O  O76  1  0.53861000  0.53787000  0.66261000  1.0
  O  O77  1  0.34653000  0.41037000  0.77025000  1.0
  O  O78  1  0.69340000  0.54875000  0.56075000  1.0
  O  O79  1  0.30042000  0.45719000  0.54074000  1.0
  O  O80  1  0.55258000  0.30302000  0.44248000  1.0
  O  O81  1  0.44718000  0.69853000  0.46407000  1.0
  O  O82  1  0.44628000  0.29565000  0.52337000  1.0
  O  O83  1  0.52926000  0.69450000  0.56341000  1.0
  O  O84  1  0.70184000  0.46046000  0.46534000  1.0
  O  O85  1  0.30470000  0.53246000  0.44086000  1.0
