# generated using pymatgen
data_CdH14C14N2O5
_symmetry_space_group_name_H-M   'P 1'
_cell_length_a   7.65106000
_cell_length_b   9.66891276
_cell_length_c   11.12370000
_cell_angle_alpha   89.25382908
_cell_angle_beta   71.14920000
_cell_angle_gamma   71.48371621
_symmetry_Int_Tables_number   1
_chemical_formula_structural   CdH14C14N2O5
_chemical_formula_sum   'Cd2 H28 C28 N4 O10'
_cell_volume   734.76176251
_cell_formula_units_Z   2
loop_
 _symmetry_equiv_pos_site_id
 _symmetry_equiv_pos_as_xyz
  1  'x, y, z'
loop_
 _atom_site_type_symbol
 _atom_site_label
 _atom_site_symmetry_multiplicity
 _atom_site_fract_x
 _atom_site_fract_y
 _atom_site_fract_z
 _atom_site_occupancy
  Cd  Cd0  1  0.97422000  0.73817000  0.78956000  1.0
  Cd  Cd1  1  0.02575000  0.26182000  0.21044000  1.0
  H  H2  1  0.71155000  0.02111000  0.68938000  1.0
  H  H3  1  0.28847000  0.97889000  0.31062000  1.0
  H  H4  1  0.83455000  0.51908000  0.47851000  1.0
  H  H5  1  0.16539000  0.48095000  0.52150000  1.0
  H  H6  1  0.62887000  0.67819000  0.51591000  1.0
  H  H7  1  0.37108000  0.32181000  0.48408000  1.0
  H  H8  1  0.71650000  0.06592000  0.23167000  1.0
  H  H9  1  0.28353000  0.93408000  0.76833000  1.0
  H  H10  1  0.59132000  0.41154000  0.56310000  1.0
  H  H11  1  0.40867000  0.58845000  0.43691000  1.0
  H  H12  1  0.64575000  0.43884000  0.69957000  1.0
  H  H13  1  0.35424000  0.56118000  0.30044000  1.0
  H  H14  1  0.41023000  0.36607000  0.99969000  1.0
  H  H15  1  0.58981000  0.63393000  0.00031000  1.0
  H  H16  1  0.11513000  0.57490000  0.01199000  1.0
  H  H17  1  0.88488000  0.42509000  0.98801000  1.0
  H  H18  1  0.57527000  0.20507000  0.13159000  1.0
  H  H19  1  0.42478000  0.79492000  0.86841000  1.0
  H  H20  1  0.87462000  0.87999000  0.35189000  1.0
  H  H21  1  0.12541000  0.12000000  0.64812000  1.0
  H  H22  1  0.07793000  0.62316000  0.24063000  1.0
  H  H23  1  0.92207000  0.37683000  0.75937000  1.0
  H  H24  1  0.47037000  0.27355000  0.77495000  1.0
  H  H25  1  0.52966000  0.72646000  0.22506000  1.0
  H  H26  1  0.24890000  0.83174000  0.55946000  1.0
  H  H27  1  0.75110000  0.16826000  0.44053000  1.0
  H  H28  1  0.07228000  0.87227000  0.51192000  1.0
  H  H29  1  0.92769000  0.12772000  0.48809000  1.0
  C  C30  1  0.67561000  0.06449000  0.78763000  1.0
  C  C31  1  0.32441000  0.93551000  0.21238000  1.0
  C  C32  1  0.71059000  0.58837000  0.55858000  1.0
  C  C33  1  0.28935000  0.41164000  0.44143000  1.0
  C  C34  1  0.37105000  0.58122000  0.69751000  1.0
  C  C35  1  0.62891000  0.41878000  0.30249000  1.0
  C  C36  1  0.73023000  0.02394000  0.98199000  1.0
  C  C37  1  0.26981000  0.97605000  0.01800000  1.0
  C  C38  1  0.80259000  0.95564000  0.18546000  1.0
  C  C39  1  0.19744000  0.04435000  0.81454000  1.0
  C  C40  1  0.79861000  0.65276000  0.63860000  1.0
  C  C41  1  0.20136000  0.34726000  0.36138000  1.0
  C  C42  1  0.82652000  0.91847000  0.05854000  1.0
  C  C43  1  0.17351000  0.08153000  0.94146000  1.0
  C  C44  1  0.58594000  0.49778000  0.62905000  1.0
  C  C45  1  0.41404000  0.50221000  0.37095000  1.0
  C  C46  1  0.51091000  0.25659000  0.95893000  1.0
  C  C47  1  0.48914000  0.74341000  0.04108000  1.0
  C  C48  1  0.02566000  0.68153000  0.06569000  1.0
  C  C49  1  0.97436000  0.31846000  0.93431000  1.0
  C  C50  1  0.60424000  0.16562000  0.03368000  1.0
  C  C51  1  0.39580000  0.83438000  0.96632000  1.0
  C  C52  1  0.89247000  0.85050000  0.25319000  1.0
  C  C53  1  0.10756000  0.14948000  0.74681000  1.0
  C  C54  1  0.00545000  0.71029000  0.19268000  1.0
  C  C55  1  0.99457000  0.28970000  0.80732000  1.0
  C  C56  1  0.54492000  0.20550000  0.83422000  1.0
  C  C57  1  0.45511000  0.79453000  0.16579000  1.0
  N  N58  1  0.93812000  0.78231000  0.00100000  1.0
  N  N59  1  0.06189000  0.21768000  0.99901000  1.0
  N  N60  1  0.76501000  0.97696000  0.85982000  1.0
  N  N61  1  0.23500000  0.02304000  0.14018000  1.0
  O  O62  1  0.77700000  0.61749000  0.75308000  1.0
  O  O63  1  0.22299000  0.38250000  0.24689000  1.0
  O  O64  1  0.30163000  0.71831000  0.68289000  1.0
  O  O65  1  0.69833000  0.28169000  0.31711000  1.0
  O  O66  1  0.89778000  0.73530000  0.58924000  1.0
  O  O67  1  0.10211000  0.26476000  0.41077000  1.0
  O  O68  1  0.26251000  0.51386000  0.76497000  1.0
  O  O69  1  0.73748000  0.48612000  0.23503000  1.0
  O  O70  1  0.18584000  0.90035000  0.50796000  1.0
  O  O71  1  0.81414000  0.09965000  0.49204000  1.0
