# generated using pymatgen
data_Zn4H32(C12O7)3
_symmetry_space_group_name_H-M   'P 1'
_cell_length_a   17.82660000
_cell_length_b   18.60800000
_cell_length_c   23.42610000
_cell_angle_alpha   66.68790000
_cell_angle_beta   69.56970000
_cell_angle_gamma   89.93560000
_symmetry_Int_Tables_number   1
_chemical_formula_structural   Zn4H32(C12O7)3
_chemical_formula_sum   'Zn8 H64 C72 O42'
_cell_volume   6602.25186052
_cell_formula_units_Z   2
loop_
 _symmetry_equiv_pos_site_id
 _symmetry_equiv_pos_as_xyz
  1  'x, y, z'
loop_
 _atom_site_type_symbol
 _atom_site_label
 _atom_site_symmetry_multiplicity
 _atom_site_fract_x
 _atom_site_fract_y
 _atom_site_fract_z
 _atom_site_occupancy
  Zn  Zn0  1  0.11798000  0.53076000  0.94255000  1.0
  Zn  Zn1  1  0.97248000  0.56031000  0.05062000  1.0
  Zn  Zn2  1  0.97640000  0.38920000  0.05033000  1.0
  Zn  Zn3  1  0.93800000  0.52977000  0.93583000  1.0
  Zn  Zn4  1  0.38517000  0.97744000  0.04905000  1.0
  Zn  Zn5  1  0.52941000  0.11601000  0.93784000  1.0
  Zn  Zn6  1  0.52327000  0.94513000  0.93809000  1.0
  Zn  Zn7  1  0.56720000  0.97283000  0.05065000  1.0
  H  H8  1  0.19840000  0.30159000  0.91129000  1.0
  H  H9  1  0.12673000  0.22959000  0.98775000  1.0
  H  H10  1  0.21608000  0.13824000  0.98500000  1.0
  H  H11  1  0.28761000  0.21087000  0.90886000  1.0
  H  H12  1  0.21573000  0.12464000  0.09597000  1.0
  H  H13  1  0.28739000  0.18617000  0.09974000  1.0
  H  H14  1  0.12720000  0.21711000  0.09878000  1.0
  H  H15  1  0.20000000  0.27880000  0.10119000  1.0
  H  H16  1  0.30246000  0.39181000  0.91420000  1.0
  H  H17  1  0.30302000  0.38332000  0.99156000  1.0
  H  H18  1  0.39176000  0.29118000  0.99020000  1.0
  H  H19  1  0.39169000  0.30048000  0.91259000  1.0
  H  H20  1  0.89005000  0.80004000  0.90599000  1.0
  H  H21  1  0.88624000  0.78742000  0.98605000  1.0
  H  H22  1  0.79729000  0.87952000  0.98691000  1.0
  H  H23  1  0.80098000  0.89096000  0.90713000  1.0
  H  H24  1  0.69389000  0.77583000  0.09225000  1.0
  H  H25  1  0.62218000  0.71413000  0.08863000  1.0
  H  H26  1  0.78139000  0.68239000  0.09143000  1.0
  H  H27  1  0.71014000  0.62217000  0.08596000  1.0
  H  H28  1  0.78936000  0.71228000  0.89763000  1.0
  H  H29  1  0.71633000  0.63895000  0.97089000  1.0
  H  H30  1  0.62659000  0.73007000  0.97332000  1.0
  H  H31  1  0.69936000  0.80292000  0.89976000  1.0
  H  H32  1  0.16258000  0.79364000  0.93709000  1.0
  H  H33  1  0.24672000  0.75713000  0.89635000  1.0
  H  H34  1  0.33386000  0.85251000  0.89414000  1.0
  H  H35  1  0.24924000  0.88767000  0.93601000  1.0
  H  H36  1  0.39351000  0.74309000  0.96082000  1.0
  H  H37  1  0.35246000  0.70180000  0.04960000  1.0
  H  H38  1  0.30504000  0.64758000  0.96401000  1.0
  H  H39  1  0.26373000  0.60769000  0.05278000  1.0
  H  H40  1  0.10187000  0.73571000  0.06503000  1.0
  H  H41  1  0.14260000  0.65941000  0.11230000  1.0
  H  H42  1  0.23151000  0.75324000  0.11012000  1.0
  H  H43  1  0.19008000  0.82952000  0.06347000  1.0
  H  H44  1  0.89888000  0.26690000  0.92972000  1.0
  H  H45  1  0.85408000  0.34299000  0.88523000  1.0
  H  H46  1  0.76833000  0.24718000  0.88664000  1.0
  H  H47  1  0.81163000  0.17139000  0.93311000  1.0
  H  H48  1  0.64951000  0.29816000  0.94661000  1.0
  H  H49  1  0.60621000  0.25687000  0.03525000  1.0
  H  H50  1  0.73602000  0.39208000  0.94709000  1.0
  H  H51  1  0.69360000  0.34891000  0.03587000  1.0
  H  H52  1  0.83929000  0.20405000  0.05763000  1.0
  H  H53  1  0.75668000  0.23815000  0.10147000  1.0
  H  H54  1  0.66694000  0.14605000  0.10265000  1.0
  H  H55  1  0.74969000  0.11030000  0.06069000  1.0
  H  H56  1  0.52741000  0.89239000  0.21189000  1.0
  H  H57  1  0.27782000  0.90024000  0.20410000  1.0
  H  H58  1  0.16319000  0.78277000  0.43387000  1.0
  H  H59  1  0.41322000  0.77773000  0.44226000  1.0
  H  H60  1  0.35073000  0.72152000  0.55764000  1.0
  H  H61  1  0.10254000  0.72763000  0.54540000  1.0
  H  H62  1  0.98395000  0.61236000  0.77534000  1.0
  H  H63  1  0.23138000  0.60619000  0.78739000  1.0
  H  H64  1  0.60340000  0.98790000  0.78025000  1.0
  H  H65  1  0.59870000  0.23007000  0.78074000  1.0
  H  H66  1  0.73540000  0.34500000  0.55249000  1.0
  H  H67  1  0.73885000  0.10231000  0.55179000  1.0
  H  H68  1  0.77445000  0.15966000  0.43764000  1.0
  H  H69  1  0.77407000  0.40235000  0.43817000  1.0
  H  H70  1  0.89194000  0.51714000  0.20832000  1.0
  H  H71  1  0.89523000  0.27477000  0.20791000  1.0
  C  C72  1  0.14144000  0.63530000  0.00326000  1.0
  C  C73  1  0.90790000  0.41071000  0.17858000  1.0
  C  C74  1  0.14472000  0.36438000  0.00097000  1.0
  C  C75  1  0.86086000  0.36516000  0.99111000  1.0
  C  C76  1  0.09229000  0.59427000  0.81119000  1.0
  C  C77  1  0.86050000  0.64293000  0.98979000  1.0
  C  C78  1  0.36098000  0.14275000  0.99660000  1.0
  C  C79  1  0.58460000  0.09425000  0.80983000  1.0
  C  C80  1  0.35586000  0.86274000  0.99827000  1.0
  C  C81  1  0.64347000  0.86467000  0.99246000  1.0
  C  C82  1  0.41730000  0.91137000  0.17813000  1.0
  C  C83  1  0.64644000  0.13951000  0.99307000  1.0
  C  C84  1  0.38104000  0.87439000  0.25152000  1.0
  C  C85  1  0.43152000  0.85454000  0.28970000  1.0
  C  C86  1  0.39598000  0.81942000  0.35996000  1.0
  C  C87  1  0.31046000  0.80332000  0.39300000  1.0
  C  C88  1  0.26022000  0.82261000  0.35542000  1.0
  C  C89  1  0.29467000  0.85810000  0.28520000  1.0
  C  C90  1  0.27423000  0.76779000  0.46395000  1.0
  C  C91  1  0.24073000  0.73700000  0.52562000  1.0
  C  C92  1  0.20354000  0.70164000  0.59652000  1.0
  C  C93  1  0.25257000  0.68226000  0.63514000  1.0
  C  C94  1  0.21673000  0.64715000  0.70533000  1.0
  C  C95  1  0.13022000  0.63093000  0.73788000  1.0
  C  C96  1  0.08097000  0.65070000  0.69862000  1.0
  C  C97  1  0.11789000  0.68580000  0.62846000  1.0
  C  C98  1  0.62451000  0.13089000  0.73681000  1.0
  C  C99  1  0.64604000  0.08217000  0.70104000  1.0
  C  C100  1  0.68544000  0.11779000  0.63115000  1.0
  C  C101  1  0.70304000  0.20141000  0.59627000  1.0
  C  C102  1  0.68350000  0.24987000  0.63150000  1.0
  C  C103  1  0.64385000  0.21536000  0.70137000  1.0
  C  C104  1  0.73976000  0.23693000  0.52552000  1.0
  C  C105  1  0.76959000  0.26806000  0.46377000  1.0
  C  C106  1  0.80372000  0.30355000  0.39292000  1.0
  C  C107  1  0.82073000  0.25502000  0.35768000  1.0
  C  C108  1  0.85551000  0.28957000  0.28751000  1.0
  C  C109  1  0.87270000  0.37408000  0.25184000  1.0
  C  C110  1  0.85449000  0.42279000  0.28776000  1.0
  C  C111  1  0.82004000  0.38716000  0.35793000  1.0
  C  C112  1  0.18999000  0.25959000  0.96263000  1.0
  C  C113  1  0.24937000  0.19884000  0.96101000  1.0
  C  C114  1  0.30421000  0.20360000  0.99858000  1.0
  C  C115  1  0.24925000  0.18508000  0.07185000  1.0
  C  C116  1  0.19059000  0.24639000  0.07324000  1.0
  C  C117  1  0.20469000  0.30617000  0.00092000  1.0
  C  C118  1  0.29284000  0.34888000  0.96539000  1.0
  C  C119  1  0.35181000  0.28805000  0.96431000  1.0
  C  C120  1  0.84875000  0.78611000  0.95781000  1.0
  C  C121  1  0.78940000  0.84708000  0.95858000  1.0
  C  C122  1  0.70079000  0.80398000  0.99139000  1.0
  C  C123  1  0.68564000  0.74376000  0.06381000  1.0
  C  C124  1  0.74422000  0.68244000  0.06268000  1.0
  C  C125  1  0.80069000  0.70144000  0.98957000  1.0
  C  C126  1  0.74927000  0.69930000  0.94946000  1.0
  C  C127  1  0.68977000  0.75974000  0.95087000  1.0
  C  C128  1  0.21906000  0.77139000  0.93966000  1.0
  C  C129  1  0.27707000  0.83427000  0.93846000  1.0
  C  C130  1  0.29685000  0.80007000  0.00259000  1.0
  C  C131  1  0.33664000  0.72568000  0.00491000  1.0
  C  C132  1  0.27784000  0.66274000  0.00682000  1.0
  C  C133  1  0.19827000  0.69450000  0.00509000  1.0
  C  C134  1  0.15895000  0.71407000  0.06583000  1.0
  C  C135  1  0.21761000  0.77644000  0.06453000  1.0
  C  C136  1  0.84078000  0.28742000  0.93051000  1.0
  C  C137  1  0.78288000  0.22406000  0.93188000  1.0
  C  C138  1  0.70324000  0.19909000  0.99467000  1.0
  C  C139  1  0.66399000  0.27394000  0.99181000  1.0
  C  C140  1  0.72194000  0.33591000  0.99185000  1.0
  C  C141  1  0.80152000  0.30423000  0.99340000  1.0
  C  C142  1  0.78246000  0.22618000  0.05671000  1.0
  C  C143  1  0.72337000  0.16436000  0.05794000  1.0
  O  O144  1  0.00073000  0.50317000  0.99360000  1.0
  O  O145  1  0.17110000  0.60825000  0.95903000  1.0
  O  O146  1  0.92062000  0.48714000  0.14729000  1.0
  O  O147  1  0.07109000  0.33569000  0.04098000  1.0
  O  O148  1  0.06809000  0.61823000  0.04474000  1.0
  O  O149  1  0.17155000  0.43699000  0.96019000  1.0
  O  O150  1  0.92509000  0.36562000  0.14713000  1.0
  O  O151  1  0.89819000  0.33926000  0.03097000  1.0
  O  O152  1  0.01401000  0.57974000  0.83976000  1.0
  O  O153  1  0.87005000  0.43716000  0.94900000  1.0
  O  O154  1  0.13855000  0.57753000  0.84518000  1.0
  O  O155  1  0.89845000  0.63387000  0.02887000  1.0
  O  O156  1  0.86894000  0.60785000  0.95140000  1.0
  O  O157  1  0.50154000  0.00215000  0.99517000  1.0
  O  O158  1  0.32981000  0.06980000  0.03334000  1.0
  O  O159  1  0.56574000  0.13931000  0.84123000  1.0
  O  O160  1  0.42735000  0.87881000  0.95340000  1.0
  O  O161  1  0.43526000  0.16873000  0.95792000  1.0
  O  O162  1  0.33006000  0.89542000  0.03862000  1.0
  O  O163  1  0.56927000  0.01779000  0.84111000  1.0
  O  O164  1  0.60590000  0.87927000  0.95272000  1.0
  O  O165  1  0.49540000  0.92389000  0.14812000  1.0
  O  O166  1  0.63750000  0.89681000  0.03278000  1.0
  O  O167  1  0.36963000  0.93047000  0.14548000  1.0
  O  O168  1  0.61799000  0.16613000  0.94681000  1.0
  O  O169  1  0.63158000  0.06800000  0.03704000  1.0
  O  O170  1  0.51342000  0.86826000  0.26128000  1.0
  O  O171  1  0.24287000  0.87491000  0.25284000  1.0
  O  O172  1  0.17751000  0.80780000  0.38539000  1.0
  O  O173  1  0.44661000  0.80180000  0.39436000  1.0
  O  O174  1  0.33536000  0.69671000  0.60625000  1.0
  O  O175  1  0.06833000  0.70359000  0.59310000  1.0
  O  O176  1  0.99902000  0.63735000  0.72579000  1.0
  O  O177  1  0.26727000  0.63033000  0.73887000  1.0
  O  O178  1  0.63057000  0.00213000  0.73130000  1.0
  O  O179  1  0.62621000  0.26491000  0.73191000  1.0
  O  O180  1  0.70167000  0.33071000  0.59949000  1.0
  O  O181  1  0.70535000  0.06932000  0.59874000  1.0
  O  O182  1  0.80445000  0.17413000  0.38995000  1.0
  O  O183  1  0.80323000  0.43566000  0.39044000  1.0
  O  O184  1  0.86867000  0.50285000  0.25743000  1.0
  O  O185  1  0.87066000  0.23996000  0.25695000  1.0
