# generated using pymatgen
data_ZnH18C28(NO)4
_symmetry_space_group_name_H-M   'P 1'
_cell_length_a   9.23593000
_cell_length_b   11.93400000
_cell_length_c   13.75690000
_cell_angle_alpha   69.39410000
_cell_angle_beta   73.84380000
_cell_angle_gamma   76.35590000
_symmetry_Int_Tables_number   1
_chemical_formula_structural   ZnH18C28(NO)4
_chemical_formula_sum   'Zn2 H36 C56 N8 O8'
_cell_volume   1347.10030834
_cell_formula_units_Z   2
loop_
 _symmetry_equiv_pos_site_id
 _symmetry_equiv_pos_as_xyz
  1  'x, y, z'
loop_
 _atom_site_type_symbol
 _atom_site_label
 _atom_site_symmetry_multiplicity
 _atom_site_fract_x
 _atom_site_fract_y
 _atom_site_fract_z
 _atom_site_occupancy
  Zn  Zn0  1  0.44953000  0.83004000  0.19601000  1.0
  Zn  Zn1  1  0.55047000  0.16996000  0.80399000  1.0
  H  H2  1  0.90317000  0.96310000  0.86393000  1.0
  H  H3  1  0.09683000  0.03690000  0.13605000  1.0
  H  H4  1  0.85492000  0.94947000  0.18741000  1.0
  H  H5  1  0.14509000  0.05052000  0.81258000  1.0
  H  H6  1  0.50997000  0.84492000  0.94641000  1.0
  H  H7  1  0.49002000  0.15509000  0.05358000  1.0
  H  H8  1  0.14142000  0.72360000  0.29214000  1.0
  H  H9  1  0.85861000  0.27639000  0.70787000  1.0
  H  H10  1  0.92676000  0.61794000  0.30798000  1.0
  H  H11  1  0.07325000  0.38206000  0.69203000  1.0
  H  H12  1  0.88380000  0.58791000  0.14994000  1.0
  H  H13  1  0.11618000  0.41211000  0.85008000  1.0
  H  H14  1  0.05683000  0.65342000  0.97283000  1.0
  H  H15  1  0.94315000  0.34658000  0.02718000  1.0
  H  H16  1  0.51950000  0.43209000  0.82027000  1.0
  H  H17  1  0.48050000  0.56790000  0.17973000  1.0
  H  H18  1  0.38827000  0.23630000  0.59771000  1.0
  H  H19  1  0.61173000  0.76369000  0.40229000  1.0
  H  H20  1  0.23755000  0.36286000  0.45754000  1.0
  H  H21  1  0.76246000  0.63713000  0.54246000  1.0
  H  H22  1  0.15156000  0.58096000  0.43235000  1.0
  H  H23  1  0.84846000  0.41904000  0.56764000  1.0
  H  H24  1  0.21426000  0.68554000  0.54018000  1.0
  H  H25  1  0.78576000  0.31446000  0.45981000  1.0
  H  H26  1  0.43743000  0.75950000  0.55440000  1.0
  H  H27  1  0.56258000  0.24048000  0.44560000  1.0
  H  H28  1  0.45363000  0.94296000  0.59426000  1.0
  H  H29  1  0.54636000  0.05703000  0.40573000  1.0
  H  H30  1  0.39785000  0.94625000  0.78010000  1.0
  H  H31  1  0.60214000  0.05375000  0.21989000  1.0
  H  H32  1  0.31648000  0.57547000  0.89163000  1.0
  H  H33  1  0.68351000  0.42452000  0.10838000  1.0
  H  H34  1  0.99173000  0.90269000  0.36917000  1.0
  H  H35  1  0.00826000  0.09731000  0.63083000  1.0
  H  H36  1  0.24946000  0.03252000  0.51176000  1.0
  H  H37  1  0.75053000  0.96748000  0.48824000  1.0
  C  C38  1  0.72138000  0.89800000  0.05779000  1.0
  C  C39  1  0.27862000  0.10202000  0.94220000  1.0
  C  C40  1  0.86495000  0.95105000  0.02866000  1.0
  C  C41  1  0.13504000  0.04895000  0.97132000  1.0
  C  C42  1  0.94746000  0.97844000  0.92309000  1.0
  C  C43  1  0.05254000  0.02156000  0.07690000  1.0
  C  C44  1  0.91855000  0.97277000  0.10527000  1.0
  C  C45  1  0.08146000  0.02723000  0.89472000  1.0
  C  C46  1  0.40709000  0.80691000  0.99272000  1.0
  C  C47  1  0.59291000  0.19310000  0.00728000  1.0
  C  C48  1  0.20290000  0.71555000  0.03707000  1.0
  C  C49  1  0.79710000  0.28445000  0.96294000  1.0
  C  C50  1  0.22559000  0.73641000  0.12642000  1.0
  C  C51  1  0.77442000  0.26359000  0.87358000  1.0
  C  C52  1  0.12614000  0.70225000  0.22524000  1.0
  C  C53  1  0.87387000  0.29775000  0.77477000  1.0
  C  C54  1  0.00621000  0.64594000  0.23211000  1.0
  C  C55  1  0.99380000  0.35407000  0.76789000  1.0
  C  C56  1  0.98260000  0.62788000  0.14221000  1.0
  C  C57  1  0.01739000  0.37213000  0.85780000  1.0
  C  C58  1  0.07945000  0.66322000  0.04273000  1.0
  C  C59  1  0.92054000  0.33679000  0.95728000  1.0
  C  C60  1  0.35141000  0.76174000  0.84626000  1.0
  C  C61  1  0.64857000  0.23826000  0.15374000  1.0
  C  C62  1  0.46454000  0.43699000  0.75844000  1.0
  C  C63  1  0.53546000  0.56300000  0.24156000  1.0
  C  C64  1  0.38592000  0.39168000  0.64411000  1.0
  C  C65  1  0.61409000  0.60832000  0.35589000  1.0
  C  C66  1  0.35045000  0.33333333  0.58359000  1.0
  C  C67  1  0.64955000  0.66666667  0.41641000  1.0
  C  C68  1  0.26711000  0.40458000  0.50692000  1.0
  C  C69  1  0.73289000  0.59541000  0.49308000  1.0
  C  C70  1  0.21849000  0.52959000  0.49212000  1.0
  C  C71  1  0.78152000  0.47041000  0.50787000  1.0
  C  C72  1  0.25264000  0.58898000  0.55208000  1.0
  C  C73  1  0.74737000  0.41102000  0.44791000  1.0
  C  C74  1  0.33823000  0.51775000  0.62781000  1.0
  C  C75  1  0.66178000  0.48224000  0.37219000  1.0
  C  C76  1  0.37897000  0.65571000  0.72097000  1.0
  C  C77  1  0.62103000  0.34428000  0.27903000  1.0
  C  C78  1  0.41351000  0.75930000  0.63645000  1.0
  C  C79  1  0.58649000  0.24069000  0.36355000  1.0
  C  C80  1  0.42104000  0.86274000  0.65878000  1.0
  C  C81  1  0.57897000  0.13725000  0.34122000  1.0
  C  C82  1  0.39157000  0.86501000  0.76315000  1.0
  C  C83  1  0.60843000  0.13498000  0.23685000  1.0
  C  C84  1  0.34487000  0.65638000  0.82627000  1.0
  C  C85  1  0.65513000  0.34361000  0.17373000  1.0
  C  C86  1  0.28265000  0.92124000  0.36552000  1.0
  C  C87  1  0.71733000  0.07878000  0.63449000  1.0
  C  C88  1  0.13577000  0.96300000  0.43377000  1.0
  C  C89  1  0.86422000  0.03701000  0.56623000  1.0
  C  C90  1  0.99455000  0.94497000  0.42697000  1.0
  C  C91  1  0.00544000  0.05503000  0.57303000  1.0
  C  C92  1  0.13946000  0.01868000  0.50725000  1.0
  C  C93  1  0.86053000  0.98133000  0.49276000  1.0
  N  N94  1  0.35427000  0.79299000  0.09570000  1.0
  N  N95  1  0.64574000  0.20701000  0.90430000  1.0
  N  N96  1  0.32081000  0.76195000  0.95332000  1.0
  N  N97  1  0.67918000  0.23805000  0.04669000  1.0
  N  N98  1  0.46450000  0.34482000  0.72635000  1.0
  N  N99  1  0.53551000  0.65517000  0.27365000  1.0
  N  N100  1  0.39005000  0.54334000  0.70281000  1.0
  N  N101  1  0.60996000  0.45666000  0.29719000  1.0
  O  O102  1  0.62425000  0.91598000  0.14265000  1.0
  O  O103  1  0.37575000  0.08402000  0.85735000  1.0
  O  O104  1  0.70083000  0.84189000  0.00269000  1.0
  O  O105  1  0.29914000  0.15812000  0.99729000  1.0
  O  O106  1  0.26645000  0.89137000  0.28721000  1.0
  O  O107  1  0.73355000  0.10863000  0.71279000  1.0
  O  O108  1  0.40778000  0.91543000  0.38699000  1.0
  O  O109  1  0.59221000  0.08459000  0.61301000  1.0
