# generated using pymatgen
data_MnH22(C13N6)2
_symmetry_space_group_name_H-M   'P 1'
_cell_length_a   7.97622000
_cell_length_b   8.48922000
_cell_length_c   10.26270000
_cell_angle_alpha   68.58210000
_cell_angle_beta   84.00840000
_cell_angle_gamma   69.71790000
_symmetry_Int_Tables_number   1
_chemical_formula_structural   MnH22(C13N6)2
_chemical_formula_sum   'Mn1 H22 C26 N12'
_cell_volume   606.61095480
_cell_formula_units_Z   1
loop_
 _symmetry_equiv_pos_site_id
 _symmetry_equiv_pos_as_xyz
  1  'x, y, z'
loop_
 _atom_site_type_symbol
 _atom_site_label
 _atom_site_symmetry_multiplicity
 _atom_site_fract_x
 _atom_site_fract_y
 _atom_site_fract_z
 _atom_site_occupancy
  Mn  Mn0  1  0.00002000  0.99998000  0.00001000  1.0
  H  H1  1  0.85301000  0.36639000  0.08117000  1.0
  H  H2  1  0.14700000  0.63360000  0.91883000  1.0
  H  H3  1  0.70170000  0.11829000  0.58655000  1.0
  H  H4  1  0.29829000  0.88171000  0.41344000  1.0
  H  H5  1  0.75205000  0.79101000  0.69883000  1.0
  H  H6  1  0.24795000  0.20899000  0.30117000  1.0
  H  H7  1  0.86924000  0.58828000  0.56318000  1.0
  H  H8  1  0.13076000  0.41172000  0.43682000  1.0
  H  H9  1  0.95070000  0.70582000  0.31160000  1.0
  H  H10  1  0.04931000  0.29417000  0.68841000  1.0
  H  H11  1  0.26607000  0.61002000  0.55876000  1.0
  H  H12  1  0.73393000  0.38998000  0.44123000  1.0
  H  H13  1  0.16259000  0.50866000  0.71050000  1.0
  H  H14  1  0.83741000  0.49134000  0.28949000  1.0
  H  H15  1  0.39077000  0.20624000  0.74191000  1.0
  H  H16  1  0.60922000  0.79376000  0.25809000  1.0
  H  H17  1  0.67572000  0.99530000  0.85880000  1.0
  H  H18  1  0.32427000  0.00470000  0.14120000  1.0
  H  H19  1  0.83342000  0.40868000  0.86967000  1.0
  H  H20  1  0.16658000  0.59132000  0.13032000  1.0
  H  H21  1  0.55121000  0.63574000  0.75835000  1.0
  H  H22  1  0.44878000  0.36427000  0.24164000  1.0
  C  C23  1  0.85035000  0.24836000  0.17012000  1.0
  C  C24  1  0.14966000  0.75163000  0.82988000  1.0
  C  C25  1  0.86830000  0.97781000  0.30804000  1.0
  C  C26  1  0.13171000  0.02219000  0.69196000  1.0
  C  C27  1  0.79824000  0.09224000  0.38687000  1.0
  C  C28  1  0.20176000  0.90776000  0.61313000  1.0
  C  C29  1  0.75417000  0.02918000  0.52707000  1.0
  C  C30  1  0.24583000  0.97082000  0.47293000  1.0
  C  C31  1  0.78163000  0.84614000  0.58854000  1.0
  C  C32  1  0.21837000  0.15386000  0.41146000  1.0
  C  C33  1  0.85131000  0.73065000  0.51168000  1.0
  C  C34  1  0.14868000  0.26935000  0.48833000  1.0
  C  C35  1  0.89698000  0.79371000  0.37185000  1.0
  C  C36  1  0.10303000  0.20628000  0.62816000  1.0
  C  C37  1  0.26540000  0.57288000  0.67330000  1.0
  C  C38  1  0.73459000  0.42712000  0.32669000  1.0
  C  C39  1  0.48550000  0.25803000  0.76745000  1.0
  C  C40  1  0.51449000  0.74198000  0.23255000  1.0
  C  C41  1  0.64598000  0.13776000  0.83509000  1.0
  C  C42  1  0.35401000  0.86225000  0.16491000  1.0
  C  C43  1  0.73219000  0.36724000  0.84155000  1.0
  C  C44  1  0.26781000  0.63276000  0.15844000  1.0
  C  C45  1  0.57337000  0.49531000  0.77621000  1.0
  C  C46  1  0.42662000  0.50469000  0.22379000  1.0
  C  C47  1  0.44408000  0.44191000  0.73898000  1.0
  C  C48  1  0.55591000  0.55810000  0.26102000  1.0
  N  N49  1  0.89889000  0.08073000  0.17192000  1.0
  N  N50  1  0.10112000  0.91926000  0.82808000  1.0
  N  N51  1  0.79011000  0.26222000  0.29633000  1.0
  N  N52  1  0.20989000  0.73778000  0.70367000  1.0
  N  N53  1  0.77040000  0.18816000  0.87506000  1.0
  N  N54  1  0.22959000  0.81185000  0.12493000  1.0
  N  N55  1  0.11892000  0.19258000  0.93411000  1.0
  N  N56  1  0.88109000  0.80741000  0.06590000  1.0
  N  N57  1  0.17092000  0.26678000  0.99247000  1.0
  N  N58  1  0.82909000  0.73323000  0.00753000  1.0
  N  N59  1  0.22565000  0.34263000  0.04440000  1.0
  N  N60  1  0.77435000  0.65737000  0.95560000  1.0
