# generated using pymatgen
data_Zn4H16C48O29F4
_symmetry_space_group_name_H-M   'P 1'
_cell_length_a   23.64771750
_cell_length_b   23.64810000
_cell_length_c   23.64610000
_cell_angle_alpha   67.07770000
_cell_angle_beta   72.22238310
_cell_angle_gamma   107.77198805
_symmetry_Int_Tables_number   1
_chemical_formula_structural   Zn4H16C48O29F4
_chemical_formula_sum   'Zn8 H32 C96 O58 F8'
_cell_volume   10151.28533045
_cell_formula_units_Z   2
loop_
 _symmetry_equiv_pos_site_id
 _symmetry_equiv_pos_as_xyz
  1  'x, y, z'
loop_
 _atom_site_type_symbol
 _atom_site_label
 _atom_site_symmetry_multiplicity
 _atom_site_fract_x
 _atom_site_fract_y
 _atom_site_fract_z
 _atom_site_occupancy
  Zn  Zn0  1  0.05848000  0.10114000  0.45239000  1.0
  Zn  Zn1  1  0.05848000  0.95734000  0.48913000  1.0
  Zn  Zn2  1  0.94151000  0.95239000  0.60116000  1.0
  Zn  Zn3  1  0.94152000  0.98913000  0.45734000  1.0
  Zn  Zn4  1  0.94647000  0.39886000  0.04266000  1.0
  Zn  Zn5  1  0.05354000  0.54267000  0.89884000  1.0
  Zn  Zn6  1  0.94646000  0.54760000  0.01088000  1.0
  Zn  Zn7  1  0.05353000  0.51088000  0.04761000  1.0
  H  H8  1  0.94173000  0.20485000  0.90283000  1.0
  H  H9  1  0.05827000  0.40285000  0.70480000  1.0
  H  H10  1  0.90656000  0.10320000  0.78256000  1.0
  H  H11  1  0.09339000  0.28255000  0.60317000  1.0
  H  H12  1  0.05825000  0.65544000  0.23691000  1.0
  H  H13  1  0.94172000  0.73691000  0.15542000  1.0
  H  H14  1  0.09339000  0.81083000  0.30343000  1.0
  H  H15  1  0.90659000  0.80342000  0.31086000  1.0
  H  H16  1  0.61427000  0.21745000  0.18916000  1.0
  H  H17  1  0.61425000  0.39681000  0.19660000  1.0
  H  H18  1  0.39232000  0.09714000  0.34460000  1.0
  H  H19  1  0.39235000  0.29516000  0.26311000  1.0
  H  H20  1  0.38575000  0.68916000  0.71742000  1.0
  H  H21  1  0.38572000  0.69659000  0.89682000  1.0
  H  H22  1  0.60769000  0.84459000  0.59714000  1.0
  H  H23  1  0.60763000  0.76311000  0.79519000  1.0
  H  H24  1  0.85469000  0.25995000  0.01219000  1.0
  H  H25  1  0.14530000  0.51218000  0.75995000  1.0
  H  H26  1  0.92119000  0.98338000  0.78948000  1.0
  H  H27  1  0.07877000  0.28946000  0.48334000  1.0
  H  H28  1  0.14530000  0.63313000  0.09475000  1.0
  H  H29  1  0.85469000  0.59475000  0.13313000  1.0
  H  H30  1  0.07877000  0.78931000  0.43787000  1.0
  H  H31  1  0.92122000  0.93784000  0.28931000  1.0
  H  H32  1  0.72716000  0.21053000  0.21069000  1.0
  H  H33  1  0.72715000  0.51662000  0.06215000  1.0
  H  H34  1  0.22788000  0.98783000  0.36688000  1.0
  H  H35  1  0.22786000  0.24005000  0.40526000  1.0
  H  H36  1  0.27284000  0.71069000  0.71051000  1.0
  H  H37  1  0.27282000  0.56216000  0.01663000  1.0
  H  H38  1  0.77214000  0.86689000  0.48781000  1.0
  H  H39  1  0.77210000  0.90527000  0.74006000  1.0
  C  C40  1  0.18283000  0.09141000  0.40859000  1.0
  C  C41  1  1.00000000  0.86203000  0.63798000  1.0
  C  C42  1  0.99998000  0.08799000  0.58800000  1.0
  C  C43  1  0.81716000  0.90858000  0.59143000  1.0
  C  C44  1  1.00000000  0.13798000  0.36202000  1.0
  C  C45  1  1.00000000  0.91201000  0.41201000  1.0
  C  C46  1  0.00001000  0.40860000  0.90857000  1.0
  C  C47  1  1.00000000  0.63798000  0.86202000  1.0
  C  C48  1  0.82402000  0.41201000  0.08799000  1.0
  C  C49  1  0.99999000  0.59141000  0.09143000  1.0
  C  C50  1  1.00000000  0.36202000  0.13798000  1.0
  C  C51  1  0.17598000  0.58800000  0.91200000  1.0
  C  C52  1  0.00001000  0.19519000  0.30482000  1.0
  C  C53  1  1.00000000  0.30483000  0.19518000  1.0
  C  C54  1  0.95719000  0.18033000  0.27650000  1.0
  C  C55  1  0.04316000  0.31967000  0.22315000  1.0
  C  C56  1  0.95684000  0.23370000  0.22348000  1.0
  C  C57  1  0.04282000  0.26631000  0.27686000  1.0
  C  C58  1  0.99999000  0.80482000  0.69519000  1.0
  C  C59  1  1.00000000  0.69518000  0.80482000  1.0
  C  C60  1  0.95717000  0.77685000  0.76633000  1.0
  C  C61  1  0.04317000  0.72350000  0.73368000  1.0
  C  C62  1  0.95682000  0.72314000  0.81970000  1.0
  C  C63  1  0.04282000  0.77652000  0.68032000  1.0
  C  C64  1  0.00001000  0.37099000  0.87095000  1.0
  C  C65  1  0.96612000  0.29691000  0.90925000  1.0
  C  C66  1  0.96634000  0.26191000  0.87355000  1.0
  C  C67  1  1.00000000  0.29974000  0.79971000  1.0
  C  C68  1  0.03366000  0.37357000  0.76187000  1.0
  C  C69  1  0.03390000  0.40928000  0.79687000  1.0
  C  C70  1  0.99999000  0.26385000  0.76381000  1.0
  C  C71  1  0.99998000  0.23288000  0.73286000  1.0
  C  C72  1  0.99997000  0.19701000  0.69701000  1.0
  C  C73  1  0.94758000  0.12803000  0.72973000  1.0
  C  C74  1  0.94724000  0.09285000  0.69421000  1.0
  C  C75  1  0.99997000  0.12568000  0.62570000  1.0
  C  C76  1  0.05271000  0.19421000  0.59283000  1.0
  C  C77  1  0.05236000  0.22972000  0.62802000  1.0
  C  C78  1  0.99999000  0.62903000  0.12903000  1.0
  C  C79  1  0.03388000  0.62464000  0.16922000  1.0
  C  C80  1  0.03365000  0.66012000  0.20444000  1.0
  C  C81  1  0.99998000  0.70028000  0.20028000  1.0
  C  C82  1  0.96633000  0.70445000  0.16010000  1.0
  C  C83  1  0.96610000  0.66922000  0.12462000  1.0
  C  C84  1  0.99999000  0.73618000  0.23617000  1.0
  C  C85  1  0.99999000  0.76714000  0.26713000  1.0
  C  C86  1  0.99999000  0.80299000  0.30300000  1.0
  C  C87  1  0.05237000  0.82265000  0.31961000  1.0
  C  C88  1  0.05272000  0.85851000  0.35444000  1.0
  C  C89  1  1.00000000  0.87431000  0.37432000  1.0
  C  C90  1  0.94727000  0.85444000  0.35853000  1.0
  C  C91  1  0.94762000  0.81961000  0.32266000  1.0
  C  C92  1  0.74863000  0.37432000  0.12569000  1.0
  C  C93  1  0.71296000  0.30580000  0.14148000  1.0
  C  C94  1  0.64226000  0.27028000  0.17735000  1.0
  C  C95  1  0.60598000  0.30299000  0.19702000  1.0
  C  C96  1  0.64225000  0.37197000  0.18041000  1.0
  C  C97  1  0.71295000  0.40716000  0.14557000  1.0
  C  C98  1  0.53427000  0.26713000  0.23288000  1.0
  C  C99  1  0.47234000  0.23615000  0.26385000  1.0
  C  C100  1  0.40056000  0.20027000  0.29974000  1.0
  C  C101  1  0.36455000  0.12644000  0.33992000  1.0
  C  C102  1  0.29384000  0.09073000  0.37539000  1.0
  C  C103  1  0.25806000  0.12902000  0.37098000  1.0
  C  C104  1  0.29385000  0.20310000  0.33079000  1.0
  C  C105  1  0.36455000  0.23809000  0.29558000  1.0
  C  C106  1  0.25137000  0.62570000  0.87431000  1.0
  C  C107  1  0.28705000  0.64149000  0.80578000  1.0
  C  C108  1  0.35775000  0.67735000  0.77026000  1.0
  C  C109  1  0.39401000  0.69702000  0.80298000  1.0
  C  C110  1  0.35773000  0.68041000  0.87198000  1.0
  C  C111  1  0.28704000  0.64558000  0.90716000  1.0
  C  C112  1  0.46573000  0.73288000  0.76712000  1.0
  C  C113  1  0.52765000  0.76384000  0.73616000  1.0
  C  C114  1  0.59943000  0.79974000  0.70028000  1.0
  C  C115  1  0.63546000  0.83992000  0.62644000  1.0
  C  C116  1  0.70616000  0.87539000  0.59074000  1.0
  C  C117  1  0.74194000  0.87098000  0.62903000  1.0
  C  C118  1  0.70614000  0.83079000  0.70312000  1.0
  C  C119  1  0.63543000  0.79557000  0.73811000  1.0
  C  C120  1  0.93712000  0.25073000  0.98791000  1.0
  C  C121  1  0.06291000  0.48792000  0.75067000  1.0
  C  C122  1  0.88686000  0.02178000  0.72852000  1.0
  C  C123  1  0.11310000  0.22850000  0.52175000  1.0
  C  C124  1  0.06289000  0.57500000  0.18641000  1.0
  C  C125  1  0.93710000  0.68640000  0.07498000  1.0
  C  C126  1  0.11311000  0.88459000  0.36513000  1.0
  C  C127  1  0.88689000  0.86513000  0.38461000  1.0
  C  C128  1  0.74973000  0.27149000  0.11540000  1.0
  C  C129  1  0.74971000  0.47823000  0.13489000  1.0
  C  C130  1  0.26137000  0.01208000  0.42504000  1.0
  C  C131  1  0.26140000  0.24930000  0.31360000  1.0
  C  C132  1  0.25028000  0.61541000  0.77147000  1.0
  C  C133  1  0.25025000  0.63488000  0.97825000  1.0
  C  C134  1  0.73863000  0.92503000  0.51209000  1.0
  C  C135  1  0.73857000  0.81360000  0.74934000  1.0
  O  O136  1  0.99999000  1.00000000  0.50001000  1.0
  O  O137  1  0.15355000  0.12502000  0.42287000  1.0
  O  O138  1  0.05321000  0.89945000  0.57831000  1.0
  O  O139  1  0.97425000  0.02169000  0.62590000  1.0
  O  O140  1  0.15356000  0.02853000  0.42358000  1.0
  O  O141  1  0.02572000  0.12589000  0.52168000  1.0
  O  O142  1  0.94678000  0.86848000  0.65380000  1.0
  O  O143  1  0.84643000  0.92285000  0.62505000  1.0
  O  O144  1  0.94680000  0.07831000  0.39943000  1.0
  O  O145  1  0.84644000  0.92358000  0.52854000  1.0
  O  O146  1  0.05322000  0.15378000  0.36847000  1.0
  O  O147  1  0.02573000  0.89984000  0.45259000  1.0
  O  O148  1  0.97427000  0.95259000  0.39984000  1.0
  O  O149  1  1.00000000  0.50000000  0.00000000  1.0
  O  O150  1  0.95211000  0.37498000  0.97147000  1.0
  O  O151  1  0.02226000  0.60057000  0.84622000  1.0
  O  O152  1  0.85243000  0.47832000  0.04742000  1.0
  O  O153  1  0.04789000  0.47148000  0.87496000  1.0
  O  O154  1  0.85243000  0.37411000  0.10016000  1.0
  O  O155  1  0.97774000  0.63152000  0.92170000  1.0
  O  O156  1  0.95210000  0.57713000  0.07643000  1.0
  O  O157  1  0.02226000  0.42170000  0.13152000  1.0
  O  O158  1  0.04788000  0.57641000  0.07715000  1.0
  O  O159  1  0.97774000  0.34623000  0.10057000  1.0
  O  O160  1  0.14757000  0.60016000  0.87410000  1.0
  O  O161  1  0.14757000  0.54742000  0.97832000  1.0
  O  O162  1  0.87251000  0.22916000  0.03179000  1.0
  O  O163  1  0.97058000  0.22776000  0.00983000  1.0
  O  O164  1  0.12752000  0.53179000  0.72912000  1.0
  O  O165  1  0.02948000  0.50985000  0.72765000  1.0
  O  O166  1  0.88028000  0.96861000  0.78496000  1.0
  O  O167  1  0.84376000  0.01236000  0.71013000  1.0
  O  O168  1  0.11968000  0.28493000  0.46857000  1.0
  O  O169  1  0.15618000  0.21009000  0.51237000  1.0
  O  O170  1  0.12750000  0.59574000  0.14336000  1.0
  O  O171  1  0.02944000  0.51962000  0.24286000  1.0
  O  O172  1  0.87250000  0.64336000  0.09571000  1.0
  O  O173  1  0.97055000  0.74284000  0.01960000  1.0
  O  O174  1  0.11968000  0.83474000  0.41173000  1.0
  O  O175  1  0.15620000  0.94609000  0.33142000  1.0
  O  O176  1  0.88031000  0.91172000  0.33475000  1.0
  O  O177  1  0.84380000  0.83144000  0.44611000  1.0
  O  O178  1  0.74646000  0.21505000  0.16526000  1.0
  O  O179  1  0.77754000  0.28991000  0.05390000  1.0
  O  O180  1  0.74645000  0.53140000  0.08829000  1.0
  O  O181  1  0.77751000  0.48763000  0.16858000  1.0
  O  O182  1  0.23907000  0.96822000  0.40429000  1.0
  O  O183  1  0.26243000  0.99016000  0.48042000  1.0
  O  O184  1  0.23908000  0.27086000  0.35664000  1.0
  O  O185  1  0.26248000  0.27230000  0.25715000  1.0
  O  O186  1  0.25355000  0.66527000  0.71503000  1.0
  O  O187  1  0.22249000  0.55393000  0.78987000  1.0
  O  O188  1  0.25352000  0.58829000  0.03141000  1.0
  O  O189  1  0.22245000  0.66857000  0.98764000  1.0
  O  O190  1  0.76095000  0.90430000  0.46820000  1.0
  O  O191  1  0.73758000  0.98041000  0.49016000  1.0
  O  O192  1  0.76089000  0.85666000  0.77088000  1.0
  O  O193  1  0.73749000  0.75715000  0.77235000  1.0
  F  F194  1  0.91567000  0.11410000  0.29837000  1.0
  F  F195  1  0.08752000  0.38590000  0.19844000  1.0
  F  F196  1  0.91248000  0.21405000  0.20162000  1.0
  F  F197  1  0.08434000  0.28596000  0.30157000  1.0
  F  F198  1  0.91565000  0.80156000  0.78598000  1.0
  F  F199  1  0.08753000  0.70163000  0.71403000  1.0
  F  F200  1  0.91246000  0.69842000  0.88593000  1.0
  F  F201  1  0.08434000  0.79839000  0.61408000  1.0
