# generated using pymatgen
data_BaH14C12(NO5)2
_symmetry_space_group_name_H-M   'P 1'
_cell_length_a   8.44459000
_cell_length_b   10.50750000
_cell_length_c   10.69950000
_cell_angle_alpha   79.62510000
_cell_angle_beta   67.70580000
_cell_angle_gamma   86.47000000
_symmetry_Int_Tables_number   1
_chemical_formula_structural   BaH14C12(NO5)2
_chemical_formula_sum   'Ba2 H28 C24 N4 O20'
_cell_volume   864.02941268
_cell_formula_units_Z   2
loop_
 _symmetry_equiv_pos_site_id
 _symmetry_equiv_pos_as_xyz
  1  'x, y, z'
loop_
 _atom_site_type_symbol
 _atom_site_label
 _atom_site_symmetry_multiplicity
 _atom_site_fract_x
 _atom_site_fract_y
 _atom_site_fract_z
 _atom_site_occupancy
  Ba  Ba0  1  0.17446000  0.43068000  0.82894000  1.0
  Ba  Ba1  1  0.82553000  0.56932000  0.17106000  1.0
  H  H2  1  0.17675000  0.97421000  0.70855000  1.0
  H  H3  1  0.82325000  0.02579000  0.29145000  1.0
  H  H4  1  0.43032000  0.32842000  0.48035000  1.0
  H  H5  1  0.56968000  0.67158000  0.51965000  1.0
  H  H6  1  0.28752000  0.23453000  0.59618000  1.0
  H  H7  1  0.71248000  0.76546000  0.40382000  1.0
  H  H8  1  0.28002000  0.59726000  0.04431000  1.0
  H  H9  1  0.71997000  0.40274000  0.95569000  1.0
  H  H10  1  0.24193000  0.45124000  0.10848000  1.0
  H  H11  1  0.75807000  0.54876000  0.89152000  1.0
  H  H12  1  0.69813000  0.13764000  0.98195000  1.0
  H  H13  1  0.30187000  0.86236000  0.01805000  1.0
  H  H14  1  0.54668000  0.11207000  0.21805000  1.0
  H  H15  1  0.45332000  0.88793000  0.78195000  1.0
  H  H16  1  0.27784000  0.10102000  0.42320000  1.0
  H  H17  1  0.72217000  0.89898000  0.57680000  1.0
  H  H18  1  0.09532000  0.90175000  0.50331000  1.0
  H  H19  1  0.90468000  0.09825000  0.49669000  1.0
  H  H20  1  0.17543000  0.72203000  0.36900000  1.0
  H  H21  1  0.82457000  0.27797000  0.63100000  1.0
  H  H22  1  0.21580000  0.61304000  0.52873000  1.0
  H  H23  1  0.78420000  0.38697000  0.47127000  1.0
  H  H24  1  0.19560000  0.46415000  0.54643000  1.0
  H  H25  1  0.80439000  0.53585000  0.45357000  1.0
  H  H26  1  0.47163000  0.62749000  0.74929000  1.0
  H  H27  1  0.52837000  0.37251000  0.25071000  1.0
  H  H28  1  0.33932000  0.72499000  0.70658000  1.0
  H  H29  1  0.66068000  0.27501000  0.29342000  1.0
  C  C30  1  0.67630000  0.93105000  0.06086000  1.0
  C  C31  1  0.32370000  0.06895000  0.93914000  1.0
  C  C32  1  0.51402000  0.92364000  0.17773000  1.0
  C  C33  1  0.48598000  0.07636000  0.82227000  1.0
  C  C34  1  0.46405000  0.02713000  0.25109000  1.0
  C  C35  1  0.53596000  0.97287000  0.74891000  1.0
  C  C36  1  0.31408000  0.02031000  0.36693000  1.0
  C  C37  1  0.68592000  0.97969000  0.63307000  1.0
  C  C38  1  0.21220000  0.90873000  0.41185000  1.0
  C  C39  1  0.78780000  0.09127000  0.58815000  1.0
  C  C40  1  0.25953000  0.80609000  0.33884000  1.0
  C  C41  1  0.74047000  0.19391000  0.66116000  1.0
  C  C42  1  0.40898000  0.81236000  0.22095000  1.0
  C  C43  1  0.59102000  0.18764000  0.77906000  1.0
  C  C44  1  0.43999000  0.70262000  0.14000000  1.0
  C  C45  1  0.56001000  0.29738000  0.86000000  1.0
  C  C46  1  0.91513000  0.87806000  0.91018000  1.0
  C  C47  1  0.08487000  0.12194000  0.08982000  1.0
  C  C48  1  0.90583000  0.01330000  0.88582000  1.0
  C  C49  1  0.09417000  0.98670000  0.11418000  1.0
  C  C50  1  0.02382000  0.11524000  0.79046000  1.0
  C  C51  1  0.97618000  0.88477000  0.20954000  1.0
  C  C52  1  0.05353000  0.79076000  0.84339000  1.0
  C  C53  1  0.94647000  0.20924000  0.15661000  1.0
  N  N54  1  0.77263000  0.82879000  0.01957000  1.0
  N  N55  1  0.22737000  0.17121000  0.98043000  1.0
  N  N56  1  0.75436000  0.04390000  0.98314000  1.0
  N  N57  1  0.24565000  0.95610000  0.01686000  1.0
  O  O58  1  0.99498000  0.23072000  0.80119000  1.0
  O  O59  1  0.00503000  0.76928000  0.19881000  1.0
  O  O60  1  0.16280000  0.07889000  0.69364000  1.0
  O  O61  1  0.83720000  0.92111000  0.30636000  1.0
  O  O62  1  0.18647000  0.84151000  0.74021000  1.0
  O  O63  1  0.81353000  0.15849000  0.25978000  1.0
  O  O64  1  0.03730000  0.67179000  0.89010000  1.0
  O  O65  1  0.96270000  0.32822000  0.10990000  1.0
  O  O66  1  0.40084000  0.72496000  0.03323000  1.0
  O  O67  1  0.59915000  0.27504000  0.96677000  1.0
  O  O68  1  0.49086000  0.59588000  0.18607000  1.0
  O  O69  1  0.50914000  0.40412000  0.81393000  1.0
  O  O70  1  0.33099000  0.32389000  0.56905000  1.0
  O  O71  1  0.66901000  0.67611000  0.43095000  1.0
  O  O72  1  0.20042000  0.52412000  0.05947000  1.0
  O  O73  1  0.79958000  0.47588000  0.94053000  1.0
  O  O74  1  0.13597000  0.54218000  0.58121000  1.0
  O  O75  1  0.86403000  0.45782000  0.41879000  1.0
  O  O76  1  0.41618000  0.64915000  0.68312000  1.0
  O  O77  1  0.58382000  0.35084000  0.31688000  1.0
