# generated using pymatgen
data_Cd6H21C21N31
_symmetry_space_group_name_H-M   'P 1'
_cell_length_a   13.44990000
_cell_length_b   13.44990000
_cell_length_c   13.47970000
_cell_angle_alpha   88.48950000
_cell_angle_beta   88.48990000
_cell_angle_gamma   83.94960000
_symmetry_Int_Tables_number   1
_chemical_formula_structural   Cd6H21C21N31
_chemical_formula_sum   'Cd12 H42 C42 N62'
_cell_volume   2423.36743140
_cell_formula_units_Z   2
loop_
 _symmetry_equiv_pos_site_id
 _symmetry_equiv_pos_as_xyz
  1  'x, y, z'
loop_
 _atom_site_type_symbol
 _atom_site_label
 _atom_site_symmetry_multiplicity
 _atom_site_fract_x
 _atom_site_fract_y
 _atom_site_fract_z
 _atom_site_occupancy
  Cd  Cd0  1  0.16232000  0.65828000  0.68055000  1.0
  Cd  Cd1  1  0.20900000  0.03088000  0.37504000  1.0
  Cd  Cd2  1  0.34175000  0.83767000  0.81946000  1.0
  Cd  Cd3  1  0.96913000  0.79101000  0.12494000  1.0
  Cd  Cd4  1  0.83766000  0.34175000  0.31945000  1.0
  Cd  Cd5  1  0.79101000  0.96913000  0.62498000  1.0
  Cd  Cd6  1  0.65827000  0.16232000  0.18054000  1.0
  Cd  Cd7  1  0.03088000  0.20901000  0.87507000  1.0
  Cd  Cd8  1  0.60468000  0.39529000  0.74998000  1.0
  Cd  Cd9  1  0.39528000  0.60467000  0.24998000  1.0
  Cd  Cd10  1  0.50000000  0.99999000  0.00001000  1.0
  Cd  Cd11  1  0.00000000  0.49999000  0.50001000  1.0
  H  H12  1  0.34982000  0.44817000  0.71020000  1.0
  H  H13  1  0.30524000  0.02243000  0.62342000  1.0
  H  H14  1  0.16984000  0.80860000  0.46616000  1.0
  H  H15  1  0.65796000  0.35472000  0.99372000  1.0
  H  H16  1  0.48464000  0.19088000  0.81427000  1.0
  H  H17  1  0.15671000  0.46314000  0.87376000  1.0
  H  H18  1  0.95808000  0.33586000  0.69108000  1.0
  H  H19  1  0.83349000  0.72768000  0.45469000  1.0
  H  H20  1  0.97125000  0.84390000  0.69543000  1.0
  H  H21  1  0.01872000  0.88732000  0.40006000  1.0
  H  H22  1  0.55183000  0.65014000  0.78980000  1.0
  H  H23  1  0.97757000  0.69481000  0.87658000  1.0
  H  H24  1  0.19143000  0.83016000  0.03384000  1.0
  H  H25  1  0.64525000  0.34208000  0.50624000  1.0
  H  H26  1  0.80912000  0.51529000  0.68574000  1.0
  H  H27  1  0.53686000  0.84331000  0.62624000  1.0
  H  H28  1  0.66414000  0.04191000  0.80894000  1.0
  H  H29  1  0.27230000  0.16649000  0.04533000  1.0
  H  H30  1  0.15611000  0.02876000  0.80456000  1.0
  H  H31  1  0.11274000  0.98130000  0.09993000  1.0
  H  H32  1  0.65013000  0.55183000  0.28980000  1.0
  H  H33  1  0.69482000  0.97757000  0.37657000  1.0
  H  H34  1  0.83013000  0.19143000  0.53386000  1.0
  H  H35  1  0.34207000  0.64526000  0.00624000  1.0
  H  H36  1  0.51530000  0.80911000  0.18575000  1.0
  H  H37  1  0.84333000  0.53685000  0.12623000  1.0
  H  H38  1  0.04193000  0.66414000  0.30894000  1.0
  H  H39  1  0.16650000  0.27233000  0.54529000  1.0
  H  H40  1  0.02872000  0.15607000  0.30459000  1.0
  H  H41  1  0.98129000  0.11273000  0.59993000  1.0
  H  H42  1  0.44818000  0.34979000  0.21018000  1.0
  H  H43  1  0.02242000  0.30523000  0.12343000  1.0
  H  H44  1  0.80859000  0.16985000  0.96615000  1.0
  H  H45  1  0.35471000  0.65796000  0.49372000  1.0
  H  H46  1  0.19088000  0.48464000  0.31428000  1.0
  H  H47  1  0.46315000  0.15670000  0.37376000  1.0
  H  H48  1  0.33587000  0.95808000  0.19108000  1.0
  H  H49  1  0.72769000  0.83349000  0.95470000  1.0
  H  H50  1  0.84392000  0.97126000  0.19543000  1.0
  H  H51  1  0.88729000  0.01872000  0.90007000  1.0
  H  H52  1  0.25568000  0.74432000  0.25000000  1.0
  H  H53  1  0.74431000  0.25568000  0.75001000  1.0
  C  C54  1  0.38244000  0.51522000  0.73006000  1.0
  C  C55  1  0.27452000  0.95439000  0.60366000  1.0
  C  C56  1  0.20470000  0.84567000  0.52557000  1.0
  C  C57  1  0.61166000  0.29988000  0.96758000  1.0
  C  C58  1  0.52394000  0.21667000  0.87639000  1.0
  C  C59  1  0.11088000  0.44812000  0.81184000  1.0
  C  C60  1  0.00985000  0.38510000  0.71951000  1.0
  C  C61  1  0.88348000  0.73662000  0.51497000  1.0
  C  C62  1  0.95590000  0.79553000  0.63522000  1.0
  C  C63  1  0.03201000  0.85311000  0.32574000  1.0
  C  C64  1  0.48477000  0.61752000  0.76994000  1.0
  C  C65  1  0.04562000  0.72551000  0.89634000  1.0
  C  C66  1  0.15435000  0.79531000  0.97444000  1.0
  C  C67  1  0.70009000  0.38836000  0.53238000  1.0
  C  C68  1  0.78331000  0.47604000  0.62360000  1.0
  C  C69  1  0.55188000  0.88913000  0.68817000  1.0
  C  C70  1  0.61491000  0.99015000  0.78051000  1.0
  C  C71  1  0.26337000  0.11651000  0.98504000  1.0
  C  C72  1  0.20447000  0.04409000  0.86477000  1.0
  C  C73  1  0.14695000  0.96800000  0.17423000  1.0
  C  C74  1  0.61752000  0.48476000  0.26993000  1.0
  C  C75  1  0.72551000  0.04562000  0.39633000  1.0
  C  C76  1  0.79528000  0.15436000  0.47445000  1.0
  C  C77  1  0.38834000  0.70010000  0.03239000  1.0
  C  C78  1  0.47604000  0.78331000  0.12361000  1.0
  C  C79  1  0.88915000  0.55188000  0.18816000  1.0
  C  C80  1  0.99017000  0.61490000  0.28050000  1.0
  C  C81  1  0.11651000  0.26338000  0.48502000  1.0
  C  C82  1  0.04407000  0.20446000  0.36479000  1.0
  C  C83  1  0.96799000  0.14693000  0.67426000  1.0
  C  C84  1  0.51523000  0.38243000  0.23005000  1.0
  C  C85  1  0.95438000  0.27452000  0.10366000  1.0
  C  C86  1  0.84567000  0.20470000  0.02556000  1.0
  C  C87  1  0.29989000  0.61167000  0.46758000  1.0
  C  C88  1  0.21668000  0.52393000  0.37641000  1.0
  C  C89  1  0.44813000  0.11088000  0.31184000  1.0
  C  C90  1  0.38510000  0.00985000  0.21951000  1.0
  C  C91  1  0.73663000  0.88347000  0.01498000  1.0
  C  C92  1  0.79555000  0.95591000  0.13522000  1.0
  C  C93  1  0.85307000  0.03203000  0.82577000  1.0
  C  C94  1  0.19342000  0.80659000  0.24998000  1.0
  C  C95  1  0.80658000  0.19342000  0.75000000  1.0
  N  N96  1  0.33009000  0.60425000  0.73713000  1.0
  N  N97  1  0.22657000  0.80544000  0.61466000  1.0
  N  N98  1  0.27150000  0.87550000  0.66504000  1.0
  N  N99  1  0.23392000  0.93917000  0.51504000  1.0
  N  N100  1  0.58647000  0.22283000  0.02235000  1.0
  N  N101  1  0.57359000  0.29989000  0.87493000  1.0
  N  N102  1  0.53033000  0.16963000  0.96389000  1.0
  N  N103  1  0.10602000  0.50413000  0.72840000  1.0
  N  N104  1  0.05197000  0.37248000  0.81013000  1.0
  N  N105  1  0.04016000  0.46334000  0.66895000  1.0
  N  N106  1  0.96160000  0.67034000  0.53605000  1.0
  N  N107  1  0.87634000  0.81616000  0.57539000  1.0
  N  N108  1  0.00818000  0.70897000  0.61366000  1.0
  N  N109  1  0.12515000  0.79522000  0.32065000  1.0
  N  N110  1  0.96074000  0.86303000  0.26464000  1.0
  N  N111  1  0.39575000  0.66990000  0.76288000  1.0
  N  N112  1  0.19457000  0.77344000  0.88534000  1.0
  N  N113  1  0.12451000  0.72852000  0.83495000  1.0
  N  N114  1  0.06085000  0.76609000  0.98496000  1.0
  N  N115  1  0.77715000  0.41355000  0.47763000  1.0
  N  N116  1  0.70009000  0.42640000  0.62505000  1.0
  N  N117  1  0.83036000  0.46966000  0.53610000  1.0
  N  N118  1  0.49588000  0.89398000  0.77161000  1.0
  N  N119  1  0.62753000  0.94804000  0.68988000  1.0
  N  N120  1  0.53667000  0.95983000  0.83106000  1.0
  N  N121  1  0.32965000  0.03839000  0.96396000  1.0
  N  N122  1  0.18384000  0.12364000  0.92462000  1.0
  N  N123  1  0.29104000  0.99181000  0.88634000  1.0
  N  N124  1  0.20479000  0.87487000  0.17934000  1.0
  N  N125  1  0.13700000  0.03925000  0.23534000  1.0
  N  N126  1  0.66990000  0.39575000  0.26287000  1.0
  N  N127  1  0.77342000  0.19457000  0.38535000  1.0
  N  N128  1  0.72852000  0.12451000  0.33495000  1.0
  N  N129  1  0.76608000  0.06084000  0.48496000  1.0
  N  N130  1  0.41353000  0.77715000  0.97764000  1.0
  N  N131  1  0.42640000  0.70009000  0.12506000  1.0
  N  N132  1  0.46966000  0.83036000  0.03612000  1.0
  N  N133  1  0.89399000  0.49588000  0.27161000  1.0
  N  N134  1  0.94806000  0.62752000  0.18987000  1.0
  N  N135  1  0.95985000  0.53667000  0.33106000  1.0
  N  N136  1  0.03839000  0.32965000  0.46394000  1.0
  N  N137  1  0.12364000  0.18384000  0.42462000  1.0
  N  N138  1  0.99180000  0.29103000  0.38635000  1.0
  N  N139  1  0.87486000  0.20479000  0.67936000  1.0
  N  N140  1  0.03926000  0.13700000  0.73535000  1.0
  N  N141  1  0.60425000  0.33008000  0.23713000  1.0
  N  N142  1  0.80544000  0.22657000  0.11465000  1.0
  N  N143  1  0.87549000  0.27150000  0.16504000  1.0
  N  N144  1  0.93916000  0.23393000  0.01504000  1.0
  N  N145  1  0.22284000  0.58648000  0.52235000  1.0
  N  N146  1  0.29988000  0.57359000  0.37493000  1.0
  N  N147  1  0.16964000  0.53033000  0.46390000  1.0
  N  N148  1  0.50413000  0.10602000  0.22840000  1.0
  N  N149  1  0.37248000  0.05197000  0.31014000  1.0
  N  N150  1  0.46334000  0.04016000  0.16895000  1.0
  N  N151  1  0.67035000  0.96159000  0.03605000  1.0
  N  N152  1  0.81617000  0.87635000  0.07538000  1.0
  N  N153  1  0.70898000  0.00818000  0.11365000  1.0
  N  N154  1  0.79521000  0.12516000  0.82067000  1.0
  N  N155  1  0.86301000  0.96075000  0.76466000  1.0
  N  N156  1  0.48064000  0.51933000  0.75000000  1.0
  N  N157  1  0.51933000  0.48063000  0.24999000  1.0
