# generated using pymatgen
data_ZnH4C4(NCl)2
_symmetry_space_group_name_H-M   'P 1'
_cell_length_a   3.55032000
_cell_length_b   7.05620000
_cell_length_c   12.17710000
_cell_angle_alpha   89.99870000
_cell_angle_beta   89.99980000
_cell_angle_gamma   90.00000000
_symmetry_Int_Tables_number   1
_chemical_formula_structural   ZnH4C4(NCl)2
_chemical_formula_sum   'Zn2 H8 C8 N4 Cl4'
_cell_volume   305.05788384
_cell_formula_units_Z   2
loop_
 _symmetry_equiv_pos_site_id
 _symmetry_equiv_pos_as_xyz
  1  'x, y, z'
loop_
 _atom_site_type_symbol
 _atom_site_label
 _atom_site_symmetry_multiplicity
 _atom_site_fract_x
 _atom_site_fract_y
 _atom_site_fract_z
 _atom_site_occupancy
  Zn  Zn0  1  0.00000000  0.00000000  0.50000000  1.0
  Zn  Zn1  1  0.00000000  0.00001000  0.00000000  1.0
  H  H2  1  0.00000000  0.91581000  0.75000000  1.0
  H  H3  1  0.00000000  0.08420000  0.25000000  1.0
  H  H4  1  0.00000000  0.41746000  0.92735000  1.0
  H  H5  1  0.00000000  0.58255000  0.42737000  1.0
  H  H6  1  0.00000000  0.58255000  0.07264000  1.0
  H  H7  1  0.00000000  0.41743000  0.57264000  1.0
  H  H8  1  0.00000000  0.60478000  0.74999000  1.0
  H  H9  1  0.00000000  0.39523000  0.25000000  1.0
  C  C10  1  0.00000000  0.06977000  0.75000000  1.0
  C  C11  1  0.99999000  0.93019000  0.25001000  1.0
  C  C12  1  0.00000000  0.34885000  0.84737000  1.0
  C  C13  1  0.00000000  0.65116000  0.34739000  1.0
  C  C14  1  0.00000000  0.65116000  0.15262000  1.0
  C  C15  1  0.00000000  0.34884000  0.65261000  1.0
  C  C16  1  0.00000000  0.45104000  0.75000000  1.0
  C  C17  1  0.00000000  0.54895000  0.25000000  1.0
  N  N18  1  0.00000000  0.15814000  0.65288000  1.0
  N  N19  1  0.00000000  0.84185000  0.15288000  1.0
  N  N20  1  0.00000000  0.84185000  0.34712000  1.0
  N  N21  1  0.00000000  0.15815000  0.84713000  1.0
  Cl  Cl22  1  0.50000000  0.78719000  0.57307000  1.0
  Cl  Cl23  1  0.50000000  0.21282000  0.07307000  1.0
  Cl  Cl24  1  0.50001000  0.21282000  0.42693000  1.0
  Cl  Cl25  1  0.50000000  0.78720000  0.92693000  1.0
