# generated using pymatgen
data_CuH12C14Br(NO2)2
_symmetry_space_group_name_H-M   'P 1'
_cell_length_a   11.99680000
_cell_length_b   12.85140000
_cell_length_c   12.91840000
_cell_angle_alpha   91.80000000
_cell_angle_beta   108.81010000
_cell_angle_gamma   104.17110000
_symmetry_Int_Tables_number   1
_chemical_formula_structural   CuH12C14Br(NO2)2
_chemical_formula_sum   'Cu4 H48 C56 Br4 N8 O16'
_cell_volume   1814.69791407
_cell_formula_units_Z   4
loop_
 _symmetry_equiv_pos_site_id
 _symmetry_equiv_pos_as_xyz
  1  'x, y, z'
loop_
 _atom_site_type_symbol
 _atom_site_label
 _atom_site_symmetry_multiplicity
 _atom_site_fract_x
 _atom_site_fract_y
 _atom_site_fract_z
 _atom_site_occupancy
  Cu  Cu0  1  0.90771000  0.01360000  0.88484000  1.0
  Cu  Cu1  1  0.09229000  0.98640000  0.11516000  1.0
  Cu  Cu2  1  0.39770000  0.48319000  0.91554000  1.0
  Cu  Cu3  1  0.60230000  0.51680000  0.08446000  1.0
  H  H4  1  0.69615000  0.85710000  0.91047000  1.0
  H  H5  1  0.30386000  0.14291000  0.08953000  1.0
  H  H6  1  0.47918000  0.84794000  0.88301000  1.0
  H  H7  1  0.52083000  0.15206000  0.11700000  1.0
  H  H8  1  0.55662000  0.18341000  0.82339000  1.0
  H  H9  1  0.44337000  0.81659000  0.17660000  1.0
  H  H10  1  0.77028000  0.17953000  0.85370000  1.0
  H  H11  1  0.22971000  0.82048000  0.14629000  1.0
  H  H12  1  0.16386000  0.99772000  0.83047000  1.0
  H  H13  1  0.83613000  0.00228000  0.16953000  1.0
  H  H14  1  0.16298000  0.88737000  0.91126000  1.0
  H  H15  1  0.83701000  0.11263000  0.08874000  1.0
  H  H16  1  0.89512000  0.83497000  0.16568000  1.0
  H  H17  1  0.10487000  0.16503000  0.83431000  1.0
  H  H18  1  0.86555000  0.76154000  0.33590000  1.0
  H  H19  1  0.13444000  0.23847000  0.66410000  1.0
  H  H20  1  0.19529000  0.00397000  0.52667000  1.0
  H  H21  1  0.80470000  0.99603000  0.47332000  1.0
  H  H22  1  0.21350000  0.06573000  0.35071000  1.0
  H  H23  1  0.78650000  0.93427000  0.64929000  1.0
  H  H24  1  0.99735000  0.82598000  0.73976000  1.0
  H  H25  1  0.00263000  0.17402000  0.26024000  1.0
  H  H26  1  0.11139000  0.75964000  0.73908000  1.0
  H  H27  1  0.88860000  0.24036000  0.26090000  1.0
  H  H28  1  0.37228000  0.57723000  0.70886000  1.0
  H  H29  1  0.62774000  0.42277000  0.29114000  1.0
  H  H30  1  0.34769000  0.51541000  0.51486000  1.0
  H  H31  1  0.65232000  0.48460000  0.48514000  1.0
  H  H32  1  0.38243000  0.20579000  0.61995000  1.0
  H  H33  1  0.61758000  0.79420000  0.38005000  1.0
  H  H34  1  0.40497000  0.27977000  0.80940000  1.0
  H  H35  1  0.59503000  0.72022000  0.19060000  1.0
  H  H36  1  0.24778000  0.28128000  0.22192000  1.0
  H  H37  1  0.75222000  0.71872000  0.77808000  1.0
  H  H38  1  0.40845000  0.33673000  0.25575000  1.0
  H  H39  1  0.59156000  0.66326000  0.74425000  1.0
  H  H40  1  0.73902000  0.34882000  0.08734000  1.0
  H  H41  1  0.26098000  0.65117000  0.91266000  1.0
  H  H42  1  0.96138000  0.35609000  0.13114000  1.0
  H  H43  1  0.03863000  0.64392000  0.86885000  1.0
  H  H44  1  0.03406000  0.70152000  0.12570000  1.0
  H  H45  1  0.96595000  0.29848000  0.87430000  1.0
  H  H46  1  0.80952000  0.67928000  0.07625000  1.0
  H  H47  1  0.19050000  0.32073000  0.92376000  1.0
  H  H48  1  0.31797000  0.43810000  0.11529000  1.0
  H  H49  1  0.68204000  0.56190000  0.88472000  1.0
  H  H50  1  0.36281000  0.52579000  0.23998000  1.0
  H  H51  1  0.63720000  0.47420000  0.76003000  1.0
  C  C52  1  0.66106000  0.92725000  0.88971000  1.0
  C  C53  1  0.33895000  0.07276000  0.11030000  1.0
  C  C54  1  0.53995000  0.92279000  0.87436000  1.0
  C  C55  1  0.46006000  0.07722000  0.12566000  1.0
  C  C56  1  0.49910000  0.01492000  0.84818000  1.0
  C  C57  1  0.50090000  0.98508000  0.15182000  1.0
  C  C58  1  0.58347000  0.10912000  0.84137000  1.0
  C  C59  1  0.41652000  0.89088000  0.15862000  1.0
  C  C60  1  0.70310000  0.10705000  0.85834000  1.0
  C  C61  1  0.29689000  0.89295000  0.14166000  1.0
  C  C62  1  0.36990000  0.01582000  0.82670000  1.0
  C  C63  1  0.63010000  0.98418000  0.17331000  1.0
  C  C64  1  0.17792000  0.91682000  0.83680000  1.0
  C  C65  1  0.82206000  0.08317000  0.16319000  1.0
  C  C66  1  0.96005000  0.86854000  0.24757000  1.0
  C  C67  1  0.03994000  0.13145000  0.75242000  1.0
  C  C68  1  0.94389000  0.82852000  0.34161000  1.0
  C  C69  1  0.05610000  0.17149000  0.65839000  1.0
  C  C70  1  0.02946000  0.87566000  0.44481000  1.0
  C  C71  1  0.97053000  0.12434000  0.55518000  1.0
  C  C72  1  0.12753000  0.96328000  0.44837000  1.0
  C  C73  1  0.87246000  0.03672000  0.55163000  1.0
  C  C74  1  0.13787000  0.99810000  0.35023000  1.0
  C  C75  1  0.86213000  0.00189000  0.64976000  1.0
  C  C76  1  0.01176000  0.82952000  0.54448000  1.0
  C  C77  1  0.98822000  0.17048000  0.45552000  1.0
  C  C78  1  0.09093000  0.83856000  0.73869000  1.0
  C  C79  1  0.90906000  0.16144000  0.26130000  1.0
  C  C80  1  0.37381000  0.49547000  0.68514000  1.0
  C  C81  1  0.62621000  0.50453000  0.31488000  1.0
  C  C82  1  0.36071000  0.46105000  0.57798000  1.0
  C  C83  1  0.63930000  0.53894000  0.42202000  1.0
  C  C84  1  0.36428000  0.35539000  0.55262000  1.0
  C  C85  1  0.63574000  0.64462000  0.44739000  1.0
  C  C86  1  0.38057000  0.28879000  0.63670000  1.0
  C  C87  1  0.61943000  0.71120000  0.36330000  1.0
  C  C88  1  0.39325000  0.32940000  0.74187000  1.0
  C  C89  1  0.60676000  0.67060000  0.25814000  1.0
  C  C90  1  0.35147000  0.31198000  0.44007000  1.0
  C  C91  1  0.64853000  0.68801000  0.55993000  1.0
  C  C92  1  0.32384000  0.35446000  0.25691000  1.0
  C  C93  1  0.67616000  0.64555000  0.74309000  1.0
  C  C94  1  0.80852000  0.42522000  0.09841000  1.0
  C  C95  1  0.19150000  0.57478000  0.90158000  1.0
  C  C96  1  0.93142000  0.42979000  0.12353000  1.0
  C  C97  1  0.06860000  0.57022000  0.87647000  1.0
  C  C98  1  0.01600000  0.53059000  0.13627000  1.0
  C  C99  1  0.98401000  0.46940000  0.86371000  1.0
  C  C100  1  0.97223000  0.62225000  0.12011000  1.0
  C  C101  1  0.02778000  0.37775000  0.87989000  1.0
  C  C102  1  0.84802000  0.61057000  0.09357000  1.0
  C  C103  1  0.15198000  0.38944000  0.90642000  1.0
  C  C104  1  0.14951000  0.54416000  0.16277000  1.0
  C  C105  1  0.85050000  0.45584000  0.83725000  1.0
  C  C106  1  0.30268000  0.44812000  0.19393000  1.0
  C  C107  1  0.69733000  0.55188000  0.80608000  1.0
  Br  Br108  1  0.94049000  0.84304000  0.95825000  1.0
  Br  Br109  1  0.05951000  0.15696000  0.04174000  1.0
  Br  Br110  1  0.46099000  0.33475000  0.02892000  1.0
  Br  Br111  1  0.53895000  0.66525000  0.97112000  1.0
  N  N112  1  0.74226000  0.01726000  0.88102000  1.0
  N  N113  1  0.25774000  0.98275000  0.11898000  1.0
  N  N114  1  0.05637000  0.95104000  0.25005000  1.0
  N  N115  1  0.94363000  0.04896000  0.74994000  1.0
  N  N116  1  0.39052000  0.43146000  0.76675000  1.0
  N  N117  1  0.60949000  0.56854000  0.23326000  1.0
  N  N118  1  0.76644000  0.51424000  0.08447000  1.0
  N  N119  1  0.23357000  0.48577000  0.91553000  1.0
  O  O120  1  0.32849000  0.09105000  0.79226000  1.0
  O  O121  1  0.67150000  0.90894000  0.20774000  1.0
  O  O122  1  0.30429000  0.92336000  0.85011000  1.0
  O  O123  1  0.69570000  0.07663000  0.14989000  1.0
  O  O124  1  0.92767000  0.75161000  0.54168000  1.0
  O  O125  1  0.07231000  0.24840000  0.45831000  1.0
  O  O126  1  0.10004000  0.88293000  0.63889000  1.0
  O  O127  1  0.89994000  0.11708000  0.36110000  1.0
  O  O128  1  0.35739000  0.22111000  0.41516000  1.0
  O  O129  1  0.64262000  0.77888000  0.58484000  1.0
  O  O130  1  0.33484000  0.38616000  0.36927000  1.0
  O  O131  1  0.66517000  0.61383000  0.63073000  1.0
  O  O132  1  0.22469000  0.63164000  0.17433000  1.0
  O  O133  1  0.77532000  0.36837000  0.82568000  1.0
  O  O134  1  0.17626000  0.44815000  0.17157000  1.0
  O  O135  1  0.82376000  0.55185000  0.82842000  1.0
