# generated using pymatgen
data_CuH10C12N2(ClO3)2
_symmetry_space_group_name_H-M   'P 1'
_cell_length_a   10.84990000
_cell_length_b   10.99460000
_cell_length_c   14.15772105
_cell_angle_alpha   67.15740267
_cell_angle_beta   86.37405828
_cell_angle_gamma   89.99410000
_symmetry_Int_Tables_number   1
_chemical_formula_structural   CuH10C12N2(ClO3)2
_chemical_formula_sum   'Cu4 H40 C48 N8 Cl8 O24'
_cell_volume   1552.76373379
_cell_formula_units_Z   4
loop_
 _symmetry_equiv_pos_site_id
 _symmetry_equiv_pos_as_xyz
  1  'x, y, z'
loop_
 _atom_site_type_symbol
 _atom_site_label
 _atom_site_symmetry_multiplicity
 _atom_site_fract_x
 _atom_site_fract_y
 _atom_site_fract_z
 _atom_site_occupancy
  Cu  Cu0  1  0.25004000  0.83985000  0.99998000  1.0
  Cu  Cu1  1  0.74993000  0.16017000  0.00001000  1.0
  Cu  Cu2  1  0.49999000  0.50000000  0.49999000  1.0
  Cu  Cu3  1  0.99998000  0.99999000  0.50000000  1.0
  H  H4  1  0.00385000  0.91879000  0.93555000  1.0
  H  H5  1  0.49610000  0.85437000  0.06444000  1.0
  H  H6  1  0.99616000  0.08118000  0.06447000  1.0
  H  H7  1  0.50388000  0.14563000  0.93553000  1.0
  H  H8  1  0.02547000  0.86203000  0.05150000  1.0
  H  H9  1  0.47456000  0.91362000  0.94847000  1.0
  H  H10  1  0.97455000  0.13796000  0.94852000  1.0
  H  H11  1  0.52542000  0.08638000  0.05151000  1.0
  H  H12  1  0.34669000  0.73271000  0.52520000  1.0
  H  H13  1  0.15331000  0.25792000  0.47481000  1.0
  H  H14  1  0.65335000  0.26730000  0.47481000  1.0
  H  H15  1  0.84664000  0.74209000  0.52518000  1.0
  H  H16  1  0.49345000  0.73846000  0.52519000  1.0
  H  H17  1  0.00656000  0.26367000  0.47482000  1.0
  H  H18  1  0.50659000  0.26154000  0.47479000  1.0
  H  H19  1  0.99339000  0.73632000  0.52519000  1.0
  H  H20  1  0.10367000  0.60616000  0.01993000  1.0
  H  H21  1  0.39628000  0.62591000  0.98012000  1.0
  H  H22  1  0.89632000  0.39384000  0.98006000  1.0
  H  H23  1  0.60373000  0.37408000  0.01989000  1.0
  H  H24  1  0.20494000  0.28511000  0.29487000  1.0
  H  H25  1  0.29507000  0.57996000  0.70509000  1.0
  H  H26  1  0.79508000  0.71491000  0.70513000  1.0
  H  H27  1  0.70492000  0.42005000  0.29491000  1.0
  H  H28  1  0.33309000  0.68652000  0.21358000  1.0
  H  H29  1  0.16687000  0.90001000  0.78650000  1.0
  H  H30  1  0.66693000  0.31350000  0.78638000  1.0
  H  H31  1  0.83310000  0.09997000  0.21352000  1.0
  H  H32  1  0.09902000  0.20003000  0.79635000  1.0
  H  H33  1  0.40091000  0.99643000  0.20358000  1.0
  H  H34  1  0.90099000  0.79998000  0.20367000  1.0
  H  H35  1  0.59908000  0.00360000  0.79640000  1.0
  H  H36  1  0.22954000  0.53786000  0.52620000  1.0
  H  H37  1  0.27031000  0.06401000  0.47380000  1.0
  H  H38  1  0.77043000  0.46213000  0.47379000  1.0
  H  H39  1  0.72973000  0.93597000  0.52621000  1.0
  H  H40  1  0.48325000  0.26409000  0.68619000  1.0
  H  H41  1  0.01668000  0.95021000  0.31376000  1.0
  H  H42  1  0.51676000  0.73592000  0.31378000  1.0
  H  H43  1  0.98334000  0.04978000  0.68628000  1.0
  C  C44  1  0.15309000  0.56735000  0.08963000  1.0
  C  C45  1  0.34690000  0.65687000  0.91040000  1.0
  C  C46  1  0.84691000  0.43264000  0.91036000  1.0
  C  C47  1  0.65311000  0.34313000  0.08961000  1.0
  C  C48  1  0.14794000  0.43329000  0.15248000  1.0
  C  C49  1  0.35211000  0.58571000  0.84749000  1.0
  C  C50  1  0.85206000  0.56672000  0.84752000  1.0
  C  C51  1  0.64790000  0.41430000  0.15251000  1.0
  C  C52  1  0.20765000  0.38891000  0.24356000  1.0
  C  C53  1  0.29241000  0.63246000  0.75641000  1.0
  C  C54  1  0.79237000  0.61110000  0.75644000  1.0
  C  C55  1  0.70759000  0.36755000  0.24359000  1.0
  C  C56  1  0.27304000  0.48066000  0.26817000  1.0
  C  C57  1  0.22702000  0.74882000  0.73182000  1.0
  C  C58  1  0.72698000  0.51935000  0.73180000  1.0
  C  C59  1  0.77298000  0.25117000  0.26820000  1.0
  C  C60  1  0.27949000  0.61269000  0.19910000  1.0
  C  C61  1  0.22051000  0.81173000  0.80095000  1.0
  C  C62  1  0.72053000  0.38731000  0.80088000  1.0
  C  C63  1  0.77947000  0.18825000  0.19907000  1.0
  C  C64  1  0.33836000  0.43462000  0.36681000  1.0
  C  C65  1  0.16170000  0.80145000  0.63317000  1.0
  C  C66  1  0.66166000  0.56539000  0.63318000  1.0
  C  C67  1  0.83826000  0.19853000  0.36685000  1.0
  C  C68  1  0.32825000  0.09284000  0.83982000  1.0
  C  C69  1  0.17180000  0.93264000  0.16010000  1.0
  C  C70  1  0.67174000  0.90716000  0.16016000  1.0
  C  C71  1  0.82823000  0.06734000  0.83992000  1.0
  C  C72  1  0.29517000  0.21796000  0.75356000  1.0
  C  C73  1  0.20476000  0.97151000  0.24638000  1.0
  C  C74  1  0.70483000  0.78204000  0.24644000  1.0
  C  C75  1  0.79523000  0.02850000  0.75362000  1.0
  C  C76  1  0.17329000  0.25916000  0.74297000  1.0
  C  C77  1  0.32663000  0.00214000  0.25697000  1.0
  C  C78  1  0.82671000  0.74086000  0.25702000  1.0
  C  C79  1  0.67336000  0.99788000  0.74302000  1.0
  C  C80  1  0.14934000  0.37580000  0.66116000  1.0
  C  C81  1  0.35055000  0.03697000  0.33881000  1.0
  C  C82  1  0.85065000  0.62421000  0.33883000  1.0
  C  C83  1  0.64945000  0.96303000  0.66119000  1.0
  C  C84  1  0.24534000  0.44671000  0.59119000  1.0
  C  C85  1  0.25455000  0.03785000  0.40879000  1.0
  C  C86  1  0.75466000  0.55328000  0.40880000  1.0
  C  C87  1  0.74546000  0.96213000  0.59123000  1.0
  C  C88  1  0.38747000  0.29348000  0.68157000  1.0
  C  C89  1  0.11245000  0.97498000  0.31840000  1.0
  C  C90  1  0.61252000  0.70652000  0.31842000  1.0
  C  C91  1  0.88757000  0.02501000  0.68163000  1.0
  N  N92  1  0.22074000  0.65412000  0.11180000  1.0
  N  N93  1  0.27925000  0.76580000  0.88825000  1.0
  N  N94  1  0.77928000  0.34587000  0.88818000  1.0
  N  N95  1  0.72074000  0.23419000  0.11176000  1.0
  N  N96  1  0.36189000  0.40445000  0.60231000  1.0
  N  N97  1  0.13801000  0.00667000  0.39768000  1.0
  N  N98  1  0.63810000  0.59556000  0.39768000  1.0
  N  N99  1  0.86200000  0.99332000  0.60236000  1.0
  Cl  Cl100  1  0.07403000  0.32496000  0.11261000  1.0
  Cl  Cl101  1  0.42599000  0.43749000  0.88732000  1.0
  Cl  Cl102  1  0.92594000  0.67504000  0.88741000  1.0
  Cl  Cl103  1  0.57404000  0.56253000  0.11266000  1.0
  Cl  Cl104  1  0.00084000  0.43276000  0.64571000  1.0
  Cl  Cl105  1  0.49902000  0.07857000  0.35425000  1.0
  Cl  Cl106  1  0.99915000  0.56724000  0.35430000  1.0
  Cl  Cl107  1  0.50099000  0.92145000  0.64574000  1.0
  O  O108  1  0.32882000  0.31453000  0.42578000  1.0
  O  O109  1  0.17124000  0.74032000  0.57419000  1.0
  O  O110  1  0.67119000  0.68550000  0.57421000  1.0
  O  O111  1  0.82870000  0.25966000  0.42584000  1.0
  O  O112  1  0.39869000  0.52609000  0.38061000  1.0
  O  O113  1  0.10141000  0.90676000  0.61935000  1.0
  O  O114  1  0.60132000  0.47390000  0.61937000  1.0
  O  O115  1  0.89857000  0.09320000  0.38069000  1.0
  O  O116  1  0.23655000  0.01887000  0.89142000  1.0
  O  O117  1  0.26357000  0.91039000  0.10847000  1.0
  O  O118  1  0.76344000  0.98112000  0.10855000  1.0
  O  O119  1  0.73644000  0.08960000  0.89153000  1.0
  O  O120  1  0.44127000  0.06998000  0.85402000  1.0
  O  O121  1  0.05881000  0.92385000  0.14588000  1.0
  O  O122  1  0.55873000  0.93002000  0.14596000  1.0
  O  O123  1  0.94122000  0.07611000  0.85413000  1.0
  O  O124  1  0.02541000  0.83629000  0.99159000  1.0
  O  O125  1  0.47455000  0.82797000  0.00836000  1.0
  O  O126  1  0.97462000  0.16369000  0.00844000  1.0
  O  O127  1  0.52544000  0.17203000  0.99162000  1.0
  O  O128  1  0.42435000  0.72162000  0.49015000  1.0
  O  O129  1  0.07566000  0.21177000  0.50985000  1.0
  O  O130  1  0.57567000  0.27840000  0.50984000  1.0
  O  O131  1  0.92431000  0.78823000  0.49017000  1.0
