# generated using pymatgen
data_Cu2H14C20N4O7
_symmetry_space_group_name_H-M   'P 1'
_cell_length_a   7.22155000
_cell_length_b   9.95431000
_cell_length_c   13.77840000
_cell_angle_alpha   93.59010000
_cell_angle_beta   99.11260000
_cell_angle_gamma   103.76500000
_symmetry_Int_Tables_number   1
_chemical_formula_structural   Cu2H14C20N4O7
_chemical_formula_sum   'Cu4 H28 C40 N8 O14'
_cell_volume   944.67026912
_cell_formula_units_Z   2
loop_
 _symmetry_equiv_pos_site_id
 _symmetry_equiv_pos_as_xyz
  1  'x, y, z'
loop_
 _atom_site_type_symbol
 _atom_site_label
 _atom_site_symmetry_multiplicity
 _atom_site_fract_x
 _atom_site_fract_y
 _atom_site_fract_z
 _atom_site_occupancy
  Cu  Cu0  1  0.66235000  0.38525000  0.11944000  1.0
  Cu  Cu1  1  0.33767000  0.61474000  0.88055000  1.0
  Cu  Cu2  1  0.89147000  0.33012000  0.81206000  1.0
  Cu  Cu3  1  0.10854000  0.66987000  0.18793000  1.0
  H  H4  1  0.78716000  0.80189000  0.82846000  1.0
  H  H5  1  0.21285000  0.19811000  0.17158000  1.0
  H  H6  1  0.91186000  0.87486000  0.67336000  1.0
  H  H7  1  0.08816000  0.12518000  0.32669000  1.0
  H  H8  1  0.02145000  0.70347000  0.57026000  1.0
  H  H9  1  0.97856000  0.29660000  0.42976000  1.0
  H  H10  1  0.00734000  0.46485000  0.62706000  1.0
  H  H11  1  0.99267000  0.53520000  0.37293000  1.0
  H  H12  1  0.82699000  0.95981000  0.99763000  1.0
  H  H13  1  0.17297000  0.04015000  0.00238000  1.0
  H  H14  1  0.73226000  0.81836000  0.13460000  1.0
  H  H15  1  0.26766000  0.18162000  0.86542000  1.0
  H  H16  1  0.55812000  0.91379000  0.25782000  1.0
  H  H17  1  0.44186000  0.08624000  0.74220000  1.0
  H  H18  1  0.52994000  0.15920000  0.25097000  1.0
  H  H19  1  0.47008000  0.84084000  0.74902000  1.0
  H  H20  1  0.22119000  0.17101000  0.63269000  1.0
  H  H21  1  0.77881000  0.82899000  0.36729000  1.0
  H  H22  1  0.64261000  0.95915000  0.48764000  1.0
  H  H23  1  0.35739000  0.04084000  0.51235000  1.0
  H  H24  1  0.46636000  0.70390000  0.40909000  1.0
  H  H25  1  0.53363000  0.29609000  0.59090000  1.0
  H  H26  1  0.60363000  0.30639000  0.41941000  1.0
  H  H27  1  0.39636000  0.69361000  0.58058000  1.0
  H  H28  1  0.67847000  0.61816000  0.17596000  1.0
  H  H29  1  0.32154000  0.38183000  0.82404000  1.0
  H  H30  1  0.71067000  0.60875000  0.05424000  1.0
  H  H31  1  0.28934000  0.39123000  0.94575000  1.0
  C  C32  1  0.76054000  0.54734000  0.89651000  1.0
  C  C33  1  0.23945000  0.45264000  0.10349000  1.0
  C  C34  1  0.83486000  0.59866000  0.80718000  1.0
  C  C35  1  0.16515000  0.40134000  0.19283000  1.0
  C  C36  1  0.83886000  0.73213000  0.78146000  1.0
  C  C37  1  0.16116000  0.26788000  0.21857000  1.0
  C  C38  1  0.90743000  0.77136000  0.69566000  1.0
  C  C39  1  0.09260000  0.22867000  0.30438000  1.0
  C  C40  1  0.96865000  0.67608000  0.63799000  1.0
  C  C41  1  0.03137000  0.32397000  0.36203000  1.0
  C  C42  1  0.96112000  0.54409000  0.66838000  1.0
  C  C43  1  0.03890000  0.45595000  0.33163000  1.0
  C  C44  1  0.77908000  0.22286000  0.97633000  1.0
  C  C45  1  0.22092000  0.77711000  0.02366000  1.0
  C  C46  1  0.72937000  0.13202000  0.05379000  1.0
  C  C47  1  0.27062000  0.86796000  0.94621000  1.0
  C  C48  1  0.76015000  0.99924000  0.05497000  1.0
  C  C49  1  0.23982000  0.00073000  0.94503000  1.0
  C  C50  1  0.70402000  0.92039000  0.13044000  1.0
  C  C51  1  0.29593000  0.07960000  0.86957000  1.0
  C  C52  1  0.61354000  0.97385000  0.20049000  1.0
  C  C53  1  0.38644000  0.02616000  0.79952000  1.0
  C  C54  1  0.59204000  0.10913000  0.19612000  1.0
  C  C55  1  0.40796000  0.89088000  0.80388000  1.0
  C  C56  1  0.84134000  0.14512000  0.64353000  1.0
  C  C57  1  0.15866000  0.85488000  0.35646000  1.0
  C  C58  1  0.92406000  0.07242000  0.56811000  1.0
  C  C59  1  0.07595000  0.92757000  0.43188000  1.0
  C  C60  1  0.12544000  0.09559000  0.57448000  1.0
  C  C61  1  0.87456000  0.90441000  0.42551000  1.0
  C  C62  1  0.79892000  0.97663000  0.49292000  1.0
  C  C63  1  0.20108000  0.02336000  0.50708000  1.0
  C  C64  1  0.58163000  0.51483000  0.30127000  1.0
  C  C65  1  0.41837000  0.48516000  0.69872000  1.0
  C  C66  1  0.54145000  0.50647000  0.40430000  1.0
  C  C67  1  0.45855000  0.49353000  0.59568000  1.0
  C  C68  1  0.48244000  0.61556000  0.44965000  1.0
  C  C69  1  0.51756000  0.38444000  0.55034000  1.0
  C  C70  1  0.55869000  0.39110000  0.45518000  1.0
  C  C71  1  0.44130000  0.60889000  0.54480000  1.0
  N  N72  1  0.79608000  0.42495000  0.91385000  1.0
  N  N73  1  0.20393000  0.57503000  0.08614000  1.0
  N  N74  1  0.74350000  0.34870000  0.98815000  1.0
  N  N75  1  0.25650000  0.65128000  0.01184000  1.0
  N  N76  1  0.89629000  0.50744000  0.75107000  1.0
  N  N77  1  0.10373000  0.49257000  0.24893000  1.0
  N  N78  1  0.65076000  0.18644000  0.12527000  1.0
  N  N79  1  0.34924000  0.81356000  0.87472000  1.0
  O  O80  1  0.67444000  0.62003000  0.94466000  1.0
  O  O81  1  0.32555000  0.37994000  0.05534000  1.0
  O  O82  1  0.84881000  0.17966000  0.90360000  1.0
  O  O83  1  0.15119000  0.82032000  0.09639000  1.0
  O  O84  1  0.97168000  0.23408000  0.70778000  1.0
  O  O85  1  0.02832000  0.76594000  0.29219000  1.0
  O  O86  1  0.66274000  0.11789000  0.64193000  1.0
  O  O87  1  0.33727000  0.88208000  0.35807000  1.0
  O  O88  1  0.57973000  0.62620000  0.26194000  1.0
  O  O89  1  0.42028000  0.37379000  0.73805000  1.0
  O  O90  1  0.61422000  0.40547000  0.25876000  1.0
  O  O91  1  0.38578000  0.59453000  0.74123000  1.0
  O  O92  1  0.75551000  0.58742000  0.12450000  1.0
  O  O93  1  0.24451000  0.41256000  0.87550000  1.0
