# generated using pymatgen
data_Ag2H2C2N6O13
_symmetry_space_group_name_H-M   'P 1'
_cell_length_a   8.66040000
_cell_length_b   8.96230000
_cell_length_c   15.28490000
_cell_angle_alpha   89.99990000
_cell_angle_beta   90.00010000
_cell_angle_gamma   89.99990000
_symmetry_Int_Tables_number   1
_chemical_formula_structural   Ag2H2C2N6O13
_chemical_formula_sum   'Ag8 H8 C8 N24 O52'
_cell_volume   1186.36965642
_cell_formula_units_Z   4
loop_
 _symmetry_equiv_pos_site_id
 _symmetry_equiv_pos_as_xyz
  1  'x, y, z'
loop_
 _atom_site_type_symbol
 _atom_site_label
 _atom_site_symmetry_multiplicity
 _atom_site_fract_x
 _atom_site_fract_y
 _atom_site_fract_z
 _atom_site_occupancy
  Ag  Ag0  1  0.91210000  0.49658000  0.57930000  1.0
  Ag  Ag1  1  0.08790000  0.50342000  0.07930000  1.0
  Ag  Ag2  1  0.41210000  0.00342000  0.57930000  1.0
  Ag  Ag3  1  0.58789000  0.99658000  0.07930000  1.0
  Ag  Ag4  1  0.61075000  0.75022000  0.78877000  1.0
  Ag  Ag5  1  0.38925000  0.24979000  0.28877000  1.0
  Ag  Ag6  1  0.11074000  0.74978000  0.78877000  1.0
  Ag  Ag7  1  0.88925000  0.25022000  0.28877000  1.0
  H  H8  1  0.36018000  0.64913000  0.89524000  1.0
  H  H9  1  0.63982000  0.35087000  0.39524000  1.0
  H  H10  1  0.86018000  0.85087000  0.89524000  1.0
  H  H11  1  0.13982000  0.14913000  0.39524000  1.0
  H  H12  1  0.35914000  0.82042000  0.90727000  1.0
  H  H13  1  0.64087000  0.17958000  0.40727000  1.0
  H  H14  1  0.85913000  0.67958000  0.90727000  1.0
  H  H15  1  0.14086000  0.32042000  0.40727000  1.0
  C  C16  1  0.40404000  0.50586000  0.58411000  1.0
  C  C17  1  0.59596000  0.49413000  0.08411000  1.0
  C  C18  1  0.90404000  0.99413000  0.58411000  1.0
  C  C19  1  0.09596000  0.00587000  0.08411000  1.0
  C  C20  1  0.97980000  0.71249000  0.32779000  1.0
  C  C21  1  0.02021000  0.28751000  0.82779000  1.0
  C  C22  1  0.47979000  0.78751000  0.32779000  1.0
  C  C23  1  0.52020000  0.21249000  0.82779000  1.0
  N  N24  1  0.94520000  0.64064000  0.40544000  1.0
  N  N25  1  0.05481000  0.35936000  0.90544000  1.0
  N  N26  1  0.44520000  0.85936000  0.40544000  1.0
  N  N27  1  0.55480000  0.14064000  0.90544000  1.0
  N  N28  1  0.56632000  0.50363000  0.58225000  1.0
  N  N29  1  0.43368000  0.49637000  0.08226000  1.0
  N  N30  1  0.06632000  0.99637000  0.58226000  1.0
  N  N31  1  0.93368000  0.00363000  0.08226000  1.0
  N  N32  1  0.02445000  0.63805000  0.25223000  1.0
  N  N33  1  0.97555000  0.36195000  0.75223000  1.0
  N  N34  1  0.52445000  0.86195000  0.25223000  1.0
  N  N35  1  0.47555000  0.13805000  0.75223000  1.0
  N  N36  1  0.32923000  0.60917000  0.63880000  1.0
  N  N37  1  0.67077000  0.39083000  0.13880000  1.0
  N  N38  1  0.82923000  0.89083000  0.63880000  1.0
  N  N39  1  0.17077000  0.10917000  0.13879000  1.0
  N  N40  1  0.98486000  0.87350000  0.32694000  1.0
  N  N41  1  0.01515000  0.12650000  0.82694000  1.0
  N  N42  1  0.48485000  0.62650000  0.32694000  1.0
  N  N43  1  0.51514000  0.37350000  0.82694000  1.0
  N  N44  1  0.32211000  0.40934000  0.52803000  1.0
  N  N45  1  0.67789000  0.59066000  0.02803000  1.0
  N  N46  1  0.82211000  0.09065000  0.52803000  1.0
  N  N47  1  0.17789000  0.90935000  0.02803000  1.0
  O  O48  1  0.94057000  0.71834000  0.47447000  1.0
  O  O49  1  0.05943000  0.28166000  0.97447000  1.0
  O  O50  1  0.44057000  0.78166000  0.47447000  1.0
  O  O51  1  0.55943000  0.21834000  0.97447000  1.0
  O  O52  1  0.92054000  0.50250000  0.40684000  1.0
  O  O53  1  0.07946000  0.49750000  0.90684000  1.0
  O  O54  1  0.42054000  0.99750000  0.40684000  1.0
  O  O55  1  0.57946000  0.00250000  0.90684000  1.0
  O  O56  1  0.64046000  0.53768000  0.64985000  1.0
  O  O57  1  0.35955000  0.46233000  0.14985000  1.0
  O  O58  1  0.14045000  0.96233000  0.64985000  1.0
  O  O59  1  0.85954000  0.03767000  0.14985000  1.0
  O  O60  1  0.06451000  0.50422000  0.25494000  1.0
  O  O61  1  0.93549000  0.49577000  0.75494000  1.0
  O  O62  1  0.56451000  0.99578000  0.25494000  1.0
  O  O63  1  0.43548000  0.00422000  0.75494000  1.0
  O  O64  1  0.63462000  0.46790000  0.51290000  1.0
  O  O65  1  0.36538000  0.53210000  0.01290000  1.0
  O  O66  1  0.13462000  0.03210000  0.51290000  1.0
  O  O67  1  0.86538000  0.96790000  0.01290000  1.0
  O  O68  1  0.10585000  0.93253000  0.30029000  1.0
  O  O69  1  0.89416000  0.06747000  0.80029000  1.0
  O  O70  1  0.60584000  0.56747000  0.30029000  1.0
  O  O71  1  0.39415000  0.43253000  0.80029000  1.0
  O  O72  1  0.40219000  0.72173000  0.66402000  1.0
  O  O73  1  0.59781000  0.27826000  0.16402000  1.0
  O  O74  1  0.90219000  0.77826000  0.66402000  1.0
  O  O75  1  0.09781000  0.22174000  0.16402000  1.0
  O  O76  1  0.86909000  0.94260000  0.35267000  1.0
  O  O77  1  0.13091000  0.05739000  0.85268000  1.0
  O  O78  1  0.36908000  0.55740000  0.35267000  1.0
  O  O79  1  0.63091000  0.44260000  0.85267000  1.0
  O  O80  1  0.19144000  0.58484000  0.66108000  1.0
  O  O81  1  0.80856000  0.41516000  0.16108000  1.0
  O  O82  1  0.69144000  0.91516000  0.66108000  1.0
  O  O83  1  0.30856000  0.08485000  0.16108000  1.0
  O  O84  1  0.18613000  0.44306000  0.50606000  1.0
  O  O85  1  0.81387000  0.55694000  0.00606000  1.0
  O  O86  1  0.68613000  0.05694000  0.50606000  1.0
  O  O87  1  0.31387000  0.94306000  0.00607000  1.0
  O  O88  1  0.02202000  0.71131000  0.18129000  1.0
  O  O89  1  0.97798000  0.28869000  0.68129000  1.0
  O  O90  1  0.52202000  0.78869000  0.18129000  1.0
  O  O91  1  0.47798000  0.21131000  0.68129000  1.0
  O  O92  1  0.38826000  0.29472000  0.50084000  1.0
  O  O93  1  0.61174000  0.70528000  0.00084000  1.0
  O  O94  1  0.88826000  0.20528000  0.50084000  1.0
  O  O95  1  0.11174000  0.79472000  0.00084000  1.0
  O  O96  1  0.36092000  0.74213000  0.86160000  1.0
  O  O97  1  0.63908000  0.25787000  0.36160000  1.0
  O  O98  1  0.86092000  0.75787000  0.86160000  1.0
  O  O99  1  0.13908000  0.24213000  0.36160000  1.0
