# generated using pymatgen
data_ZnH14C17N3O5
_symmetry_space_group_name_H-M   'P 1'
_cell_length_a   10.14040000
_cell_length_b   10.20570000
_cell_length_c   21.09440000
_cell_angle_alpha   90.00000000
_cell_angle_beta   90.00000000
_cell_angle_gamma   105.57200000
_symmetry_Int_Tables_number   1
_chemical_formula_structural   ZnH14C17N3O5
_chemical_formula_sum   'Zn4 H56 C68 N12 O20'
_cell_volume   2102.92536083
_cell_formula_units_Z   4
loop_
 _symmetry_equiv_pos_site_id
 _symmetry_equiv_pos_as_xyz
  1  'x, y, z'
loop_
 _atom_site_type_symbol
 _atom_site_label
 _atom_site_symmetry_multiplicity
 _atom_site_fract_x
 _atom_site_fract_y
 _atom_site_fract_z
 _atom_site_occupancy
  Zn  Zn0  1  0.10138000  0.62454000  0.78809000  1.0
  Zn  Zn1  1  0.39862000  0.87545000  0.28809000  1.0
  Zn  Zn2  1  0.89862000  0.37546000  0.21191000  1.0
  Zn  Zn3  1  0.60138000  0.12454000  0.71191000  1.0
  H  H4  1  0.07432000  0.35504000  0.98064000  1.0
  H  H5  1  0.42568000  0.14496000  0.48064000  1.0
  H  H6  1  0.92568000  0.64496000  0.01936000  1.0
  H  H7  1  0.57432000  0.85504000  0.51936000  1.0
  H  H8  1  0.78180000  0.95115000  0.86781000  1.0
  H  H9  1  0.71819000  0.54885000  0.36781000  1.0
  H  H10  1  0.21819000  0.04885000  0.13219000  1.0
  H  H11  1  0.28181000  0.45115000  0.63219000  1.0
  H  H12  1  0.14434000  0.20308000  0.05740000  1.0
  H  H13  1  0.35566000  0.29693000  0.55740000  1.0
  H  H14  1  0.85566000  0.79693000  0.94260000  1.0
  H  H15  1  0.64434000  0.70308000  0.44260000  1.0
  H  H16  1  0.09614000  0.69815000  0.92253000  1.0
  H  H17  1  0.40386000  0.80185000  0.42253000  1.0
  H  H18  1  0.90386000  0.30185000  0.07747000  1.0
  H  H19  1  0.59614000  0.19815000  0.57747000  1.0
  H  H20  1  0.25523000  0.84631000  0.00198000  1.0
  H  H21  1  0.24477000  0.65369000  0.50198000  1.0
  H  H22  1  0.74478000  0.15369000  0.99802000  1.0
  H  H23  1  0.75522000  0.34631000  0.49802000  1.0
  H  H24  1  0.54715000  0.97371000  0.84971000  1.0
  H  H25  1  0.95285000  0.52628000  0.34971000  1.0
  H  H26  1  0.45285000  0.02628000  0.15028000  1.0
  H  H27  1  0.04715000  0.47372000  0.65029000  1.0
  H  H28  1  0.37946000  0.82077000  0.77745000  1.0
  H  H29  1  0.12054000  0.67923000  0.27746000  1.0
  H  H30  1  0.62054000  0.17923000  0.22254000  1.0
  H  H31  1  0.87946000  0.32077000  0.72254000  1.0
  H  H32  1  0.80518000  0.49719000  0.78749000  1.0
  H  H33  1  0.69482000  0.00281000  0.28750000  1.0
  H  H34  1  0.19482000  0.50281000  0.21250000  1.0
  H  H35  1  0.30517000  0.99719000  0.71250000  1.0
  H  H36  1  0.81126000  0.82209000  0.71752000  1.0
  H  H37  1  0.68874000  0.67791000  0.21752000  1.0
  H  H38  1  0.18874000  0.17791000  0.28248000  1.0
  H  H39  1  0.31126000  0.32209000  0.78248000  1.0
  H  H40  1  0.65381000  0.81499000  0.75705000  1.0
  H  H41  1  0.84619000  0.68501000  0.25705000  1.0
  H  H42  1  0.34619000  0.18501000  0.24295000  1.0
  H  H43  1  0.15380000  0.31499000  0.74295000  1.0
  H  H44  1  0.65004000  0.74999000  0.67897000  1.0
  H  H45  1  0.84996000  0.75001000  0.17896000  1.0
  H  H46  1  0.34996000  0.25001000  0.32104000  1.0
  H  H47  1  0.15004000  0.24999000  0.82104000  1.0
  H  H48  1  0.58625000  0.43342000  0.77445000  1.0
  H  H49  1  0.91375000  0.06658000  0.27446000  1.0
  H  H50  1  0.41375000  0.56658000  0.22555000  1.0
  H  H51  1  0.08625000  0.93342000  0.72555000  1.0
  H  H52  1  0.52891000  0.50534000  0.70570000  1.0
  H  H53  1  0.97109000  0.99466000  0.20570000  1.0
  H  H54  1  0.47109000  0.49466000  0.29430000  1.0
  H  H55  1  0.02890000  0.00534000  0.79430000  1.0
  H  H56  1  0.50172000  0.56664000  0.78210000  1.0
  H  H57  1  0.99828000  0.93336000  0.28210000  1.0
  H  H58  1  0.49828000  0.43336000  0.21790000  1.0
  H  H59  1  0.00172000  0.06664000  0.71790000  1.0
  C  C60  1  0.96091000  0.42692000  0.87801000  1.0
  C  C61  1  0.53909000  0.07307000  0.37801000  1.0
  C  C62  1  0.03908000  0.57309000  0.12199000  1.0
  C  C63  1  0.46091000  0.92693000  0.62199000  1.0
  C  C64  1  0.93657000  0.28426000  0.90350000  1.0
  C  C65  1  0.56344000  0.21574000  0.40350000  1.0
  C  C66  1  0.06343000  0.71574000  0.09650000  1.0
  C  C67  1  0.43656000  0.78426000  0.59650000  1.0
  C  C68  1  0.01128000  0.26633000  0.95574000  1.0
  C  C69  1  0.48873000  0.23367000  0.45574000  1.0
  C  C70  1  0.98873000  0.73367000  0.04426000  1.0
  C  C71  1  0.51127000  0.76633000  0.54426000  1.0
  C  C72  1  0.00771000  0.13409000  0.97866000  1.0
  C  C73  1  0.49229000  0.36592000  0.47867000  1.0
  C  C74  1  0.99228000  0.86591000  0.02133000  1.0
  C  C75  1  0.50771000  0.63408000  0.52134000  1.0
  C  C76  1  0.92389000  0.01660000  0.94583000  1.0
  C  C77  1  0.57611000  0.48340000  0.44583000  1.0
  C  C78  1  0.07611000  0.98340000  0.05417000  1.0
  C  C79  1  0.42389000  0.51660000  0.55417000  1.0
  C  C80  1  0.84706000  0.03871000  0.89244000  1.0
  C  C81  1  0.65294000  0.46129000  0.39245000  1.0
  C  C82  1  0.15294000  0.96129000  0.10755000  1.0
  C  C83  1  0.34706000  0.53871000  0.60756000  1.0
  C  C84  1  0.85077000  0.16781000  0.87175000  1.0
  C  C85  1  0.64923000  0.33219000  0.37175000  1.0
  C  C86  1  0.14923000  0.83219000  0.12825000  1.0
  C  C87  1  0.35077000  0.66781000  0.62825000  1.0
  C  C88  1  0.08179000  0.11448000  0.03222000  1.0
  C  C89  1  0.41822000  0.38552000  0.53222000  1.0
  C  C90  1  0.91822000  0.88552000  0.96778000  1.0
  C  C91  1  0.58179000  0.61448000  0.46778000  1.0
  C  C92  1  0.75822000  0.18500000  0.81893000  1.0
  C  C93  1  0.74178000  0.31500000  0.31893000  1.0
  C  C94  1  0.24178000  0.81500000  0.18107000  1.0
  C  C95  1  0.25822000  0.68500000  0.68107000  1.0
  C  C96  1  0.19715000  0.76172000  0.90918000  1.0
  C  C97  1  0.30285000  0.73827000  0.40918000  1.0
  C  C98  1  0.80285000  0.23828000  0.09082000  1.0
  C  C99  1  0.69715000  0.26172000  0.59082000  1.0
  C  C100  1  0.28511000  0.84267000  0.95266000  1.0
  C  C101  1  0.21489000  0.65733000  0.45266000  1.0
  C  C102  1  0.71489000  0.15733000  0.04734000  1.0
  C  C103  1  0.78511000  0.34267000  0.54734000  1.0
  C  C104  1  0.41334000  0.92036000  0.93163000  1.0
  C  C105  1  0.08666000  0.57963000  0.43163000  1.0
  C  C106  1  0.58666000  0.07964000  0.06837000  1.0
  C  C107  1  0.91334000  0.42036000  0.56837000  1.0
  C  C108  1  0.44877000  0.91387000  0.86776000  1.0
  C  C109  1  0.05123000  0.58613000  0.36776000  1.0
  C  C110  1  0.55123000  0.08613000  0.13224000  1.0
  C  C111  1  0.94878000  0.41386000  0.63224000  1.0
  C  C112  1  0.35591000  0.82875000  0.82746000  1.0
  C  C113  1  0.14409000  0.67125000  0.32746000  1.0
  C  C114  1  0.64410000  0.17125000  0.17254000  1.0
  C  C115  1  0.85591000  0.32874000  0.67254000  1.0
  C  C116  1  0.81901000  0.60010000  0.76803000  1.0
  C  C117  1  0.68099000  0.89990000  0.26803000  1.0
  C  C118  1  0.18099000  0.39990000  0.23197000  1.0
  C  C119  1  0.31901000  0.10010000  0.73197000  1.0
  C  C120  1  0.70549000  0.76173000  0.72414000  1.0
  C  C121  1  0.79451000  0.73827000  0.22414000  1.0
  C  C122  1  0.29451000  0.23827000  0.27586000  1.0
  C  C123  1  0.20549000  0.26173000  0.77586000  1.0
  C  C124  1  0.57313000  0.52720000  0.75338000  1.0
  C  C125  1  0.92686000  0.97280000  0.25338000  1.0
  C  C126  1  0.42687000  0.47281000  0.24662000  1.0
  C  C127  1  0.07313000  0.02719000  0.74662000  1.0
  N  N128  1  0.23185000  0.75451000  0.84757000  1.0
  N  N129  1  0.26815000  0.74550000  0.34757000  1.0
  N  N130  1  0.76815000  0.24549000  0.15243000  1.0
  N  N131  1  0.73185000  0.25450000  0.65243000  1.0
  N  N132  1  0.51005000  0.01101000  0.97070000  1.0
  N  N133  1  0.98995000  0.48899000  0.47070000  1.0
  N  N134  1  0.48995000  0.98900000  0.02930000  1.0
  N  N135  1  0.01005000  0.51100000  0.52930000  1.0
  N  N136  1  0.70493000  0.62882000  0.74933000  1.0
  N  N137  1  0.79506000  0.87118000  0.24933000  1.0
  N  N138  1  0.29506000  0.37118000  0.25067000  1.0
  N  N139  1  0.20493000  0.12882000  0.75067000  1.0
  O  O140  1  0.02248000  0.44155000  0.82310000  1.0
  O  O141  1  0.47752000  0.05844000  0.32310000  1.0
  O  O142  1  0.97752000  0.55844000  0.17690000  1.0
  O  O143  1  0.52248000  0.94156000  0.67690000  1.0
  O  O144  1  0.93371000  0.51891000  0.90979000  1.0
  O  O145  1  0.56629000  0.98109000  0.40978000  1.0
  O  O146  1  0.06630000  0.48108000  0.09021000  1.0
  O  O147  1  0.43371000  0.01891000  0.59022000  1.0
  O  O148  1  0.72478000  0.29374000  0.81284000  1.0
  O  O149  1  0.77522000  0.20626000  0.31284000  1.0
  O  O150  1  0.27522000  0.70626000  0.18715000  1.0
  O  O151  1  0.22478000  0.79374000  0.68716000  1.0
  O  O152  1  0.71450000  0.08059000  0.78155000  1.0
  O  O153  1  0.78550000  0.41941000  0.28155000  1.0
  O  O154  1  0.28550000  0.91941000  0.21845000  1.0
  O  O155  1  0.21450000  0.58059000  0.71845000  1.0
  O  O156  1  0.93618000  0.68507000  0.76385000  1.0
  O  O157  1  0.56382000  0.81493000  0.26385000  1.0
  O  O158  1  0.06382000  0.31493000  0.23615000  1.0
  O  O159  1  0.43618000  0.18507000  0.73615000  1.0
