# generated using pymatgen
data_Co3H30C28(N5O)4
_symmetry_space_group_name_H-M   'P 1'
_cell_length_a   6.77223000
_cell_length_b   12.80130000
_cell_length_c   20.91170000
_cell_angle_alpha   89.99970000
_cell_angle_beta   89.99890000
_cell_angle_gamma   78.88800000
_symmetry_Int_Tables_number   1
_chemical_formula_structural   Co3H30C28(N5O)4
_chemical_formula_sum   'Co6 H60 C56 N40 O8'
_cell_volume   1778.91751619
_cell_formula_units_Z   2
loop_
 _symmetry_equiv_pos_site_id
 _symmetry_equiv_pos_as_xyz
  1  'x, y, z'
loop_
 _atom_site_type_symbol
 _atom_site_label
 _atom_site_symmetry_multiplicity
 _atom_site_fract_x
 _atom_site_fract_y
 _atom_site_fract_z
 _atom_site_occupancy
  Co  Co0  1  0.49999000  0.99998000  0.49998000  1.0
  Co  Co1  1  0.99998000  0.49998000  0.00003000  1.0
  Co  Co2  1  0.98713000  0.04069000  0.55665000  1.0
  Co  Co3  1  0.51282000  0.45927000  0.05676000  1.0
  Co  Co4  1  0.01284000  0.95929000  0.44322000  1.0
  Co  Co5  1  0.48714000  0.54067000  0.94335000  1.0
  H  H6  1  0.24366000  0.86596000  0.52880000  1.0
  H  H7  1  0.25624000  0.63394000  0.02895000  1.0
  H  H8  1  0.75625000  0.13395000  0.47106000  1.0
  H  H9  1  0.74372000  0.36596000  0.97122000  1.0
  H  H10  1  0.65411000  0.19628000  0.58142000  1.0
  H  H11  1  0.84587000  0.30368000  0.08148000  1.0
  H  H12  1  0.34589000  0.80373000  0.41853000  1.0
  H  H13  1  0.15412000  0.69624000  0.91859000  1.0
  H  H14  1  0.85895000  0.22929000  0.59977000  1.0
  H  H15  1  0.64114000  0.27054000  0.09981000  1.0
  H  H16  1  0.14116000  0.77058000  0.40021000  1.0
  H  H17  1  0.35897000  0.72925000  0.90023000  1.0
  H  H18  1  0.12244000  0.79044000  0.61069000  1.0
  H  H19  1  0.37753000  0.70957000  0.11065000  1.0
  H  H20  1  0.87757000  0.20957000  0.38936000  1.0
  H  H21  1  0.62247000  0.29043000  0.88933000  1.0
  H  H22  1  0.37418000  0.77063000  0.59905000  1.0
  H  H23  1  0.12579000  0.72939000  0.09902000  1.0
  H  H24  1  0.62583000  0.22940000  0.40099000  1.0
  H  H25  1  0.87421000  0.27061000  0.90095000  1.0
  H  H26  1  0.80238000  0.46676000  0.86044000  1.0
  H  H27  1  0.69768000  0.03322000  0.36044000  1.0
  H  H28  1  0.19763000  0.53322000  0.13957000  1.0
  H  H29  1  0.30242000  0.96676000  0.63956000  1.0
  H  H30  1  0.57821000  0.45980000  0.82933000  1.0
  H  H31  1  0.92163000  0.04030000  0.32924000  1.0
  H  H32  1  0.42158000  0.54030000  0.17076000  1.0
  H  H33  1  0.07824000  0.95982000  0.67068000  1.0
  H  H34  1  0.92227000  0.65728000  0.59017000  1.0
  H  H35  1  0.57767000  0.84270000  0.09009000  1.0
  H  H36  1  0.07773000  0.34272000  0.40989000  1.0
  H  H37  1  0.42232000  0.15725000  0.90982000  1.0
  H  H38  1  0.56976000  0.59448000  0.57730000  1.0
  H  H39  1  0.93020000  0.90550000  0.07726000  1.0
  H  H40  1  0.43024000  0.40552000  0.42272000  1.0
  H  H41  1  0.06980000  0.09446000  0.92267000  1.0
  H  H42  1  0.92394000  0.46450000  0.57969000  1.0
  H  H43  1  0.57602000  0.03549000  0.07959000  1.0
  H  H44  1  0.07606000  0.53550000  0.42038000  1.0
  H  H45  1  0.42398000  0.96447000  0.92029000  1.0
  H  H46  1  0.57069000  0.40219000  0.56633000  1.0
  H  H47  1  0.92928000  0.09781000  0.06628000  1.0
  H  H48  1  0.42933000  0.59783000  0.43370000  1.0
  H  H49  1  0.07074000  0.90216000  0.93363000  1.0
  H  H50  1  0.00347000  0.74955000  0.75365000  1.0
  H  H51  1  0.49650000  0.75049000  0.25363000  1.0
  H  H52  1  0.99660000  0.25043000  0.24637000  1.0
  H  H53  1  0.50349000  0.24959000  0.74634000  1.0
  H  H54  1  0.39408000  0.74777000  0.69397000  1.0
  H  H55  1  0.10583000  0.75233000  0.19389000  1.0
  H  H56  1  0.60587000  0.25234000  0.30610000  1.0
  H  H57  1  0.89410000  0.24778000  0.80601000  1.0
  H  H58  1  0.98339000  0.60690000  0.83099000  1.0
  H  H59  1  0.51664000  0.89315000  0.33099000  1.0
  H  H60  1  0.01665000  0.39309000  0.16901000  1.0
  H  H61  1  0.48344000  0.10693000  0.66900000  1.0
  H  H62  1  0.37584000  0.60344000  0.76996000  1.0
  H  H63  1  0.12412000  0.89663000  0.26991000  1.0
  H  H64  1  0.62411000  0.39666000  0.23009000  1.0
  H  H65  1  0.87587000  0.10347000  0.73002000  1.0
  C  C66  1  0.24586000  0.63958000  0.58366000  1.0
  C  C67  1  0.25411000  0.86041000  0.08360000  1.0
  C  C68  1  0.75415000  0.36043000  0.41640000  1.0
  C  C69  1  0.74589000  0.13956000  0.91634000  1.0
  C  C70  1  0.06450000  0.60098000  0.58529000  1.0
  C  C71  1  0.43548000  0.89900000  0.08520000  1.0
  C  C72  1  0.93551000  0.39901000  0.41478000  1.0
  C  C73  1  0.56454000  0.10096000  0.91470000  1.0
  C  C74  1  0.42815000  0.56589000  0.57823000  1.0
  C  C75  1  0.07181000  0.93410000  0.07819000  1.0
  C  C76  1  0.57186000  0.43411000  0.42181000  1.0
  C  C77  1  0.92820000  0.06586000  0.92175000  1.0
  C  C78  1  0.06550000  0.49303000  0.57964000  1.0
  C  C79  1  0.43447000  0.00695000  0.07954000  1.0
  C  C80  1  0.93451000  0.50696000  0.42044000  1.0
  C  C81  1  0.56553000  0.99301000  0.92035000  1.0
  C  C82  1  0.42848000  0.45788000  0.57239000  1.0
  C  C83  1  0.07147000  0.04211000  0.07234000  1.0
  C  C84  1  0.57151000  0.54212000  0.42765000  1.0
  C  C85  1  0.92853000  0.95786000  0.92759000  1.0
  C  C86  1  0.24750000  0.41954000  0.57218000  1.0
  C  C87  1  0.25247000  0.08044000  0.07211000  1.0
  C  C88  1  0.75252000  0.58046000  0.42788000  1.0
  C  C89  1  0.74754000  0.91951000  0.92781000  1.0
  C  C90  1  0.24752000  0.30750000  0.56099000  1.0
  C  C91  1  0.25247000  0.19248000  0.06095000  1.0
  C  C92  1  0.75252000  0.69248000  0.43906000  1.0
  C  C93  1  0.74756000  0.80748000  0.93900000  1.0
  C  C94  1  0.71359000  0.83535000  0.66684000  1.0
  C  C95  1  0.78635000  0.66471000  0.16683000  1.0
  C  C96  1  0.28641000  0.16470000  0.33318000  1.0
  C  C97  1  0.21359000  0.33535000  0.83316000  1.0
  C  C98  1  0.70167000  0.75775000  0.71688000  1.0
  C  C99  1  0.79829000  0.74234000  0.21685000  1.0
  C  C100  1  0.29835000  0.24233000  0.28316000  1.0
  C  C101  1  0.20167000  0.25778000  0.78311000  1.0
  C  C102  1  0.86553000  0.71785000  0.75694000  1.0
  C  C103  1  0.63442000  0.78223000  0.25692000  1.0
  C  C104  1  0.13449000  0.28219000  0.24309000  1.0
  C  C105  1  0.36554000  0.21788000  0.74305000  1.0
  C  C106  1  0.52453000  0.71648000  0.72333000  1.0
  C  C107  1  0.97543000  0.78363000  0.22327000  1.0
  C  C108  1  0.47546000  0.28364000  0.27673000  1.0
  C  C109  1  0.02455000  0.21650000  0.77665000  1.0
  C  C110  1  0.85442000  0.63708000  0.80052000  1.0
  C  C111  1  0.64560000  0.86297000  0.30051000  1.0
  C  C112  1  0.14561000  0.36294000  0.19950000  1.0
  C  C113  1  0.35445000  0.13711000  0.69948000  1.0
  C  C114  1  0.51339000  0.63532000  0.76601000  1.0
  C  C115  1  0.98659000  0.86476000  0.26596000  1.0
  C  C116  1  0.48659000  0.36477000  0.23404000  1.0
  C  C117  1  0.01342000  0.13534000  0.73398000  1.0
  C  C118  1  0.67954000  0.59346000  0.80462000  1.0
  C  C119  1  0.82046000  0.90658000  0.30459000  1.0
  C  C120  1  0.32044000  0.40657000  0.19542000  1.0
  C  C121  1  0.17959000  0.09349000  0.69538000  1.0
  N  N122  1  0.24252000  0.74838000  0.58604000  1.0
  N  N123  1  0.25745000  0.75162000  0.08600000  1.0
  N  N124  1  0.75748000  0.25163000  0.41402000  1.0
  N  N125  1  0.74256000  0.24836000  0.91397000  1.0
  N  N126  1  0.08162000  0.26322000  0.56024000  1.0
  N  N127  1  0.41837000  0.23676000  0.06023000  1.0
  N  N128  1  0.91840000  0.73679000  0.43978000  1.0
  N  N129  1  0.58166000  0.76319000  0.93976000  1.0
  N  N130  1  0.14797000  0.16113000  0.54491000  1.0
  N  N131  1  0.35203000  0.33886000  0.04498000  1.0
  N  N132  1  0.85203000  0.83888000  0.45504000  1.0
  N  N133  1  0.64800000  0.66111000  0.95510000  1.0
  N  N134  1  0.41320000  0.23306000  0.54689000  1.0
  N  N135  1  0.08681000  0.26693000  0.04689000  1.0
  N  N136  1  0.58684000  0.76693000  0.45313000  1.0
  N  N137  1  0.91323000  0.73304000  0.95312000  1.0
  N  N138  1  0.34578000  0.14303000  0.53759000  1.0
  N  N139  1  0.15424000  0.35697000  0.03765000  1.0
  N  N140  1  0.65424000  0.85697000  0.46238000  1.0
  N  N141  1  0.84580000  0.64301000  0.96243000  1.0
  N  N142  1  0.82089000  0.94003000  0.60105000  1.0
  N  N143  1  0.67908000  0.55992000  0.10111000  1.0
  N  N144  1  0.17911000  0.05994000  0.39891000  1.0
  N  N145  1  0.32089000  0.43999000  0.89898000  1.0
  N  N146  1  0.63379000  0.93653000  0.58551000  1.0
  N  N147  1  0.86616000  0.56340000  0.08555000  1.0
  N  N148  1  0.36619000  0.06341000  0.41447000  1.0
  N  N149  1  0.13379000  0.43651000  0.91451000  1.0
  N  N150  1  0.87610000  0.87740000  0.65213000  1.0
  N  N151  1  0.62385000  0.62263000  0.15216000  1.0
  N  N152  1  0.12390000  0.12263000  0.34786000  1.0
  N  N153  1  0.37611000  0.37738000  0.84788000  1.0
  N  N154  1  0.56195000  0.87124000  0.62533000  1.0
  N  N155  1  0.93798000  0.62876000  0.12533000  1.0
  N  N156  1  0.43804000  0.12875000  0.37469000  1.0
  N  N157  1  0.06194000  0.37124000  0.87468000  1.0
  N  N158  1  0.66491000  0.51066000  0.84735000  1.0
  N  N159  1  0.83515000  0.98937000  0.34731000  1.0
  N  N160  1  0.33510000  0.48938000  0.15269000  1.0
  N  N161  1  0.16495000  0.01067000  0.65265000  1.0
  O  O162  1  0.22762000  0.94076000  0.51430000  1.0
  O  O163  1  0.27231000  0.55914000  0.01447000  1.0
  O  O164  1  0.77234000  0.05915000  0.48554000  1.0
  O  O165  1  0.72767000  0.44075000  0.98571000  1.0
  O  O166  1  0.78093000  0.17212000  0.60642000  1.0
  O  O167  1  0.71906000  0.32775000  0.10649000  1.0
  O  O168  1  0.21908000  0.82778000  0.39352000  1.0
  O  O169  1  0.28096000  0.67207000  0.89360000  1.0
