# generated using pymatgen
data_Cu2H24C19(NO)6
_symmetry_space_group_name_H-M   'P 1'
_cell_length_a   13.49190000
_cell_length_b   13.49180000
_cell_length_c   16.21030000
_cell_angle_alpha   90.00010000
_cell_angle_beta   89.99980000
_cell_angle_gamma   89.99590000
_symmetry_Int_Tables_number   1
_chemical_formula_structural   Cu2H24C19(NO)6
_chemical_formula_sum   'Cu8 H96 C76 N24 O24'
_cell_volume   2950.76116760
_cell_formula_units_Z   4
loop_
 _symmetry_equiv_pos_site_id
 _symmetry_equiv_pos_as_xyz
  1  'x, y, z'
loop_
 _atom_site_type_symbol
 _atom_site_label
 _atom_site_symmetry_multiplicity
 _atom_site_fract_x
 _atom_site_fract_y
 _atom_site_fract_z
 _atom_site_occupancy
  Cu  Cu0  1  0.97183000  0.69853000  0.97073000  1.0
  Cu  Cu1  1  0.19855000  0.52814000  0.22077000  1.0
  Cu  Cu2  1  0.02816000  0.30147000  0.47075000  1.0
  Cu  Cu3  1  0.80145000  0.47186000  0.72074000  1.0
  Cu  Cu4  1  0.52817000  0.19851000  0.77924000  1.0
  Cu  Cu5  1  0.47183000  0.80149000  0.27926000  1.0
  Cu  Cu6  1  0.69857000  0.97186000  0.02925000  1.0
  Cu  Cu7  1  0.30145000  0.02815000  0.52925000  1.0
  H  H8  1  0.95922000  0.62471000  0.80070000  1.0
  H  H9  1  0.12467000  0.54076000  0.05074000  1.0
  H  H10  1  0.04078000  0.37528000  0.30075000  1.0
  H  H11  1  0.87531000  0.45924000  0.55070000  1.0
  H  H12  1  0.54078000  0.12468000  0.94928000  1.0
  H  H13  1  0.45922000  0.87532000  0.44932000  1.0
  H  H14  1  0.62470000  0.95922000  0.19924000  1.0
  H  H15  1  0.37527000  0.04078000  0.69925000  1.0
  H  H16  1  0.34506000  0.69624000  0.79842000  1.0
  H  H17  1  0.19628000  0.15496000  0.04844000  1.0
  H  H18  1  0.65493000  0.30374000  0.29844000  1.0
  H  H19  1  0.80376000  0.84505000  0.54842000  1.0
  H  H20  1  0.15498000  0.19625000  0.95159000  1.0
  H  H21  1  0.84504000  0.80376000  0.45156000  1.0
  H  H22  1  0.69624000  0.34506000  0.20159000  1.0
  H  H23  1  0.30377000  0.65493000  0.70156000  1.0
  H  H24  1  0.91698000  0.76005000  0.19160000  1.0
  H  H25  1  0.26002000  0.58307000  0.44165000  1.0
  H  H26  1  0.08301000  0.23993000  0.69163000  1.0
  H  H27  1  0.73995000  0.41697000  0.94163000  1.0
  H  H28  1  0.58306000  0.26001000  0.55835000  1.0
  H  H29  1  0.41699000  0.73993000  0.05837000  1.0
  H  H30  1  0.76004000  0.91697000  0.80837000  1.0
  H  H31  1  0.23993000  0.08302000  0.30839000  1.0
  H  H32  1  0.02444000  0.57339000  0.65598000  1.0
  H  H33  1  0.07328000  0.47557000  0.90607000  1.0
  H  H34  1  0.97556000  0.42664000  0.15606000  1.0
  H  H35  1  0.92669000  0.52445000  0.40601000  1.0
  H  H36  1  0.47559000  0.07328000  0.09397000  1.0
  H  H37  1  0.52445000  0.92670000  0.59400000  1.0
  H  H38  1  0.57338000  0.02441000  0.34397000  1.0
  H  H39  1  0.42660000  0.97557000  0.84396000  1.0
  H  H40  1  0.14683000  0.60709000  0.62707000  1.0
  H  H41  1  0.10706000  0.35319000  0.87710000  1.0
  H  H42  1  0.85317000  0.39296000  0.12713000  1.0
  H  H43  1  0.89294000  0.64684000  0.37707000  1.0
  H  H44  1  0.35320000  0.10705000  0.12292000  1.0
  H  H45  1  0.64685000  0.89294000  0.62294000  1.0
  H  H46  1  0.60707000  0.14680000  0.37290000  1.0
  H  H47  1  0.39294000  0.85317000  0.87288000  1.0
  H  H48  1  0.05016000  0.69630000  0.62390000  1.0
  H  H49  1  0.19622000  0.44991000  0.87394000  1.0
  H  H50  1  0.94985000  0.30375000  0.12394000  1.0
  H  H51  1  0.80376000  0.55013000  0.37391000  1.0
  H  H52  1  0.44991000  0.19623000  0.12609000  1.0
  H  H53  1  0.55014000  0.80376000  0.62610000  1.0
  H  H54  1  0.69629000  0.05012000  0.37606000  1.0
  H  H55  1  0.30371000  0.94982000  0.87607000  1.0
  H  H56  1  0.18841000  0.71286000  0.99959000  1.0
  H  H57  1  0.21292000  0.31161000  0.24963000  1.0
  H  H58  1  0.81153000  0.28719000  0.49963000  1.0
  H  H59  1  0.78713000  0.68840000  0.74961000  1.0
  H  H60  1  0.31165000  0.21294000  0.75039000  1.0
  H  H61  1  0.68837000  0.78714000  0.25038000  1.0
  H  H62  1  0.71290000  0.18846000  0.00040000  1.0
  H  H63  1  0.28722000  0.81152000  0.50037000  1.0
  H  H64  1  0.23532000  0.81433000  0.94174000  1.0
  H  H65  1  0.31436000  0.26467000  0.19175000  1.0
  H  H66  1  0.76463000  0.18570000  0.44180000  1.0
  H  H67  1  0.68566000  0.73532000  0.69174000  1.0
  H  H68  1  0.26469000  0.31437000  0.80829000  1.0
  H  H69  1  0.73530000  0.68567000  0.30825000  1.0
  H  H70  1  0.81436000  0.23534000  0.05826000  1.0
  H  H71  1  0.18573000  0.76462000  0.55819000  1.0
  H  H72  1  0.29649000  0.69848000  0.93854000  1.0
  H  H73  1  0.19852000  0.20353000  0.18858000  1.0
  H  H74  1  0.70347000  0.30155000  0.43855000  1.0
  H  H75  1  0.80150000  0.79649000  0.68854000  1.0
  H  H76  1  0.20355000  0.19852000  0.81144000  1.0
  H  H77  1  0.79646000  0.80152000  0.31145000  1.0
  H  H78  1  0.69853000  0.29652000  0.06146000  1.0
  H  H79  1  0.30158000  0.70346000  0.56146000  1.0
  H  H80  1  0.76008000  0.66516000  0.16162000  1.0
  H  H81  1  0.16512000  0.73996000  0.41158000  1.0
  H  H82  1  0.23987000  0.33490000  0.66168000  1.0
  H  H83  1  0.83484000  0.26007000  0.91157000  1.0
  H  H84  1  0.73996000  0.16514000  0.58843000  1.0
  H  H85  1  0.26007000  0.83480000  0.08840000  1.0
  H  H86  1  0.66511000  0.76009000  0.83836000  1.0
  H  H87  1  0.33490000  0.23987000  0.33835000  1.0
  H  H88  1  0.84639000  0.58945000  0.21730000  1.0
  H  H89  1  0.08938000  0.65369000  0.46727000  1.0
  H  H90  1  0.15353000  0.41056000  0.71735000  1.0
  H  H91  1  0.91058000  0.34635000  0.96726000  1.0
  H  H92  1  0.65369000  0.08938000  0.53275000  1.0
  H  H93  1  0.34635000  0.91055000  0.03271000  1.0
  H  H94  1  0.58941000  0.84641000  0.78270000  1.0
  H  H95  1  0.41056000  0.15354000  0.28266000  1.0
  H  H96  1  0.83069000  0.57381000  0.10824000  1.0
  H  H97  1  0.07379000  0.66934000  0.35820000  1.0
  H  H98  1  0.16924000  0.42622000  0.60832000  1.0
  H  H99  1  0.92618000  0.33069000  0.85819000  1.0
  H  H100  1  0.66934000  0.07380000  0.64182000  1.0
  H  H101  1  0.33067000  0.92616000  0.14179000  1.0
  H  H102  1  0.57379000  0.83071000  0.89175000  1.0
  H  H103  1  0.42623000  0.16923000  0.39171000  1.0
  C  C104  1  0.18809000  0.69246000  0.78596000  1.0
  C  C105  1  0.19249000  0.31191000  0.03600000  1.0
  C  C106  1  0.81190000  0.30754000  0.28600000  1.0
  C  C107  1  0.80753000  0.68810000  0.53597000  1.0
  C  C108  1  0.31193000  0.19248000  0.96403000  1.0
  C  C109  1  0.68809000  0.80754000  0.46403000  1.0
  C  C110  1  0.69246000  0.18809000  0.21402000  1.0
  C  C111  1  0.30754000  0.81189000  0.71400000  1.0
  C  C112  1  0.01390000  0.65018000  0.13790000  1.0
  C  C113  1  0.15011000  0.48614000  0.38800000  1.0
  C  C114  1  0.98607000  0.34981000  0.63792000  1.0
  C  C115  1  0.84985000  0.51389000  0.88795000  1.0
  C  C116  1  0.48613000  0.15011000  0.61202000  1.0
  C  C117  1  0.51389000  0.84986000  0.11204000  1.0
  C  C118  1  0.65017000  0.01392000  0.86208000  1.0
  C  C119  1  0.34978000  0.98607000  0.36210000  1.0
  C  C120  1  0.83583000  0.82178000  0.04594000  1.0
  C  C121  1  0.32185000  0.66409000  0.29599000  1.0
  C  C122  1  0.16418000  0.17825000  0.54597000  1.0
  C  C123  1  0.67814000  0.33591000  0.79598000  1.0
  C  C124  1  0.66408000  0.32186000  0.70401000  1.0
  C  C125  1  0.33592000  0.67814000  0.20402000  1.0
  C  C126  1  0.82176000  0.83582000  0.95403000  1.0
  C  C127  1  0.17823000  0.16419000  0.45404000  1.0
  C  C128  1  0.16104000  0.70358000  0.86979000  1.0
  C  C129  1  0.20362000  0.33898000  0.11982000  1.0
  C  C130  1  0.83895000  0.29641000  0.36983000  1.0
  C  C131  1  0.79639000  0.66103000  0.61979000  1.0
  C  C132  1  0.33899000  0.20362000  0.88021000  1.0
  C  C133  1  0.66102000  0.79641000  0.38021000  1.0
  C  C134  1  0.70360000  0.16105000  0.13019000  1.0
  C  C135  1  0.29642000  0.83894000  0.63018000  1.0
  C  C136  1  0.28953000  0.71045000  0.74999000  1.0
  C  C137  1  0.21049000  0.21047000  0.00001000  1.0
  C  C138  1  0.71046000  0.28952000  0.25001000  1.0
  C  C139  1  0.78954000  0.78955000  0.50000000  1.0
  C  C140  1  0.91426000  0.70460000  0.14175000  1.0
  C  C141  1  0.20457000  0.58580000  0.39179000  1.0
  C  C142  1  0.08572000  0.29538000  0.64177000  1.0
  C  C143  1  0.79540000  0.41423000  0.89177000  1.0
  C  C144  1  0.58579000  0.20457000  0.60822000  1.0
  C  C145  1  0.41424000  0.79539000  0.10822000  1.0
  C  C146  1  0.70459000  0.91426000  0.85823000  1.0
  C  C147  1  0.29538000  0.08573000  0.35824000  1.0
  C  C148  1  0.10172000  0.66020000  0.74589000  1.0
  C  C149  1  0.16021000  0.39826000  0.99591000  1.0
  C  C150  1  0.89827000  0.33980000  0.24594000  1.0
  C  C151  1  0.83978000  0.60175000  0.49588000  1.0
  C  C152  1  0.39828000  0.16021000  0.00412000  1.0
  C  C153  1  0.60174000  0.83979000  0.50413000  1.0
  C  C154  1  0.66019000  0.10171000  0.25407000  1.0
  C  C155  1  0.33979000  0.89827000  0.75407000  1.0
  C  C156  1  0.07987000  0.63283000  0.65872000  1.0
  C  C157  1  0.13277000  0.42016000  0.90876000  1.0
  C  C158  1  0.92013000  0.36720000  0.15878000  1.0
  C  C159  1  0.86722000  0.57987000  0.40872000  1.0
  C  C160  1  0.42017000  0.13276000  0.09127000  1.0
  C  C161  1  0.57987000  0.86723000  0.59129000  1.0
  C  C162  1  0.63282000  0.07984000  0.34123000  1.0
  C  C163  1  0.36717000  0.92013000  0.84123000  1.0
  C  C164  1  0.22323000  0.73394000  0.94113000  1.0
  C  C165  1  0.23398000  0.27679000  0.19118000  1.0
  C  C166  1  0.77674000  0.26608000  0.44117000  1.0
  C  C167  1  0.76605000  0.72322000  0.69115000  1.0
  C  C168  1  0.27681000  0.23398000  0.80885000  1.0
  C  C169  1  0.72320000  0.76606000  0.30884000  1.0
  C  C170  1  0.73398000  0.22325000  0.05886000  1.0
  C  C171  1  0.26611000  0.77673000  0.55883000  1.0
  C  C172  1  0.83222000  0.62794000  0.15883000  1.0
  C  C173  1  0.12790000  0.66784000  0.40881000  1.0
  C  C174  1  0.16771000  0.37207000  0.65889000  1.0
  C  C175  1  0.87207000  0.33219000  0.90880000  1.0
  C  C176  1  0.66784000  0.12790000  0.59121000  1.0
  C  C177  1  0.33218000  0.87205000  0.09118000  1.0
  C  C178  1  0.62791000  0.83224000  0.84116000  1.0
  C  C179  1  0.37208000  0.16771000  0.34114000  1.0
  N  N180  1  0.03000000  0.65569000  0.80397000  1.0
  N  N181  1  0.15566000  0.46998000  0.05400000  1.0
  N  N182  1  0.96999000  0.34430000  0.30402000  1.0
  N  N183  1  0.84434000  0.53002000  0.55396000  1.0
  N  N184  1  0.47000000  0.15565000  0.94603000  1.0
  N  N185  1  0.53001000  0.84435000  0.44605000  1.0
  N  N186  1  0.65569000  0.03001000  0.19598000  1.0
  N  N187  1  0.34429000  0.96999000  0.69598000  1.0
  N  N188  1  0.06447000  0.68069000  0.87941000  1.0
  N  N189  1  0.18068000  0.43553000  0.12945000  1.0
  N  N190  1  0.93552000  0.31930000  0.37946000  1.0
  N  N191  1  0.81933000  0.56448000  0.62941000  1.0
  N  N192  1  0.43555000  0.18067000  0.87058000  1.0
  N  N193  1  0.56446000  0.81934000  0.37060000  1.0
  N  N194  1  0.68070000  0.06448000  0.12054000  1.0
  N  N195  1  0.31930000  0.93550000  0.62055000  1.0
  N  N196  1  0.89799000  0.74987000  0.06213000  1.0
  N  N197  1  0.24990000  0.60200000  0.31216000  1.0
  N  N198  1  0.10202000  0.25014000  0.56216000  1.0
  N  N199  1  0.75009000  0.39803000  0.81215000  1.0
  N  N200  1  0.60199000  0.24990000  0.68784000  1.0
  N  N201  1  0.39803000  0.75009000  0.18784000  1.0
  N  N202  1  0.74988000  0.89799000  0.93784000  1.0
  N  N203  1  0.25013000  0.10202000  0.43785000  1.0
  O  O204  1  0.05420000  0.64235000  0.06519000  1.0
  O  O205  1  0.14236000  0.44579000  0.31530000  1.0
  O  O206  1  0.94579000  0.35761000  0.56523000  1.0
  O  O207  1  0.85764000  0.55421000  0.81527000  1.0
  O  O208  1  0.44581000  0.14234000  0.68470000  1.0
  O  O209  1  0.55420000  0.85768000  0.18473000  1.0
  O  O210  1  0.64240000  0.05424000  0.93477000  1.0
  O  O211  1  0.35759000  0.94577000  0.43478000  1.0
  O  O212  1  0.78508000  0.87377000  0.09666000  1.0
  O  O213  1  0.37373000  0.71489000  0.34677000  1.0
  O  O214  1  0.21495000  0.12625000  0.59669000  1.0
  O  O215  1  0.62626000  0.28511000  0.84676000  1.0
  O  O216  1  0.71485000  0.37376000  0.65323000  1.0
  O  O217  1  0.28514000  0.62623000  0.15324000  1.0
  O  O218  1  0.87375000  0.78504000  0.90331000  1.0
  O  O219  1  0.12625000  0.21498000  0.40333000  1.0
  O  O220  1  0.04889000  0.61306000  0.20212000  1.0
  O  O221  1  0.11294000  0.45112000  0.45217000  1.0
  O  O222  1  0.95106000  0.38689000  0.70214000  1.0
  O  O223  1  0.88701000  0.54892000  0.95215000  1.0
  O  O224  1  0.45113000  0.11294000  0.54783000  1.0
  O  O225  1  0.54891000  0.88702000  0.04785000  1.0
  O  O226  1  0.61304000  0.04890000  0.79787000  1.0
  O  O227  1  0.38689000  0.95107000  0.29786000  1.0
