# generated using pymatgen
data_AgH10C11N3O2
_symmetry_space_group_name_H-M   'P 1'
_cell_length_a   6.95763000
_cell_length_b   8.61483000
_cell_length_c   10.89970000
_cell_angle_alpha   67.35270000
_cell_angle_beta   76.16760000
_cell_angle_gamma   70.08460000
_symmetry_Int_Tables_number   1
_chemical_formula_structural   AgH10C11N3O2
_chemical_formula_sum   'Ag2 H20 C22 N6 O4'
_cell_volume   562.48009607
_cell_formula_units_Z   2
loop_
 _symmetry_equiv_pos_site_id
 _symmetry_equiv_pos_as_xyz
  1  'x, y, z'
loop_
 _atom_site_type_symbol
 _atom_site_label
 _atom_site_symmetry_multiplicity
 _atom_site_fract_x
 _atom_site_fract_y
 _atom_site_fract_z
 _atom_site_occupancy
  Ag  Ag0  1  0.49673000  0.94895000  0.39599000  1.0
  Ag  Ag1  1  0.50327000  0.05105000  0.60401000  1.0
  H  H2  1  0.15339000  0.00640000  0.24646000  1.0
  H  H3  1  0.84660000  0.99360000  0.75354000  1.0
  H  H4  1  0.05904000  0.91029000  0.08298000  1.0
  H  H5  1  0.94096000  0.08971000  0.91702000  1.0
  H  H6  1  0.44494000  0.61180000  0.91241000  1.0
  H  H7  1  0.55506000  0.38820000  0.08759000  1.0
  H  H8  1  0.36705000  0.84020000  0.82448000  1.0
  H  H9  1  0.63295000  0.15980000  0.17552000  1.0
  H  H10  1  0.18045000  0.73340000  0.93182000  1.0
  H  H11  1  0.81955000  0.26660000  0.06818000  1.0
  H  H12  1  0.83459000  0.19339000  0.33749000  1.0
  H  H13  1  0.16541000  0.80661000  0.66251000  1.0
  H  H14  1  0.46355000  0.35314000  0.32226000  1.0
  H  H15  1  0.53645000  0.64687000  0.67773000  1.0
  H  H16  1  0.85002000  0.43330000  0.61427000  1.0
  H  H17  1  0.14998000  0.56670000  0.38572000  1.0
  H  H18  1  0.83258000  0.73883000  0.26523000  1.0
  H  H19  1  0.16742000  0.26117000  0.73478000  1.0
  H  H20  1  0.90594000  0.62799000  0.14797000  1.0
  H  H21  1  0.09406000  0.37202000  0.85203000  1.0
  C  C22  1  0.60748000  0.77354000  0.15541000  1.0
  C  C23  1  0.39252000  0.22647000  0.84459000  1.0
  C  C24  1  0.26870000  0.92519000  0.19239000  1.0
  C  C25  1  0.73130000  0.07481000  0.80762000  1.0
  C  C26  1  0.21781000  0.87547000  0.10053000  1.0
  C  C27  1  0.78219000  0.12453000  0.89947000  1.0
  C  C28  1  0.37936000  0.77826000  0.03163000  1.0
  C  C29  1  0.62064000  0.22174000  0.96838000  1.0
  C  C30  1  0.34043000  0.73643000  0.92016000  1.0
  C  C31  1  0.65957000  0.26357000  0.07984000  1.0
  C  C32  1  0.08630000  0.20045000  0.48850000  1.0
  C  C33  1  0.91369000  0.79955000  0.51150000  1.0
  C  C34  1  0.86479000  0.30321000  0.47806000  1.0
  C  C35  1  0.13521000  0.69679000  0.52194000  1.0
  C  C36  1  0.75421000  0.28202000  0.39423000  1.0
  C  C37  1  0.24579000  0.71798000  0.60577000  1.0
  C  C38  1  0.54824000  0.37028000  0.38624000  1.0
  C  C39  1  0.45176000  0.62972000  0.61376000  1.0
  C  C40  1  0.44378000  0.48808000  0.45865000  1.0
  C  C41  1  0.55622000  0.51192000  0.54135000  1.0
  C  C42  1  0.76589000  0.41675000  0.54981000  1.0
  C  C43  1  0.23411000  0.58325000  0.45019000  1.0
  N  N44  1  0.46228000  0.87672000  0.22057000  1.0
  N  N45  1  0.53771000  0.12328000  0.77943000  1.0
  N  N46  1  0.80154000  0.71683000  0.18728000  1.0
  N  N47  1  0.19846000  0.28317000  0.81272000  1.0
  N  N48  1  0.57354000  0.72595000  0.05957000  1.0
  N  N49  1  0.42647000  0.27406000  0.94043000  1.0
  O  O50  1  0.18414000  0.14802000  0.39078000  1.0
  O  O51  1  0.81585000  0.85198000  0.60922000  1.0
  O  O52  1  0.15976000  0.17258000  0.59442000  1.0
  O  O53  1  0.84024000  0.82741000  0.40557000  1.0
