# generated using pymatgen
data_MgH7C13N2O3
_symmetry_space_group_name_H-M   'P 1'
_cell_length_a   6.88150000
_cell_length_b   41.87850000
_cell_length_c   41.88600000
_cell_angle_alpha   119.70500000
_cell_angle_beta   93.14600000
_cell_angle_gamma   93.12330000
_symmetry_Int_Tables_number   1
_chemical_formula_structural   MgH7C13N2O3
_chemical_formula_sum   'Mg6 H42 C78 N12 O18'
_cell_volume   10422.39266490
_cell_formula_units_Z   6
loop_
 _symmetry_equiv_pos_site_id
 _symmetry_equiv_pos_as_xyz
  1  'x, y, z'
loop_
 _atom_site_type_symbol
 _atom_site_label
 _atom_site_symmetry_multiplicity
 _atom_site_fract_x
 _atom_site_fract_y
 _atom_site_fract_z
 _atom_site_occupancy
  Mg  Mg0  1  0.62148000  0.63902000  0.32737000  1.0
  Mg  Mg1  1  0.29404000  0.67261000  0.31162000  1.0
  Mg  Mg2  1  0.98231000  0.68838000  0.36095000  1.0
  Mg  Mg3  1  0.36930000  0.35936000  0.66849000  1.0
  Mg  Mg4  1  0.70089000  0.33153000  0.69090000  1.0
  Mg  Mg5  1  0.01003000  0.30912000  0.64064000  1.0
  H  H6  1  0.03172000  0.39441000  0.79407000  1.0
  H  H7  1  0.23800000  0.20593000  0.60034000  1.0
  H  H8  1  0.63735000  0.39974000  0.60569000  1.0
  H  H9  1  0.46255000  0.45620000  0.94824000  1.0
  H  H10  1  0.51403000  0.05166000  0.50792000  1.0
  H  H11  1  0.00604000  0.49206000  0.54381000  1.0
  H  H12  1  0.29766000  0.48543000  0.00593000  1.0
  H  H13  1  0.29132000  0.99401000  0.47951000  1.0
  H  H14  1  0.81186000  0.52047000  0.51452000  1.0
  H  H15  1  0.84647000  0.51386000  0.95103000  1.0
  H  H16  1  0.89546000  0.04902000  0.56288000  1.0
  H  H17  1  0.33273000  0.43707000  0.48608000  1.0
  H  H18  1  0.00517000  0.48191000  0.89301000  1.0
  H  H19  1  0.11224000  0.10703000  0.58888000  1.0
  H  H20  1  0.52342000  0.41106000  0.51809000  1.0
  H  H21  1  0.22406000  0.53108000  0.05424000  1.0
  H  H22  1  0.16932000  0.94576000  0.47683000  1.0
  H  H23  1  0.69284000  0.52314000  0.46891000  1.0
  H  H24  1  0.06003000  0.56038000  0.11150000  1.0
  H  H25  1  0.94818000  0.88848000  0.44884000  1.0
  H  H26  1  0.49953000  0.55114000  0.43962000  1.0
  H  H27  1  0.51338000  0.54486000  0.04868000  1.0
  H  H28  1  0.46445000  0.95129000  0.49628000  1.0
  H  H29  1  0.96848000  0.50373000  0.45501000  1.0
  H  H30  1  0.67352000  0.51479000  0.99080000  1.0
  H  H31  1  0.68227000  0.00920000  0.52407000  1.0
  H  H32  1  0.15862000  0.47591000  0.48508000  1.0
  H  H33  1  0.38665000  0.57888000  0.15580000  1.0
  H  H34  1  0.23073000  0.84423000  0.42301000  1.0
  H  H35  1  0.80815000  0.57700000  0.42116000  1.0
  H  H36  1  0.26394000  0.60128000  0.21780000  1.0
  H  H37  1  0.04579000  0.78224000  0.38348000  1.0
  H  H38  1  0.66283000  0.61660000  0.39877000  1.0
  H  H39  1  0.96773000  0.62322000  0.20806000  1.0
  H  H40  1  0.75934000  0.79191000  0.41517000  1.0
  H  H41  1  0.34458000  0.58483000  0.37670000  1.0
  H  H42  1  0.61863000  0.43871000  0.84265000  1.0
  H  H43  1  0.77642000  0.15734000  0.59608000  1.0
  H  H44  1  0.17975000  0.40393000  0.56130000  1.0
  H  H45  1  0.73507000  0.40959000  0.77957000  1.0
  H  H46  1  0.95584000  0.22043000  0.63004000  1.0
  H  H47  1  0.32557000  0.37002000  0.59046000  1.0
  C  C48  1  0.09960000  0.35748000  0.72422000  1.0
  C  C49  1  0.37552000  0.27578000  0.63329000  1.0
  C  C50  1  0.74207000  0.36673000  0.64253000  1.0
  C  C51  1  0.24832000  0.38054000  0.75518000  1.0
  C  C52  1  0.49341000  0.24482000  0.62536000  1.0
  C  C53  1  0.86787000  0.37470000  0.61954000  1.0
  C  C54  1  0.18598000  0.39785000  0.79072000  1.0
  C  C55  1  0.39559000  0.20927000  0.60713000  1.0
  C  C56  1  0.78818000  0.39295000  0.60224000  1.0
  C  C57  1  0.31517000  0.41894000  0.82216000  1.0
  C  C58  1  0.49336000  0.17782000  0.59677000  1.0
  C  C59  1  0.89624000  0.40329000  0.58114000  1.0
  C  C60  1  0.24278000  0.46686000  0.91703000  1.0
  C  C61  1  0.32562000  0.08295000  0.54980000  1.0
  C  C62  1  0.77582000  0.45017000  0.53315000  1.0
  C  C63  1  0.32722000  0.46899000  0.94936000  1.0
  C  C64  1  0.37758000  0.05059000  0.51961000  1.0
  C  C65  1  0.85803000  0.48037000  0.53101000  1.0
  C  C66  1  0.23441000  0.48570000  0.98165000  1.0
  C  C67  1  0.25242000  0.01831000  0.50405000  1.0
  C  C68  1  0.74851000  0.49591000  0.51426000  1.0
  C  C69  1  0.05882000  0.50210000  0.98322000  1.0
  C  C70  1  0.07530000  0.01678000  0.51890000  1.0
  C  C71  1  0.55662000  0.48105000  0.49784000  1.0
  C  C72  1  0.97889000  0.50056000  0.95062000  1.0
  C  C73  1  0.02816000  0.04940000  0.54995000  1.0
  C  C74  1  0.47835000  0.45000000  0.49939000  1.0
  C  C75  1  0.06748000  0.48302000  0.91805000  1.0
  C  C76  1  0.14936000  0.08197000  0.56496000  1.0
  C  C77  1  0.58448000  0.43499000  0.51697000  1.0
  C  C78  1  0.96228000  0.52040000  0.01764000  1.0
  C  C79  1  0.94422000  0.98236000  0.50279000  1.0
  C  C80  1  0.44176000  0.49716000  0.47952000  1.0
  C  C81  1  0.06765000  0.53365000  0.05244000  1.0
  C  C82  1  0.01475000  0.94755000  0.48120000  1.0
  C  C83  1  0.53388000  0.51876000  0.46631000  1.0
  C  C84  1  0.97742000  0.55032000  0.08485000  1.0
  C  C85  1  0.89219000  0.91514000  0.46546000  1.0
  C  C86  1  0.42702000  0.53451000  0.44965000  1.0
  C  C87  1  0.77569000  0.55437000  0.08377000  1.0
  C  C88  1  0.69160000  0.91623000  0.47063000  1.0
  C  C89  1  0.22126000  0.52935000  0.44556000  1.0
  C  C90  1  0.66920000  0.54149000  0.04944000  1.0
  C  C91  1  0.61944000  0.95056000  0.49213000  1.0
  C  C92  1  0.12763000  0.50786000  0.45839000  1.0
  C  C93  1  0.76098000  0.52500000  0.01704000  1.0
  C  C94  1  0.74355000  0.98295000  0.50802000  1.0
  C  C95  1  0.23587000  0.49195000  0.47488000  1.0
  C  C96  1  0.68758000  0.59918000  0.17802000  1.0
  C  C97  1  0.50927000  0.82196000  0.42113000  1.0
  C  C98  1  0.08861000  0.57889000  0.40082000  1.0
  C  C99  1  0.48614000  0.59354000  0.18095000  1.0
  C  C100  1  0.30492000  0.81906000  0.41256000  1.0
  C  C101  1  0.89287000  0.58749000  0.40650000  1.0
  C  C102  1  0.41845000  0.60592000  0.21527000  1.0
  C  C103  1  0.20284000  0.78474000  0.39063000  1.0
  C  C104  1  0.81275000  0.60945000  0.39414000  1.0
  C  C105  1  0.54558000  0.62418000  0.24840000  1.0
  C  C106  1  0.29681000  0.75160000  0.37577000  1.0
  C  C107  1  0.92150000  0.62431000  0.37586000  1.0
  C  C108  1  0.74833000  0.63099000  0.24533000  1.0
  C  C109  1  0.50266000  0.75465000  0.38566000  1.0
  C  C110  1  0.11744000  0.61440000  0.36903000  1.0
  C  C111  1  0.81332000  0.61828000  0.21029000  1.0
  C  C112  1  0.60272000  0.78969000  0.40798000  1.0
  C  C113  1  0.19519000  0.59206000  0.38172000  1.0
  C  C114  1  0.89563000  0.65076000  0.27730000  1.0
  C  C115  1  0.61809000  0.72269000  0.37345000  1.0
  C  C116  1  0.24486000  0.62656000  0.34921000  1.0
  C  C117  1  0.51652000  0.42257000  0.81806000  1.0
  C  C118  1  0.69883000  0.18193000  0.60451000  1.0
  C  C119  1  0.09395000  0.39554000  0.57749000  1.0
  C  C120  1  0.58090000  0.40634000  0.78316000  1.0
  C  C121  1  0.79808000  0.21684000  0.62319000  1.0
  C  C122  1  0.17464000  0.37688000  0.59373000  1.0
  C  C123  1  0.45090000  0.38553000  0.75070000  1.0
  C  C124  1  0.70051000  0.24931000  0.63484000  1.0
  C  C125  1  0.06549000  0.36523000  0.61455000  1.0
  N  N126  1  0.22713000  0.43541000  0.85542000  1.0
  N  N127  1  0.37201000  0.14458000  0.57998000  1.0
  N  N128  1  0.79166000  0.42005000  0.56465000  1.0
  N  N129  1  0.34097000  0.44874000  0.88488000  1.0
  N  N130  1  0.45619000  0.11509000  0.56382000  1.0
  N  N131  1  0.89216000  0.43617000  0.55131000  1.0
  N  N132  1  0.67062000  0.56942000  0.11529000  1.0
  N  N133  1  0.55502000  0.88470000  0.45416000  1.0
  N  N134  1  0.10121000  0.54586000  0.43052000  1.0
  N  N135  1  0.78019000  0.58621000  0.14542000  1.0
  N  N136  1  0.63453000  0.85457000  0.44076000  1.0
  N  N137  1  0.19412000  0.55921000  0.41376000  1.0
  O  O138  1  0.06934000  0.65932000  0.27335000  1.0
  O  O139  1  0.79580000  0.72665000  0.38593000  1.0
  O  O140  1  0.41002000  0.61403000  0.34064000  1.0
  O  O141  1  0.84432000  0.65883000  0.30955000  1.0
  O  O142  1  0.53462000  0.69042000  0.34927000  1.0
  O  O143  1  0.18539000  0.65071000  0.34111000  1.0
  O  O144  1  0.47254000  0.63383000  0.28061000  1.0
  O  O145  1  0.19164000  0.71939000  0.35320000  1.0
  O  O146  1  0.83868000  0.64685000  0.36620000  1.0
  O  O147  1  0.92702000  0.35040000  0.72993000  1.0
  O  O148  1  0.19722000  0.27007000  0.62052000  1.0
  O  O149  1  0.57641000  0.37948000  0.64956000  1.0
  O  O150  1  0.14876000  0.34469000  0.69094000  1.0
  O  O151  1  0.45794000  0.30908000  0.65379000  1.0
  O  O152  1  0.80406000  0.34623000  0.65532000  1.0
  O  O153  1  0.52139000  0.37185000  0.71771000  1.0
  O  O154  1  0.80391000  0.28231000  0.65414000  1.0
  O  O155  1  0.14963000  0.34590000  0.62821000  1.0
