# generated using pymatgen
data_ZnH14C13NO4
_symmetry_space_group_name_H-M   'P 1'
_cell_length_a   7.93125000
_cell_length_b   8.71932000
_cell_length_c   9.78429000
_cell_angle_alpha   74.68570000
_cell_angle_beta   76.08240000
_cell_angle_gamma   77.50200000
_symmetry_Int_Tables_number   1
_chemical_formula_structural   ZnH14C13NO4
_chemical_formula_sum   'Zn2 H28 C26 N2 O8'
_cell_volume   624.94526421
_cell_formula_units_Z   2
loop_
 _symmetry_equiv_pos_site_id
 _symmetry_equiv_pos_as_xyz
  1  'x, y, z'
loop_
 _atom_site_type_symbol
 _atom_site_label
 _atom_site_symmetry_multiplicity
 _atom_site_fract_x
 _atom_site_fract_y
 _atom_site_fract_z
 _atom_site_occupancy
  Zn  Zn0  1  0.91782000  0.98937000  0.38943000  1.0
  Zn  Zn1  1  0.08218000  0.01061000  0.61057000  1.0
  H  H2  1  0.14914000  0.41400000  0.64420000  1.0
  H  H3  1  0.85088000  0.58600000  0.35579000  1.0
  H  H4  1  0.24315000  0.43395000  0.78602000  1.0
  H  H5  1  0.75688000  0.56605000  0.21396000  1.0
  H  H6  1  0.26323000  0.57534000  0.61819000  1.0
  H  H7  1  0.73677000  0.42467000  0.38180000  1.0
  H  H8  1  0.43640000  0.31634000  0.50879000  1.0
  H  H9  1  0.56361000  0.68367000  0.49119000  1.0
  H  H10  1  0.56385000  0.31750000  0.78135000  1.0
  H  H11  1  0.43616000  0.68251000  0.21864000  1.0
  H  H12  1  0.15366000  0.68137000  0.93261000  1.0
  H  H13  1  0.84636000  0.31861000  0.06740000  1.0
  H  H14  1  0.26110000  0.69727000  0.06874000  1.0
  H  H15  1  0.73889000  0.30269000  0.93127000  1.0
  H  H16  1  0.37114000  0.58511000  0.93523000  1.0
  H  H17  1  0.62886000  0.41487000  0.06480000  1.0
  H  H18  1  0.13490000  0.39159000  0.04873000  1.0
  H  H19  1  0.86510000  0.60838000  0.95127000  1.0
  H  H20  1  0.21578000  0.48919000  0.30320000  1.0
  H  H21  1  0.78420000  0.51081000  0.69679000  1.0
  H  H22  1  0.97033000  0.86885000  0.12276000  1.0
  H  H23  1  0.02967000  0.13119000  0.87723000  1.0
  H  H24  1  0.80072000  0.87581000  0.93874000  1.0
  H  H25  1  0.19929000  0.12423000  0.06126000  1.0
  H  H26  1  0.35410000  0.13124000  0.18809000  1.0
  H  H27  1  0.64589000  0.86877000  0.81192000  1.0
  H  H28  1  0.54705000  0.12099000  0.35685000  1.0
  H  H29  1  0.45293000  0.87901000  0.64316000  1.0
  C  C30  1  0.26279000  0.44665000  0.66898000  1.0
  C  C31  1  0.73722000  0.55336000  0.33101000  1.0
  C  C32  1  0.42848000  0.34661000  0.61194000  1.0
  C  C33  1  0.57154000  0.65340000  0.38804000  1.0
  C  C34  1  0.56659000  0.29022000  0.67817000  1.0
  C  C35  1  0.43342000  0.70978000  0.32182000  1.0
  C  C36  1  0.72818000  0.18647000  0.62143000  1.0
  C  C37  1  0.27182000  0.81352000  0.37857000  1.0
  C  C38  1  0.24405000  0.61603000  0.00626000  1.0
  C  C39  1  0.75596000  0.38397000  0.99373000  1.0
  C  C40  1  0.17971000  0.46768000  0.10115000  1.0
  C  C41  1  0.82029000  0.53230000  0.89887000  1.0
  C  C42  1  0.17265000  0.41918000  0.24429000  1.0
  C  C43  1  0.82733000  0.58080000  0.75573000  1.0
  C  C44  1  0.11152000  0.26671000  0.33156000  1.0
  C  C45  1  0.88848000  0.73328000  0.66845000  1.0
  C  C46  1  0.83292000  0.92646000  0.13168000  1.0
  C  C47  1  0.16707000  0.07357000  0.86831000  1.0
  C  C48  1  0.73521000  0.92880000  0.03089000  1.0
  C  C49  1  0.26478000  0.07124000  0.96910000  1.0
  C  C50  1  0.55697000  0.00064000  0.04948000  1.0
  C  C51  1  0.44303000  0.99938000  0.95051000  1.0
  C  C52  1  0.49016000  0.07312000  0.16760000  1.0
  C  C53  1  0.50983000  0.92689000  0.83240000  1.0
  C  C54  1  0.59635000  0.06752000  0.26305000  1.0
  C  C55  1  0.40363000  0.93248000  0.73696000  1.0
  N  N56  1  0.76531000  0.99409000  0.24631000  1.0
  N  N57  1  0.23468000  0.00592000  0.75370000  1.0
  O  O58  1  0.85260000  0.14975000  0.69278000  1.0
  O  O59  1  0.14739000  0.85024000  0.30722000  1.0
  O  O60  1  0.73401000  0.13854000  0.50730000  1.0
  O  O61  1  0.26598000  0.86143000  0.49270000  1.0
  O  O62  1  0.14427000  0.21872000  0.45899000  1.0
  O  O63  1  0.85573000  0.78128000  0.54101000  1.0
  O  O64  1  0.03498000  0.19225000  0.27379000  1.0
  O  O65  1  0.96502000  0.80773000  0.72623000  1.0
