# generated using pymatgen
data_Tb4H22C24N6O35
_symmetry_space_group_name_H-M   'P 1'
_cell_length_a   8.51486000
_cell_length_b   13.39730000
_cell_length_c   20.10560000
_cell_angle_alpha   87.86510000
_cell_angle_beta   85.83800000
_cell_angle_gamma   81.69530000
_symmetry_Int_Tables_number   1
_chemical_formula_structural   Tb4H22C24N6O35
_chemical_formula_sum   'Tb8 H44 C48 N12 O70'
_cell_volume   2262.70066174
_cell_formula_units_Z   2
loop_
 _symmetry_equiv_pos_site_id
 _symmetry_equiv_pos_as_xyz
  1  'x, y, z'
loop_
 _atom_site_type_symbol
 _atom_site_label
 _atom_site_symmetry_multiplicity
 _atom_site_fract_x
 _atom_site_fract_y
 _atom_site_fract_z
 _atom_site_occupancy
  Tb  Tb0  1  0.27755000  0.76900000  0.97211000  1.0
  Tb  Tb1  1  0.72246000  0.23100000  0.02789000  1.0
  Tb  Tb2  1  0.22238000  0.49984000  0.24715000  1.0
  Tb  Tb3  1  0.77762000  0.50016000  0.75285000  1.0
  Tb  Tb4  1  0.13261000  0.75661000  0.52609000  1.0
  Tb  Tb5  1  0.86739000  0.24339000  0.47391000  1.0
  Tb  Tb6  1  0.20327000  0.02915000  0.24485000  1.0
  Tb  Tb7  1  0.79673000  0.97085000  0.75515000  1.0
  H  H8  1  0.43323000  0.60111000  0.30061000  1.0
  H  H9  1  0.56677000  0.39889000  0.69939000  1.0
  H  H10  1  0.00604000  0.68277000  0.30139000  1.0
  H  H11  1  0.99396000  0.31723000  0.69861000  1.0
  H  H12  1  0.12986000  0.72985000  0.25187000  1.0
  H  H13  1  0.87014000  0.27015000  0.74813000  1.0
  H  H14  1  0.02946000  0.33727000  0.22158000  1.0
  H  H15  1  0.97054000  0.66273000  0.77842000  1.0
  H  H16  1  0.11622000  0.36394000  0.15136000  1.0
  H  H17  1  0.88378000  0.63607000  0.84864000  1.0
  H  H18  1  0.53489000  0.57637000  0.23239000  1.0
  H  H19  1  0.46511000  0.42363000  0.76761000  1.0
  H  H20  1  0.44715000  0.32290000  0.27129000  1.0
  H  H21  1  0.55284000  0.67711000  0.72871000  1.0
  H  H22  1  0.36596000  0.34114000  0.34709000  1.0
  H  H23  1  0.63404000  0.65886000  0.65291000  1.0
  H  H24  1  0.25200000  0.90004000  0.61826000  1.0
  H  H25  1  0.74800000  0.09996000  0.38174000  1.0
  H  H26  1  0.06313000  0.93587000  0.61029000  1.0
  H  H27  1  0.93687000  0.06413000  0.38971000  1.0
  H  H28  1  0.40053000  0.12940000  0.13837000  1.0
  H  H29  1  0.59947000  0.87060000  0.86162000  1.0
  H  H30  1  0.25555000  0.20894000  0.15449000  1.0
  H  H31  1  0.74445000  0.79107000  0.84551000  1.0
  H  H32  1  0.90499000  0.16406000  0.18730000  1.0
  H  H33  1  0.09501000  0.83595000  0.81270000  1.0
  H  H34  1  0.91928000  0.18737000  0.26325000  1.0
  H  H35  1  0.08071000  0.81263000  0.73675000  1.0
  H  H36  1  0.25231000  0.23101000  0.30091000  1.0
  H  H37  1  0.74769000  0.76899000  0.69909000  1.0
  H  H38  1  0.19317000  0.16449000  0.36200000  1.0
  H  H39  1  0.80683000  0.83551000  0.63800000  1.0
  H  H40  1  0.40908000  0.92661000  0.12211000  1.0
  H  H41  1  0.59091000  0.07339000  0.87789000  1.0
  H  H42  1  0.53264000  0.94609000  0.17558000  1.0
  H  H43  1  0.46736000  0.05391000  0.82442000  1.0
  H  H44  1  0.30705000  0.80838000  0.29361000  1.0
  H  H45  1  0.69295000  0.19161000  0.70639000  1.0
  H  H46  1  0.33838000  0.83450000  0.21816000  1.0
  H  H47  1  0.66162000  0.16550000  0.78184000  1.0
  H  H48  1  0.85067000  0.98137000  0.24544000  1.0
  H  H49  1  0.14933000  0.01863000  0.75456000  1.0
  H  H50  1  0.91787000  0.94862000  0.31656000  1.0
  H  H51  1  0.08213000  0.05138000  0.68344000  1.0
  C  C52  1  0.25498000  0.59987000  0.09140000  1.0
  C  C53  1  0.74502000  0.40013000  0.90860000  1.0
  C  C54  1  0.38755000  0.54204000  0.04674000  1.0
  C  C55  1  0.61244000  0.45796000  0.95326000  1.0
  C  C56  1  0.49521000  0.45559000  0.06258000  1.0
  C  C57  1  0.50479000  0.54441000  0.93742000  1.0
  C  C58  1  0.51157000  0.39567000  0.12866000  1.0
  C  C59  1  0.48843000  0.60433000  0.87134000  1.0
  C  C60  1  0.12606000  0.93863000  0.08917000  1.0
  C  C61  1  0.87394000  0.06138000  0.91083000  1.0
  C  C62  1  0.97799000  0.91471000  0.06007000  1.0
  C  C63  1  0.02202000  0.08529000  0.93993000  1.0
  C  C64  1  0.82088000  0.95395000  0.08137000  1.0
  C  C65  1  0.17912000  0.04606000  0.91863000  1.0
  C  C66  1  0.72536000  0.84941000  0.01116000  1.0
  C  C67  1  0.27465000  0.15059000  0.98884000  1.0
  C  C68  1  0.88096000  0.80981000  0.98900000  1.0
  C  C69  1  0.11905000  0.19019000  0.01099000  1.0
  C  C70  1  0.92569000  0.72567000  0.94067000  1.0
  C  C71  1  0.07431000  0.27433000  0.05933000  1.0
  C  C72  1  0.78051000  0.03330000  0.13332000  1.0
  C  C73  1  0.21949000  0.96670000  0.86668000  1.0
  C  C74  1  0.57784000  0.81394000  0.99017000  1.0
  C  C75  1  0.42217000  0.18606000  0.00983000  1.0
  C  C76  1  0.21691000  0.58850000  0.40641000  1.0
  C  C77  1  0.78308000  0.41150000  0.59360000  1.0
  C  C78  1  0.09915000  0.53836000  0.45211000  1.0
  C  C79  1  0.90084000  0.46165000  0.54790000  1.0
  C  C80  1  0.99381000  0.53570000  0.56254000  1.0
  C  C81  1  0.00618000  0.46431000  0.43746000  1.0
  C  C82  1  0.00851000  0.58069000  0.62928000  1.0
  C  C83  1  0.99149000  0.41931000  0.37072000  1.0
  C  C84  1  0.50358000  0.01617000  0.34409000  1.0
  C  C85  1  0.49643000  0.98382000  0.65591000  1.0
  C  C86  1  0.49622000  0.94135000  0.40260000  1.0
  C  C87  1  0.50377000  0.05865000  0.59740000  1.0
  C  C88  1  0.35700000  0.90404000  0.42929000  1.0
  C  C89  1  0.64299000  0.09595000  0.57071000  1.0
  C  C90  1  0.51024000  0.79793000  0.50156000  1.0
  C  C91  1  0.48976000  0.20206000  0.49844000  1.0
  C  C92  1  0.64677000  0.83757000  0.47577000  1.0
  C  C93  1  0.35323000  0.16243000  0.52423000  1.0
  C  C94  1  0.80988000  0.80020000  0.49884000  1.0
  C  C95  1  0.19012000  0.19980000  0.50116000  1.0
  C  C96  1  0.50741000  0.71540000  0.55484000  1.0
  C  C97  1  0.49258000  0.28460000  0.44516000  1.0
  C  C98  1  0.18461000  0.93266000  0.41170000  1.0
  C  C99  1  0.81539000  0.06733000  0.58830000  1.0
  N  N100  1  0.39772000  0.58312000  0.98514000  1.0
  N  N101  1  0.60228000  0.41688000  0.01486000  1.0
  N  N102  1  0.08751000  0.57231000  0.51418000  1.0
  N  N103  1  0.91248000  0.42770000  0.48582000  1.0
  N  N104  1  0.00333000  0.84440000  0.01378000  1.0
  N  N105  1  0.99668000  0.15560000  0.98622000  1.0
  N  N106  1  0.69642000  0.92032000  0.05733000  1.0
  N  N107  1  0.30359000  0.07968000  0.94267000  1.0
  N  N108  1  0.36991000  0.83389000  0.47866000  1.0
  N  N109  1  0.63009000  0.16611000  0.52134000  1.0
  N  N110  1  0.63821000  0.90902000  0.42728000  1.0
  N  N111  1  0.36179000  0.09098000  0.57272000  1.0
  O  O112  1  0.20948000  0.68988000  0.07322000  1.0
  O  O113  1  0.79053000  0.31013000  0.92678000  1.0
  O  O114  1  0.07712000  0.66892000  0.26170000  1.0
  O  O115  1  0.92287000  0.33108000  0.73830000  1.0
  O  O116  1  0.19557000  0.55563000  0.14139000  1.0
  O  O117  1  0.80444000  0.44438000  0.85861000  1.0
  O  O118  1  0.08575000  0.38827000  0.19840000  1.0
  O  O119  1  0.91425000  0.61173000  0.80160000  1.0
  O  O120  1  0.45796000  0.43654000  0.18312000  1.0
  O  O121  1  0.54204000  0.56346000  0.81688000  1.0
  O  O122  1  0.43559000  0.61268000  0.25170000  1.0
  O  O123  1  0.56441000  0.38732000  0.74831000  1.0
  O  O124  1  0.58610000  0.30768000  0.12398000  1.0
  O  O125  1  0.41391000  0.69231000  0.87602000  1.0
  O  O126  1  0.34660000  0.34475000  0.29666000  1.0
  O  O127  1  0.65339000  0.65525000  0.70334000  1.0
  O  O128  1  0.07204000  0.69078000  0.93269000  1.0
  O  O129  1  0.92797000  0.30922000  0.06731000  1.0
  O  O130  1  0.81347000  0.69669000  0.91146000  1.0
  O  O131  1  0.18654000  0.30332000  0.08854000  1.0
  O  O132  1  0.25752000  0.90605000  0.05772000  1.0
  O  O133  1  0.74248000  0.09395000  0.94228000  1.0
  O  O134  1  0.10691000  0.98613000  0.14308000  1.0
  O  O135  1  0.89308000  0.01387000  0.85692000  1.0
  O  O136  1  0.52674000  0.74363000  0.02535000  1.0
  O  O137  1  0.47328000  0.25636000  0.97465000  1.0
  O  O138  1  0.50265000  0.86095000  0.94315000  1.0
  O  O139  1  0.49736000  0.13905000  0.05684000  1.0
  O  O140  1  0.81326000  0.12155000  0.11755000  1.0
  O  O141  1  0.18675000  0.87845000  0.88245000  1.0
  O  O142  1  0.71581000  0.00616000  0.18785000  1.0
  O  O143  1  0.28419000  0.99384000  0.81215000  1.0
  O  O144  1  0.28621000  0.54176000  0.35635000  1.0
  O  O145  1  0.71378000  0.45824000  0.64365000  1.0
  O  O146  1  0.24198000  0.67435000  0.42359000  1.0
  O  O147  1  0.75802000  0.32565000  0.57641000  1.0
  O  O148  1  0.04604000  0.66827000  0.62764000  1.0
  O  O149  1  0.95396000  0.33173000  0.37236000  1.0
  O  O150  1  0.98957000  0.52514000  0.68099000  1.0
  O  O151  1  0.01043000  0.47486000  0.31902000  1.0
  O  O152  1  0.31680000  0.14855000  0.17428000  1.0
  O  O153  1  0.68320000  0.85144000  0.82572000  1.0
  O  O154  1  0.98124000  0.17448000  0.22082000  1.0
  O  O155  1  0.01876000  0.82552000  0.77918000  1.0
  O  O156  1  0.20332000  0.16966000  0.31273000  1.0
  O  O157  1  0.79668000  0.83034000  0.68727000  1.0
  O  O158  1  0.42419000  0.93066000  0.17016000  1.0
  O  O159  1  0.57581000  0.06934000  0.82984000  1.0
  O  O160  1  0.15006000  0.87909000  0.60552000  1.0
  O  O161  1  0.84994000  0.12091000  0.39448000  1.0
  O  O162  1  0.44017000  0.99239000  0.29246000  1.0
  O  O163  1  0.55983000  0.00761000  0.70754000  1.0
  O  O164  1  0.57494000  0.09037000  0.34980000  1.0
  O  O165  1  0.42506000  0.90963000  0.65020000  1.0
  O  O166  1  0.08327000  0.89544000  0.45036000  1.0
  O  O167  1  0.91673000  0.10456000  0.54964000  1.0
  O  O168  1  0.14753000  0.98914000  0.36156000  1.0
  O  O169  1  0.85246000  0.01086000  0.63844000  1.0
  O  O170  1  0.25152000  0.83077000  0.25377000  1.0
  O  O171  1  0.74848000  0.16923000  0.74623000  1.0
  O  O172  1  0.37265000  0.68754000  0.57071000  1.0
  O  O173  1  0.62735000  0.31246000  0.42929000  1.0
  O  O174  1  0.94806000  0.96707000  0.27071000  1.0
  O  O175  1  0.05193000  0.03292000  0.72929000  1.0
  O  O176  1  0.63790000  0.68187000  0.57905000  1.0
  O  O177  1  0.36210000  0.31813000  0.42095000  1.0
  O  O178  1  0.85625000  0.83834000  0.54987000  1.0
  O  O179  1  0.14375000  0.16166000  0.45013000  1.0
  O  O180  1  0.89795000  0.73583000  0.46327000  1.0
  O  O181  1  0.10206000  0.26418000  0.53672000  1.0
