# generated using pymatgen
data_H14Pb(C2O)4
_symmetry_space_group_name_H-M   'P 1'
_cell_length_a   4.63164000
_cell_length_b   7.20145000
_cell_length_c   15.70550000
_cell_angle_alpha   91.41200000
_cell_angle_beta   97.81520000
_cell_angle_gamma   92.58290000
_symmetry_Int_Tables_number   1
_chemical_formula_structural   H14Pb(C2O)4
_chemical_formula_sum   'H28 Pb2 C16 O8'
_cell_volume   518.20598370
_cell_formula_units_Z   2
loop_
 _symmetry_equiv_pos_site_id
 _symmetry_equiv_pos_as_xyz
  1  'x, y, z'
loop_
 _atom_site_type_symbol
 _atom_site_label
 _atom_site_symmetry_multiplicity
 _atom_site_fract_x
 _atom_site_fract_y
 _atom_site_fract_z
 _atom_site_occupancy
  H  H0  1  0.17486000  0.35120000  0.18164000  1.0
  H  H1  1  0.82515000  0.64877000  0.81837000  1.0
  H  H2  1  0.08072000  0.11046000  0.18921000  1.0
  H  H3  1  0.91924000  0.88953000  0.81079000  1.0
  H  H4  1  0.77497000  0.43710000  0.26181000  1.0
  H  H5  1  0.22501000  0.56291000  0.73818000  1.0
  H  H6  1  0.64666000  0.20268000  0.26287000  1.0
  H  H7  1  0.35331000  0.79732000  0.73713000  1.0
  H  H8  1  0.94361000  0.30558000  0.40487000  1.0
  H  H9  1  0.05638000  0.69443000  0.59512000  1.0
  H  H10  1  0.25373000  0.34541000  0.35145000  1.0
  H  H11  1  0.74624000  0.65458000  0.64855000  1.0
  H  H12  1  0.09743000  0.11771000  0.35468000  1.0
  H  H13  1  0.90254000  0.88229000  0.64533000  1.0
  H  H14  1  0.20705000  0.60584000  0.29238000  1.0
  H  H15  1  0.79296000  0.39417000  0.70761000  1.0
  H  H16  1  0.10670000  0.83422000  0.29184000  1.0
  H  H17  1  0.89329000  0.16579000  0.70816000  1.0
  H  H18  1  0.60863000  0.93261000  0.37472000  1.0
  H  H19  1  0.39138000  0.06740000  0.62527000  1.0
  H  H20  1  0.69788000  0.69818000  0.37688000  1.0
  H  H21  1  0.30212000  0.30183000  0.62312000  1.0
  H  H22  1  0.52291000  0.79478000  0.51513000  1.0
  H  H23  1  0.47713000  0.20524000  0.48488000  1.0
  H  H24  1  0.27733000  0.62228000  0.45977000  1.0
  H  H25  1  0.72270000  0.37775000  0.54024000  1.0
  H  H26  1  0.18744000  0.85892000  0.45778000  1.0
  H  H27  1  0.81257000  0.14109000  0.54222000  1.0
  Pb  Pb28  1  0.72376000  0.76116000  0.05877000  1.0
  Pb  Pb29  1  0.27621000  0.23874000  0.94123000  1.0
  C  C30  1  0.78469000  0.25877000  0.10265000  1.0
  C  C31  1  0.21533000  0.74123000  0.89735000  1.0
  C  C32  1  0.99235000  0.24924000  0.18541000  1.0
  C  C33  1  0.00765000  0.75075000  0.81459000  1.0
  C  C34  1  0.84535000  0.29320000  0.26488000  1.0
  C  C35  1  0.15464000  0.70680000  0.73512000  1.0
  C  C36  1  0.04542000  0.26452000  0.34853000  1.0
  C  C37  1  0.95457000  0.73549000  0.65146000  1.0
  C  C38  1  0.42126000  0.77465000  0.21047000  1.0
  C  C39  1  0.57874000  0.22536000  0.78954000  1.0
  C  C40  1  0.29933000  0.74942000  0.29402000  1.0
  C  C41  1  0.70067000  0.25059000  0.70598000  1.0
  C  C42  1  0.51367000  0.78999000  0.37568000  1.0
  C  C43  1  0.48632000  0.21002000  0.62432000  1.0
  C  C44  1  0.36808000  0.76532000  0.45651000  1.0
  C  C45  1  0.63195000  0.23470000  0.54350000  1.0
  O  O46  1  0.75500000  0.11962000  0.04850000  1.0
  O  O47  1  0.24503000  0.88038000  0.95150000  1.0
  O  O48  1  0.64305000  0.40410000  0.08735000  1.0
  O  O49  1  0.35699000  0.59591000  0.91264000  1.0
  O  O50  1  0.67998000  0.84333000  0.21156000  1.0
  O  O51  1  0.32002000  0.15667000  0.78844000  1.0
  O  O52  1  0.26503000  0.72306000  0.13909000  1.0
  O  O53  1  0.73497000  0.27693000  0.86092000  1.0
