# generated using pymatgen
data_CdH16C20S2(IN3)2
_symmetry_space_group_name_H-M   'P 1'
_cell_length_a   6.76874000
_cell_length_b   8.85725454
_cell_length_c   22.68970000
_cell_angle_alpha   94.17296851
_cell_angle_beta   98.57240000
_cell_angle_gamma   112.46139037
_symmetry_Int_Tables_number   1
_chemical_formula_structural   CdH16C20S2(IN3)2
_chemical_formula_sum   'Cd2 H32 C40 S4 I4 N12'
_cell_volume   1230.47498342
_cell_formula_units_Z   2
loop_
 _symmetry_equiv_pos_site_id
 _symmetry_equiv_pos_as_xyz
  1  'x, y, z'
loop_
 _atom_site_type_symbol
 _atom_site_label
 _atom_site_symmetry_multiplicity
 _atom_site_fract_x
 _atom_site_fract_y
 _atom_site_fract_z
 _atom_site_occupancy
  Cd  Cd0  1  0.87934000  0.74969000  0.74990000  1.0
  Cd  Cd1  1  0.12065000  0.25031000  0.25011000  1.0
  H  H2  1  0.22104000  0.27834000  0.05607000  1.0
  H  H3  1  0.38657000  0.22154000  0.44386000  1.0
  H  H4  1  0.77896000  0.72166000  0.94393000  1.0
  H  H5  1  0.61343000  0.77846000  0.55614000  1.0
  H  H6  1  0.15337000  0.22895000  0.94204000  1.0
  H  H7  1  0.48227000  0.27099000  0.55788000  1.0
  H  H8  1  0.84663000  0.77105000  0.05796000  1.0
  H  H9  1  0.51772000  0.72901000  0.44212000  1.0
  H  H10  1  0.29959000  0.28941000  0.85108000  1.0
  H  H11  1  0.65925000  0.21026000  0.64899000  1.0
  H  H12  1  0.70041000  0.71059000  0.14891000  1.0
  H  H13  1  0.34074000  0.78973000  0.35101000  1.0
  H  H14  1  0.04683000  0.66512000  0.87304000  1.0
  H  H15  1  0.00861000  0.83494000  0.62683000  1.0
  H  H16  1  0.95317000  0.33488000  0.12696000  1.0
  H  H17  1  0.99139000  0.16506000  0.37317000  1.0
  H  H18  1  0.05991000  0.48441000  0.70032000  1.0
  H  H19  1  0.37416000  0.01555000  0.79964000  1.0
  H  H20  1  0.94008000  0.51559000  0.29968000  1.0
  H  H21  1  0.62585000  0.98446000  0.20036000  1.0
  H  H22  1  0.24883000  0.92108000  0.98149000  1.0
  H  H23  1  0.84618000  0.57898000  0.51841000  1.0
  H  H24  1  0.75117000  0.07891000  0.01851000  1.0
  H  H25  1  0.15382000  0.42103000  0.48159000  1.0
  H  H26  1  0.40373000  0.09124000  0.03994000  1.0
  H  H27  1  0.77272000  0.40874000  0.46001000  1.0
  H  H28  1  0.59627000  0.90875000  0.96006000  1.0
  H  H29  1  0.22727000  0.59126000  0.53999000  1.0
  H  H30  1  0.22573000  0.29452000  0.73924000  1.0
  H  H31  1  0.69134000  0.20535000  0.76082000  1.0
  H  H32  1  0.77426000  0.70548000  0.26075000  1.0
  H  H33  1  0.30867000  0.79465000  0.23918000  1.0
  C  C34  1  0.17807000  0.47721000  0.87082000  1.0
  C  C35  1  0.33009000  0.02268000  0.62915000  1.0
  C  C36  1  0.82193000  0.52279000  0.12918000  1.0
  C  C37  1  0.66992000  0.97733000  0.37085000  1.0
  C  C38  1  0.21882000  0.48784000  0.93698000  1.0
  C  C39  1  0.29414000  0.01205000  0.56297000  1.0
  C  C40  1  0.78118000  0.51215000  0.06302000  1.0
  C  C41  1  0.70585000  0.98795000  0.43703000  1.0
  C  C42  1  0.31224000  0.65138000  0.02783000  1.0
  C  C43  1  0.13311000  0.84848000  0.47211000  1.0
  C  C44  1  0.68776000  0.34861000  0.97217000  1.0
  C  C45  1  0.86689000  0.15152000  0.52789000  1.0
  C  C46  1  0.23727000  0.37912000  0.02943000  1.0
  C  C47  1  0.32873000  0.12073000  0.47050000  1.0
  C  C48  1  0.76274000  0.62088000  0.97057000  1.0
  C  C49  1  0.67127000  0.87927000  0.52950000  1.0
  C  C50  1  0.19946000  0.35137000  0.96665000  1.0
  C  C51  1  0.38149000  0.14851000  0.53328000  1.0
  C  C52  1  0.80054000  0.64862000  0.03335000  1.0
  C  C53  1  0.61851000  0.85149000  0.46672000  1.0
  C  C54  1  0.22618000  0.37009000  0.83251000  1.0
  C  C55  1  0.52352000  0.12967000  0.66752000  1.0
  C  C56  1  0.77381000  0.62990000  0.16749000  1.0
  C  C57  1  0.47648000  0.87033000  0.33248000  1.0
  C  C58  1  0.08757000  0.58037000  0.84487000  1.0
  C  C59  1  0.16218000  0.91960000  0.65505000  1.0
  C  C60  1  0.91243000  0.41963000  0.15513000  1.0
  C  C61  1  0.83781000  0.08040000  0.34495000  1.0
  C  C62  1  0.09445000  0.47871000  0.74844000  1.0
  C  C63  1  0.36657000  0.02120000  0.75153000  1.0
  C  C64  1  0.90554000  0.52129000  0.25156000  1.0
  C  C65  1  0.63344000  0.97880000  0.24848000  1.0
  C  C66  1  0.40093000  0.97939000  0.01491000  1.0
  C  C67  1  0.90672000  0.52063000  0.48504000  1.0
  C  C68  1  0.59908000  0.02061000  0.98509000  1.0
  C  C69  1  0.09328000  0.47937000  0.51496000  1.0
  C  C70  1  0.18559000  0.37261000  0.77053000  1.0
  C  C71  1  0.54199000  0.12718000  0.72950000  1.0
  C  C72  1  0.81440000  0.62739000  0.22947000  1.0
  C  C73  1  0.45801000  0.87282000  0.27050000  1.0
  S  S74  1  0.39665000  0.84435000  0.07155000  1.0
  S  S75  1  0.98117000  0.65554000  0.42839000  1.0
  S  S76  1  0.60335000  0.15564000  0.92845000  1.0
  S  S77  1  0.01882000  0.34446000  0.57161000  1.0
  I  I78  1  0.85114000  0.92649000  0.84904000  1.0
  I  I79  1  0.57511000  0.57271000  0.65083000  1.0
  I  I80  1  0.14887000  0.07351000  0.15097000  1.0
  I  I81  1  0.42489000  0.42730000  0.34917000  1.0
  N  N82  1  0.27394000  0.63869000  0.96781000  1.0
  N  N83  1  0.16772000  0.86118000  0.53213000  1.0
  N  N84  1  0.72605000  0.36130000  0.03219000  1.0
  N  N85  1  0.83228000  0.13882000  0.46787000  1.0
  N  N86  1  0.29426000  0.52810000  0.06094000  1.0
  N  N87  1  0.20526000  0.97176000  0.43899000  1.0
  N  N88  1  0.70574000  0.47189000  0.93906000  1.0
  N  N89  1  0.79474000  0.02824000  0.56101000  1.0
  N  N90  1  0.04448000  0.57962000  0.78527000  1.0
  N  N91  1  0.17908000  0.92029000  0.71464000  1.0
  N  N92  1  0.95551000  0.42038000  0.21473000  1.0
  N  N93  1  0.82093000  0.07972000  0.28536000  1.0
