# generated using pymatgen
data_Zn4H26C32N4O25
_symmetry_space_group_name_H-M   'P 1'
_cell_length_a   10.69720000
_cell_length_b   10.98360000
_cell_length_c   19.56590000
_cell_angle_alpha   92.70170000
_cell_angle_beta   97.15730000
_cell_angle_gamma   97.47820000
_symmetry_Int_Tables_number   1
_chemical_formula_structural   Zn4H26C32N4O25
_chemical_formula_sum   'Zn4 H26 C32 N4 O25'
_cell_volume   2256.86308817
_cell_formula_units_Z   1
loop_
 _symmetry_equiv_pos_site_id
 _symmetry_equiv_pos_as_xyz
  1  'x, y, z'
loop_
 _atom_site_type_symbol
 _atom_site_label
 _atom_site_symmetry_multiplicity
 _atom_site_fract_x
 _atom_site_fract_y
 _atom_site_fract_z
 _atom_site_occupancy
  Zn  Zn0  1  0.43507000  0.60660000  0.56429000  1.0
  Zn  Zn1  1  0.60398000  0.61963000  0.44246000  1.0
  Zn  Zn2  1  0.38282000  0.38985000  0.43985000  1.0
  Zn  Zn3  1  0.62003000  0.41216000  0.55742000  1.0
  H  H4  1  0.34175000  0.49006000  0.98538000  1.0
  H  H5  1  0.74174000  0.49652000  0.91394000  1.0
  H  H6  1  0.64485000  0.48428000  0.11217000  1.0
  H  H7  1  0.63016000  0.47960000  0.00867000  1.0
  H  H8  1  0.33029000  0.45439000  0.87781000  1.0
  H  H9  1  0.50873000  0.00468000  0.41315000  1.0
  H  H10  1  0.19417000  0.53154000  0.79273000  1.0
  H  H11  1  0.17875000  0.36712000  0.79043000  1.0
  H  H12  1  0.10442000  0.35527000  0.66327000  1.0
  H  H13  1  0.00710000  0.44196000  0.70855000  1.0
  H  H14  1  0.12604000  0.51898000  0.66371000  1.0
  H  H15  1  0.89530000  0.29347000  0.53323000  1.0
  H  H16  1  0.04242000  0.26005000  0.50678000  1.0
  H  H17  1  0.93149000  0.17742000  0.39140000  1.0
  H  H18  1  0.85390000  0.10166000  0.45655000  1.0
  H  H19  1  0.78546000  0.22052000  0.41260000  1.0
  H  H20  1  0.90811000  0.71574000  0.62402000  1.0
  H  H21  1  0.91054000  0.80897000  0.55109000  1.0
  H  H22  1  0.12360000  0.92176000  0.60445000  1.0
  H  H23  1  0.00534000  0.93310000  0.66023000  1.0
  H  H24  1  0.11898000  0.82939000  0.67687000  1.0
  H  H25  1  0.17106000  0.66643000  0.23903000  1.0
  H  H26  1  0.28747000  0.62069000  0.30243000  1.0
  H  H27  1  0.12159000  0.45806000  0.33739000  1.0
  H  H28  1  0.07552000  0.60733000  0.34616000  1.0
  H  H29  1  0.00504000  0.50599000  0.27469000  1.0
  C  C30  1  0.84330000  0.56316000  0.51548000  1.0
  C  C31  1  0.18121000  0.49273000  0.50170000  1.0
  C  C32  1  0.54091000  0.83946000  0.51133000  1.0
  C  C33  1  0.52018000  0.18148000  0.47542000  1.0
  C  C34  1  0.45905000  0.49816000  0.31407000  1.0
  C  C35  1  0.54365000  0.49096000  0.68511000  1.0
  C  C36  1  0.54465000  0.48388000  0.76154000  1.0
  C  C37  1  0.42601000  0.46736000  0.78750000  1.0
  C  C38  1  0.42198000  0.46620000  0.85855000  1.0
  C  C39  1  0.53505000  0.47825000  0.90530000  1.0
  C  C40  1  0.65244000  0.48847000  0.87956000  1.0
  C  C41  1  0.65483000  0.49263000  0.80876000  1.0
  C  C42  1  0.55555000  0.48773000  0.13285000  1.0
  C  C43  1  0.55685000  0.48824000  0.20354000  1.0
  C  C44  1  0.33244000  0.49692000  0.19465000  1.0
  C  C45  1  0.33239000  0.49607000  0.12264000  1.0
  C  C46  1  0.44080000  0.48961000  0.08931000  1.0
  C  C47  1  0.53619000  0.48130000  0.97984000  1.0
  C  C48  1  0.43510000  0.48733000  0.01447000  1.0
  C  C49  1  0.44838000  0.49260000  0.23674000  1.0
  C  C50  1  0.04407000  0.49439000  0.49766000  1.0
  C  C51  1  0.98707000  0.58517000  0.52600000  1.0
  C  C52  1  0.52748000  0.04756000  0.46548000  1.0
  C  C53  1  0.54755000  0.97637000  0.51819000  1.0
  C  C54  1  0.19722000  0.44786000  0.75987000  1.0
  C  C55  1  0.10328000  0.44043000  0.69479000  1.0
  C  C56  1  0.94772000  0.28426000  0.48859000  1.0
  C  C57  1  0.87553000  0.19045000  0.43390000  1.0
  C  C58  1  0.96991000  0.77037000  0.59241000  1.0
  C  C59  1  0.06041000  0.86939000  0.63600000  1.0
  C  C60  1  0.19799000  0.58883000  0.26862000  1.0
  C  C61  1  0.09420000  0.53611000  0.30881000  1.0
  N  N62  1  0.20946000  0.50575000  0.08116000  1.0
  N  N63  1  0.57036000  0.02745000  0.59075000  1.0
  N  N64  1  0.67944000  0.47326000  0.24429000  1.0
  N  N65  1  0.78045000  0.51335000  0.78428000  1.0
  O  O66  1  0.51121000  0.50640000  0.49857000  1.0
  O  O67  1  0.79472000  0.49130000  0.55695000  1.0
  O  O68  1  0.25337000  0.57978000  0.53904000  1.0
  O  O69  1  0.57343000  0.79368000  0.45649000  1.0
  O  O70  1  0.42640000  0.21980000  0.44068000  1.0
  O  O71  1  0.53909000  0.58621000  0.34450000  1.0
  O  O72  1  0.58110000  0.40253000  0.65239000  1.0
  O  O73  1  0.38689000  0.41868000  0.34092000  1.0
  O  O74  1  0.49985000  0.58365000  0.66013000  1.0
  O  O75  1  0.50047000  0.78344000  0.56112000  1.0
  O  O76  1  0.60798000  0.24304000  0.51792000  1.0
  O  O77  1  0.78759000  0.62083000  0.46854000  1.0
  O  O78  1  0.21742000  0.40369000  0.46762000  1.0
  O  O79  1  0.32279000  0.45230000  0.73891000  1.0
  O  O80  1  0.15850000  0.41486000  0.04321000  1.0
  O  O81  1  0.16788000  0.60512000  0.08664000  1.0
  O  O82  1  0.96260000  0.40243000  0.45786000  1.0
  O  O83  1  0.04728000  0.68884000  0.56053000  1.0
  O  O84  1  0.67704000  0.01944000  0.62136000  1.0
  O  O85  1  0.48339000  0.07080000  0.61487000  1.0
  O  O86  1  0.67559000  0.40630000  0.29342000  1.0
  O  O87  1  0.77740000  0.52563000  0.22504000  1.0
  O  O88  1  0.21844000  0.49331000  0.21817000  1.0
  O  O89  1  0.78781000  0.56621000  0.72992000  1.0
  O  O90  1  0.87140000  0.47823000  0.82004000  1.0
