# generated using pymatgen
data_Al6H39C84N4Cl9O28
_symmetry_space_group_name_H-M   'P 1'
_cell_length_a   13.01342632
_cell_length_b   13.03330000
_cell_length_c   27.69120000
_cell_angle_alpha   89.78380000
_cell_angle_beta   89.81738339
_cell_angle_gamma   60.76667398
_symmetry_Int_Tables_number   1
_chemical_formula_structural   Al6H39C84N4Cl9O28
_chemical_formula_sum   'Al6 H39 C84 N4 Cl9 O28'
_cell_volume   4098.43849776
_cell_formula_units_Z   1
loop_
 _symmetry_equiv_pos_site_id
 _symmetry_equiv_pos_as_xyz
  1  'x, y, z'
loop_
 _atom_site_type_symbol
 _atom_site_label
 _atom_site_symmetry_multiplicity
 _atom_site_fract_x
 _atom_site_fract_y
 _atom_site_fract_z
 _atom_site_occupancy
  Al  Al0  1  0.58582000  0.59650000  0.50498000  1.0
  Al  Al1  1  0.58594000  0.35108000  0.50052000  1.0
  Al  Al2  1  0.35187000  0.57380000  0.49886000  1.0
  Al  Al3  1  0.06797000  0.08803000  0.01698000  1.0
  Al  Al4  1  0.32119000  0.07143000  0.01317000  1.0
  Al  Al5  1  0.10825000  0.31091000  0.01658000  1.0
  H  H6  1  0.47743000  0.12564000  0.77725000  1.0
  H  H7  1  0.16790000  0.40924000  0.13481000  1.0
  H  H8  1  0.44839000  0.42707000  0.26522000  1.0
  H  H9  1  0.29796000  0.20983000  0.30887000  1.0
  H  H10  1  0.49152000  0.82771000  0.39357000  1.0
  H  H11  1  0.53618000  0.29403000  0.73916000  1.0
  H  H12  1  0.13269000  0.00673000  0.24540000  1.0
  H  H13  1  0.10278000  0.04057000  0.15663000  1.0
  H  H14  1  0.19407000  0.81090000  0.28684000  1.0
  H  H15  1  0.21282000  0.74513000  0.37287000  1.0
  H  H16  1  0.79361000  0.21570000  0.21755000  1.0
  H  H17  1  0.19950000  0.04392000  0.77678000  1.0
  H  H18  1  0.85108000  0.19560000  0.13075000  1.0
  H  H19  1  0.81764000  0.51611000  0.29123000  1.0
  H  H20  1  0.94780000  0.43938000  0.23912000  1.0
  H  H21  1  0.37561000  0.46370000  0.80434000  1.0
  H  H22  1  0.99339000  0.42743000  0.15132000  1.0
  H  H23  1  0.84393000  0.17276000  0.29568000  1.0
  H  H24  1  0.78218000  0.20753000  0.38158000  1.0
  H  H25  1  0.13585000  0.36743000  0.77273000  1.0
  H  H26  1  0.21800000  0.73096000  0.79826000  1.0
  H  H27  1  0.11002000  0.91170000  0.72790000  1.0
  H  H28  1  0.93180000  0.46960000  0.77291000  1.0
  H  H29  1  0.60190000  0.72497000  0.76993000  1.0
  H  H30  1  0.55661000  0.70583000  0.82445000  1.0
  H  H31  1  0.16487000  0.46631000  0.26383000  1.0
  H  H32  1  0.08698000  0.50928000  0.21098000  1.0
  H  H33  1  0.53497000  0.71997000  0.25671000  1.0
  H  H34  1  0.56963000  0.68028000  0.19865000  1.0
  H  H35  1  0.57574000  0.79574000  0.14513000  1.0
  H  H36  1  0.48809000  0.84611000  0.09511000  1.0
  H  H37  1  0.03000000  0.26778000  0.71210000  1.0
  H  H38  1  0.70752000  0.53982000  0.73151000  1.0
  H  H39  1  0.66356000  0.41365000  0.80500000  1.0
  H  H40  1  0.76171000  0.21180000  0.74437000  1.0
  H  H41  1  0.98543000  0.14046000  0.78565000  1.0
  H  H42  1  0.29679000  0.19659000  0.70760000  1.0
  H  H43  1  0.67604000  0.69787000  0.53813000  1.0
  H  H44  1  0.97820000  0.98118000  0.98957000  1.0
  C  C45  1  0.71382000  0.38704000  0.57179000  1.0
  C  C46  1  0.36064000  0.36119000  0.65733000  1.0
  C  C47  1  0.19918000  0.87712000  0.74200000  1.0
  C  C48  1  0.39968000  0.38979000  0.56563000  1.0
  C  C49  1  0.25904000  0.77635000  0.78019000  1.0
  C  C50  1  0.29750000  0.89191000  0.90059000  1.0
  C  C51  1  0.33552000  0.76514000  0.61706000  1.0
  C  C52  1  0.24841000  0.95039000  0.76804000  1.0
  C  C53  1  0.30878000  0.84923000  0.80741000  1.0
  C  C54  1  0.36277000  0.88957000  0.73664000  1.0
  C  C55  1  0.31240000  0.81744000  0.70914000  1.0
  C  C56  1  0.37423000  0.36940000  0.61412000  1.0
  C  C57  1  0.42458000  0.79008000  0.77550000  1.0
  C  C58  1  0.37316000  0.71677000  0.74867000  1.0
  C  C59  1  0.30397000  0.86998000  0.85760000  1.0
  C  C60  1  0.37246000  0.71150000  0.57035000  1.0
  C  C61  1  0.32026000  0.79420000  0.65930000  1.0
  C  C62  1  0.94919000  0.30002000  0.73343000  1.0
  C  C63  1  0.89428000  0.41199000  0.76623000  1.0
  C  C64  1  0.91650000  0.32613000  0.89997000  1.0
  C  C65  1  0.76847000  0.35384000  0.61846000  1.0
  C  C66  1  0.92394000  0.22919000  0.77299000  1.0
  C  C67  1  0.22532000  0.34994000  0.76511000  1.0
  C  C68  1  0.87004000  0.34107000  0.80702000  1.0
  C  C69  1  0.79950000  0.26910000  0.75122000  1.0
  C  C70  1  0.82368000  0.34001000  0.71040000  1.0
  C  C71  1  0.74464000  0.38102000  0.78390000  1.0
  C  C72  1  0.71839000  0.39684000  0.43502000  1.0
  C  C73  1  0.76992000  0.45172000  0.74441000  1.0
  C  C74  1  0.89348000  0.33736000  0.85698000  1.0
  C  C75  1  0.79731000  0.34357000  0.66078000  1.0
  C  C76  1  0.39313000  0.36242000  0.37904000  1.0
  C  C77  1  0.42972000  0.41042000  0.34162000  1.0
  C  C78  1  0.32609000  0.31107000  0.80440000  1.0
  C  C79  1  0.41885000  0.38856000  0.29327000  1.0
  C  C80  1  0.37158000  0.31600000  0.28106000  1.0
  C  C81  1  0.33379000  0.26754000  0.31764000  1.0
  C  C82  1  0.34521000  0.29079000  0.36607000  1.0
  C  C83  1  0.25612000  0.37236000  0.20395000  1.0
  C  C84  1  0.40917000  0.38930000  0.43052000  1.0
  C  C85  1  0.24787000  0.35266000  0.15480000  1.0
  C  C86  1  0.44525000  0.18457000  0.15392000  1.0
  C  C87  1  0.45346000  0.20436000  0.20342000  1.0
  C  C88  1  0.36033000  0.29502000  0.22898000  1.0
  C  C89  1  0.25809000  0.44187000  0.74453000  1.0
  C  C90  1  0.33883000  0.25943000  0.12968000  1.0
  C  C91  1  0.35468000  0.78066000  0.38782000  1.0
  C  C92  1  0.42510000  0.82617000  0.37020000  1.0
  C  C93  1  0.41055000  0.86734000  0.32282000  1.0
  C  C94  1  0.33059000  0.85802000  0.29117000  1.0
  C  C95  1  0.25709000  0.81715000  0.31086000  1.0
  C  C96  1  0.38333000  0.71994000  0.43530000  1.0
  C  C97  1  0.26719000  0.78043000  0.35853000  1.0
  C  C98  1  0.41615000  0.83227000  0.20757000  1.0
  C  C99  1  0.40139000  0.86169000  0.15746000  1.0
  C  C100  1  0.34777000  0.34755000  0.70728000  1.0
  C  C101  1  0.19004000  0.98410000  0.17146000  1.0
  C  C102  1  0.20679000  0.96408000  0.22046000  1.0
  C  C103  1  0.31977000  0.88743000  0.23925000  1.0
  C  C104  1  0.28673000  0.93445000  0.13935000  1.0
  C  C105  1  0.77006000  0.37696000  0.38567000  1.0
  C  C106  1  0.78344000  0.46306000  0.35944000  1.0
  C  C107  1  0.81374000  0.44530000  0.31065000  1.0
  C  C108  1  0.31433000  0.25540000  0.72971000  1.0
  C  C109  1  0.83502000  0.34248000  0.28649000  1.0
  C  C110  1  0.82569000  0.25499000  0.31296000  1.0
  C  C111  1  0.35880000  0.40398000  0.78253000  1.0
  C  C112  1  0.79325000  0.27320000  0.36125000  1.0
  C  C113  1  0.83925000  0.26097000  0.20357000  1.0
  C  C114  1  0.86899000  0.25098000  0.15484000  1.0
  C  C115  1  0.94931000  0.38203000  0.16647000  1.0
  C  C116  1  0.92229000  0.38940000  0.21523000  1.0
  C  C117  1  0.86583000  0.32997000  0.23473000  1.0
  C  C118  1  0.92376000  0.31212000  0.13589000  1.0
  C  C119  1  0.27645000  0.94267000  0.94809000  1.0
  C  C120  1  0.41526000  0.21655000  0.76758000  1.0
  C  C121  1  0.28195000  0.25855000  0.94578000  1.0
  C  C122  1  0.44752000  0.30916000  0.74702000  1.0
  C  C123  1  0.96438000  0.28948000  0.94767000  1.0
  C  C124  1  0.26166000  0.96655000  0.08800000  1.0
  C  C125  1  0.30925000  0.23962000  0.07970000  1.0
  C  C126  1  0.96586000  0.29332000  0.08516000  1.0
  C  C127  1  0.30569000  0.28154000  0.89743000  1.0
  C  C128  1  0.31496000  0.29515000  0.85434000  1.0
  N  N129  1  0.53540000  0.75818000  0.79462000  1.0
  N  N130  1  0.16660000  0.46770000  0.22727000  1.0
  N  N131  1  0.52933000  0.74867000  0.22215000  1.0
  N  N132  1  0.50054000  0.80915000  0.12855000  1.0
  Cl  Cl133  1  0.43358000  0.95582000  0.70757000  1.0
  Cl  Cl134  1  0.49155000  0.49764000  0.35509000  1.0
  Cl  Cl135  1  0.58201000  0.11560000  0.23436000  1.0
  Cl  Cl136  1  0.56611000  0.07453000  0.12546000  1.0
  Cl  Cl137  1  0.29995000  0.22925000  0.41093000  1.0
  Cl  Cl138  1  0.49071000  0.93437000  0.30381000  1.0
  Cl  Cl139  1  0.76128000  0.59433000  0.38321000  1.0
  Cl  Cl140  1  0.15502000  0.58622000  0.72970000  1.0
  Cl  Cl141  1  0.45709000  0.56918000  0.73374000  1.0
  O  O142  1  0.47350000  0.69006000  0.55658000  1.0
  O  O143  1  0.18779000  0.33897000  0.96558000  1.0
  O  O144  1  0.98316000  0.36155000  0.97307000  1.0
  O  O145  1  0.68116000  0.49111000  0.55831000  1.0
  O  O146  1  0.96429000  0.21159000  0.06156000  1.0
  O  O147  1  0.15738000  0.00466000  0.07332000  1.0
  O  O148  1  0.34658000  0.95795000  0.05995000  1.0
  O  O149  1  0.37258000  0.13925000  0.06007000  1.0
  O  O150  1  0.21608000  0.32199000  0.06036000  1.0
  O  O151  1  0.00752000  0.35937000  0.06914000  1.0
  O  O152  1  0.16709000  0.15768000  0.01452000  1.0
  O  O153  1  0.50410000  0.31645000  0.45149000  1.0
  O  O154  1  0.69876000  0.30973000  0.54849000  1.0
  O  O155  1  0.50037000  0.31683000  0.54816000  1.0
  O  O156  1  0.32178000  0.48259000  0.54429000  1.0
  O  O157  1  0.30144000  0.68595000  0.54781000  1.0
  O  O158  1  0.48035000  0.69636000  0.45440000  1.0
  O  O159  1  0.69139000  0.49219000  0.45601000  1.0
  O  O160  1  0.69846000  0.31580000  0.45253000  1.0
  O  O161  1  0.33048000  0.48650000  0.44787000  1.0
  O  O162  1  0.30935000  0.68986000  0.45260000  1.0
  O  O163  1  0.50628000  0.50568000  0.50165000  1.0
  O  O164  1  0.98827000  0.18664000  0.95980000  1.0
  O  O165  1  0.17978000  0.96933000  0.96833000  1.0
  O  O166  1  0.35833000  0.96193000  0.96466000  1.0
  O  O167  1  0.35231000  0.15891000  0.96444000  1.0
  O  O168  1  0.65897000  0.67933000  0.50642000  1.0
  O  O169  1  0.97854000  0.02227000  0.01850000  1.0
