# generated using pymatgen
data_BaNiH10C6O11
_symmetry_space_group_name_H-M   'P 1'
_cell_length_a   7.12032000
_cell_length_b   9.26033000
_cell_length_c   9.26044000
_cell_angle_alpha   97.28270000
_cell_angle_beta   90.80650000
_cell_angle_gamma   90.80620000
_symmetry_Int_Tables_number   1
_chemical_formula_structural   BaNiH10C6O11
_chemical_formula_sum   'Ba2 Ni2 H20 C12 O22'
_cell_volume   605.53787547
_cell_formula_units_Z   2
loop_
 _symmetry_equiv_pos_site_id
 _symmetry_equiv_pos_as_xyz
  1  'x, y, z'
loop_
 _atom_site_type_symbol
 _atom_site_label
 _atom_site_symmetry_multiplicity
 _atom_site_fract_x
 _atom_site_fract_y
 _atom_site_fract_z
 _atom_site_occupancy
  Ba  Ba0  1  0.91789000  0.31777000  0.49309000  1.0
  Ba  Ba1  1  0.41789000  0.49309000  0.31777000  1.0
  Ni  Ni2  1  0.05229000  0.38841000  0.89580000  1.0
  Ni  Ni3  1  0.55230000  0.89580000  0.38841000  1.0
  H  H4  1  0.30976000  0.19918000  0.84894000  1.0
  H  H5  1  0.80977000  0.84894000  0.19918000  1.0
  H  H6  1  0.12333000  0.12703000  0.77867000  1.0
  H  H7  1  0.62333000  0.77867000  0.12703000  1.0
  H  H8  1  0.79107000  0.59046000  0.95657000  1.0
  H  H9  1  0.29107000  0.95657000  0.59045000  1.0
  H  H10  1  0.86760000  0.59530000  0.79782000  1.0
  H  H11  1  0.36760000  0.79781000  0.59531000  1.0
  H  H12  1  0.49166000  0.22467000  0.46502000  1.0
  H  H13  1  0.99166000  0.46502000  0.22467000  1.0
  H  H14  1  0.51595000  0.30643000  0.62521000  1.0
  H  H15  1  0.01595000  0.62521000  0.30643000  1.0
  H  H16  1  0.58425000  0.11794000  0.00977000  1.0
  H  H17  1  0.08425000  0.00977000  0.11793000  1.0
  H  H18  1  0.82389000  0.09252000  0.95916000  1.0
  H  H19  1  0.32390000  0.95916000  0.09251000  1.0
  H  H20  1  0.44699000  0.72870000  0.83243000  1.0
  H  H21  1  0.94699000  0.83243000  0.72870000  1.0
  H  H22  1  0.21250000  0.71506000  0.89589000  1.0
  H  H23  1  0.71250000  0.89589000  0.71507000  1.0
  C  C24  1  0.68002000  0.24082000  0.83953000  1.0
  C  C25  1  0.18003000  0.83953000  0.24082000  1.0
  C  C26  1  0.71152000  0.17276000  0.97877000  1.0
  C  C27  1  0.21152000  0.97877000  0.17275000  1.0
  C  C28  1  0.78022000  0.28408000  0.10392000  1.0
  C  C29  1  0.28023000  0.10392000  0.28407000  1.0
  C  C30  1  0.26837000  0.56582000  0.71052000  1.0
  C  C31  1  0.76837000  0.71052000  0.56582000  1.0
  C  C32  1  0.33536000  0.65227000  0.85416000  1.0
  C  C33  1  0.83536000  0.85416000  0.65227000  1.0
  C  C34  1  0.39580000  0.56617000  0.97549000  1.0
  C  C35  1  0.89580000  0.97548000  0.56617000  1.0
  O  O36  1  0.82161000  0.29523000  0.77979000  1.0
  O  O37  1  0.32161000  0.77979000  0.29523000  1.0
  O  O38  1  0.51577000  0.24146000  0.78654000  1.0
  O  O39  1  0.01577000  0.78654000  0.24146000  1.0
  O  O40  1  0.92396000  0.36242000  0.08215000  1.0
  O  O41  1  0.42395000  0.08215000  0.36242000  1.0
  O  O42  1  0.69684000  0.29507000  0.22428000  1.0
  O  O43  1  0.19684000  0.22428000  0.29506000  1.0
  O  O44  1  0.17399000  0.44697000  0.71108000  1.0
  O  O45  1  0.67399000  0.71107000  0.44697000  1.0
  O  O46  1  0.30606000  0.61890000  0.59494000  1.0
  O  O47  1  0.80606000  0.59494000  0.61891000  1.0
  O  O48  1  0.28422000  0.46947000  0.01453000  1.0
  O  O49  1  0.78422000  0.01453000  0.46947000  1.0
  O  O50  1  0.55228000  0.59737000  0.04190000  1.0
  O  O51  1  0.05228000  0.04190000  0.59738000  1.0
  O  O52  1  0.17377000  0.18218000  0.86991000  1.0
  O  O53  1  0.67378000  0.86991000  0.18218000  1.0
  O  O54  1  0.90856000  0.59072000  0.90116000  1.0
  O  O55  1  0.40856000  0.90117000  0.59071000  1.0
  O  O56  1  0.53510000  0.32008000  0.52089000  1.0
  O  O57  1  0.03510000  0.52089000  0.32008000  1.0
