# generated using pymatgen
data_Zn5H16C28N18(O5F4)2
_symmetry_space_group_name_H-M   'P 1'
_cell_length_a   10.02640000
_cell_length_b   10.26410000
_cell_length_c   12.86570000
_cell_angle_alpha   74.67860000
_cell_angle_beta   83.17090000
_cell_angle_gamma   60.90280000
_symmetry_Int_Tables_number   1
_chemical_formula_structural   Zn5H16C28N18(O5F4)2
_chemical_formula_sum   'Zn5 H16 C28 N18 O10 F8'
_cell_volume   1115.74499075
_cell_formula_units_Z   1
loop_
 _symmetry_equiv_pos_site_id
 _symmetry_equiv_pos_as_xyz
  1  'x, y, z'
loop_
 _atom_site_type_symbol
 _atom_site_label
 _atom_site_symmetry_multiplicity
 _atom_site_fract_x
 _atom_site_fract_y
 _atom_site_fract_z
 _atom_site_occupancy
  Zn  Zn0  1  0.50000000  0.50000000  0.00000000  1.0
  Zn  Zn1  1  0.48413000  0.40992000  0.28368000  1.0
  Zn  Zn2  1  0.51587000  0.59008000  0.71632000  1.0
  Zn  Zn3  1  0.15565000  0.11295000  0.14692000  1.0
  Zn  Zn4  1  0.84435000  0.88705000  0.85308000  1.0
  H  H5  1  0.29986000  0.30845000  0.98067000  1.0
  H  H6  1  0.70014000  0.69156000  0.01933000  1.0
  H  H7  1  0.31680000  0.88926000  0.98862000  1.0
  H  H8  1  0.68320000  0.11074000  0.01138000  1.0
  H  H9  1  0.87103000  0.17009000  0.33472000  1.0
  H  H10  1  0.12897000  0.82991000  0.66528000  1.0
  H  H11  1  0.87098000  0.29997000  0.99510000  1.0
  H  H12  1  0.12902000  0.70003000  0.00490000  1.0
  H  H13  1  0.27077000  0.23267000  0.31738000  1.0
  H  H14  1  0.72923000  0.76733000  0.68262000  1.0
  H  H15  1  0.29660000  0.77074000  0.32663000  1.0
  H  H16  1  0.70340000  0.22926000  0.67338000  1.0
  H  H17  1  0.10554000  0.12973000  0.38793000  1.0
  H  H18  1  0.89446000  0.87027000  0.61207000  1.0
  H  H19  1  0.24764000  0.96549000  0.40034000  1.0
  H  H20  1  0.75236000  0.03451000  0.59966000  1.0
  C  C21  1  0.83556000  0.22392000  0.25118000  1.0
  C  C22  1  0.16444000  0.77608000  0.74882000  1.0
  C  C23  1  0.83411000  0.29159000  0.07889000  1.0
  C  C24  1  0.16589000  0.70841000  0.92111000  1.0
  C  C25  1  0.29443000  0.27132000  0.23412000  1.0
  C  C26  1  0.70557000  0.72868000  0.76588000  1.0
  C  C27  1  0.31087000  0.30986000  0.06298000  1.0
  C  C28  1  0.68913000  0.69014000  0.93702000  1.0
  C  C29  1  0.32124000  0.76475000  0.24316000  1.0
  C  C30  1  0.67876000  0.23525000  0.75684000  1.0
  C  C31  1  0.33217000  0.82318000  0.07137000  1.0
  C  C32  1  0.66783000  0.17682000  0.92863000  1.0
  C  C33  1  0.49121000  0.27301000  0.50874000  1.0
  C  C34  1  0.50879000  0.72699000  0.49127000  1.0
  C  C35  1  0.39768000  0.25851000  0.60796000  1.0
  C  C36  1  0.60232000  0.74149000  0.39204000  1.0
  C  C37  1  0.30174000  0.38447000  0.65149000  1.0
  C  C38  1  0.69826000  0.61553000  0.34851000  1.0
  C  C39  1  0.39700000  0.12012000  0.65696000  1.0
  C  C40  1  0.60300000  0.87988000  0.34304000  1.0
  C  C41  1  0.21091000  0.37156000  0.74012000  1.0
  C  C42  1  0.78909000  0.62844000  0.25988000  1.0
  C  C43  1  0.30663000  0.10800000  0.74604000  1.0
  C  C44  1  0.69336000  0.89200000  0.25396000  1.0
  C  C45  1  0.21101000  0.23329000  0.78913000  1.0
  C  C46  1  0.78898000  0.76671000  0.21087000  1.0
  C  C47  1  0.10558000  0.22124000  0.88310000  1.0
  C  C48  1  0.89442000  0.77876000  0.11690000  1.0
  N  N49  1  0.69076000  0.31629000  0.21967000  1.0
  N  N50  1  0.30924000  0.68371000  0.78033000  1.0
  N  N51  1  0.69002000  0.35921000  0.10900000  1.0
  N  N52  1  0.30998000  0.64079000  0.89100000  1.0
  N  N53  1  0.92958000  0.20575000  0.16530000  1.0
  N  N54  1  0.07042000  0.79425000  0.83470000  1.0
  N  N55  1  0.36931000  0.35160000  0.20246000  1.0
  N  N56  1  0.63069000  0.64840000  0.79754000  1.0
  N  N57  1  0.37981000  0.37708000  0.09251000  1.0
  N  N58  1  0.62019000  0.62292000  0.90749000  1.0
  N  N59  1  0.25593000  0.24120000  0.14931000  1.0
  N  N60  1  0.74407000  0.75880000  0.85069000  1.0
  N  N61  1  0.39770000  0.63393000  0.21163000  1.0
  N  N62  1  0.60230000  0.36607000  0.78837000  1.0
  N  N63  1  0.40418000  0.67103000  0.10110000  1.0
  N  N64  1  0.59581000  0.32897000  0.89890000  1.0
  N  N65  1  0.27882000  0.88709000  0.15760000  1.0
  N  N66  1  0.72118000  0.11291000  0.84240000  1.0
  O  O67  1  0.41109000  0.38218000  0.42972000  1.0
  O  O68  1  0.58891000  0.61782000  0.57028000  1.0
  O  O69  1  0.63150000  0.18383000  0.50794000  1.0
  O  O70  1  0.36850000  0.81617000  0.49206000  1.0
  O  O71  1  0.97056000  0.26828000  0.85927000  1.0
  O  O72  1  0.02944000  0.73172000  0.14073000  1.0
  O  O73  1  0.17207000  0.16326000  0.97542000  1.0
  O  O74  1  0.82793000  0.83674000  0.02458000  1.0
  O  O75  1  0.16519000  0.05054000  0.34886000  1.0
  O  O76  1  0.83481000  0.94946000  0.65114000  1.0
  F  F77  1  0.29705000  0.52240000  0.60777000  1.0
  F  F78  1  0.70295000  0.47760000  0.39222000  1.0
  F  F79  1  0.48074000  0.99600000  0.61478000  1.0
  F  F80  1  0.51926000  0.00399000  0.38522000  1.0
  F  F81  1  0.11940000  0.49763000  0.77939000  1.0
  F  F82  1  0.88060000  0.50237000  0.22061000  1.0
  F  F83  1  0.31035000  0.97038000  0.79043000  1.0
  F  F84  1  0.68965000  0.02962000  0.20957000  1.0
