# generated using pymatgen
data_CdH9C12(NO)4
_symmetry_space_group_name_H-M   'P 1'
_cell_length_a   10.40130000
_cell_length_b   10.66490000
_cell_length_c   13.34840000
_cell_angle_alpha   89.40350000
_cell_angle_beta   83.56270000
_cell_angle_gamma   69.17810000
_symmetry_Int_Tables_number   1
_chemical_formula_structural   CdH9C12(NO)4
_chemical_formula_sum   'Cd4 H36 C48 N16 O16'
_cell_volume   1374.59897215
_cell_formula_units_Z   4
loop_
 _symmetry_equiv_pos_site_id
 _symmetry_equiv_pos_as_xyz
  1  'x, y, z'
loop_
 _atom_site_type_symbol
 _atom_site_label
 _atom_site_symmetry_multiplicity
 _atom_site_fract_x
 _atom_site_fract_y
 _atom_site_fract_z
 _atom_site_occupancy
  Cd  Cd0  1  0.61906000  0.49357000  0.61150000  1.0
  Cd  Cd1  1  0.38094000  0.50643000  0.38850000  1.0
  Cd  Cd2  1  0.40195000  0.07337000  0.87853000  1.0
  Cd  Cd3  1  0.59805000  0.92663000  0.12147000  1.0
  H  H4  1  0.59603000  0.72298000  0.82668000  1.0
  H  H5  1  0.40397000  0.27702000  0.17332000  1.0
  H  H6  1  0.89576000  0.25721000  0.47789000  1.0
  H  H7  1  0.10424000  0.74279000  0.52211000  1.0
  H  H8  1  0.99870000  0.56179000  0.32076000  1.0
  H  H9  1  0.00130000  0.43821000  0.67924000  1.0
  H  H10  1  0.76480000  0.67966000  0.45826000  1.0
  H  H11  1  0.23520000  0.32034000  0.54174000  1.0
  H  H12  1  0.18301000  0.24262000  0.37303000  1.0
  H  H13  1  0.81699000  0.75738000  0.62697000  1.0
  H  H14  1  0.13240000  0.32715000  0.26129000  1.0
  H  H15  1  0.86760000  0.67285000  0.73871000  1.0
  H  H16  1  0.86128000  0.07127000  0.14367000  1.0
  H  H17  1  0.13872000  0.92873000  0.85633000  1.0
  H  H18  1  0.95887000  0.85475000  0.22973000  1.0
  H  H19  1  0.04113000  0.14525000  0.77027000  1.0
  H  H20  1  0.12507000  0.83451000  0.35654000  1.0
  H  H21  1  0.87493000  0.16549000  0.64346000  1.0
  H  H22  1  0.18562000  0.02965000  0.39775000  1.0
  H  H23  1  0.81438000  0.97035000  0.60225000  1.0
  H  H24  1  0.41353000  0.30722000  0.68558000  1.0
  H  H25  1  0.58647000  0.69278000  0.31442000  1.0
  H  H26  1  0.09575000  0.09680000  0.01936000  1.0
  H  H27  1  0.90425000  0.90320000  0.98064000  1.0
  H  H28  1  0.27542000  0.39339000  0.97061000  1.0
  H  H29  1  0.72458000  0.60661000  0.02939000  1.0
  H  H30  1  0.04730000  0.49055000  0.11501000  1.0
  H  H31  1  0.95270000  0.50945000  0.88499000  1.0
  H  H32  1  0.83236000  0.29566000  0.12067000  1.0
  H  H33  1  0.16764000  0.70434000  0.87933000  1.0
  H  H34  1  0.88631000  0.38928000  0.20547000  1.0
  H  H35  1  0.11369000  0.61072000  0.79453000  1.0
  H  H36  1  0.28728000  0.97840000  0.52849000  1.0
  H  H37  1  0.71272000  0.02160000  0.47151000  1.0
  H  H38  1  0.79853000  0.26576000  0.94449000  1.0
  H  H39  1  0.20147000  0.73424000  0.05551000  1.0
  C  C40  1  0.53602000  0.77098000  0.76622000  1.0
  C  C41  1  0.46398000  0.22902000  0.23378000  1.0
  C  C42  1  0.39996000  0.92358000  0.67836000  1.0
  C  C43  1  0.60004000  0.07642000  0.32164000  1.0
  C  C44  1  0.44470000  0.80016000  0.62548000  1.0
  C  C45  1  0.55530000  0.19984000  0.37452000  1.0
  C  C46  1  0.30901000  0.05896000  0.65465000  1.0
  C  C47  1  0.69099000  0.94104000  0.34535000  1.0
  C  C48  1  0.40660000  0.76072000  0.53057000  1.0
  C  C49  1  0.59340000  0.23928000  0.46943000  1.0
  C  C50  1  0.89046000  0.35702000  0.45620000  1.0
  C  C51  1  0.10954000  0.64298000  0.54380000  1.0
  C  C52  1  0.94053000  0.51852000  0.37388000  1.0
  C  C53  1  0.05947000  0.48148000  0.62612000  1.0
  C  C54  1  0.82627000  0.57436000  0.44334000  1.0
  C  C55  1  0.17373000  0.42564000  0.55666000  1.0
  C  C56  1  0.09794000  0.27758000  0.32568000  1.0
  C  C57  1  0.90206000  0.72242000  0.67432000  1.0
  C  C58  1  0.05961000  0.16068000  0.29507000  1.0
  C  C59  1  0.94039000  0.83932000  0.70493000  1.0
  C  C60  1  0.96788000  0.17176000  0.22244000  1.0
  C  C61  1  0.03212000  0.82824000  0.77756000  1.0
  C  C62  1  0.93210000  0.06132000  0.20029000  1.0
  C  C63  1  0.06790000  0.93868000  0.79971000  1.0
  C  C64  1  0.98764000  0.93979000  0.24810000  1.0
  C  C65  1  0.01237000  0.06021000  0.75190000  1.0
  C  C66  1  0.07943000  0.92853000  0.31897000  1.0
  C  C67  1  0.92057000  0.07147000  0.68103000  1.0
  C  C68  1  0.11420000  0.03884000  0.34232000  1.0
  C  C69  1  0.88580000  0.96116000  0.65768000  1.0
  C  C70  1  0.48763000  0.29889000  0.73863000  1.0
  C  C71  1  0.51237000  0.70111000  0.26137000  1.0
  C  C72  1  0.60460000  0.23558000  0.86663000  1.0
  C  C73  1  0.39540000  0.76442000  0.13337000  1.0
  C  C74  1  0.65292000  0.32578000  0.81157000  1.0
  C  C75  1  0.34708000  0.67422000  0.18843000  1.0
  C  C76  1  0.64915000  0.15714000  0.95656000  1.0
  C  C77  1  0.35085000  0.84286000  0.04344000  1.0
  C  C78  1  0.76504000  0.37523000  0.82352000  1.0
  C  C79  1  0.23496000  0.62477000  0.17648000  1.0
  C  C80  1  0.11340000  0.19082000  0.02306000  1.0
  C  C81  1  0.88660000  0.80918000  0.97694000  1.0
  C  C82  1  0.20366000  0.34631000  0.00172000  1.0
  C  C83  1  0.79634000  0.65369000  0.99828000  1.0
  C  C84  1  0.09071000  0.39561000  0.07323000  1.0
  C  C85  1  0.90929000  0.60439000  0.92677000  1.0
  C  C86  1  0.91934000  0.29557000  0.16027000  1.0
  C  C87  1  0.08066000  0.70443000  0.83973000  1.0
  N  N88  1  0.53096000  0.70556000  0.68193000  1.0
  N  N89  1  0.46904000  0.29444000  0.31807000  1.0
  N  N90  1  0.45848000  0.90248000  0.76729000  1.0
  N  N91  1  0.54152000  0.09752000  0.23271000  1.0
  N  N92  1  0.79663000  0.47250000  0.49434000  1.0
  N  N93  1  0.20337000  0.52750000  0.50566000  1.0
  N  N94  1  0.97938000  0.38111000  0.38304000  1.0
  N  N95  1  0.02062000  0.61889000  0.61696000  1.0
  N  N96  1  0.57737000  0.36406000  0.73121000  1.0
  N  N97  1  0.42263000  0.63594000  0.26879000  1.0
  N  N98  1  0.50059000  0.22082000  0.81926000  1.0
  N  N99  1  0.49941000  0.77918000  0.18074000  1.0
  N  N100  1  0.21624000  0.21861000  0.97116000  1.0
  N  N101  1  0.78376000  0.78139000  0.02884000  1.0
  N  N102  1  0.03466000  0.29621000  0.08562000  1.0
  N  N103  1  0.96534000  0.70379000  0.91438000  1.0
  O  O104  1  0.27997000  0.15507000  0.71567000  1.0
  O  O105  1  0.72003000  0.84493000  0.28433000  1.0
  O  O106  1  0.26057000  0.07428000  0.56604000  1.0
  O  O107  1  0.73943000  0.92572000  0.43396000  1.0
  O  O108  1  0.32138000  0.84963000  0.48210000  1.0
  O  O109  1  0.67862000  0.15036000  0.51790000  1.0
  O  O110  1  0.46011000  0.63664000  0.50334000  1.0
  O  O111  1  0.53989000  0.36336000  0.49666000  1.0
  O  O112  1  0.58402000  0.07948000  0.98634000  1.0
  O  O113  1  0.41598000  0.92053000  0.01366000  1.0
  O  O114  1  0.74906000  0.16931000  0.99817000  1.0
  O  O115  1  0.25094000  0.83069000  0.00183000  1.0
  O  O116  1  0.83299000  0.33629000  0.90336000  1.0
  O  O117  1  0.16701000  0.66371000  0.09664000  1.0
  O  O118  1  0.79547000  0.45038000  0.76065000  1.0
  O  O119  1  0.20453000  0.54963000  0.23935000  1.0
