# generated using pymatgen
data_ZnPH9C12N2O3
_symmetry_space_group_name_H-M   'P 1'
_cell_length_a   8.13709000
_cell_length_b   12.34570000
_cell_length_c   12.43240000
_cell_angle_alpha   99.33160000
_cell_angle_beta   92.71410000
_cell_angle_gamma   92.70650000
_symmetry_Int_Tables_number   1
_chemical_formula_structural   ZnPH9C12N2O3
_chemical_formula_sum   'Zn4 P4 H36 C48 N8 O12'
_cell_volume   1229.11375831
_cell_formula_units_Z   4
loop_
 _symmetry_equiv_pos_site_id
 _symmetry_equiv_pos_as_xyz
  1  'x, y, z'
loop_
 _atom_site_type_symbol
 _atom_site_label
 _atom_site_symmetry_multiplicity
 _atom_site_fract_x
 _atom_site_fract_y
 _atom_site_fract_z
 _atom_site_occupancy
  Zn  Zn0  1  0.75024000  0.26368000  0.73663000  1.0
  Zn  Zn1  1  0.24976000  0.73632000  0.26337000  1.0
  Zn  Zn2  1  0.74987000  0.51909000  0.48112000  1.0
  Zn  Zn3  1  0.25013000  0.48091000  0.51888000  1.0
  P  P4  1  0.92917000  0.30885000  0.50798000  1.0
  P  P5  1  0.57116000  0.49279000  0.69053000  1.0
  P  P6  1  0.07083000  0.69115000  0.49202000  1.0
  P  P7  1  0.42884000  0.50721000  0.30948000  1.0
  H  H8  1  0.99329000  0.22901000  0.42801000  1.0
  H  H9  1  0.50692000  0.57379000  0.76924000  1.0
  H  H10  1  0.00671000  0.77099000  0.57199000  1.0
  H  H11  1  0.49309000  0.42621000  0.23076000  1.0
  H  H12  1  0.11654000  0.35904000  0.72535000  1.0
  H  H13  1  0.38330000  0.27626000  0.64156000  1.0
  H  H14  1  0.88346000  0.64096000  0.27465000  1.0
  H  H15  1  0.61670000  0.72374000  0.35844000  1.0
  H  H16  1  0.35558000  0.42868000  0.85720000  1.0
  H  H17  1  0.14478000  0.14354000  0.57139000  1.0
  H  H18  1  0.64442000  0.57132000  0.14280000  1.0
  H  H19  1  0.85522000  0.85646000  0.42861000  1.0
  H  H20  1  0.31336000  0.45028000  0.05976000  1.0
  H  H21  1  0.18708000  0.93959000  0.54951000  1.0
  H  H22  1  0.68664000  0.54972000  0.94024000  1.0
  H  H23  1  0.81292000  0.06041000  0.45050000  1.0
  H  H24  1  0.58930000  0.24837000  0.21414000  1.0
  H  H25  1  0.91061000  0.78425000  0.75107000  1.0
  H  H26  1  0.41070000  0.75163000  0.78586000  1.0
  H  H27  1  0.08939000  0.21575000  0.24893000  1.0
  H  H28  1  0.37423000  0.17039000  0.06709000  1.0
  H  H29  1  0.12526000  0.93243000  0.82933000  1.0
  H  H30  1  0.62577000  0.82961000  0.93291000  1.0
  H  H31  1  0.87474000  0.06757000  0.17068000  1.0
  H  H32  1  0.43404000  0.17781000  0.87158000  1.0
  H  H33  1  0.06531000  0.12925000  0.82191000  1.0
  H  H34  1  0.56596000  0.82219000  0.12841000  1.0
  H  H35  1  0.93469000  0.87075000  0.17809000  1.0
  H  H36  1  0.12585000  0.42497000  0.20939000  1.0
  H  H37  1  0.37472000  0.78876000  0.57502000  1.0
  H  H38  1  0.87415000  0.57503000  0.79061000  1.0
  H  H39  1  0.62528000  0.21124000  0.42498000  1.0
  H  H40  1  0.86153000  0.35191000  0.26611000  1.0
  H  H41  1  0.63897000  0.73193000  0.64799000  1.0
  H  H42  1  0.13847000  0.64809000  0.73389000  1.0
  H  H43  1  0.36103000  0.26807000  0.35201000  1.0
  C  C44  1  0.10652000  0.36272000  0.81327000  1.0
  C  C45  1  0.39336000  0.18773000  0.63773000  1.0
  C  C46  1  0.89348000  0.63728000  0.18673000  1.0
  C  C47  1  0.60665000  0.81227000  0.36227000  1.0
  C  C48  1  0.23868000  0.40449000  0.88816000  1.0
  C  C49  1  0.26153000  0.11233000  0.59563000  1.0
  C  C50  1  0.76132000  0.59551000  0.11185000  1.0
  C  C51  1  0.73847000  0.88767000  0.40437000  1.0
  C  C52  1  0.21673000  0.41436000  0.99879000  1.0
  C  C53  1  0.28357000  0.00092000  0.58553000  1.0
  C  C54  1  0.78327000  0.58564000  0.00121000  1.0
  C  C55  1  0.71643000  0.99909000  0.41447000  1.0
  C  C56  1  0.06404000  0.37867000  0.03478000  1.0
  C  C57  1  0.43610000  0.96465000  0.62122000  1.0
  C  C58  1  0.93596000  0.62133000  0.96522000  1.0
  C  C59  1  0.56390000  0.03535000  0.37878000  1.0
  C  C60  1  0.93964000  0.33392000  0.95349000  1.0
  C  C61  1  0.56021000  0.04650000  0.66615000  1.0
  C  C62  1  0.06036000  0.66608000  0.04651000  1.0
  C  C63  1  0.43979000  0.95350000  0.33385000  1.0
  C  C64  1  0.78453000  0.29230000  0.98679000  1.0
  C  C65  1  0.71523000  0.01306000  0.70762000  1.0
  C  C66  1  0.21546000  0.70769000  0.01321000  1.0
  C  C67  1  0.28477000  0.98694000  0.29238000  1.0
  C  C68  1  0.76056000  0.29583000  0.09988000  1.0
  C  C69  1  0.73943000  0.89926000  0.70395000  1.0
  C  C70  1  0.23944000  0.70417000  0.90012000  1.0
  C  C71  1  0.26057000  0.10074000  0.29605000  1.0
  C  C72  1  0.61005000  0.24926000  0.12838000  1.0
  C  C73  1  0.88983000  0.87061000  0.75037000  1.0
  C  C74  1  0.38995000  0.75074000  0.87162000  1.0
  C  C75  1  0.11018000  0.12939000  0.24964000  1.0
  C  C76  1  0.49202000  0.20572000  0.04731000  1.0
  C  C77  1  0.00760000  0.95227000  0.79397000  1.0
  C  C78  1  0.50798000  0.79428000  0.95269000  1.0
  C  C79  1  0.99240000  0.04773000  0.20603000  1.0
  C  C80  1  0.52534000  0.20933000  0.93785000  1.0
  C  C81  1  0.97418000  0.06247000  0.79047000  1.0
  C  C82  1  0.47466000  0.79067000  0.06215000  1.0
  C  C83  1  0.02582000  0.93753000  0.20953000  1.0
  C  C84  1  0.03172000  0.38631000  0.14796000  1.0
  C  C85  1  0.46865000  0.85072000  0.61351000  1.0
  C  C86  1  0.96828000  0.61369000  0.85204000  1.0
  C  C87  1  0.53135000  0.14928000  0.38648000  1.0
  C  C88  1  0.88552000  0.34587000  0.17955000  1.0
  C  C89  1  0.61473000  0.81903000  0.65398000  1.0
  C  C90  1  0.11448000  0.65413000  0.82045000  1.0
  C  C91  1  0.38527000  0.18097000  0.34602000  1.0
  N  N92  1  0.96166000  0.32841000  0.84509000  1.0
  N  N93  1  0.53803000  0.15566000  0.67208000  1.0
  N  N94  1  0.03835000  0.67159000  0.15491000  1.0
  N  N95  1  0.46197000  0.84434000  0.32792000  1.0
  N  N96  1  0.66687000  0.25044000  0.90850000  1.0
  N  N97  1  0.83269000  0.09192000  0.74947000  1.0
  N  N98  1  0.33313000  0.74956000  0.09149000  1.0
  N  N99  1  0.16731000  0.90808000  0.25053000  1.0
  O  O100  1  0.85330000  0.24248000  0.58859000  1.0
  O  O101  1  0.64603000  0.41210000  0.75749000  1.0
  O  O102  1  0.14670000  0.75752000  0.41141000  1.0
  O  O103  1  0.35397000  0.58790000  0.24251000  1.0
  O  O104  1  0.80251000  0.36479000  0.44182000  1.0
  O  O105  1  0.69882000  0.55838000  0.63474000  1.0
  O  O106  1  0.19749000  0.63521000  0.55818000  1.0
  O  O107  1  0.30118000  0.44162000  0.36527000  1.0
  O  O108  1  0.07393000  0.38597000  0.56113000  1.0
  O  O109  1  0.42669000  0.43935000  0.61366000  1.0
  O  O110  1  0.92607000  0.61403000  0.43887000  1.0
  O  O111  1  0.57331000  0.56065000  0.38634000  1.0
