# generated using pymatgen
data_LiH49(C15O4)2
_symmetry_space_group_name_H-M   'P 1'
_cell_length_a   8.25350000
_cell_length_b   12.28400000
_cell_length_c   33.20920000
_cell_angle_alpha   89.99980000
_cell_angle_beta   90.00010000
_cell_angle_gamma   90.00000000
_symmetry_Int_Tables_number   1
_chemical_formula_structural   LiH49(C15O4)2
_chemical_formula_sum   'Li4 H196 C120 O32'
_cell_volume   3366.94775192
_cell_formula_units_Z   4
loop_
 _symmetry_equiv_pos_site_id
 _symmetry_equiv_pos_as_xyz
  1  'x, y, z'
loop_
 _atom_site_type_symbol
 _atom_site_label
 _atom_site_symmetry_multiplicity
 _atom_site_fract_x
 _atom_site_fract_y
 _atom_site_fract_z
 _atom_site_occupancy
  Li  Li0  1  0.01574000  0.84257000  0.03243000  1.0
  Li  Li1  1  0.48426000  0.15744000  0.53244000  1.0
  Li  Li2  1  0.98426000  0.34256000  0.46757000  1.0
  Li  Li3  1  0.51574000  0.65744000  0.96757000  1.0
  H  H4  1  0.31059000  0.51527000  0.20570000  1.0
  H  H5  1  0.18941000  0.48472000  0.70570000  1.0
  H  H6  1  0.68940000  0.01527000  0.29430000  1.0
  H  H7  1  0.81059000  0.98473000  0.79430000  1.0
  H  H8  1  0.44033000  0.42113000  0.15147000  1.0
  H  H9  1  0.05967000  0.57887000  0.65147000  1.0
  H  H10  1  0.55967000  0.92113000  0.34853000  1.0
  H  H11  1  0.94033000  0.07887000  0.84853000  1.0
  H  H12  1  0.50781000  0.54174000  0.12855000  1.0
  H  H13  1  0.99219000  0.45826000  0.62855000  1.0
  H  H14  1  0.49220000  0.04174000  0.37145000  1.0
  H  H15  1  0.00781000  0.95826000  0.87145000  1.0
  H  H16  1  0.69019000  0.40968000  0.18622000  1.0
  H  H17  1  0.80981000  0.59032000  0.68622000  1.0
  H  H18  1  0.30980000  0.90968000  0.31378000  1.0
  H  H19  1  0.19019000  0.09032000  0.81378000  1.0
  H  H20  1  0.74929000  0.53616000  0.16583000  1.0
  H  H21  1  0.75071000  0.46384000  0.66583000  1.0
  H  H22  1  0.25071000  0.03616000  0.33418000  1.0
  H  H23  1  0.24929000  0.96384000  0.83418000  1.0
  H  H24  1  0.54314000  0.49288000  0.24017000  1.0
  H  H25  1  0.95686000  0.50712000  0.74017000  1.0
  H  H26  1  0.45686000  0.99288000  0.25983000  1.0
  H  H27  1  0.04314000  0.00712000  0.75983000  1.0
  H  H28  1  0.82203000  0.65179000  0.23093000  1.0
  H  H29  1  0.67797000  0.34821000  0.73093000  1.0
  H  H30  1  0.17797000  0.15179000  0.26907000  1.0
  H  H31  1  0.32203000  0.84821000  0.76907000  1.0
  H  H32  1  0.79451000  0.42707000  0.26961000  1.0
  H  H33  1  0.70550000  0.57294000  0.76961000  1.0
  H  H34  1  0.20550000  0.92706000  0.23039000  1.0
  H  H35  1  0.29450000  0.07294000  0.73039000  1.0
  H  H36  1  0.92286000  0.46376000  0.22962000  1.0
  H  H37  1  0.57714000  0.53624000  0.72962000  1.0
  H  H38  1  0.07714000  0.96376000  0.27038000  1.0
  H  H39  1  0.42286000  0.03624000  0.77038000  1.0
  H  H40  1  0.08603000  0.58189000  0.27281000  1.0
  H  H41  1  0.41397000  0.41811000  0.77281000  1.0
  H  H42  1  0.91398000  0.08189000  0.22719000  1.0
  H  H43  1  0.58602000  0.91811000  0.72719000  1.0
  H  H44  1  0.07153000  0.45309000  0.29571000  1.0
  H  H45  1  0.42847000  0.54691000  0.79572000  1.0
  H  H46  1  0.92848000  0.95308000  0.20429000  1.0
  H  H47  1  0.57152000  0.04692000  0.70429000  1.0
  H  H48  1  0.03639000  0.61239000  0.34303000  1.0
  H  H49  1  0.46360000  0.38760000  0.84302000  1.0
  H  H50  1  0.96361000  0.11239000  0.15697000  1.0
  H  H51  1  0.53639000  0.88761000  0.65698000  1.0
  H  H52  1  0.74593000  0.45698000  0.33689000  1.0
  H  H53  1  0.75406000  0.54302000  0.83689000  1.0
  H  H54  1  0.25407000  0.95698000  0.16311000  1.0
  H  H55  1  0.24593000  0.04302000  0.66311000  1.0
  H  H56  1  0.93163000  0.43040000  0.36075000  1.0
  H  H57  1  0.56836000  0.56960000  0.86075000  1.0
  H  H58  1  0.06837000  0.93040000  0.13925000  1.0
  H  H59  1  0.43163000  0.06960000  0.63925000  1.0
  H  H60  1  0.88073000  0.58108000  0.40915000  1.0
  H  H61  1  0.61927000  0.41892000  0.90915000  1.0
  H  H62  1  0.11928000  0.08108000  0.09085000  1.0
  H  H63  1  0.38072000  0.91891000  0.59085000  1.0
  H  H64  1  0.61398000  0.67702000  0.40807000  1.0
  H  H65  1  0.88602000  0.32298000  0.90807000  1.0
  H  H66  1  0.38603000  0.17701000  0.09193000  1.0
  H  H67  1  0.11398000  0.82298000  0.59193000  1.0
  H  H68  1  0.55751000  0.60489000  0.36434000  1.0
  H  H69  1  0.94249000  0.39511000  0.86434000  1.0
  H  H70  1  0.44250000  0.10488000  0.13566000  1.0
  H  H71  1  0.05750000  0.89511000  0.63566000  1.0
  H  H72  1  0.85566000  0.75402000  0.37348000  1.0
  H  H73  1  0.64434000  0.24598000  0.87348000  1.0
  H  H74  1  0.14435000  0.25402000  0.12652000  1.0
  H  H75  1  0.35566000  0.74598000  0.62652000  1.0
  H  H76  1  0.67532000  0.79300000  0.34968000  1.0
  H  H77  1  0.82468000  0.20700000  0.84968000  1.0
  H  H78  1  0.32469000  0.29300000  0.15032000  1.0
  H  H79  1  0.17531000  0.70700000  0.65032000  1.0
  H  H80  1  0.35283000  0.62236000  0.26506000  1.0
  H  H81  1  0.14717000  0.37763000  0.76506000  1.0
  H  H82  1  0.64718000  0.12236000  0.23494000  1.0
  H  H83  1  0.85282000  0.87764000  0.73494000  1.0
  H  H84  1  0.33534000  0.75413000  0.24424000  1.0
  H  H85  1  0.16465000  0.24587000  0.74424000  1.0
  H  H86  1  0.66466000  0.25413000  0.25576000  1.0
  H  H87  1  0.83534000  0.74588000  0.75576000  1.0
  H  H88  1  0.61460000  0.80025000  0.26406000  1.0
  H  H89  1  0.88539000  0.19975000  0.76405000  1.0
  H  H90  1  0.38540000  0.30024000  0.23594000  1.0
  H  H91  1  0.11460000  0.69976000  0.73594000  1.0
  H  H92  1  0.50119000  0.75623000  0.30571000  1.0
  H  H93  1  0.99881000  0.24376000  0.80571000  1.0
  H  H94  1  0.49881000  0.25623000  0.19429000  1.0
  H  H95  1  0.00118000  0.74377000  0.69429000  1.0
  H  H96  1  0.61905000  0.57382000  0.30185000  1.0
  H  H97  1  0.88095000  0.42617000  0.80185000  1.0
  H  H98  1  0.38095000  0.07382000  0.19815000  1.0
  H  H99  1  0.11905000  0.92618000  0.69815000  1.0
  H  H100  1  0.29426000  0.66861000  0.13385000  1.0
  H  H101  1  0.20573000  0.33140000  0.63385000  1.0
  H  H102  1  0.70574000  0.16860000  0.36615000  1.0
  H  H103  1  0.79426000  0.83140000  0.86615000  1.0
  H  H104  1  0.21527000  0.47503000  0.12348000  1.0
  H  H105  1  0.28471000  0.52498000  0.62348000  1.0
  H  H106  1  0.78473000  0.97502000  0.37652000  1.0
  H  H107  1  0.71528000  0.02498000  0.87652000  1.0
  H  H108  1  0.07966000  0.48310000  0.16455000  1.0
  H  H109  1  0.42032000  0.51691000  0.66456000  1.0
  H  H110  1  0.92033000  0.98309000  0.33545000  1.0
  H  H111  1  0.57967000  0.01691000  0.83545000  1.0
  H  H112  1  0.93882000  0.49314000  0.09939000  1.0
  H  H113  1  0.56117000  0.50688000  0.59939000  1.0
  H  H114  1  0.06118000  0.99313000  0.40061000  1.0
  H  H115  1  0.43882000  0.00687000  0.90061000  1.0
  H  H116  1  0.90874000  0.61588000  0.12600000  1.0
  H  H117  1  0.59125000  0.38413000  0.62601000  1.0
  H  H118  1  0.09126000  0.11587000  0.37399000  1.0
  H  H119  1  0.40874000  0.88413000  0.87399000  1.0
  H  H120  1  0.02855000  0.73212000  0.16391000  1.0
  H  H121  1  0.47144000  0.26789000  0.66391000  1.0
  H  H122  1  0.97145000  0.23211000  0.33609000  1.0
  H  H123  1  0.52855000  0.76789000  0.83609000  1.0
  H  H124  1  0.19650000  0.77251000  0.19308000  1.0
  H  H125  1  0.30351000  0.22749000  0.69308000  1.0
  H  H126  1  0.80351000  0.27251000  0.30692000  1.0
  H  H127  1  0.69650000  0.72749000  0.80692000  1.0
  H  H128  1  0.07623000  0.66059000  0.20885000  1.0
  H  H129  1  0.42377000  0.33941000  0.70885000  1.0
  H  H130  1  0.92378000  0.16059000  0.29115000  1.0
  H  H131  1  0.57623000  0.83941000  0.79115000  1.0
  H  H132  1  0.97870000  0.74714000  0.26790000  1.0
  H  H133  1  0.52130000  0.25285000  0.76790000  1.0
  H  H134  1  0.02130000  0.24715000  0.23210000  1.0
  H  H135  1  0.47870000  0.75285000  0.73210000  1.0
  H  H136  1  0.02221000  0.79320000  0.31728000  1.0
  H  H137  1  0.47779000  0.20679000  0.81729000  1.0
  H  H138  1  0.97780000  0.29320000  0.18271000  1.0
  H  H139  1  0.52220000  0.70680000  0.68271000  1.0
  H  H140  1  0.84949000  0.84278000  0.29152000  1.0
  H  H141  1  0.65052000  0.15722000  0.79152000  1.0
  H  H142  1  0.15052000  0.34278000  0.20848000  1.0
  H  H143  1  0.34948000  0.65722000  0.70848000  1.0
  H  H144  1  0.60827000  0.70186000  0.15517000  1.0
  H  H145  1  0.89173000  0.29815000  0.65517000  1.0
  H  H146  1  0.39173000  0.20186000  0.34483000  1.0
  H  H147  1  0.10827000  0.79814000  0.84483000  1.0
  H  H148  1  0.66464000  0.77274000  0.19952000  1.0
  H  H149  1  0.83535000  0.22726000  0.69952000  1.0
  H  H150  1  0.33536000  0.27274000  0.30048000  1.0
  H  H151  1  0.16464000  0.72726000  0.80048000  1.0
  H  H152  1  0.47173000  0.79482000  0.17768000  1.0
  H  H153  1  0.02827000  0.20518000  0.67768000  1.0
  H  H154  1  0.52827000  0.29482000  0.32232000  1.0
  H  H155  1  0.97173000  0.70518000  0.82232000  1.0
  H  H156  1  0.64435000  0.56296000  0.46010000  1.0
  H  H157  1  0.85564000  0.43704000  0.96010000  1.0
  H  H158  1  0.35565000  0.06296000  0.03990000  1.0
  H  H159  1  0.14435000  0.93704000  0.53990000  1.0
  H  H160  1  0.54410000  0.41148000  0.50277000  1.0
  H  H161  1  0.95590000  0.58852000  0.00277000  1.0
  H  H162  1  0.45590000  0.91149000  0.99723000  1.0
  H  H163  1  0.04410000  0.08852000  0.49723000  1.0
  H  H164  1  0.64238000  0.27265000  0.43003000  1.0
  H  H165  1  0.85763000  0.72735000  0.93003000  1.0
  H  H166  1  0.35763000  0.77265000  0.06997000  1.0
  H  H167  1  0.14238000  0.22735000  0.56997000  1.0
  H  H168  1  0.32841000  0.32436000  0.47510000  1.0
  H  H169  1  0.17159000  0.67564000  0.97510000  1.0
  H  H170  1  0.67160000  0.82436000  0.02490000  1.0
  H  H171  1  0.82841000  0.17565000  0.52490000  1.0
  H  H172  1  0.44865000  0.37463000  0.38955000  1.0
  H  H173  1  0.05135000  0.62537000  0.88956000  1.0
  H  H174  1  0.55135000  0.87463000  0.11044000  1.0
  H  H175  1  0.94865000  0.12537000  0.61044000  1.0
  H  H176  1  0.79403000  0.36591000  0.52090000  1.0
  H  H177  1  0.70597000  0.63409000  0.02090000  1.0
  H  H178  1  0.20597000  0.86591000  0.97910000  1.0
  H  H179  1  0.29403000  0.13409000  0.47910000  1.0
  H  H180  1  0.68720000  0.14947000  0.46990000  1.0
  H  H181  1  0.81280000  0.85053000  0.96990000  1.0
  H  H182  1  0.31280000  0.64948000  0.03010000  1.0
  H  H183  1  0.18720000  0.35053000  0.53010000  1.0
  H  H184  1  0.20506000  0.21285000  0.42915000  1.0
  H  H185  1  0.29494000  0.78715000  0.92915000  1.0
  H  H186  1  0.79494000  0.71285000  0.07085000  1.0
  H  H187  1  0.70507000  0.28715000  0.57085000  1.0
  H  H188  1  0.21172000  0.49227000  0.38346000  1.0
  H  H189  1  0.28827000  0.50773000  0.88346000  1.0
  H  H190  1  0.78827000  0.99227000  0.11654000  1.0
  H  H191  1  0.71172000  0.00773000  0.61654000  1.0
  H  H192  1  0.14646000  0.35533000  0.39229000  1.0
  H  H193  1  0.35353000  0.64468000  0.89229000  1.0
  H  H194  1  0.85354000  0.85533000  0.10771000  1.0
  H  H195  1  0.64647000  0.14468000  0.60772000  1.0
  H  H196  1  0.18446000  0.50637000  0.45589000  1.0
  H  H197  1  0.31554000  0.49363000  0.95589000  1.0
  H  H198  1  0.81554000  0.00638000  0.04411000  1.0
  H  H199  1  0.68445000  0.99363000  0.54411000  1.0
  C  C200  1  0.37140000  0.57049000  0.18406000  1.0
  C  C201  1  0.12859000  0.42950000  0.68406000  1.0
  C  C202  1  0.62860000  0.07049000  0.31594000  1.0
  C  C203  1  0.87140000  0.92951000  0.81594000  1.0
  C  C204  1  0.49000000  0.50194000  0.15791000  1.0
  C  C205  1  0.00999000  0.49806000  0.65791000  1.0
  C  C206  1  0.50999000  0.00194000  0.34209000  1.0
  C  C207  1  0.99001000  0.99806000  0.84209000  1.0
  C  C208  1  0.65058000  0.49419000  0.18169000  1.0
  C  C209  1  0.84942000  0.50581000  0.68170000  1.0
  C  C210  1  0.34942000  0.99419000  0.31831000  1.0
  C  C211  1  0.15058000  0.00581000  0.81831000  1.0
  C  C212  1  0.61271000  0.55148000  0.22152000  1.0
  C  C213  1  0.88729000  0.44852000  0.72152000  1.0
  C  C214  1  0.38729000  0.05148000  0.27848000  1.0
  C  C215  1  0.11270000  0.94852000  0.77848000  1.0
  C  C216  1  0.75320000  0.58950000  0.24768000  1.0
  C  C217  1  0.74680000  0.41050000  0.74768000  1.0
  C  C218  1  0.24680000  0.08950000  0.25233000  1.0
  C  C219  1  0.25320000  0.91050000  0.75232000  1.0
  C  C220  1  0.86761000  0.49481000  0.25748000  1.0
  C  C221  1  0.63239000  0.50519000  0.75748000  1.0
  C  C222  1  0.13239000  0.99481000  0.24252000  1.0
  C  C223  1  0.36761000  0.00519000  0.74252000  1.0
  C  C224  1  0.00042000  0.52575000  0.28746000  1.0
  C  C225  1  0.49958000  0.47425000  0.78746000  1.0
  C  C226  1  0.99958000  0.02575000  0.21254000  1.0
  C  C227  1  0.50042000  0.97425000  0.71254000  1.0
  C  C228  1  0.93288000  0.57952000  0.32567000  1.0
  C  C229  1  0.56712000  0.42048000  0.82567000  1.0
  C  C230  1  0.06712000  0.07951000  0.17433000  1.0
  C  C231  1  0.43288000  0.92048000  0.67433000  1.0
  C  C232  1  0.84735000  0.49616000  0.35282000  1.0
  C  C233  1  0.65264000  0.50384000  0.85282000  1.0
  C  C234  1  0.15265000  0.99616000  0.14718000  1.0
  C  C235  1  0.34735000  0.00384000  0.64718000  1.0
  C  C236  1  0.78010000  0.54685000  0.39111000  1.0
  C  C237  1  0.71990000  0.45315000  0.89111000  1.0
  C  C238  1  0.21991000  0.04685000  0.10889000  1.0
  C  C239  1  0.28010000  0.95315000  0.60889000  1.0
  C  C240  1  0.66227000  0.63822000  0.38076000  1.0
  C  C241  1  0.83773000  0.36178000  0.88077000  1.0
  C  C242  1  0.33774000  0.13822000  0.11924000  1.0
  C  C243  1  0.16226000  0.86178000  0.61924000  1.0
  C  C244  1  0.75318000  0.72246000  0.35557000  1.0
  C  C245  1  0.74682000  0.27754000  0.85557000  1.0
  C  C246  1  0.24683000  0.22246000  0.14443000  1.0
  C  C247  1  0.25317000  0.77754000  0.64443000  1.0
  C  C248  1  0.82196000  0.67835000  0.31560000  1.0
  C  C249  1  0.67804000  0.32165000  0.81560000  1.0
  C  C250  1  0.17805000  0.17835000  0.18440000  1.0
  C  C251  1  0.32196000  0.82165000  0.68440000  1.0
  C  C252  1  0.42127000  0.68728000  0.24956000  1.0
  C  C253  1  0.07873000  0.31271000  0.74956000  1.0
  C  C254  1  0.57873000  0.18728000  0.25045000  1.0
  C  C255  1  0.92127000  0.81272000  0.75044000  1.0
  C  C256  1  0.55679000  0.72802000  0.27748000  1.0
  C  C257  1  0.94321000  0.27198000  0.77748000  1.0
  C  C258  1  0.44322000  0.22801000  0.22252000  1.0
  C  C259  1  0.05678000  0.77198000  0.72252000  1.0
  C  C260  1  0.68475000  0.64059000  0.28660000  1.0
  C  C261  1  0.81525000  0.35941000  0.78660000  1.0
  C  C262  1  0.31526000  0.14059000  0.21340000  1.0
  C  C263  1  0.18474000  0.85941000  0.71340000  1.0
  C  C264  1  0.48851000  0.64105000  0.20998000  1.0
  C  C265  1  0.01149000  0.35895000  0.70998000  1.0
  C  C266  1  0.51149000  0.14105000  0.29002000  1.0
  C  C267  1  0.98851000  0.85895000  0.79002000  1.0
  C  C268  1  0.23636000  0.62292000  0.15864000  1.0
  C  C269  1  0.26364000  0.37709000  0.65864000  1.0
  C  C270  1  0.76365000  0.12291000  0.34136000  1.0
  C  C271  1  0.73636000  0.87709000  0.84136000  1.0
  C  C272  1  0.13478000  0.53045000  0.13993000  1.0
  C  C273  1  0.36521000  0.46955000  0.63993000  1.0
  C  C274  1  0.86522000  0.03045000  0.36007000  1.0
  C  C275  1  0.63478000  0.96955000  0.86007000  1.0
  C  C276  1  0.00104000  0.56610000  0.11097000  1.0
  C  C277  1  0.49895000  0.43391000  0.61097000  1.0
  C  C278  1  0.99896000  0.06609000  0.38903000  1.0
  C  C279  1  0.50105000  0.93391000  0.88903000  1.0
  C  C280  1  0.06754000  0.62857000  0.07504000  1.0
  C  C281  1  0.43245000  0.37144000  0.57504000  1.0
  C  C282  1  0.93246000  0.12857000  0.42496000  1.0
  C  C283  1  0.56754000  0.87143000  0.92496000  1.0
  C  C284  1  0.12893000  0.70136000  0.18242000  1.0
  C  C285  1  0.37107000  0.29865000  0.68242000  1.0
  C  C286  1  0.87108000  0.20135000  0.31758000  1.0
  C  C287  1  0.62892000  0.79865000  0.81758000  1.0
  C  C288  1  0.92355000  0.76986000  0.29673000  1.0
  C  C289  1  0.57645000  0.23014000  0.79673000  1.0
  C  C290  1  0.07645000  0.26986000  0.20327000  1.0
  C  C291  1  0.42355000  0.73014000  0.70327000  1.0
  C  C292  1  0.56333000  0.73218000  0.18421000  1.0
  C  C293  1  0.93666000  0.26783000  0.68421000  1.0
  C  C294  1  0.43667000  0.23218000  0.31579000  1.0
  C  C295  1  0.06333000  0.76782000  0.81579000  1.0
  C  C296  1  0.61213000  0.48387000  0.44673000  1.0
  C  C297  1  0.88787000  0.51614000  0.94674000  1.0
  C  C298  1  0.38787000  0.98387000  0.05326000  1.0
  C  C299  1  0.11212000  0.01613000  0.55326000  1.0
  C  C300  1  0.62730000  0.39269000  0.47784000  1.0
  C  C301  1  0.87271000  0.60731000  0.97784000  1.0
  C  C302  1  0.37271000  0.89269000  0.02216000  1.0
  C  C303  1  0.12729000  0.10731000  0.52216000  1.0
  C  C304  1  0.57260000  0.28538000  0.45793000  1.0
  C  C305  1  0.92740000  0.71462000  0.95793000  1.0
  C  C306  1  0.42740000  0.78538000  0.04207000  1.0
  C  C307  1  0.07260000  0.21462000  0.54207000  1.0
  C  C308  1  0.39353000  0.30123000  0.44740000  1.0
  C  C309  1  0.10648000  0.69877000  0.94740000  1.0
  C  C310  1  0.60648000  0.80123000  0.05260000  1.0
  C  C311  1  0.89353000  0.19877000  0.55260000  1.0
  C  C312  1  0.38083000  0.39590000  0.41712000  1.0
  C  C313  1  0.11917000  0.60410000  0.91712000  1.0
  C  C314  1  0.61917000  0.89590000  0.08288000  1.0
  C  C315  1  0.88083000  0.10410000  0.58288000  1.0
  C  C316  1  0.20891000  0.42541000  0.40560000  1.0
  C  C317  1  0.29109000  0.57459000  0.90560000  1.0
  C  C318  1  0.79109000  0.92541000  0.09440000  1.0
  C  C319  1  0.70891000  0.07459000  0.59440000  1.0
  O  O320  1  0.99847000  0.71933000  0.06625000  1.0
  O  O321  1  0.50153000  0.28068000  0.56625000  1.0
  O  O322  1  0.00154000  0.21932000  0.43375000  1.0
  O  O323  1  0.49847000  0.78067000  0.93375000  1.0
  O  O324  1  0.18494000  0.58734000  0.05595000  1.0
  O  O325  1  0.31507000  0.41266000  0.55595000  1.0
  O  O326  1  0.81506000  0.08734000  0.44405000  1.0
  O  O327  1  0.68494000  0.91266000  0.94405000  1.0
  O  O328  1  0.71182000  0.45762000  0.41394000  1.0
  O  O329  1  0.78818000  0.54238000  0.91394000  1.0
  O  O330  1  0.28818000  0.95762000  0.08606000  1.0
  O  O331  1  0.21182000  0.04238000  0.58606000  1.0
  O  O332  1  0.44568000  0.49434000  0.43476000  1.0
  O  O333  1  0.05432000  0.50567000  0.93477000  1.0
  O  O334  1  0.55432000  0.99433000  0.06523000  1.0
  O  O335  1  0.94568000  0.00567000  0.56523000  1.0
  O  O336  1  0.78951000  0.39069000  0.49235000  1.0
  O  O337  1  0.71049000  0.60931000  0.99235000  1.0
  O  O338  1  0.21050000  0.89070000  0.00765000  1.0
  O  O339  1  0.28951000  0.10931000  0.50765000  1.0
  O  O340  1  0.59918000  0.19447000  0.48353000  1.0
  O  O341  1  0.90082000  0.80554000  0.98353000  1.0
  O  O342  1  0.40082000  0.69447000  0.01647000  1.0
  O  O343  1  0.09918000  0.30553000  0.51647000  1.0
  O  O344  1  0.32557000  0.20239000  0.43190000  1.0
  O  O345  1  0.17444000  0.79761000  0.93191000  1.0
  O  O346  1  0.67444000  0.70240000  0.06809000  1.0
  O  O347  1  0.82556000  0.29761000  0.56809000  1.0
  O  O348  1  0.11541000  0.45745000  0.44028000  1.0
  O  O349  1  0.38459000  0.54255000  0.94028000  1.0
  O  O350  1  0.88460000  0.95745000  0.05972000  1.0
  O  O351  1  0.61540000  0.04255000  0.55972000  1.0
