# generated using pymatgen
data_ZnH20C26(N3O5)2
_symmetry_space_group_name_H-M   'P 1'
_cell_length_a   9.49383000
_cell_length_b   10.32890000
_cell_length_c   14.29460000
_cell_angle_alpha   109.37900000
_cell_angle_beta   94.67460000
_cell_angle_gamma   103.97200000
_symmetry_Int_Tables_number   1
_chemical_formula_structural   ZnH20C26(N3O5)2
_chemical_formula_sum   'Zn2 H40 C52 N12 O20'
_cell_volume   1263.04606905
_cell_formula_units_Z   2
loop_
 _symmetry_equiv_pos_site_id
 _symmetry_equiv_pos_as_xyz
  1  'x, y, z'
loop_
 _atom_site_type_symbol
 _atom_site_label
 _atom_site_symmetry_multiplicity
 _atom_site_fract_x
 _atom_site_fract_y
 _atom_site_fract_z
 _atom_site_occupancy
  Zn  Zn0  1  0.89550000  0.14067000  0.11284000  1.0
  Zn  Zn1  1  0.10450000  0.85933000  0.88716000  1.0
  H  H2  1  0.43138000  0.50519000  0.57260000  1.0
  H  H3  1  0.56862000  0.49481000  0.42740000  1.0
  H  H4  1  0.24489000  0.44763000  0.58385000  1.0
  H  H5  1  0.75511000  0.55237000  0.41615000  1.0
  H  H6  1  0.30080000  0.70924000  0.69270000  1.0
  H  H7  1  0.69920000  0.29076000  0.30730000  1.0
  H  H8  1  0.48660000  0.75290000  0.67449000  1.0
  H  H9  1  0.51340000  0.24710000  0.32551000  1.0
  H  H10  1  0.08577000  0.59444000  0.47341000  1.0
  H  H11  1  0.91424000  0.40556000  0.52659000  1.0
  H  H12  1  0.34014000  0.76464000  0.53047000  1.0
  H  H13  1  0.65987000  0.23535000  0.46952000  1.0
  H  H14  1  0.38894000  0.68548000  0.22185000  1.0
  H  H15  1  0.61106000  0.31452000  0.77815000  1.0
  H  H16  1  0.13196000  0.51470000  0.16404000  1.0
  H  H17  1  0.86804000  0.48529000  0.83596000  1.0
  H  H18  1  0.35341000  0.37524000  0.21065000  1.0
  H  H19  1  0.64659000  0.62475000  0.78935000  1.0
  H  H20  1  0.61115000  0.53584000  0.24589000  1.0
  H  H21  1  0.38885000  0.46417000  0.75411000  1.0
  H  H22  1  0.64317000  0.35440000  0.93443000  1.0
  H  H23  1  0.35683000  0.64560000  0.06557000  1.0
  H  H24  1  0.38172000  0.19507000  0.89803000  1.0
  H  H25  1  0.61828000  0.80493000  0.10197000  1.0
  H  H26  1  0.16782000  0.27116000  0.26147000  1.0
  H  H27  1  0.83218000  0.72884000  0.73854000  1.0
  H  H28  1  0.09987000  0.19413000  0.53536000  1.0
  H  H29  1  0.90013000  0.80588000  0.46464000  1.0
  H  H30  1  0.85154000  0.02234000  0.44017000  1.0
  H  H31  1  0.14846000  0.97766000  0.55983000  1.0
  H  H32  1  0.77529000  0.99126000  0.26159000  1.0
  H  H33  1  0.22471000  0.00874000  0.73840000  1.0
  H  H34  1  0.60018000  0.99921000  0.98464000  1.0
  H  H35  1  0.39982000  0.00079000  0.01536000  1.0
  H  H36  1  0.64057000  0.98798000  0.68366000  1.0
  H  H37  1  0.35943000  0.01202000  0.31634000  1.0
  H  H38  1  0.89329000  0.16466000  0.75819000  1.0
  H  H39  1  0.10671000  0.83534000  0.24181000  1.0
  H  H40  1  0.98201000  0.24883000  0.94158000  1.0
  H  H41  1  0.01799000  0.75117000  0.05842000  1.0
  C  C42  1  0.94139000  0.43938000  0.28079000  1.0
  C  C43  1  0.05861000  0.56062000  0.71921000  1.0
  C  C44  1  0.09324000  0.54597000  0.31522000  1.0
  C  C45  1  0.90676000  0.45403000  0.68478000  1.0
  C  C46  1  0.15163000  0.61587000  0.41844000  1.0
  C  C47  1  0.84838000  0.38412000  0.58155000  1.0
  C  C48  1  0.29333000  0.70970000  0.45083000  1.0
  C  C49  1  0.70667000  0.29029000  0.54916000  1.0
  C  C50  1  0.37570000  0.73252000  0.37821000  1.0
  C  C51  1  0.62430000  0.26748000  0.62179000  1.0
  C  C52  1  0.31990000  0.66456000  0.27516000  1.0
  C  C53  1  0.68010000  0.33543000  0.72484000  1.0
  C  C54  1  0.17822000  0.57082000  0.24382000  1.0
  C  C55  1  0.82178000  0.42917000  0.75618000  1.0
  C  C56  1  0.19324000  0.18398000  0.02898000  1.0
  C  C57  1  0.80676000  0.81602000  0.97102000  1.0
  C  C58  1  0.35042000  0.27828000  0.05148000  1.0
  C  C59  1  0.64958000  0.72172000  0.94852000  1.0
  C  C60  1  0.41578000  0.37221000  0.14988000  1.0
  C  C61  1  0.58422000  0.62779000  0.85012000  1.0
  C  C62  1  0.55918000  0.46097000  0.17036000  1.0
  C  C63  1  0.44082000  0.53903000  0.82964000  1.0
  C  C64  1  0.63713000  0.45339000  0.09112000  1.0
  C  C65  1  0.36286000  0.54661000  0.90888000  1.0
  C  C66  1  0.57661000  0.35783000  0.99308000  1.0
  C  C67  1  0.42338000  0.64217000  0.00692000  1.0
  C  C68  1  0.43263000  0.27081000  0.97355000  1.0
  C  C69  1  0.56737000  0.72919000  0.02645000  1.0
  C  C70  1  0.10125000  0.21900000  0.30428000  1.0
  C  C71  1  0.89876000  0.78101000  0.69572000  1.0
  C  C72  1  0.15365000  0.24465000  0.40467000  1.0
  C  C73  1  0.84635000  0.75535000  0.59533000  1.0
  C  C74  1  0.06323000  0.17531000  0.45642000  1.0
  C  C75  1  0.93677000  0.82469000  0.54359000  1.0
  C  C76  1  0.92639000  0.08051000  0.40436000  1.0
  C  C77  1  0.07361000  0.91949000  0.59564000  1.0
  C  C78  1  0.88204000  0.06244000  0.30433000  1.0
  C  C79  1  0.11796000  0.93756000  0.69567000  1.0
  C  C80  1  0.30363000  0.34600000  0.44905000  1.0
  C  C81  1  0.69637000  0.65400000  0.55096000  1.0
  C  C82  1  0.65979000  0.03354000  0.93132000  1.0
  C  C83  1  0.34021000  0.96645000  0.06868000  1.0
  C  C84  1  0.59777000  0.98445000  0.82961000  1.0
  C  C85  1  0.40223000  0.01555000  0.17039000  1.0
  C  C86  1  0.68356000  0.02702000  0.76412000  1.0
  C  C87  1  0.31643000  0.97298000  0.23588000  1.0
  C  C88  1  0.82325000  0.12383000  0.80470000  1.0
  C  C89  1  0.17675000  0.87617000  0.19530000  1.0
  C  C90  1  0.87541000  0.17051000  0.90768000  1.0
  C  C91  1  0.12460000  0.82949000  0.09232000  1.0
  C  C92  1  0.44079000  0.89306000  0.79857000  1.0
  C  C93  1  0.55921000  0.10694000  0.20143000  1.0
  N  N94  1  0.52550000  0.82979000  0.41035000  1.0
  N  N95  1  0.47450000  0.17022000  0.58965000  1.0
  N  N96  1  0.78544000  0.55134000  0.11054000  1.0
  N  N97  1  0.21455000  0.44866000  0.88946000  1.0
  N  N98  1  0.96715000  0.13297000  0.25567000  1.0
  N  N99  1  0.03286000  0.86703000  0.74433000  1.0
  N  N100  1  0.33042000  0.42762000  0.54681000  1.0
  N  N101  1  0.66958000  0.57238000  0.45319000  1.0
  N  N102  1  0.79666000  0.12201000  0.96964000  1.0
  N  N103  1  0.20334000  0.87799000  0.03036000  1.0
  N  N104  1  0.40433000  0.78370000  0.71037000  1.0
  N  N105  1  0.59567000  0.21630000  0.28963000  1.0
  O  O106  1  0.86085000  0.43628000  0.34736000  1.0
  O  O107  1  0.13916000  0.56373000  0.65265000  1.0
  O  O108  1  0.90621000  0.35887000  0.18829000  1.0
  O  O109  1  0.09378000  0.64113000  0.81172000  1.0
  O  O110  1  0.59463000  0.85189000  0.34419000  1.0
  O  O111  1  0.40538000  0.14810000  0.65580000  1.0
  O  O112  1  0.57742000  0.88566000  0.50204000  1.0
  O  O113  1  0.42257000  0.11436000  0.49796000  1.0
  O  O114  1  0.14830000  0.08581000  0.94278000  1.0
  O  O115  1  0.85170000  0.91419000  0.05722000  1.0
  O  O116  1  0.11772000  0.21314000  0.09878000  1.0
  O  O117  1  0.88228000  0.78686000  0.90123000  1.0
  O  O118  1  0.85605000  0.53632000  0.04013000  1.0
  O  O119  1  0.14394000  0.46368000  0.95987000  1.0
  O  O120  1  0.83195000  0.64606000  0.19570000  1.0
  O  O121  1  0.16805000  0.35394000  0.80430000  1.0
  O  O122  1  0.39897000  0.35232000  0.39301000  1.0
  O  O123  1  0.60103000  0.64768000  0.60700000  1.0
  O  O124  1  0.35144000  0.92539000  0.85617000  1.0
  O  O125  1  0.64856000  0.07461000  0.14383000  1.0
