# generated using pymatgen
data_ZnH8C24I4N2O7
_symmetry_space_group_name_H-M   'P 1'
_cell_length_a   9.58107000
_cell_length_b   9.92973000
_cell_length_c   26.46107497
_cell_angle_alpha   98.13351653
_cell_angle_beta   90.49752646
_cell_angle_gamma   84.94270000
_symmetry_Int_Tables_number   1
_chemical_formula_structural   ZnH8C24I4N2O7
_chemical_formula_sum   'Zn2 H16 C48 I8 N4 O14'
_cell_volume   2482.39609637
_cell_formula_units_Z   2
loop_
 _symmetry_equiv_pos_site_id
 _symmetry_equiv_pos_as_xyz
  1  'x, y, z'
loop_
 _atom_site_type_symbol
 _atom_site_label
 _atom_site_symmetry_multiplicity
 _atom_site_fract_x
 _atom_site_fract_y
 _atom_site_fract_z
 _atom_site_occupancy
  Zn  Zn0  1  0.13264000  0.53832000  0.48717000  1.0
  Zn  Zn1  1  0.86780000  0.48431000  0.52631000  1.0
  H  H2  1  0.02145000  0.60655000  0.33392000  1.0
  H  H3  1  0.58416000  0.39076000  0.28525000  1.0
  H  H4  1  0.38303000  0.82950000  0.99482000  1.0
  H  H5  1  0.60526000  0.14625000  0.01646000  1.0
  H  H6  1  0.44774000  0.83207000  0.06407000  1.0
  H  H7  1  0.54342000  0.14426000  0.94699000  1.0
  H  H8  1  0.27113000  0.68693000  0.41525000  1.0
  H  H9  1  0.67881000  0.34458000  0.59310000  1.0
  H  H10  1  0.99092000  0.37578000  0.66934000  1.0
  H  H11  1  0.38476000  0.43970000  0.52413000  1.0
  H  H12  1  0.62344000  0.58209000  0.47771000  1.0
  H  H13  1  0.93097000  0.60179000  0.24467000  1.0
  H  H14  1  0.07593000  0.36286000  0.75824000  1.0
  H  H15  1  0.53496000  0.82835000  0.15181000  1.0
  H  H16  1  0.45934000  0.14857000  0.85889000  1.0
  H  H17  1  0.41637000  0.59822000  0.73019000  1.0
  C  C18  1  0.91610000  0.76383000  0.51830000  1.0
  C  C19  1  0.33797000  0.61164000  0.88589000  1.0
  C  C20  1  0.85314000  0.50796000  0.36042000  1.0
  C  C21  1  0.15592000  0.49011000  0.64914000  1.0
  C  C22  1  0.43959000  0.61275000  0.98820000  1.0
  C  C23  1  0.54921000  0.36316000  0.02310000  1.0
  C  C24  1  0.49869000  0.36179000  0.97061000  1.0
  C  C25  1  0.49066000  0.61420000  0.04063000  1.0
  C  C26  1  0.44423000  0.48704000  0.95428000  1.0
  C  C27  1  0.54482000  0.48890000  0.05700000  1.0
  C  C28  1  0.38661000  0.73200000  0.97010000  1.0
  C  C29  1  0.03996000  0.26011000  0.46565000  1.0
  C  C30  1  0.60187000  0.24376000  0.04118000  1.0
  C  C31  1  0.33643000  0.73281000  0.92012000  1.0
  C  C32  1  0.65221000  0.24286000  0.09112000  1.0
  C  C33  1  0.91560000  0.52269000  0.41295000  1.0
  C  C34  1  0.09557000  0.49124000  0.59666000  1.0
  C  C35  1  0.48808000  0.73473000  0.07527000  1.0
  C  C36  1  0.50263000  0.24149000  0.93582000  1.0
  C  C37  1  0.88732000  0.89146000  0.49407000  1.0
  C  C38  1  0.01905000  0.14807000  0.42183000  1.0
  C  C39  1  0.98471000  0.95896000  0.47300000  1.0
  C  C40  1  0.59590000  0.48805000  0.10801000  1.0
  C  C41  1  0.97154000  0.02641000  0.42732000  1.0
  C  C42  1  0.57890000  0.50900000  0.49857000  1.0
  C  C43  1  0.42747000  0.50110000  0.49790000  1.0
  C  C44  1  0.64324000  0.62068000  0.19439000  1.0
  C  C45  1  0.35319000  0.35654000  0.81591000  1.0
  C  C46  1  0.70612000  0.36779000  0.17796000  1.0
  C  C47  1  0.28341000  0.60798000  0.83314000  1.0
  C  C48  1  0.67887000  0.44045000  0.29626000  1.0
  C  C49  1  0.32426000  0.54755000  0.71644000  1.0
  C  C50  1  0.73119000  0.44300000  0.34587000  1.0
  C  C51  1  0.39371000  0.48793000  0.90319000  1.0
  C  C52  1  0.27737000  0.55186000  0.66652000  1.0
  C  C53  1  0.92400000  0.56227000  0.32274000  1.0
  C  C54  1  0.08509000  0.42294000  0.68311000  1.0
  C  C55  1  0.87437000  0.55857000  0.27318000  1.0
  C  C56  1  0.13164000  0.41659000  0.73266000  1.0
  C  C57  1  0.75006000  0.49899000  0.26046000  1.0
  C  C58  1  0.25095000  0.48055000  0.74914000  1.0
  C  C59  1  0.36745000  0.64188000  0.43182000  1.0
  C  C60  1  0.61947000  0.34571000  0.55698000  1.0
  C  C61  1  0.59143000  0.61337000  0.14148000  1.0
  C  C62  1  0.40048000  0.36303000  0.86944000  1.0
  C  C63  1  0.53745000  0.73415000  0.12492000  1.0
  C  C64  1  0.45485000  0.24240000  0.88598000  1.0
  C  C65  1  0.65105000  0.36410000  0.12532000  1.0
  I  I66  1  0.06830000  0.19986000  0.35046000  1.0
  I  I67  1  0.67473000  0.94628000  0.48024000  1.0
  I  I68  1  0.39458000  0.66666667  0.62344000  1.0
  I  I69  1  0.62384000  0.32626000  0.39127000  1.0
  I  I70  1  0.26664000  0.92874000  0.90346000  1.0
  I  I71  1  0.72322000  0.04715000  0.10771000  1.0
  I  I72  1  0.90572000  0.89641000  0.36243000  1.0
  I  I73  1  0.19625000  0.95376000  0.50058000  1.0
  N  N74  1  0.69566000  0.49558000  0.20936000  1.0
  N  N75  1  0.29905000  0.48127000  0.80104000  1.0
  N  N76  1  0.66200000  0.44631000  0.52902000  1.0
  N  N77  1  0.33493000  0.56578000  0.47134000  1.0
  O  O78  1  0.04457000  0.72110000  0.52299000  1.0
  O  O79  1  0.36009000  0.25015000  0.78566000  1.0
  O  O80  1  0.22604000  0.70856000  0.81667000  1.0
  O  O81  1  0.76054000  0.26667000  0.19492000  1.0
  O  O82  1  0.48503000  0.65219000  0.41632000  1.0
  O  O83  1  0.53354000  0.26507000  0.54275000  1.0
  O  O84  1  0.95041000  0.27700000  0.50158000  1.0
  O  O85  1  0.81358000  0.69900000  0.52808000  1.0
  O  O86  1  0.13855000  0.33460000  0.46032000  1.0
  O  O87  1  0.03271000  0.57400000  0.41936000  1.0
  O  O88  1  0.96219000  0.49200000  0.59349000  1.0
  O  O89  1  0.84662000  0.48245000  0.44790000  1.0
  O  O90  1  0.17946000  0.48987000  0.55999000  1.0
  O  O91  1  0.64214000  0.72790000  0.22405000  1.0
