# generated using pymatgen
data_CdH18C26S2(N3O2)2
_symmetry_space_group_name_H-M   'P 1'
_cell_length_a   10.03480000
_cell_length_b   11.59790000
_cell_length_c   11.76760000
_cell_angle_alpha   65.31370000
_cell_angle_beta   77.46660000
_cell_angle_gamma   77.07620000
_symmetry_Int_Tables_number   1
_chemical_formula_structural   CdH18C26S2(N3O2)2
_chemical_formula_sum   'Cd2 H36 C52 S4 N12 O8'
_cell_volume   1200.98590999
_cell_formula_units_Z   2
loop_
 _symmetry_equiv_pos_site_id
 _symmetry_equiv_pos_as_xyz
  1  'x, y, z'
loop_
 _atom_site_type_symbol
 _atom_site_label
 _atom_site_symmetry_multiplicity
 _atom_site_fract_x
 _atom_site_fract_y
 _atom_site_fract_z
 _atom_site_occupancy
  Cd  Cd0  1  0.30170000  0.70439000  0.09565000  1.0
  Cd  Cd1  1  0.69830000  0.29561000  0.90435000  1.0
  H  H2  1  0.43144000  0.09484000  0.06378000  1.0
  H  H3  1  0.56856000  0.90516000  0.93622000  1.0
  H  H4  1  0.46564000  0.92579000  0.11225000  1.0
  H  H5  1  0.53436000  0.07421000  0.88775000  1.0
  H  H6  1  0.41161000  0.41170000  0.14755000  1.0
  H  H7  1  0.58839000  0.58830000  0.85245000  1.0
  H  H8  1  0.34850000  0.26313000  0.20842000  1.0
  H  H9  1  0.65150000  0.73687000  0.79158000  1.0
  H  H10  1  0.13471000  0.99143000  0.03324000  1.0
  H  H11  1  0.86529000  0.00857000  0.96676000  1.0
  H  H12  1  0.01565000  0.14308000  0.13916000  1.0
  H  H13  1  0.98435000  0.85692000  0.86084000  1.0
  H  H14  1  0.96783000  0.05601000  0.37614000  1.0
  H  H15  1  0.03217000  0.94399000  0.62386000  1.0
  H  H16  1  0.03735000  0.82168000  0.49630000  1.0
  H  H17  1  0.96265000  0.17831000  0.50370000  1.0
  H  H18  1  0.02594000  0.62081000  0.56531000  1.0
  H  H19  1  0.97406000  0.37919000  0.43470000  1.0
  H  H20  1  0.13348000  0.39441000  0.67532000  1.0
  H  H21  1  0.86652000  0.60559000  0.32468000  1.0
  H  H22  1  0.34490000  0.30345000  0.56448000  1.0
  H  H23  1  0.65510000  0.69655000  0.43552000  1.0
  H  H24  1  0.42996000  0.43904000  0.33926000  1.0
  H  H25  1  0.57003000  0.56096000  0.66074000  1.0
  H  H26  1  0.00367000  0.78862000  0.07572000  1.0
  H  H27  1  0.99633000  0.21138000  0.92428000  1.0
  H  H28  1  0.74952000  0.82574000  0.07309000  1.0
  H  H29  1  0.25048000  0.17426000  0.92691000  1.0
  H  H30  1  0.75243000  0.42454000  0.16592000  1.0
  H  H31  1  0.24757000  0.57546000  0.83408000  1.0
  H  H32  1  0.27062000  0.20601000  0.46093000  1.0
  H  H33  1  0.72938000  0.79399000  0.53907000  1.0
  H  H34  1  0.25355000  0.09155000  0.69664000  1.0
  H  H35  1  0.74644000  0.90845000  0.30336000  1.0
  H  H36  1  0.38144000  0.72720000  0.66299000  1.0
  H  H37  1  0.61857000  0.27280000  0.33701000  1.0
  C  C38  1  0.11042000  0.95911000  0.13570000  1.0
  C  C39  1  0.88958000  0.04089000  0.86430000  1.0
  C  C40  1  0.04452000  0.04213000  0.19531000  1.0
  C  C41  1  0.95548000  0.95787000  0.80469000  1.0
  C  C42  1  0.01821000  0.99334000  0.32657000  1.0
  C  C43  1  0.98179000  0.00666000  0.67343000  1.0
  C  C44  1  0.05590000  0.86284000  0.39355000  1.0
  C  C45  1  0.94410000  0.13716000  0.60645000  1.0
  C  C46  1  0.12223000  0.78511000  0.32725000  1.0
  C  C47  1  0.87777000  0.21489000  0.67275000  1.0
  C  C48  1  0.17347000  0.64786000  0.39502000  1.0
  C  C49  1  0.82653000  0.35214000  0.60498000  1.0
  C  C50  1  0.11630000  0.57784000  0.51838000  1.0
  C  C51  1  0.88370000  0.42216000  0.48162000  1.0
  C  C52  1  0.17628000  0.45179000  0.57984000  1.0
  C  C53  1  0.82372000  0.54821000  0.42016000  1.0
  C  C54  1  0.29238000  0.40009000  0.51762000  1.0
  C  C55  1  0.70762000  0.59991000  0.48238000  1.0
  C  C56  1  0.34079000  0.47485000  0.39355000  1.0
  C  C57  1  0.65920000  0.52515000  0.60645000  1.0
  C  C58  1  0.02247000  0.58484000  0.12516000  1.0
  C  C59  1  0.97753000  0.41515000  0.87484000  1.0
  C  C60  1  0.94919000  0.70943000  0.09586000  1.0
  C  C61  1  0.05081000  0.29057000  0.90414000  1.0
  C  C62  1  0.80751000  0.72949000  0.09441000  1.0
  C  C63  1  0.19249000  0.27051000  0.90559000  1.0
  C  C64  1  0.73671000  0.62777000  0.11926000  1.0
  C  C65  1  0.26329000  0.37223000  0.88074000  1.0
  C  C66  1  0.80838000  0.50190000  0.14979000  1.0
  C  C67  1  0.19162000  0.49811000  0.85021000  1.0
  C  C68  1  0.94930000  0.48193000  0.15464000  1.0
  C  C69  1  0.05070000  0.51807000  0.84536000  1.0
  C  C70  1  0.20153000  0.42440000  0.16439000  1.0
  C  C71  1  0.79847000  0.57560000  0.83561000  1.0
  C  C72  1  0.33575000  0.03125000  0.42810000  1.0
  C  C73  1  0.66425000  0.96875000  0.57190000  1.0
  C  C74  1  0.29430000  0.10184000  0.50486000  1.0
  C  C75  1  0.70570000  0.89816000  0.49514000  1.0
  C  C76  1  0.28561000  0.03820000  0.63547000  1.0
  C  C77  1  0.71439000  0.96180000  0.36453000  1.0
  C  C78  1  0.31656000  0.90375000  0.69312000  1.0
  C  C79  1  0.68344000  0.09625000  0.30687000  1.0
  C  C80  1  0.35673000  0.83125000  0.61771000  1.0
  C  C81  1  0.64327000  0.16875000  0.38228000  1.0
  C  C82  1  0.36593000  0.89505000  0.48727000  1.0
  C  C83  1  0.63407000  0.10495000  0.51272000  1.0
  C  C84  1  0.39702000  0.98883000  0.25455000  1.0
  C  C85  1  0.60298000  0.01117000  0.74545000  1.0
  C  C86  1  0.30773000  0.83752000  0.83391000  1.0
  C  C87  1  0.69227000  0.16248000  0.16609000  1.0
  C  C88  1  0.58569000  0.65256000  0.11198000  1.0
  C  C89  1  0.41432000  0.34744000  0.88802000  1.0
  S  S90  1  0.41863000  0.83131000  0.37184000  1.0
  S  S91  1  0.58137000  0.16869000  0.62816000  1.0
  S  S92  1  0.06401000  0.33813000  0.19466000  1.0
  S  S93  1  0.93599000  0.66187000  0.80533000  1.0
  N  N94  1  0.14995000  0.83365000  0.19996000  1.0
  N  N95  1  0.85005000  0.16635000  0.80004000  1.0
  N  N96  1  0.28160000  0.59525000  0.33290000  1.0
  N  N97  1  0.71840000  0.40475000  0.66710000  1.0
  N  N98  1  0.35289000  0.08133000  0.29764000  1.0
  N  N99  1  0.64711000  0.91867000  0.70236000  1.0
  N  N100  1  0.42449000  0.00470000  0.13322000  1.0
  N  N101  1  0.57552000  0.99530000  0.86678000  1.0
  N  N102  1  0.16247000  0.55030000  0.13072000  1.0
  N  N103  1  0.83753000  0.44970000  0.86928000  1.0
  N  N104  1  0.32970000  0.36249000  0.17597000  1.0
  N  N105  1  0.67030000  0.63751000  0.82402000  1.0
  O  O106  1  0.35428000  0.71761000  0.88097000  1.0
  O  O107  1  0.64572000  0.28239000  0.11903000  1.0
  O  O108  1  0.25415000  0.90178000  0.90255000  1.0
  O  O109  1  0.74585000  0.09822000  0.09745000  1.0
  O  O110  1  0.52379000  0.56034000  0.13274000  1.0
  O  O111  1  0.47621000  0.43966000  0.86726000  1.0
  O  O112  1  0.52157000  0.76909000  0.08358000  1.0
  O  O113  1  0.47843000  0.23091000  0.91642000  1.0
