# generated using pymatgen
data_CoH3C8N2OF6
_symmetry_space_group_name_H-M   'P 1'
_cell_length_a   12.12670000
_cell_length_b   15.60673656
_cell_length_c   15.60673656
_cell_angle_alpha   81.33007634
_cell_angle_beta   67.17705939
_cell_angle_gamma   67.17705939
_symmetry_Int_Tables_number   1
_chemical_formula_structural   CoH3C8N2OF6
_chemical_formula_sum   'Co8 H24 C64 N16 O8 F48'
_cell_volume   2509.30497231
_cell_formula_units_Z   8
loop_
 _symmetry_equiv_pos_site_id
 _symmetry_equiv_pos_as_xyz
  1  'x, y, z'
loop_
 _atom_site_type_symbol
 _atom_site_label
 _atom_site_symmetry_multiplicity
 _atom_site_fract_x
 _atom_site_fract_y
 _atom_site_fract_z
 _atom_site_occupancy
  Co  Co0  1  0.02780000  0.22248000  0.72234000  1.0
  Co  Co1  1  0.47220000  0.27766000  0.77752000  1.0
  Co  Co2  1  0.25001000  0.22240000  0.77759000  1.0
  Co  Co3  1  0.75000000  0.27770000  0.72230000  1.0
  Co  Co4  1  0.97234000  0.77773000  0.27759000  1.0
  Co  Co5  1  0.52766000  0.72241000  0.22227000  1.0
  Co  Co6  1  0.75000000  0.77767000  0.22233000  1.0
  Co  Co7  1  0.25000000  0.72226000  0.27774000  1.0
  H  H8  1  0.15702000  0.10018000  0.33654000  1.0
  H  H9  1  0.09427000  0.39937000  0.16310000  1.0
  H  H10  1  0.25735000  0.83691000  0.89980000  1.0
  H  H11  1  0.49311000  0.66351000  0.60073000  1.0
  H  H12  1  0.40572000  0.83690000  0.60063000  1.0
  H  H13  1  0.34298000  0.66346000  0.89982000  1.0
  H  H14  1  0.00689000  0.39927000  0.33649000  1.0
  H  H15  1  0.24266000  0.10020000  0.16308000  1.0
  H  H16  1  0.84326000  0.89971000  0.66323000  1.0
  H  H17  1  0.90566000  0.60054000  0.83682000  1.0
  H  H18  1  0.74257000  0.16322000  0.10037000  1.0
  H  H19  1  0.50663000  0.33670000  0.39945000  1.0
  H  H20  1  0.59434000  0.16318000  0.39946000  1.0
  H  H21  1  0.65673000  0.33677000  0.10030000  1.0
  H  H22  1  0.99337000  0.60055000  0.66330000  1.0
  H  H23  1  0.75743000  0.89964000  0.83678000  1.0
  H  H24  1  0.81842000  0.24890000  0.86490000  1.0
  H  H25  1  0.43260000  0.24905000  0.63472000  1.0
  H  H26  1  0.06737000  0.36528000  0.75100000  1.0
  H  H27  1  0.68159000  0.13510000  0.75107000  1.0
  H  H28  1  0.18237000  0.74999000  0.13506000  1.0
  H  H29  1  0.56761000  0.75001000  0.36496000  1.0
  H  H30  1  0.93239000  0.63504000  0.24999000  1.0
  H  H31  1  0.31764000  0.86493000  0.25001000  1.0
  C  C32  1  0.09326000  0.22688000  0.51012000  1.0
  C  C33  1  0.32988000  0.27313000  0.98972000  1.0
  C  C34  1  0.31992000  0.01028000  0.77326000  1.0
  C  C35  1  0.60268000  0.49003000  0.72700000  1.0
  C  C36  1  0.17012000  0.01028000  0.72687000  1.0
  C  C37  1  0.40674000  0.48988000  0.77312000  1.0
  C  C38  1  0.89733000  0.27299000  0.50997000  1.0
  C  C39  1  0.18006000  0.22676000  0.98972000  1.0
  C  C40  1  0.90702000  0.77317000  0.48984000  1.0
  C  C41  1  0.67007000  0.72679000  0.01003000  1.0
  C  C42  1  0.68024000  0.98993000  0.22668000  1.0
  C  C43  1  0.39702000  0.50998000  0.27311000  1.0
  C  C44  1  0.82992000  0.98997000  0.27322000  1.0
  C  C45  1  0.59298000  0.51016000  0.22683000  1.0
  C  C46  1  0.10298000  0.72689000  0.49002000  1.0
  C  C47  1  0.81976000  0.77332000  0.01007000  1.0
  C  C48  1  0.07669000  0.24971000  0.34713000  1.0
  C  C49  1  0.17380000  0.24979000  0.15252000  1.0
  C  C50  1  0.32620000  0.84748000  0.75021000  1.0
  C  C51  1  0.42330000  0.65287000  0.75029000  1.0
  C  C52  1  0.92355000  0.75013000  0.65276000  1.0
  C  C53  1  0.82626000  0.75010000  0.84727000  1.0
  C  C54  1  0.67373000  0.15273000  0.24991000  1.0
  C  C55  1  0.57645000  0.34724000  0.24987000  1.0
  C  C56  1  0.02561000  0.24978000  0.44946000  1.0
  C  C57  1  0.22482000  0.24985000  0.05027000  1.0
  C  C58  1  0.27517000  0.94973000  0.75016000  1.0
  C  C59  1  0.47439000  0.55054000  0.75021000  1.0
  C  C60  1  0.97471000  0.75010000  0.55045000  1.0
  C  C61  1  0.77512000  0.75010000  0.94953000  1.0
  C  C62  1  0.72488000  0.05047000  0.24990000  1.0
  C  C63  1  0.52530000  0.44954000  0.24990000  1.0
  C  C64  1  0.14349000  0.16557000  0.29814000  1.0
  C  C65  1  0.10768000  0.33394000  0.20147000  1.0
  C  C66  1  0.30895000  0.79853000  0.83442000  1.0
  C  C67  1  0.44123000  0.70187000  0.66611000  1.0
  C  C68  1  0.39231000  0.79854000  0.66606000  1.0
  C  C69  1  0.35651000  0.70185000  0.83443000  1.0
  C  C70  1  0.05876000  0.33389000  0.29813000  1.0
  C  C71  1  0.19104000  0.16558000  0.20147000  1.0
  C  C72  1  0.85672000  0.83433000  0.70166000  1.0
  C  C73  1  0.89236000  0.66591000  0.79837000  1.0
  C  C74  1  0.69093000  0.20166000  0.16569000  1.0
  C  C75  1  0.55859000  0.29830000  0.33408000  1.0
  C  C76  1  0.60764000  0.20163000  0.33409000  1.0
  C  C77  1  0.64328000  0.29834000  0.16567000  1.0
  C  C78  1  0.94141000  0.66593000  0.70170000  1.0
  C  C79  1  0.80909000  0.83430000  0.79834000  1.0
  C  C80  1  0.23508000  0.19431000  0.48521000  1.0
  C  C81  1  0.41402000  0.30578000  0.01490000  1.0
  C  C82  1  0.42923000  0.98516000  0.80592000  1.0
  C  C83  1  0.71955000  0.51502000  0.69444000  1.0
  C  C84  1  0.08599000  0.98509000  0.69422000  1.0
  C  C85  1  0.26492000  0.51479000  0.80569000  1.0
  C  C86  1  0.78045000  0.30556000  0.48498000  1.0
  C  C87  1  0.07076000  0.19409000  0.01484000  1.0
  C  C88  1  0.76517000  0.80573000  0.51494000  1.0
  C  C89  1  0.58597000  0.69411000  0.98479000  1.0
  C  C90  1  0.57090000  0.01504000  0.19406000  1.0
  C  C91  1  0.28029000  0.48479000  0.30565000  1.0
  C  C92  1  0.91403000  0.01521000  0.30589000  1.0
  C  C93  1  0.73483000  0.48506000  0.19427000  1.0
  C  C94  1  0.21971000  0.69435000  0.51521000  1.0
  C  C95  1  0.92909000  0.80595000  0.98496000  1.0
  N  N96  1  0.01062000  0.23607000  0.59958000  1.0
  N  N97  1  0.34570000  0.26421000  0.90023000  1.0
  N  N98  1  0.24643000  0.09973000  0.76414000  1.0
  N  N99  1  0.60975000  0.40047000  0.73574000  1.0
  N  N100  1  0.15430000  0.09977000  0.73579000  1.0
  N  N101  1  0.48939000  0.40042000  0.76392000  1.0
  N  N102  1  0.89025000  0.26426000  0.59953000  1.0
  N  N103  1  0.25355000  0.23587000  0.90027000  1.0
  N  N104  1  0.98962000  0.76410000  0.40036000  1.0
  N  N105  1  0.65419000  0.73581000  0.09955000  1.0
  N  N106  1  0.75376000  0.90042000  0.23579000  1.0
  N  N107  1  0.39002000  0.59954000  0.26418000  1.0
  N  N108  1  0.84581000  0.90045000  0.26419000  1.0
  N  N109  1  0.51038000  0.59964000  0.23590000  1.0
  N  N110  1  0.10998000  0.73582000  0.40046000  1.0
  N  N111  1  0.74624000  0.76421000  0.09958000  1.0
  O  O112  1  0.85158000  0.24981000  0.79737000  1.0
  O  O113  1  0.39872000  0.24984000  0.70226000  1.0
  O  O114  1  0.10130000  0.29773000  0.75015000  1.0
  O  O115  1  0.64844000  0.20262000  0.75019000  1.0
  O  O116  1  0.14866000  0.75009000  0.20259000  1.0
  O  O117  1  0.60129000  0.75006000  0.29743000  1.0
  O  O118  1  0.89871000  0.70257000  0.24994000  1.0
  O  O119  1  0.35134000  0.79741000  0.24991000  1.0
  F  F120  1  0.26658000  0.20880000  0.55603000  1.0
  F  F121  1  0.53088000  0.29132000  0.94430000  1.0
  F  F122  1  0.47571000  0.05572000  0.79137000  1.0
  F  F123  1  0.82159000  0.44430000  0.70933000  1.0
  F  F124  1  0.96912000  0.05570000  0.70869000  1.0
  F  F125  1  0.23342000  0.44397000  0.79120000  1.0
  F  F126  1  0.67841000  0.29065000  0.55570000  1.0
  F  F127  1  0.02426000  0.20864000  0.94429000  1.0
  F  F128  1  0.73355000  0.79120000  0.44419000  1.0
  F  F129  1  0.46915000  0.70859000  0.05548000  1.0
  F  F130  1  0.52460000  0.94434000  0.20884000  1.0
  F  F131  1  0.17825000  0.55539000  0.29066000  1.0
  F  F132  1  0.03085000  0.94452000  0.29141000  1.0
  F  F133  1  0.76645000  0.55581000  0.20880000  1.0
  F  F134  1  0.32176000  0.70934000  0.44461000  1.0
  F  F135  1  0.97539000  0.79117000  0.05566000  1.0
  F  F136  1  0.29074000  0.23863000  0.40891000  1.0
  F  F137  1  0.43738000  0.26145000  0.09132000  1.0
  F  F138  1  0.52881000  0.90872000  0.76166000  1.0
  F  F139  1  0.69897000  0.59152000  0.73845000  1.0
  F  F140  1  0.06262000  0.90867000  0.73855000  1.0
  F  F141  1  0.20925000  0.59110000  0.76137000  1.0
  F  F142  1  0.80103000  0.26155000  0.40848000  1.0
  F  F143  1  0.97118000  0.23834000  0.09129000  1.0
  F  F144  1  0.70963000  0.76139000  0.59130000  1.0
  F  F145  1  0.56243000  0.73841000  0.90840000  1.0
  F  F146  1  0.47120000  0.09151000  0.23819000  1.0
  F  F147  1  0.30115000  0.40821000  0.26161000  1.0
  F  F148  1  0.93757000  0.09160000  0.26159000  1.0
  F  F149  1  0.79036000  0.40870000  0.23862000  1.0
  F  F150  1  0.19884000  0.73839000  0.59180000  1.0
  F  F151  1  0.02879000  0.76181000  0.90850000  1.0
  F  F152  1  0.29424000  0.10079000  0.46634000  1.0
  F  F153  1  0.36077000  0.39934000  0.03373000  1.0
  F  F154  1  0.39484000  0.96639000  0.89949000  1.0
  F  F155  1  0.76014000  0.53351000  0.60081000  1.0
  F  F156  1  0.13923000  0.96627000  0.60066000  1.0
  F  F157  1  0.20576000  0.53366000  0.89921000  1.0
  F  F158  1  0.73985000  0.39918000  0.46650000  1.0
  F  F159  1  0.10516000  0.10052000  0.03360000  1.0
  F  F160  1  0.70595000  0.89926000  0.53384000  1.0
  F  F161  1  0.63914000  0.60058000  0.96587000  1.0
  F  F162  1  0.60514000  0.03374000  0.10048000  1.0
  F  F163  1  0.23962000  0.46625000  0.39924000  1.0
  F  F164  1  0.86086000  0.03413000  0.39942000  1.0
  F  F165  1  0.79405000  0.46616000  0.10074000  1.0
  F  F166  1  0.26037000  0.60076000  0.53376000  1.0
  F  F167  1  0.89486000  0.89952000  0.96625000  1.0
