# generated using pymatgen
data_Cd5H16C12N28(ClO)2
_symmetry_space_group_name_H-M   'P 1'
_cell_length_a   8.02918000
_cell_length_b   8.43549000
_cell_length_c   13.27160000
_cell_angle_alpha   93.48260000
_cell_angle_beta   107.44400000
_cell_angle_gamma   108.47400000
_symmetry_Int_Tables_number   1
_chemical_formula_structural   Cd5H16C12N28(ClO)2
_chemical_formula_sum   'Cd5 H16 C12 N28 Cl2 O2'
_cell_volume   801.21793669
_cell_formula_units_Z   1
loop_
 _symmetry_equiv_pos_site_id
 _symmetry_equiv_pos_as_xyz
  1  'x, y, z'
loop_
 _atom_site_type_symbol
 _atom_site_label
 _atom_site_symmetry_multiplicity
 _atom_site_fract_x
 _atom_site_fract_y
 _atom_site_fract_z
 _atom_site_occupancy
  Cd  Cd0  1  0.00000000  0.00000000  0.00000000  1.0
  Cd  Cd1  1  0.49729000  0.69365000  0.89602000  1.0
  Cd  Cd2  1  0.50271000  0.30635000  0.10398000  1.0
  Cd  Cd3  1  0.04568000  0.49670000  0.64244000  1.0
  Cd  Cd4  1  0.95432000  0.50330000  0.35756000  1.0
  H  H5  1  0.43932000  0.42390000  0.66232000  1.0
  H  H6  1  0.56068000  0.57611000  0.33767000  1.0
  H  H7  1  0.52523000  0.28960000  0.74062000  1.0
  H  H8  1  0.47477000  0.71040000  0.25938000  1.0
  H  H9  1  0.45185000  0.19573000  0.54865000  1.0
  H  H10  1  0.54815000  0.80428000  0.45135000  1.0
  H  H11  1  0.60544000  0.39456000  0.53636000  1.0
  H  H12  1  0.39456000  0.60545000  0.46364000  1.0
  H  H13  1  0.59876000  0.99151000  0.61096000  1.0
  H  H14  1  0.40123000  0.00850000  0.38904000  1.0
  H  H15  1  0.68315000  0.12394000  0.73812000  1.0
  H  H16  1  0.31685000  0.87607000  0.26188000  1.0
  H  H17  1  0.86653000  0.93521000  0.71834000  1.0
  H  H18  1  0.13346000  0.06479000  0.28166000  1.0
  H  H19  1  0.93522000  0.04907000  0.62139000  1.0
  H  H20  1  0.06478000  0.95092000  0.37861000  1.0
  C  C21  1  0.72558000  0.53326000  0.75676000  1.0
  C  C22  1  0.27442000  0.46675000  0.24323000  1.0
  C  C23  1  0.56140000  0.38459000  0.69003000  1.0
  C  C24  1  0.43860000  0.61541000  0.30997000  1.0
  C  C25  1  0.58203000  0.30324000  0.59071000  1.0
  C  C26  1  0.41797000  0.69676000  0.40929000  1.0
  C  C27  1  0.71639000  0.10061000  0.66520000  1.0
  C  C28  1  0.28361000  0.89940000  0.33481000  1.0
  C  C29  1  0.89496000  0.05955000  0.69306000  1.0
  C  C30  1  0.10503000  0.94045000  0.30694000  1.0
  C  C31  1  0.05533000  0.18567000  0.78026000  1.0
  C  C32  1  0.94467000  0.81433000  0.21974000  1.0
  N  N33  1  0.90191000  0.57651000  0.75571000  1.0
  N  N34  1  0.09809000  0.42349000  0.24429000  1.0
  N  N35  1  0.00620000  0.71626000  0.83001000  1.0
  N  N36  1  0.99380000  0.28374000  0.16999000  1.0
  N  N37  1  0.89706000  0.75558000  0.87508000  1.0
  N  N38  1  0.10294000  0.24441000  0.12492000  1.0
  N  N39  1  0.72087000  0.64497000  0.83141000  1.0
  N  N40  1  0.27914000  0.35503000  0.16859000  1.0
  N  N41  1  0.15892000  0.33832000  0.76797000  1.0
  N  N42  1  0.84108000  0.66168000  0.23203000  1.0
  N  N43  1  0.29062000  0.41026000  0.86366000  1.0
  N  N44  1  0.70938000  0.58974000  0.13634000  1.0
  N  N45  1  0.26881000  0.30699000  0.93239000  1.0
  N  N46  1  0.73119000  0.69300000  0.06761000  1.0
  N  N47  1  0.12173000  0.16575000  0.88274000  1.0
  N  N48  1  0.87827000  0.83425000  0.11726000  1.0
  N  N49  1  0.32223000  0.72485000  0.73072000  1.0
  N  N50  1  0.67777000  0.27514000  0.26928000  1.0
  N  N51  1  0.31245000  0.86407000  0.72012000  1.0
  N  N52  1  0.68755000  0.13593000  0.27988000  1.0
  N  N53  1  0.30340000  0.99664000  0.70842000  1.0
  N  N54  1  0.69660000  0.00336000  0.29158000  1.0
  N  N55  1  0.69009000  0.00119000  0.92529000  1.0
  N  N56  1  0.30992000  0.99880000  0.07471000  1.0
  N  N57  1  0.65623000  0.12288000  0.95024000  1.0
  N  N58  1  0.34378000  0.87712000  0.04976000  1.0
  N  N59  1  0.62598000  0.24581000  0.97116000  1.0
  N  N60  1  0.37402000  0.75418000  0.02884000  1.0
  Cl  Cl61  1  0.89205000  0.66207000  0.50526000  1.0
  Cl  Cl62  1  0.10795000  0.33793000  0.49475000  1.0
  O  O63  1  0.73833000  0.24578000  0.61249000  1.0
  O  O64  1  0.26167000  0.75423000  0.38751000  1.0
