# generated using pymatgen
data_AgH12C18(NO2)3
_symmetry_space_group_name_H-M   'P 1'
_cell_length_a   8.58991000
_cell_length_b   9.69215000
_cell_length_c   10.28930000
_cell_angle_alpha   82.93020000
_cell_angle_beta   78.11000000
_cell_angle_gamma   76.74300000
_symmetry_Int_Tables_number   1
_chemical_formula_structural   AgH12C18(NO2)3
_chemical_formula_sum   'Ag2 H24 C36 N6 O12'
_cell_volume   813.32506673
_cell_formula_units_Z   2
loop_
 _symmetry_equiv_pos_site_id
 _symmetry_equiv_pos_as_xyz
  1  'x, y, z'
loop_
 _atom_site_type_symbol
 _atom_site_label
 _atom_site_symmetry_multiplicity
 _atom_site_fract_x
 _atom_site_fract_y
 _atom_site_fract_z
 _atom_site_occupancy
  Ag  Ag0  1  0.85133000  0.89219000  0.55498000  1.0
  Ag  Ag1  1  0.14867000  0.10781000  0.44501000  1.0
  H  H2  1  0.79021000  0.62293000  0.98420000  1.0
  H  H3  1  0.20979000  0.37707000  0.01580000  1.0
  H  H4  1  0.95116000  0.29597000  0.86649000  1.0
  H  H5  1  0.04884000  0.70402000  0.13351000  1.0
  H  H6  1  0.39356000  0.28844000  0.76893000  1.0
  H  H7  1  0.60645000  0.71156000  0.23108000  1.0
  H  H8  1  0.34299000  0.51724000  0.34312000  1.0
  H  H9  1  0.65701000  0.48276000  0.65688000  1.0
  H  H10  1  0.46039000  0.30842000  0.33793000  1.0
  H  H11  1  0.53960000  0.69158000  0.66208000  1.0
  H  H12  1  0.55109000  0.01004000  0.09772000  1.0
  H  H13  1  0.44891000  0.98996000  0.90228000  1.0
  H  H14  1  0.16361000  0.42149000  0.76303000  1.0
  H  H15  1  0.83638000  0.57851000  0.23697000  1.0
  H  H16  1  0.50107000  0.26447000  0.13310000  1.0
  H  H17  1  0.49893000  0.73553000  0.86690000  1.0
  H  H18  1  0.61830000  0.07454000  0.75485000  1.0
  H  H19  1  0.38170000  0.92546000  0.24515000  1.0
  H  H20  1  0.68441000  0.09765000  0.34388000  1.0
  H  H21  1  0.31559000  0.90235000  0.65612000  1.0
  H  H22  1  0.12415000  0.73185000  0.35215000  1.0
  H  H23  1  0.87585000  0.26815000  0.64785000  1.0
  H  H24  1  0.95523000  0.64578000  0.75437000  1.0
  H  H25  1  0.04477000  0.35422000  0.24563000  1.0
  C  C26  1  0.85909000  0.23631000  0.91349000  1.0
  C  C27  1  0.14091000  0.76369000  0.08651000  1.0
  C  C28  1  0.77147000  0.00841000  0.95435000  1.0
  C  C29  1  0.22853000  0.99159000  0.04565000  1.0
  C  C30  1  0.69782000  0.44895000  0.03497000  1.0
  C  C31  1  0.30218000  0.55105000  0.96503000  1.0
  C  C32  1  0.77587000  0.85845000  0.92398000  1.0
  C  C33  1  0.22413000  0.14155000  0.07602000  1.0
  C  C34  1  0.72227000  0.29854000  0.00200000  1.0
  C  C35  1  0.27773000  0.70146000  0.99800000  1.0
  C  C36  1  0.45092000  0.24939000  0.67200000  1.0
  C  C37  1  0.54908000  0.75061000  0.32800000  1.0
  C  C38  1  0.40433000  0.31855000  0.55350000  1.0
  C  C39  1  0.59566000  0.68145000  0.44650000  1.0
  C  C40  1  0.25989000  0.53881000  0.43725000  1.0
  C  C41  1  0.74011000  0.46119000  0.56275000  1.0
  C  C42  1  0.88120000  0.09368000  0.88988000  1.0
  C  C43  1  0.11880000  0.90632000  0.11012000  1.0
  C  C44  1  0.48940000  0.26110000  0.43382000  1.0
  C  C45  1  0.51059000  0.73890000  0.56618000  1.0
  C  C46  1  0.63717000  0.07327000  0.04472000  1.0
  C  C47  1  0.36283000  0.92673000  0.95528000  1.0
  C  C48  1  0.27439000  0.44830000  0.55374000  1.0
  C  C49  1  0.72561000  0.55170000  0.44626000  1.0
  C  C50  1  0.16169000  0.48765000  0.66966000  1.0
  C  C51  1  0.83831000  0.51235000  0.33034000  1.0
  C  C52  1  0.61052000  0.21614000  0.06647000  1.0
  C  C53  1  0.38948000  0.78386000  0.93353000  1.0
  C  C54  1  0.57794000  0.13112000  0.66561000  1.0
  C  C55  1  0.42206000  0.86888000  0.33439000  1.0
  C  C56  1  0.61538000  0.14237000  0.43559000  1.0
  C  C57  1  0.38461000  0.85763000  0.56441000  1.0
  C  C58  1  0.13869000  0.66123000  0.44140000  1.0
  C  C59  1  0.86131000  0.33877000  0.55860000  1.0
  C  C60  1  0.04436000  0.61276000  0.66618000  1.0
  C  C61  1  0.95564000  0.38724000  0.33382000  1.0
  N  N62  1  0.03263000  0.69952000  0.55374000  1.0
  N  N63  1  0.96738000  0.30048000  0.44626000  1.0
  N  N64  1  0.02645000  0.03216000  0.79790000  1.0
  N  N65  1  0.97355000  0.96784000  0.20210000  1.0
  N  N66  1  0.66052000  0.07780000  0.54982000  1.0
  N  N67  1  0.33948000  0.92220000  0.45018000  1.0
  O  O68  1  0.74245000  0.84410000  0.81342000  1.0
  O  O69  1  0.25754000  0.15590000  0.18658000  1.0
  O  O70  1  0.59320000  0.49820000  0.12904000  1.0
  O  O71  1  0.40681000  0.50180000  0.87095000  1.0
  O  O72  1  0.79798000  0.76191000  0.01828000  1.0
  O  O73  1  0.20202000  0.23809000  0.98172000  1.0
  O  O74  1  0.06384000  0.90057000  0.79550000  1.0
  O  O75  1  0.93616000  0.09943000  0.20450000  1.0
  O  O76  1  0.80106000  0.51883000  0.95584000  1.0
  O  O77  1  0.19895000  0.48116000  0.04416000  1.0
  O  O78  1  0.10665000  0.11406000  0.72434000  1.0
  O  O79  1  0.89335000  0.88594000  0.27566000  1.0
