# generated using pymatgen
data_MgH3C7O3
_symmetry_space_group_name_H-M   'P 1'
_cell_length_a   6.83790000
_cell_length_b   22.09960000
_cell_length_c   22.10380000
_cell_angle_alpha   118.95000000
_cell_angle_beta   95.90530000
_cell_angle_gamma   95.92550000
_symmetry_Int_Tables_number   1
_chemical_formula_structural   MgH3C7O3
_chemical_formula_sum   'Mg6 H18 C42 O18'
_cell_volume   2862.02644064
_cell_formula_units_Z   6
loop_
 _symmetry_equiv_pos_site_id
 _symmetry_equiv_pos_as_xyz
  1  'x, y, z'
loop_
 _atom_site_type_symbol
 _atom_site_label
 _atom_site_symmetry_multiplicity
 _atom_site_fract_x
 _atom_site_fract_y
 _atom_site_fract_z
 _atom_site_occupancy
  Mg  Mg0  1  0.98817000  0.67045000  0.28734000  1.0
  Mg  Mg1  1  0.66778000  0.32893000  0.71218000  1.0
  Mg  Mg2  1  0.70073000  0.71266000  0.38302000  1.0
  Mg  Mg3  1  0.95570000  0.28777000  0.61675000  1.0
  Mg  Mg4  1  0.31774000  0.61697000  0.32957000  1.0
  Mg  Mg5  1  0.33881000  0.38329000  0.67108000  1.0
  H  H6  1  0.14678000  0.09281000  0.52583000  1.0
  H  H7  1  0.98200000  0.99862000  0.46877000  1.0
  H  H8  1  0.78258000  0.88040000  0.39946000  1.0
  H  H9  1  0.67423000  0.00115000  0.52724000  1.0
  H  H10  1  0.87344000  0.11932000  0.59761000  1.0
  H  H11  1  0.50853000  0.90729000  0.47225000  1.0
  H  H12  1  0.62082000  0.47407000  0.56694000  1.0
  H  H13  1  0.51330000  0.53142000  0.53000000  1.0
  H  H14  1  0.38296000  0.60067000  0.48099000  1.0
  H  H15  1  0.14665000  0.47277000  0.47384000  1.0
  H  H16  1  0.27604000  0.40245000  0.52174000  1.0
  H  H17  1  0.03616000  0.52760000  0.43494000  1.0
  H  H18  1  0.05413000  0.43306000  0.90724000  1.0
  H  H19  1  0.98352000  0.47001000  0.00143000  1.0
  H  H20  1  0.90220000  0.51906000  0.11967000  1.0
  H  H21  1  0.67309000  0.52612000  0.99884000  1.0
  H  H22  1  0.75433000  0.47829000  0.88062000  1.0
  H  H23  1  0.60143000  0.56498000  0.09269000  1.0
  C  C24  1  0.30750000  0.22306000  0.59992000  1.0
  C  C25  1  0.41722000  0.16426000  0.58200000  1.0
  C  C26  1  0.30575000  0.09597000  0.54090000  1.0
  C  C27  1  0.26607000  0.96448000  0.47732000  1.0
  C  C28  1  0.05760000  0.95379000  0.45516000  1.0
  C  C29  1  0.94304000  0.88719000  0.41569000  1.0
  C  C30  1  0.02773000  0.82590000  0.39455000  1.0
  C  C31  1  0.38955000  0.03548000  0.51982000  1.0
  C  C32  1  0.59829000  0.04602000  0.54152000  1.0
  C  C33  1  0.71280000  0.11258000  0.58160000  1.0
  C  C34  1  0.62788000  0.17393000  0.60371000  1.0
  C  C35  1  0.23830000  0.83568000  0.41636000  1.0
  C  C36  1  0.34967000  0.90402000  0.45693000  1.0
  C  C37  1  0.34827000  0.77700000  0.39905000  1.0
  C  C38  1  0.70761000  0.40007000  0.62317000  1.0
  C  C39  1  0.83525000  0.41800000  0.58229000  1.0
  C  C40  1  0.76475000  0.45903000  0.55505000  1.0
  C  C41  1  0.78866000  0.52268000  0.48716000  1.0
  C  C42  1  0.60236000  0.54490000  0.49867000  1.0
  C  C43  1  0.52723000  0.58441000  0.47157000  1.0
  C  C44  1  0.63316000  0.60554000  0.43142000  1.0
  C  C45  1  0.86965000  0.48016000  0.51565000  1.0
  C  C46  1  0.05672000  0.45847000  0.50448000  1.0
  C  C47  1  0.13129000  0.41839000  0.53096000  1.0
  C  C48  1  0.02428000  0.39630000  0.57024000  1.0
  C  C49  1  0.82189000  0.58365000  0.41935000  1.0
  C  C50  1  0.89267000  0.54300000  0.44703000  1.0
  C  C51  1  0.94908000  0.60094000  0.37792000  1.0
  C  C52  1  0.08435000  0.37684000  0.77694000  1.0
  C  C53  1  0.25296000  0.41769000  0.83572000  1.0
  C  C54  1  0.20992000  0.44491000  0.90402000  1.0
  C  C55  1  0.30167000  0.51286000  0.03551000  1.0
  C  C56  1  0.10389000  0.50136000  0.04625000  1.0
  C  C57  1  0.05594000  0.52844000  0.11285000  1.0
  C  C58  1  0.20197000  0.56860000  0.17411000  1.0
  C  C59  1  0.35421000  0.48435000  0.96450000  1.0
  C  C60  1  0.55241000  0.49553000  0.95394000  1.0
  C  C61  1  0.60036000  0.46905000  0.88737000  1.0
  C  C62  1  0.45400000  0.42977000  0.82604000  1.0
  C  C63  1  0.40280000  0.58066000  0.16430000  1.0
  C  C64  1  0.44579000  0.55293000  0.09595000  1.0
  C  C65  1  0.57140000  0.62213000  0.22300000  1.0
  O  O66  1  0.90897000  0.76285000  0.35576000  1.0
  O  O67  1  0.12283000  0.21232000  0.57508000  1.0
  O  O68  1  0.40325000  0.28629000  0.64242000  1.0
  O  O69  1  0.53305000  0.78804000  0.42389000  1.0
  O  O70  1  0.25291000  0.71362000  0.35702000  1.0
  O  O71  1  0.74681000  0.23689000  0.64311000  1.0
  O  O72  1  0.55322000  0.64428000  0.40708000  1.0
  O  O73  1  0.54778000  0.42491000  0.63735000  1.0
  O  O74  1  0.76082000  0.35754000  0.64384000  1.0
  O  O75  1  0.10902000  0.57607000  0.36409000  1.0
  O  O76  1  0.89576000  0.64296000  0.35657000  1.0
  O  O77  1  0.10381000  0.35687000  0.59377000  1.0
  O  O78  1  0.14618000  0.59297000  0.23715000  1.0
  O  O79  1  0.91033000  0.36275000  0.78765000  1.0
  O  O80  1  0.11695000  0.35610000  0.71372000  1.0
  O  O81  1  0.74519000  0.63602000  0.21200000  1.0
  O  O82  1  0.53926000  0.64345000  0.28636000  1.0
  O  O83  1  0.50996000  0.40620000  0.76310000  1.0
