# generated using pymatgen
data_CuH7C13NO4
_symmetry_space_group_name_H-M   'P 1'
_cell_length_a   11.97300000
_cell_length_b   13.71220000
_cell_length_c   13.78460000
_cell_angle_alpha   89.99940000
_cell_angle_beta   65.56200000
_cell_angle_gamma   89.99870000
_symmetry_Int_Tables_number   1
_chemical_formula_structural   CuH7C13NO4
_chemical_formula_sum   'Cu4 H28 C52 N4 O16'
_cell_volume   2060.35027878
_cell_formula_units_Z   4
loop_
 _symmetry_equiv_pos_site_id
 _symmetry_equiv_pos_as_xyz
  1  'x, y, z'
loop_
 _atom_site_type_symbol
 _atom_site_label
 _atom_site_symmetry_multiplicity
 _atom_site_fract_x
 _atom_site_fract_y
 _atom_site_fract_z
 _atom_site_occupancy
  Cu  Cu0  1  0.90203000  0.44578000  0.53990000  1.0
  Cu  Cu1  1  0.09794000  0.94580000  0.96011000  1.0
  Cu  Cu2  1  0.09798000  0.55422000  0.46010000  1.0
  Cu  Cu3  1  0.90203000  0.05422000  0.03990000  1.0
  H  H4  1  0.65650000  0.52393000  0.61390000  1.0
  H  H5  1  0.34351000  0.02393000  0.88610000  1.0
  H  H6  1  0.34351000  0.47607000  0.38610000  1.0
  H  H7  1  0.65649000  0.97607000  0.11390000  1.0
  H  H8  1  0.43879000  0.48100000  0.65665000  1.0
  H  H9  1  0.56122000  0.98100000  0.84334000  1.0
  H  H10  1  0.56122000  0.51900000  0.34334000  1.0
  H  H11  1  0.43878000  0.01900000  0.15665000  1.0
  H  H12  1  0.54388000  0.17773000  0.63975000  1.0
  H  H13  1  0.45612000  0.67773000  0.86025000  1.0
  H  H14  1  0.45613000  0.82227000  0.36025000  1.0
  H  H15  1  0.54388000  0.32227000  0.13975000  1.0
  H  H16  1  0.75742000  0.23425000  0.59731000  1.0
  H  H17  1  0.24259000  0.73425000  0.90268000  1.0
  H  H18  1  0.24259000  0.76575000  0.40268000  1.0
  H  H19  1  0.75741000  0.26575000  0.09732000  1.0
  H  H20  1  0.32080000  0.41575000  0.57873000  1.0
  H  H21  1  0.67920000  0.91575000  0.92126000  1.0
  H  H22  1  0.67921000  0.58425000  0.42126000  1.0
  H  H23  1  0.32079000  0.08425000  0.07873000  1.0
  H  H24  1  0.99493000  0.25056000  0.75551000  1.0
  H  H25  1  0.00507000  0.75055000  0.74449000  1.0
  H  H26  1  0.00507000  0.74945000  0.24449000  1.0
  H  H27  1  0.99493000  0.24946000  0.25552000  1.0
  H  H28  1  0.33360000  0.17505000  0.77605000  1.0
  H  H29  1  0.66640000  0.67505000  0.72395000  1.0
  H  H30  1  0.66639000  0.82494000  0.22396000  1.0
  H  H31  1  0.33361000  0.32494000  0.27604000  1.0
  C  C32  1  0.62734000  0.44800000  0.62003000  1.0
  C  C33  1  0.37267000  0.94800000  0.87997000  1.0
  C  C34  1  0.37267000  0.55199000  0.37997000  1.0
  C  C35  1  0.62733000  0.05200000  0.12003000  1.0
  C  C36  1  0.50658000  0.42357000  0.64312000  1.0
  C  C37  1  0.49342000  0.92357000  0.85688000  1.0
  C  C38  1  0.49343000  0.57642000  0.35688000  1.0
  C  C39  1  0.50657000  0.07642000  0.14312000  1.0
  C  C40  1  0.47213000  0.32496000  0.65097000  1.0
  C  C41  1  0.52788000  0.82496000  0.84903000  1.0
  C  C42  1  0.52788000  0.67504000  0.34903000  1.0
  C  C43  1  0.47212000  0.17504000  0.15097000  1.0
  C  C44  1  0.56413000  0.25557000  0.63566000  1.0
  C  C45  1  0.43588000  0.75557000  0.86434000  1.0
  C  C46  1  0.43588000  0.74443000  0.36434000  1.0
  C  C47  1  0.56412000  0.24443000  0.13566000  1.0
  C  C48  1  0.68361000  0.28671000  0.61164000  1.0
  C  C49  1  0.31640000  0.78671000  0.88836000  1.0
  C  C50  1  0.31640000  0.71328000  0.38836000  1.0
  C  C51  1  0.68360000  0.21328000  0.11164000  1.0
  C  C52  1  0.34358000  0.29917000  0.67522000  1.0
  C  C53  1  0.65643000  0.79917000  0.82478000  1.0
  C  C54  1  0.65643000  0.70082000  0.32478000  1.0
  C  C55  1  0.34358000  0.20082000  0.17521000  1.0
  C  C56  1  0.27669000  0.35623000  0.63357000  1.0
  C  C57  1  0.72331000  0.85624000  0.86643000  1.0
  C  C58  1  0.72332000  0.64376000  0.36643000  1.0
  C  C59  1  0.27669000  0.14376000  0.13357000  1.0
  C  C60  1  0.15273000  0.33760000  0.65975000  1.0
  C  C61  1  0.84726000  0.83759000  0.84025000  1.0
  C  C62  1  0.84728000  0.66240000  0.34025000  1.0
  C  C63  1  0.15273000  0.16241000  0.15975000  1.0
  C  C64  1  0.09256000  0.26320000  0.73176000  1.0
  C  C65  1  0.90744000  0.76319000  0.76823000  1.0
  C  C66  1  0.90744000  0.73681000  0.26824000  1.0
  C  C67  1  0.09256000  0.23681000  0.23177000  1.0
  C  C68  1  0.15887000  0.20504000  0.77277000  1.0
  C  C69  1  0.84113000  0.70503000  0.72723000  1.0
  C  C70  1  0.84111000  0.79497000  0.22724000  1.0
  C  C71  1  0.15888000  0.29497000  0.27277000  1.0
  C  C72  1  0.28422000  0.22130000  0.74269000  1.0
  C  C73  1  0.71578000  0.72130000  0.75731000  1.0
  C  C74  1  0.71577000  0.77870000  0.25732000  1.0
  C  C75  1  0.28422000  0.27870000  0.24268000  1.0
  C  C76  1  0.08759000  0.39838000  0.60881000  1.0
  C  C77  1  0.91239000  0.89839000  0.89120000  1.0
  C  C78  1  0.91241000  0.60161000  0.39119000  1.0
  C  C79  1  0.08758000  0.10163000  0.10881000  1.0
  C  C80  1  0.09546000  0.12757000  0.85328000  1.0
  C  C81  1  0.90453000  0.62756000  0.64673000  1.0
  C  C82  1  0.90451000  0.87245000  0.14674000  1.0
  C  C83  1  0.09547000  0.37244000  0.35328000  1.0
  N  N84  1  0.71579000  0.38126000  0.60333000  1.0
  N  N85  1  0.28423000  0.88126000  0.89666000  1.0
  N  N86  1  0.28423000  0.61873000  0.39666000  1.0
  N  N87  1  0.71577000  0.11873000  0.10334000  1.0
  O  O88  1  0.14834000  0.47071000  0.55405000  1.0
  O  O89  1  0.85166000  0.97071000  0.94594000  1.0
  O  O90  1  0.85168000  0.52929000  0.44595000  1.0
  O  O91  1  0.14832000  0.02929000  0.05406000  1.0
  O  O92  1  0.97988000  0.37311000  0.62206000  1.0
  O  O93  1  0.02012000  0.87310000  0.87794000  1.0
  O  O94  1  0.02013000  0.62690000  0.37793000  1.0
  O  O95  1  0.97987000  0.12691000  0.12208000  1.0
  O  O96  1  0.98561000  0.14544000  0.91888000  1.0
  O  O97  1  0.01439000  0.64544000  0.58111000  1.0
  O  O98  1  0.01437000  0.85457000  0.08113000  1.0
  O  O99  1  0.98563000  0.35457000  0.41888000  1.0
  O  O100  1  0.15828000  0.05166000  0.85038000  1.0
  O  O101  1  0.84173000  0.55166000  0.64962000  1.0
  O  O102  1  0.84171000  0.94835000  0.14964000  1.0
  O  O103  1  0.15830000  0.44835000  0.35037000  1.0
