# generated using pymatgen
data_VH8(C2O)5
_symmetry_space_group_name_H-M   'P 1'
_cell_length_a   6.76314000
_cell_length_b   12.18410000
_cell_length_c   17.55100000
_cell_angle_alpha   90.00050000
_cell_angle_beta   90.00010000
_cell_angle_gamma   89.99940000
_symmetry_Int_Tables_number   1
_chemical_formula_structural   VH8(C2O)5
_chemical_formula_sum   'V4 H32 C40 O20'
_cell_volume   1446.25108764
_cell_formula_units_Z   4
loop_
 _symmetry_equiv_pos_site_id
 _symmetry_equiv_pos_as_xyz
  1  'x, y, z'
loop_
 _atom_site_type_symbol
 _atom_site_label
 _atom_site_symmetry_multiplicity
 _atom_site_fract_x
 _atom_site_fract_y
 _atom_site_fract_z
 _atom_site_occupancy
  V  V0  1  0.72624000  0.73363000  0.24999000  1.0
  V  V1  1  0.77376000  0.23361000  0.75000000  1.0
  V  V2  1  0.27379000  0.26639000  0.75000000  1.0
  V  V3  1  0.22622000  0.76638000  0.25000000  1.0
  H  H4  1  0.24171000  0.01846000  0.09819000  1.0
  H  H5  1  0.78868000  0.76687000  0.03529000  1.0
  H  H6  1  0.94005000  0.87611000  0.06513000  1.0
  H  H7  1  0.91873000  0.84568000  0.96608000  1.0
  H  H8  1  0.25829000  0.51845000  0.90180000  1.0
  H  H9  1  0.71131000  0.26689000  0.96471000  1.0
  H  H10  1  0.55995000  0.37612000  0.93486000  1.0
  H  H11  1  0.58127000  0.34571000  0.03391000  1.0
  H  H12  1  0.75831000  0.98155000  0.59819000  1.0
  H  H13  1  0.21134000  0.23312000  0.53528000  1.0
  H  H14  1  0.05995000  0.12390000  0.56513000  1.0
  H  H15  1  0.08129000  0.15430000  0.46608000  1.0
  H  H16  1  0.74171000  0.48155000  0.40182000  1.0
  H  H17  1  0.28871000  0.73311000  0.46471000  1.0
  H  H18  1  0.44006000  0.62387000  0.43486000  1.0
  H  H19  1  0.41876000  0.65428000  0.53392000  1.0
  H  H20  1  0.75827000  0.98155000  0.90181000  1.0
  H  H21  1  0.21132000  0.23313000  0.96471000  1.0
  H  H22  1  0.05993000  0.12390000  0.93487000  1.0
  H  H23  1  0.08127000  0.15432000  0.03392000  1.0
  H  H24  1  0.74175000  0.48156000  0.09818000  1.0
  H  H25  1  0.28870000  0.73313000  0.03528000  1.0
  H  H26  1  0.44007000  0.62390000  0.06512000  1.0
  H  H27  1  0.41875000  0.65432000  0.96607000  1.0
  H  H28  1  0.24173000  0.01844000  0.40183000  1.0
  H  H29  1  0.78870000  0.76687000  0.46472000  1.0
  H  H30  1  0.94009000  0.87609000  0.43488000  1.0
  H  H31  1  0.91873000  0.84568000  0.53393000  1.0
  H  H32  1  0.25829000  0.51843000  0.59819000  1.0
  H  H33  1  0.71127000  0.26688000  0.53528000  1.0
  H  H34  1  0.55993000  0.37612000  0.56513000  1.0
  H  H35  1  0.58124000  0.34571000  0.46608000  1.0
  C  C36  1  0.51379000  0.93989000  0.06768000  1.0
  C  C37  1  0.66497000  0.92722000  0.01254000  1.0
  C  C38  1  0.35453000  0.01114000  0.05405000  1.0
  C  C39  1  0.51080000  0.87687000  0.14016000  1.0
  C  C40  1  0.83748000  0.85000000  0.02013000  1.0
  C  C41  1  0.98619000  0.43991000  0.93232000  1.0
  C  C42  1  0.83503000  0.42724000  0.98746000  1.0
  C  C43  1  0.14547000  0.51114000  0.94595000  1.0
  C  C44  1  0.98919000  0.37688000  0.85984000  1.0
  C  C45  1  0.66250000  0.35001000  0.97987000  1.0
  C  C46  1  0.48620000  0.06009000  0.56768000  1.0
  C  C47  1  0.33505000  0.07276000  0.51254000  1.0
  C  C48  1  0.64546000  0.98886000  0.55405000  1.0
  C  C49  1  0.48920000  0.12312000  0.64016000  1.0
  C  C50  1  0.16252000  0.15000000  0.52013000  1.0
  C  C51  1  0.01378000  0.56011000  0.43232000  1.0
  C  C52  1  0.16495000  0.57276000  0.48745000  1.0
  C  C53  1  0.85452000  0.48886000  0.44595000  1.0
  C  C54  1  0.01083000  0.62312000  0.35983000  1.0
  C  C55  1  0.33750000  0.64998000  0.47987000  1.0
  C  C56  1  0.48619000  0.06011000  0.93232000  1.0
  C  C57  1  0.33504000  0.07277000  0.98746000  1.0
  C  C58  1  0.64543000  0.98887000  0.94595000  1.0
  C  C59  1  0.48921000  0.12314000  0.85984000  1.0
  C  C60  1  0.16249000  0.15001000  0.97988000  1.0
  C  C61  1  0.01380000  0.56012000  0.06766000  1.0
  C  C62  1  0.16496000  0.57278000  0.01253000  1.0
  C  C63  1  0.85456000  0.48888000  0.05405000  1.0
  C  C64  1  0.01082000  0.62315000  0.14016000  1.0
  C  C65  1  0.33750000  0.65000000  0.02012000  1.0
  C  C66  1  0.51381000  0.93989000  0.43233000  1.0
  C  C67  1  0.66498000  0.92722000  0.48746000  1.0
  C  C68  1  0.35454000  0.01112000  0.44595000  1.0
  C  C69  1  0.51082000  0.87687000  0.35984000  1.0
  C  C70  1  0.83751000  0.84999000  0.47988000  1.0
  C  C71  1  0.98616000  0.43990000  0.56768000  1.0
  C  C72  1  0.83502000  0.42723000  0.51253000  1.0
  C  C73  1  0.14545000  0.51112000  0.55405000  1.0
  C  C74  1  0.98918000  0.37686000  0.64017000  1.0
  C  C75  1  0.66247000  0.35000000  0.52013000  1.0
  O  O76  1  0.67405000  0.84156000  0.16729000  1.0
  O  O77  1  0.34121000  0.86102000  0.17065000  1.0
  O  O78  1  0.82590000  0.34155000  0.83270000  1.0
  O  O79  1  0.15882000  0.36103000  0.82933000  1.0
  O  O80  1  0.32591000  0.15845000  0.66730000  1.0
  O  O81  1  0.65885000  0.13897000  0.67066000  1.0
  O  O82  1  0.17407000  0.65844000  0.33271000  1.0
  O  O83  1  0.84121000  0.63897000  0.32935000  1.0
  O  O84  1  0.32591000  0.15846000  0.83271000  1.0
  O  O85  1  0.65883000  0.13897000  0.82934000  1.0
  O  O86  1  0.17405000  0.65845000  0.16729000  1.0
  O  O87  1  0.84123000  0.63900000  0.17065000  1.0
  O  O88  1  0.67405000  0.84156000  0.33271000  1.0
  O  O89  1  0.34120000  0.86101000  0.32935000  1.0
  O  O90  1  0.82589000  0.34154000  0.66729000  1.0
  O  O91  1  0.15883000  0.36101000  0.67065000  1.0
  O  O92  1  0.49726000  0.68708000  0.25000000  1.0
  O  O93  1  0.00272000  0.18707000  0.75001000  1.0
  O  O94  1  0.50273000  0.31293000  0.75000000  1.0
  O  O95  1  0.99727000  0.81292000  0.25001000  1.0
