# generated using pymatgen
data_GdH11C16N2O5
_symmetry_space_group_name_H-M   'P 1'
_cell_length_a   8.32232000
_cell_length_b   13.99188261
_cell_length_c   14.07980000
_cell_angle_alpha   84.98362487
_cell_angle_beta   72.90110000
_cell_angle_gamma   72.69872860
_symmetry_Int_Tables_number   1
_chemical_formula_structural   GdH11C16N2O5
_chemical_formula_sum   'Gd4 H44 C64 N8 O20'
_cell_volume   1496.14968120
_cell_formula_units_Z   4
loop_
 _symmetry_equiv_pos_site_id
 _symmetry_equiv_pos_as_xyz
  1  'x, y, z'
loop_
 _atom_site_type_symbol
 _atom_site_label
 _atom_site_symmetry_multiplicity
 _atom_site_fract_x
 _atom_site_fract_y
 _atom_site_fract_z
 _atom_site_occupancy
  Gd  Gd0  1  0.24423000  0.97638000  0.86028000  1.0
  Gd  Gd1  1  0.77970000  0.14042000  0.97627000  1.0
  Gd  Gd2  1  0.08112000  0.02345000  0.13977000  1.0
  Gd  Gd3  1  0.89627000  0.85953000  0.02368000  1.0
  H  H4  1  0.12948000  0.15377000  0.97074000  1.0
  H  H5  1  0.71806000  0.03031000  0.15226000  1.0
  H  H6  1  0.25371000  0.84610000  0.02945000  1.0
  H  H7  1  0.90052000  0.96965000  0.84770000  1.0
  H  H8  1  0.57548000  0.40890000  0.98503000  1.0
  H  H9  1  0.01584000  0.01564000  0.40699000  1.0
  H  H10  1  0.96935000  0.59086000  0.01512000  1.0
  H  H11  1  0.43795000  0.98425000  0.59275000  1.0
  H  H12  1  0.29508000  0.52964000  0.96487000  1.0
  H  H13  1  0.17547000  0.03555000  0.52730000  1.0
  H  H14  1  0.78986000  0.46998000  0.03548000  1.0
  H  H15  1  0.73757000  0.96428000  0.47259000  1.0
  H  H16  1  0.17471000  0.29871000  0.85910000  1.0
  H  H17  1  0.52697000  0.14097000  0.29851000  1.0
  H  H18  1  0.33313000  0.70079000  0.14106000  1.0
  H  H19  1  0.96612000  0.85939000  0.70170000  1.0
  H  H20  1  0.76152000  0.13945000  0.71418000  1.0
  H  H21  1  0.09901000  0.28554000  0.13928000  1.0
  H  H22  1  0.61440000  0.86076000  0.28552000  1.0
  H  H23  1  0.52273000  0.71449000  0.86108000  1.0
  H  H24  1  0.53491000  0.14879000  0.63086000  1.0
  H  H25  1  0.31651000  0.36889000  0.14865000  1.0
  H  H26  1  0.31405000  0.85129000  0.36829000  1.0
  H  H27  1  0.83304000  0.63140000  0.85181000  1.0
  H  H28  1  0.54756000  0.23366000  0.46640000  1.0
  H  H29  1  0.21943000  0.53390000  0.23407000  1.0
  H  H30  1  0.24706000  0.76647000  0.53273000  1.0
  H  H31  1  0.98656000  0.46653000  0.76621000  1.0
  H  H32  1  0.77754000  0.31879000  0.39142000  1.0
  H  H33  1  0.90476000  0.60921000  0.31943000  1.0
  H  H34  1  0.48695000  0.68122000  0.60810000  1.0
  H  H35  1  0.83288000  0.39110000  0.68050000  1.0
  H  H36  1  0.03127000  0.37171000  0.40051000  1.0
  H  H37  1  0.59826000  0.60047000  0.37223000  1.0
  H  H38  1  0.80240000  0.62822000  0.59939000  1.0
  H  H39  1  0.57031000  0.39963000  0.62768000  1.0
  H  H40  1  0.25711000  0.36480000  0.48535000  1.0
  H  H41  1  0.37905000  0.51567000  0.36522000  1.0
  H  H42  1  0.10601000  0.63510000  0.51506000  1.0
  H  H43  1  0.25905000  0.48403000  0.63486000  1.0
  H  H44  1  0.26312000  0.26464000  0.64048000  1.0
  H  H45  1  0.47231000  0.36030000  0.26451000  1.0
  H  H46  1  0.16687000  0.73553000  0.36019000  1.0
  H  H47  1  0.09630000  0.63939000  0.73559000  1.0
  C  C48  1  0.41987000  0.25712000  0.89753000  1.0
  C  C49  1  0.32362000  0.10265000  0.25665000  1.0
  C  C50  1  0.57478000  0.74259000  0.10222000  1.0
  C  C51  1  0.68264000  0.89748000  0.74337000  1.0
  C  C52  1  0.48708000  0.38443000  0.95537000  1.0
  C  C53  1  0.12882000  0.04516000  0.38285000  1.0
  C  C54  1  0.82696000  0.61531000  0.04470000  1.0
  C  C55  1  0.55635000  0.95482000  0.61698000  1.0
  C  C56  1  0.33018000  0.45100000  0.94472000  1.0
  C  C57  1  0.21907000  0.05571000  0.44924000  1.0
  C  C58  1  0.72615000  0.54864000  0.05549000  1.0
  C  C59  1  0.72333000  0.94426000  0.55070000  1.0
  C  C60  1  0.26412000  0.32455000  0.88697000  1.0
  C  C61  1  0.41167000  0.11325000  0.32395000  1.0
  C  C62  1  0.47609000  0.67503000  0.11307000  1.0
  C  C63  1  0.84840000  0.88701000  0.67622000  1.0
  C  C64  1  0.47069000  0.14706000  0.87407000  1.0
  C  C65  1  0.38292000  0.12605000  0.14726000  1.0
  C  C66  1  0.49203000  0.85268000  0.12565000  1.0
  C  C67  1  0.65616000  0.87396000  0.85274000  1.0
  C  C68  1  0.03508000  0.22025000  0.64676000  1.0
  C  C69  1  0.74458000  0.35379000  0.22027000  1.0
  C  C70  1  0.90098000  0.78002000  0.35347000  1.0
  C  C71  1  0.31789000  0.64616000  0.77980000  1.0
  C  C72  1  0.90068000  0.22505000  0.60126000  1.0
  C  C73  1  0.87458000  0.39900000  0.22521000  1.0
  C  C74  1  0.72602000  0.77518000  0.39864000  1.0
  C  C75  1  0.49803000  0.60102000  0.77490000  1.0
  C  C76  1  0.76565000  0.17843000  0.64344000  1.0
  C  C77  1  0.05606000  0.35655000  0.17837000  1.0
  C  C78  1  0.58667000  0.82181000  0.35624000  1.0
  C  C79  1  0.59007000  0.64355000  0.82190000  1.0
  C  C80  1  0.63941000  0.18336000  0.59649000  1.0
  C  C81  1  0.17751000  0.40351000  0.18333000  1.0
  C  C82  1  0.41865000  0.81679000  0.40290000  1.0
  C  C83  1  0.76345000  0.59676000  0.81696000  1.0
  C  C84  1  0.64509000  0.23300000  0.50410000  1.0
  C  C85  1  0.12253000  0.49618000  0.23325000  1.0
  C  C86  1  0.38152000  0.76716000  0.49527000  1.0
  C  C87  1  0.85115000  0.50418000  0.76693000  1.0
  C  C88  1  0.77333000  0.28005000  0.46210000  1.0
  C  C89  1  0.94748000  0.53838000  0.28046000  1.0
  C  C90  1  0.51469000  0.72007000  0.53750000  1.0
  C  C91  1  0.76566000  0.46191000  0.71951000  1.0
  C  C92  1  0.90262000  0.27884000  0.50956000  1.0
  C  C93  1  0.81923000  0.49097000  0.27917000  1.0
  C  C94  1  0.69007000  0.72132000  0.49028000  1.0
  C  C95  1  0.58866000  0.50917000  0.72082000  1.0
  C  C96  1  0.03248000  0.32957000  0.46933000  1.0
  C  C97  1  0.63888000  0.53150000  0.32993000  1.0
  C  C98  1  0.83032000  0.67046000  0.53069000  1.0
  C  C99  1  0.49954000  0.46855000  0.67003000  1.0
  C  C100  1  0.15786000  0.32554000  0.51661000  1.0
  C  C101  1  0.51731000  0.48427000  0.32585000  1.0
  C  C102  1  0.99881000  0.67447000  0.48369000  1.0
  C  C103  1  0.32660000  0.51559000  0.67419000  1.0
  C  C104  1  0.16123000  0.26912000  0.60476000  1.0
  C  C105  1  0.56981000  0.39596000  0.26924000  1.0
  C  C106  1  0.03385000  0.73104000  0.39569000  1.0
  C  C107  1  0.23419000  0.60388000  0.73082000  1.0
  C  C108  1  0.03766000  0.16010000  0.74028000  1.0
  C  C109  1  0.80159000  0.26035000  0.15972000  1.0
  C  C110  1  0.93739000  0.84014000  0.26002000  1.0
  C  C111  1  0.22110000  0.73965000  0.84031000  1.0
  N  N112  1  0.53057000  0.28749000  0.93304000  1.0
  N  N113  1  0.18243000  0.06733000  0.28658000  1.0
  N  N114  1  0.75118000  0.71230000  0.06677000  1.0
  N  N115  1  0.53608000  0.93267000  0.71327000  1.0
  N  N116  1  0.21735000  0.42157000  0.91151000  1.0
  N  N117  1  0.36130000  0.08883000  0.42030000  1.0
  N  N118  1  0.55086000  0.57799000  0.08869000  1.0
  N  N119  1  0.86972000  0.91131000  0.57984000  1.0
  O  O120  1  0.36705000  0.11654000  0.84270000  1.0
  O  O121  1  0.51746000  0.15697000  0.11699000  1.0
  O  O122  1  0.32663000  0.88309000  0.15707000  1.0
  O  O123  1  0.79131000  0.84310000  0.88317000  1.0
  O  O124  1  0.61517000  0.09298000  0.88711000  1.0
  O  O125  1  0.29190000  0.11351000  0.09349000  1.0
  O  O126  1  0.59529000  0.90681000  0.11263000  1.0
  O  O127  1  0.49906000  0.88627000  0.90636000  1.0
  O  O128  1  0.15173000  0.07482000  0.73151000  1.0
  O  O129  1  0.77273000  0.26989000  0.07490000  1.0
  O  O130  1  0.95807000  0.92526000  0.26881000  1.0
  O  O131  1  0.11725000  0.73015000  0.92508000  1.0
  O  O132  1  0.92514000  0.19725000  0.82066000  1.0
  O  O133  1  0.87714000  0.17903000  0.19630000  1.0
  O  O134  1  0.94245000  0.80300000  0.17952000  1.0
  O  O135  1  0.25182000  0.82094000  0.80371000  1.0
  O  O136  1  0.07466000  0.09974000  0.98348000  1.0
  O  O137  1  0.82705000  0.01649000  0.09887000  1.0
  O  O138  1  0.15779000  0.90015000  0.01651000  1.0
  O  O139  1  0.94245000  0.98350000  0.90113000  1.0
