# generated using pymatgen
data_Zn4C24S4O13F8
_symmetry_space_group_name_H-M   'P 1'
_cell_length_a   19.72800000
_cell_length_b   19.76400000
_cell_length_c   33.49600000
_cell_angle_alpha   78.88600000
_cell_angle_beta   78.99430000
_cell_angle_gamma   63.80460000
_symmetry_Int_Tables_number   1
_chemical_formula_structural   Zn4C24S4O13F8
_chemical_formula_sum   'Zn16 C96 S16 O52 F32'
_cell_volume   11415.73876990
_cell_formula_units_Z   4
loop_
 _symmetry_equiv_pos_site_id
 _symmetry_equiv_pos_as_xyz
  1  'x, y, z'
loop_
 _atom_site_type_symbol
 _atom_site_label
 _atom_site_symmetry_multiplicity
 _atom_site_fract_x
 _atom_site_fract_y
 _atom_site_fract_z
 _atom_site_occupancy
  Zn  Zn0  1  0.05621000  0.40108000  0.47864000  1.0
  Zn  Zn1  1  0.98331000  0.48300000  0.56012000  1.0
  Zn  Zn2  1  0.05946000  0.56081000  0.48281000  1.0
  Zn  Zn3  1  0.90079000  0.55527000  0.47886000  1.0
  Zn  Zn4  1  0.69370000  0.34894000  0.27137000  1.0
  Zn  Zn5  1  0.69051000  0.18926000  0.26719000  1.0
  Zn  Zn6  1  0.76787000  0.26650000  0.18982000  1.0
  Zn  Zn7  1  0.84857000  0.19476000  0.27169000  1.0
  Zn  Zn8  1  0.26671000  0.76702000  0.68991000  1.0
  Zn  Zn9  1  0.34918000  0.69470000  0.77117000  1.0
  Zn  Zn10  1  0.19371000  0.84892000  0.77141000  1.0
  Zn  Zn11  1  0.19050000  0.68924000  0.76720000  1.0
  Zn  Zn12  1  0.55948000  0.06081000  0.98282000  1.0
  Zn  Zn13  1  0.40145000  0.05518000  0.97830000  1.0
  Zn  Zn14  1  0.55622000  0.90105000  0.97866000  1.0
  Zn  Zn15  1  0.48225000  0.98349000  0.06016000  1.0
  C  C16  1  0.06130000  0.31646000  0.56158000  1.0
  C  C17  1  0.06873000  0.56903000  0.56866000  1.0
  C  C18  1  0.18368000  0.43956000  0.43878000  1.0
  C  C19  1  0.93766000  0.68379000  0.43877000  1.0
  C  C20  1  0.93146000  0.43094000  0.43141000  1.0
  C  C21  1  0.81650000  0.56099000  0.56174000  1.0
  C  C22  1  0.56622000  0.31052000  0.31123000  1.0
  C  C23  1  0.68164000  0.18095000  0.18127000  1.0
  C  C24  1  0.68914000  0.43328000  0.18836000  1.0
  C  C25  1  0.93435000  0.18838000  0.18909000  1.0
  C  C26  1  0.81830000  0.31918000  0.31874000  1.0
  C  C27  1  0.81209000  0.06610000  0.31135000  1.0
  C  C28  1  0.43346000  0.68913000  0.68828000  1.0
  C  C29  1  0.31856000  0.81896000  0.81860000  1.0
  C  C30  1  0.18885000  0.93350000  0.68845000  1.0
  C  C31  1  0.06621000  0.81052000  0.81123000  1.0
  C  C32  1  0.18129000  0.68103000  0.68134000  1.0
  C  C33  1  0.31233000  0.56619000  0.81122000  1.0
  C  C34  1  0.43786000  0.18388000  0.93864000  1.0
  C  C35  1  0.43168000  0.93075000  0.93126000  1.0
  C  C36  1  0.68367000  0.93956000  0.93878000  1.0
  C  C37  1  0.56096000  0.81667000  0.06166000  1.0
  C  C38  1  0.56840000  0.06912000  0.06871000  1.0
  C  C39  1  0.31577000  0.06165000  0.06092000  1.0
  C  C40  1  0.90269000  0.40248000  0.40264000  1.0
  C  C41  1  0.84713000  0.34773000  0.34741000  1.0
  C  C42  1  0.83118000  0.44543000  0.38836000  1.0
  C  C43  1  0.91865000  0.30476000  0.36170000  1.0
  C  C44  1  0.80441000  0.41901000  0.36171000  1.0
  C  C45  1  0.94543000  0.33120000  0.38834000  1.0
  C  C46  1  0.09745000  0.59755000  0.59737000  1.0
  C  C47  1  0.15256000  0.65251000  0.65264000  1.0
  C  C48  1  0.14033000  0.64039000  0.58307000  1.0
  C  C49  1  0.10970000  0.60967000  0.66693000  1.0
  C  C50  1  0.16691000  0.66694000  0.60974000  1.0
  C  C51  1  0.08311000  0.58312000  0.64026000  1.0
  C  C52  1  0.30460000  0.45274000  0.40077000  1.0
  C  C53  1  0.44526000  0.29733000  0.34919000  1.0
  C  C54  1  0.25821000  0.41461000  0.41389000  1.0
  C  C55  1  0.49166000  0.33546000  0.33609000  1.0
  C  C56  1  0.37692000  0.33952000  0.37279000  1.0
  C  C57  1  0.37292000  0.41053000  0.37716000  1.0
  C  C58  1  0.72489000  0.57683000  0.62879000  1.0
  C  C59  1  0.52500000  0.67328000  0.62122000  1.0
  C  C60  1  0.74192000  0.58590000  0.58648000  1.0
  C  C61  1  0.50802000  0.66416000  0.66352000  1.0
  C  C62  1  0.60392000  0.64164000  0.60821000  1.0
  C  C63  1  0.64597000  0.60850000  0.64179000  1.0
  C  C64  1  0.07692000  0.22474000  0.62868000  1.0
  C  C65  1  0.17318000  0.02515000  0.62132000  1.0
  C  C66  1  0.08595000  0.24189000  0.58637000  1.0
  C  C67  1  0.16409000  0.00805000  0.66363000  1.0
  C  C68  1  0.14159000  0.10399000  0.60823000  1.0
  C  C69  1  0.10853000  0.14589000  0.64176000  1.0
  C  C70  1  0.84511000  0.80111000  0.39723000  1.0
  C  C71  1  0.90477000  0.94877000  0.35282000  1.0
  C  C72  1  0.91306000  0.75823000  0.41385000  1.0
  C  C73  1  0.83678000  0.99161000  0.33621000  1.0
  C  C74  1  0.90848000  0.87915000  0.37510000  1.0
  C  C75  1  0.84151000  0.87064000  0.37488000  1.0
  C  C76  1  0.65267000  0.15254000  0.15260000  1.0
  C  C77  1  0.59735000  0.09752000  0.09740000  1.0
  C  C78  1  0.66692000  0.16689000  0.10970000  1.0
  C  C79  1  0.58311000  0.08317000  0.14030000  1.0
  C  C80  1  0.64027000  0.14032000  0.08307000  1.0
  C  C81  1  0.60976000  0.10973000  0.16694000  1.0
  C  C82  1  0.67324000  0.52516000  0.12125000  1.0
  C  C83  1  0.57686000  0.72472000  0.12874000  1.0
  C  C84  1  0.66422000  0.50789000  0.16354000  1.0
  C  C85  1  0.58582000  0.74203000  0.08645000  1.0
  C  C86  1  0.60854000  0.64584000  0.14177000  1.0
  C  C87  1  0.64160000  0.60404000  0.10821000  1.0
  C  C88  1  0.08070000  0.12479000  0.17683000  1.0
  C  C89  1  0.16941000  0.12506000  0.07316000  1.0
  C  C90  1  0.00875000  0.16357000  0.16417000  1.0
  C  C91  1  0.24136000  0.08637000  0.08582000  1.0
  C  C92  1  0.11041000  0.13932000  0.10609000  1.0
  C  C93  1  0.13971000  0.11039000  0.14390000  1.0
  C  C94  1  0.34727000  0.84746000  0.84736000  1.0
  C  C95  1  0.40283000  0.90223000  0.90258000  1.0
  C  C96  1  0.30451000  0.91874000  0.86167000  1.0
  C  C97  1  0.44555000  0.83092000  0.88830000  1.0
  C  C98  1  0.33129000  0.94519000  0.88831000  1.0
  C  C99  1  0.41877000  0.80450000  0.86166000  1.0
  C  C100  1  0.40487000  0.44890000  0.85280000  1.0
  C  C101  1  0.34521000  0.30124000  0.89719000  1.0
  C  C102  1  0.33691000  0.49177000  0.83617000  1.0
  C  C103  1  0.41320000  0.25837000  0.91380000  1.0
  C  C104  1  0.34159000  0.37080000  0.87486000  1.0
  C  C105  1  0.40856000  0.37929000  0.87509000  1.0
  C  C106  1  0.94526000  0.79733000  0.84919000  1.0
  C  C107  1  0.80460000  0.95274000  0.90077000  1.0
  C  C108  1  0.99166000  0.83546000  0.83610000  1.0
  C  C109  1  0.75820000  0.91461000  0.91390000  1.0
  C  C110  1  0.87292000  0.91053000  0.87716000  1.0
  C  C111  1  0.87692000  0.83953000  0.87280000  1.0
  S  S112  1  0.29840000  0.32520000  0.39722000  1.0
  S  S113  1  0.45146000  0.42487000  0.35278000  1.0
  S  S114  1  0.66028000  0.63400000  0.56177000  1.0
  S  S115  1  0.58964000  0.61606000  0.68824000  1.0
  S  S116  1  0.13397000  0.16042000  0.56175000  1.0
  S  S117  1  0.11608000  0.08951000  0.68825000  1.0
  S  S118  1  0.97429000  0.80324000  0.40215000  1.0
  S  S119  1  0.77564000  0.94652000  0.34788000  1.0
  S  S120  1  0.61616000  0.58930000  0.18822000  1.0
  S  S121  1  0.63390000  0.66063000  0.06176000  1.0
  S  S122  1  0.01255000  0.18319000  0.11100000  1.0
  S  S123  1  0.23756000  0.06670000  0.13899000  1.0
  S  S124  1  0.27574000  0.44670000  0.84785000  1.0
  S  S125  1  0.47438000  0.30341000  0.90212000  1.0
  S  S126  1  0.95146000  0.92487000  0.85278000  1.0
  S  S127  1  0.79839000  0.82520000  0.89722000  1.0
  O  O128  1  0.00017000  0.49981000  0.49988000  1.0
  O  O129  1  0.07821000  0.31558000  0.52272000  1.0
  O  O130  1  0.03093000  0.53067000  0.58508000  1.0
  O  O131  1  0.15569000  0.50571000  0.44990000  1.0
  O  O132  1  0.02572000  0.37461000  0.58069000  1.0
  O  O133  1  0.15390000  0.39174000  0.44688000  1.0
  O  O134  1  0.08468000  0.58578000  0.53052000  1.0
  O  O135  1  0.00433000  0.65708000  0.44977000  1.0
  O  O136  1  0.88760000  0.49596000  0.44245000  1.0
  O  O137  1  0.89115000  0.65286000  0.44714000  1.0
  O  O138  1  0.99696000  0.38752000  0.44216000  1.0
  O  O139  1  0.87486000  0.52554000  0.58085000  1.0
  O  O140  1  0.81542000  0.57759000  0.52287000  1.0
  O  O141  1  0.74974000  0.25029000  0.25002000  1.0
  O  O142  1  0.59598000  0.35836000  0.30315000  1.0
  O  O143  1  0.66537000  0.16447000  0.21940000  1.0
  O  O144  1  0.72506000  0.37508000  0.16927000  1.0
  O  O145  1  0.59426000  0.24439000  0.30009000  1.0
  O  O146  1  0.67208000  0.43424000  0.22719000  1.0
  O  O147  1  0.71993000  0.21886000  0.16486000  1.0
  O  O148  1  0.87657000  0.22386000  0.16913000  1.0
  O  O149  1  0.86197000  0.25393000  0.30797000  1.0
  O  O150  1  0.93387000  0.17259000  0.22784000  1.0
  O  O151  1  0.75292000  0.36268000  0.30781000  1.0
  O  O152  1  0.74557000  0.09278000  0.30015000  1.0
  O  O153  1  0.85850000  0.09715000  0.30322000  1.0
  O  O154  1  0.24980000  0.75020000  0.75015000  1.0
  O  O155  1  0.37511000  0.72460000  0.66915000  1.0
  O  O156  1  0.36242000  0.75394000  0.80757000  1.0
  O  O157  1  0.17199000  0.93437000  0.72730000  1.0
  O  O158  1  0.43454000  0.67256000  0.72715000  1.0
  O  O159  1  0.22440000  0.87537000  0.66931000  1.0
  O  O160  1  0.25304000  0.86238000  0.80785000  1.0
  O  O161  1  0.09596000  0.85837000  0.80315000  1.0
  O  O162  1  0.16534000  0.66427000  0.71948000  1.0
  O  O163  1  0.09424000  0.74439000  0.80010000  1.0
  O  O164  1  0.21908000  0.71939000  0.66491000  1.0
  O  O165  1  0.35883000  0.59714000  0.80289000  1.0
  O  O166  1  0.24572000  0.59288000  0.80016000  1.0
  O  O167  1  0.50028000  0.99972000  0.99996000  1.0
  O  O168  1  0.50443000  0.15718000  0.94979000  1.0
  O  O169  1  0.38800000  0.99600000  0.94203000  1.0
  O  O170  1  0.65388000  0.89175000  0.94688000  1.0
  O  O171  1  0.39147000  0.15283000  0.94681000  1.0
  O  O172  1  0.65567000  0.00572000  0.94989000  1.0
  O  O173  1  0.49704000  0.88725000  0.94221000  1.0
  O  O174  1  0.57811000  0.81571000  0.02283000  1.0
  O  O175  1  0.53011000  0.03121000  0.08511000  1.0
  O  O176  1  0.52500000  0.87488000  0.08072000  1.0
  O  O177  1  0.58469000  0.08558000  0.03059000  1.0
  O  O178  1  0.31619000  0.07751000  0.02217000  1.0
  O  O179  1  0.37356000  0.02617000  0.08086000  1.0
  F  F180  1  0.78449000  0.51452000  0.39950000  1.0
  F  F181  1  0.96537000  0.23573000  0.35052000  1.0
  F  F182  1  0.73519000  0.46585000  0.35051000  1.0
  F  F183  1  0.01466000  0.28436000  0.39951000  1.0
  F  F184  1  0.15817000  0.65819000  0.54287000  1.0
  F  F185  1  0.09185000  0.59183000  0.70714000  1.0
  F  F186  1  0.20710000  0.70709000  0.59196000  1.0
  F  F187  1  0.04293000  0.54296000  0.65805000  1.0
  F  F188  1  0.70709000  0.20707000  0.09187000  1.0
  F  F189  1  0.54295000  0.04298000  0.15812000  1.0
  F  F190  1  0.65808000  0.15812000  0.04286000  1.0
  F  F191  1  0.59193000  0.09191000  0.20715000  1.0
  F  F192  1  0.23532000  0.96561000  0.85047000  1.0
  F  F193  1  0.51480000  0.78412000  0.89947000  1.0
  F  F194  1  0.28462000  0.01426000  0.89946000  1.0
  F  F195  1  0.46550000  0.73545000  0.85048000  1.0
  F  F196  1  0.28798000  0.52246000  0.40917000  1.0
  F  F197  1  0.46199000  0.22760000  0.34078000  1.0
  F  F198  1  0.77668000  0.54192000  0.65535000  1.0
  F  F199  1  0.47322000  0.70820000  0.59466000  1.0
  F  F200  1  0.04212000  0.27638000  0.65518000  1.0
  F  F201  1  0.20800000  0.97351000  0.59482000  1.0
  F  F202  1  0.78778000  0.78017000  0.40137000  1.0
  F  F203  1  0.96204000  0.96976000  0.34871000  1.0
  F  F204  1  0.70807000  0.47356000  0.09470000  1.0
  F  F205  1  0.54204000  0.77631000  0.15529000  1.0
  F  F206  1  0.09462000  0.10262000  0.21601000  1.0
  F  F207  1  0.15546000  0.14735000  0.03398000  1.0
  F  F208  1  0.46218000  0.46987000  0.84869000  1.0
  F  F209  1  0.28793000  0.28027000  0.90133000  1.0
  F  F210  1  0.96198000  0.72760000  0.84078000  1.0
  F  F211  1  0.78798000  0.02245000  0.90917000  1.0
