# generated using pymatgen
data_BaH18C12(N4O5)2
_symmetry_space_group_name_H-M   'P 1'
_cell_length_a   4.68358000
_cell_length_b   8.38425000
_cell_length_c   12.58947521
_cell_angle_alpha   103.97558894
_cell_angle_beta   100.70736434
_cell_angle_gamma   90.00410000
_symmetry_Int_Tables_number   1
_chemical_formula_structural   BaH18C12(N4O5)2
_chemical_formula_sum   'Ba1 H18 C12 N8 O10'
_cell_volume   470.85687558
_cell_formula_units_Z   1
loop_
 _symmetry_equiv_pos_site_id
 _symmetry_equiv_pos_as_xyz
  1  'x, y, z'
loop_
 _atom_site_type_symbol
 _atom_site_label
 _atom_site_symmetry_multiplicity
 _atom_site_fract_x
 _atom_site_fract_y
 _atom_site_fract_z
 _atom_site_occupancy
  Ba  Ba0  1  0.08626000  0.00002000  0.00001000  1.0
  H  H1  1  0.77091000  0.61888000  0.52035000  1.0
  H  H2  1  0.25116000  0.38148000  0.47971000  1.0
  H  H3  1  0.48416000  0.86744000  0.45901000  1.0
  H  H4  1  0.02520000  0.13244000  0.54082000  1.0
  H  H5  1  0.62971000  0.40018000  0.31758000  1.0
  H  H6  1  0.31268000  0.59983000  0.68249000  1.0
  H  H7  1  0.95067000  0.32948000  0.27105000  1.0
  H  H8  1  0.68014000  0.67055000  0.72902000  1.0
  H  H9  1  0.88751000  0.49003000  0.13159000  1.0
  H  H10  1  0.75619000  0.50981000  0.86840000  1.0
  H  H11  1  0.16102000  0.85039000  0.59900000  1.0
  H  H12  1  0.56237000  0.14976000  0.40096000  1.0
  H  H13  1  0.39952000  0.63276000  0.24309000  1.0
  H  H14  1  0.15671000  0.36726000  0.75689000  1.0
  H  H15  1  0.38113000  0.60861000  0.10264000  1.0
  H  H16  1  0.27845000  0.39145000  0.89735000  1.0
  H  H17  1  0.65945000  0.72348000  0.19101000  1.0
  H  H18  1  0.46843000  0.27646000  0.80901000  1.0
  C  C19  1  0.97746000  0.57925000  0.36911000  1.0
  C  C20  1  0.60883000  0.42080000  0.63090000  1.0
  C  C21  1  0.92947000  0.64902000  0.47491000  1.0
  C  C22  1  0.45506000  0.35117000  0.52509000  1.0
  C  C23  1  0.30337000  0.77934000  0.44385000  1.0
  C  C24  1  0.85978000  0.22066000  0.55606000  1.0
  C  C25  1  0.81461000  0.43673000  0.28486000  1.0
  C  C26  1  0.53026000  0.56329000  0.71519000  1.0
  C  C27  1  0.70194000  0.46957000  0.16986000  1.0
  C  C28  1  0.53247000  0.53039000  0.83017000  1.0
  C  C29  1  0.52444000  0.31817000  0.09208000  1.0
  C  C30  1  0.43291000  0.68183000  0.90798000  1.0
  N  N31  1  0.13757000  0.77475000  0.52067000  1.0
  N  N32  1  0.61725000  0.22540000  0.47927000  1.0
  N  N33  1  0.21349000  0.66205000  0.35100000  1.0
  N  N34  1  0.86282000  0.33790000  0.64895000  1.0
  N  N35  1  0.52446000  0.61836000  0.17782000  1.0
  N  N36  1  0.34680000  0.38164000  0.82219000  1.0
  N  N37  1  0.01594000  0.97866000  0.25270000  1.0
  N  N38  1  0.76388000  0.02118000  0.74729000  1.0
  O  O39  1  0.27030000  0.33872000  0.04173000  1.0
  O  O40  1  0.22914000  0.66135000  0.95838000  1.0
  O  O41  1  0.64236000  0.18069000  0.08359000  1.0
  O  O42  1  0.55930000  0.81927000  0.91636000  1.0
  O  O43  1  0.91550000  0.86378000  0.16546000  1.0
  O  O44  1  0.74983000  0.13601000  0.83447000  1.0
  O  O45  1  0.91047000  0.99559000  0.33844000  1.0
  O  O46  1  0.57321000  0.00394000  0.66141000  1.0
  O  O47  1  0.22490000  0.07265000  0.24819000  1.0
  O  O48  1  0.97782000  0.92753000  0.75202000  1.0
