# generated using pymatgen
data_Zn3H10C6(NO)8
_symmetry_space_group_name_H-M   'P 1'
_cell_length_a   6.52220000
_cell_length_b   7.53430000
_cell_length_c   14.68110000
_cell_angle_alpha   90.00000000
_cell_angle_beta   90.00120000
_cell_angle_gamma   96.15410000
_symmetry_Int_Tables_number   1
_chemical_formula_structural   Zn3H10C6(NO)8
_chemical_formula_sum   'Zn6 H20 C12 N16 O16'
_cell_volume   717.27486187
_cell_formula_units_Z   2
loop_
 _symmetry_equiv_pos_site_id
 _symmetry_equiv_pos_as_xyz
  1  'x, y, z'
loop_
 _atom_site_type_symbol
 _atom_site_label
 _atom_site_symmetry_multiplicity
 _atom_site_fract_x
 _atom_site_fract_y
 _atom_site_fract_z
 _atom_site_occupancy
  Zn  Zn0  1  0.23018000  0.44927000  0.21359000  1.0
  Zn  Zn1  1  0.26982000  0.55099000  0.71360000  1.0
  Zn  Zn2  1  0.76983000  0.55096000  0.78642000  1.0
  Zn  Zn3  1  0.73019000  0.44929000  0.28641000  1.0
  Zn  Zn4  1  0.49963000  0.00034000  0.50003000  1.0
  Zn  Zn5  1  0.99976000  0.00024000  0.99997000  1.0
  H  H6  1  0.95307000  0.21116000  0.24399000  1.0
  H  H7  1  0.54693000  0.78909000  0.74406000  1.0
  H  H8  1  0.04688000  0.78910000  0.75593000  1.0
  H  H9  1  0.45309000  0.21115000  0.25600000  1.0
  H  H10  1  0.27065000  0.45869000  0.40623000  1.0
  H  H11  1  0.22962000  0.54149000  0.90620000  1.0
  H  H12  1  0.72962000  0.54148000  0.59381000  1.0
  H  H13  1  0.77063000  0.45869000  0.09380000  1.0
  H  H14  1  0.06914000  0.58151000  0.43549000  1.0
  H  H15  1  0.43114000  0.41857000  0.93547000  1.0
  H  H16  1  0.93117000  0.41859000  0.56454000  1.0
  H  H17  1  0.56908000  0.58149000  0.06454000  1.0
  H  H18  1  0.11382000  0.11254000  0.50857000  1.0
  H  H19  1  0.38242000  0.88308000  0.00873000  1.0
  H  H20  1  0.88157000  0.88204000  0.49122000  1.0
  H  H21  1  0.61466000  0.11359000  0.99140000  1.0
  H  H22  1  0.17536000  0.08885000  0.61206000  1.0
  H  H23  1  0.32482000  0.91191000  0.11206000  1.0
  H  H24  1  0.82491000  0.91207000  0.38794000  1.0
  H  H25  1  0.67530000  0.08868000  0.88794000  1.0
  C  C26  1  0.30709000  0.72829000  0.36153000  1.0
  C  C27  1  0.19303000  0.27190000  0.86156000  1.0
  C  C28  1  0.69306000  0.27189000  0.63844000  1.0
  C  C29  1  0.80705000  0.72829000  0.13847000  1.0
  C  C30  1  0.23918000  0.59105000  0.43073000  1.0
  C  C31  1  0.26107000  0.40915000  0.93075000  1.0
  C  C32  1  0.76111000  0.40915000  0.56926000  1.0
  C  C33  1  0.73913000  0.59104000  0.06928000  1.0
  C  C34  1  0.32169000  0.61309000  0.52696000  1.0
  C  C35  1  0.17884000  0.38719000  0.02702000  1.0
  C  C36  1  0.67894000  0.38723000  0.47298000  1.0
  C  C37  1  0.82155000  0.61305000  0.97303000  1.0
  N  N38  1  0.29213000  0.69618000  0.27159000  1.0
  N  N39  1  0.20783000  0.30410000  0.77163000  1.0
  N  N40  1  0.70785000  0.30408000  0.72837000  1.0
  N  N41  1  0.79213000  0.69621000  0.22842000  1.0
  N  N42  1  0.35091000  0.85267000  0.22959000  1.0
  N  N43  1  0.14900000  0.14767000  0.72959000  1.0
  N  N44  1  0.64903000  0.14764000  0.77040000  1.0
  N  N45  1  0.85091000  0.85272000  0.27041000  1.0
  N  N46  1  0.40066000  0.97478000  0.29118000  1.0
  N  N47  1  0.09934000  0.02548000  0.79114000  1.0
  N  N48  1  0.59938000  0.02546000  0.70884000  1.0
  N  N49  1  0.90064000  0.97480000  0.20881000  1.0
  N  N50  1  0.37484000  0.90085000  0.37477000  1.0
  N  N51  1  0.12530000  0.09932000  0.87476000  1.0
  N  N52  1  0.62535000  0.09930000  0.62522000  1.0
  N  N53  1  0.87480000  0.90085000  0.12523000  1.0
  O  O54  1  0.98116000  0.33412000  0.26806000  1.0
  O  O55  1  0.51882000  0.66611000  0.76809000  1.0
  O  O56  1  0.01880000  0.66610000  0.73192000  1.0
  O  O57  1  0.48118000  0.33413000  0.23195000  1.0
  O  O58  1  0.44331000  0.74456000  0.55305000  1.0
  O  O59  1  0.05777000  0.25550000  0.05325000  1.0
  O  O60  1  0.55802000  0.25549000  0.44668000  1.0
  O  O61  1  0.94307000  0.74459000  0.94691000  1.0
  O  O62  1  0.25493000  0.48485000  0.58043000  1.0
  O  O63  1  0.24532000  0.51573000  0.08039000  1.0
  O  O64  1  0.74534000  0.51581000  0.41962000  1.0
  O  O65  1  0.75487000  0.48474000  0.91960000  1.0
  O  O66  1  0.18916000  0.04022000  0.54910000  1.0
  O  O67  1  0.31193000  0.95979000  0.04887000  1.0
  O  O68  1  0.81228000  0.95978000  0.45119000  1.0
  O  O69  1  0.68889000  0.04024000  0.95095000  1.0
