# generated using pymatgen
data_Zn4H50C53N4O23
_symmetry_space_group_name_H-M   'P 1'
_cell_length_a   10.75440000
_cell_length_b   19.16900000
_cell_length_c   19.22240000
_cell_angle_alpha   94.38350000
_cell_angle_beta   92.48680000
_cell_angle_gamma   97.21310000
_symmetry_Int_Tables_number   1
_chemical_formula_structural   Zn4H50C53N4O23
_chemical_formula_sum   'Zn4 H50 C53 N4 O23'
_cell_volume   3914.23034553
_cell_formula_units_Z   1
loop_
 _symmetry_equiv_pos_site_id
 _symmetry_equiv_pos_as_xyz
  1  'x, y, z'
loop_
 _atom_site_type_symbol
 _atom_site_label
 _atom_site_symmetry_multiplicity
 _atom_site_fract_x
 _atom_site_fract_y
 _atom_site_fract_z
 _atom_site_occupancy
  Zn  Zn0  1  0.39899000  0.43470000  0.43181000  1.0
  Zn  Zn1  1  0.61566000  0.56247000  0.45017000  1.0
  Zn  Zn2  1  0.59372000  0.44654000  0.56429000  1.0
  Zn  Zn3  1  0.39999000  0.55718000  0.55942000  1.0
  H  H4  1  0.38447000  0.40649000  0.21232000  1.0
  H  H5  1  0.89164000  0.47180000  0.39158000  1.0
  H  H6  1  0.59996000  0.28610000  0.35608000  1.0
  H  H7  1  0.76376000  0.28812000  0.34557000  1.0
  H  H8  1  0.66180000  0.20744000  0.32858000  1.0
  H  H9  1  0.72297000  0.29018000  0.47291000  1.0
  H  H10  1  0.78230000  0.21201000  0.44482000  1.0
  H  H11  1  0.16003000  0.35635000  0.83925000  1.0
  H  H12  1  0.23812000  0.35202000  0.92177000  1.0
  H  H13  1  0.07911000  0.36918000  0.91696000  1.0
  H  H14  1  0.22540000  0.47962000  0.95293000  1.0
  H  H15  1  0.38805000  0.41437000  0.08207000  1.0
  H  H16  1  0.14480000  0.48673000  0.87258000  1.0
  H  H17  1  0.14430000  0.38802000  0.66156000  1.0
  H  H18  1  0.30979000  0.39468000  0.66415000  1.0
  H  H19  1  0.22698000  0.35055000  0.72852000  1.0
  H  H20  1  0.14930000  0.46420000  0.77244000  1.0
  H  H21  1  0.23339000  0.50936000  0.70947000  1.0
  H  H22  1  0.78963000  0.45766000  0.97945000  1.0
  H  H23  1  0.70376000  0.69892000  0.19522000  1.0
  H  H24  1  0.82582000  0.64473000  0.18782000  1.0
  H  H25  1  0.81494000  0.71217000  0.13043000  1.0
  H  H26  1  0.65252000  0.59320000  0.24392000  1.0
  H  H27  1  0.73487000  0.59805000  0.06532000  1.0
  H  H28  1  0.61444000  0.64968000  0.07485000  1.0
  H  H29  1  0.74110000  0.43110000  0.73156000  1.0
  H  H30  1  0.87832000  0.49337000  0.74914000  1.0
  H  H31  1  0.80688000  0.44982000  0.81840000  1.0
  H  H32  1  0.69103000  0.55574000  0.73019000  1.0
  H  H33  1  0.75745000  0.57567000  0.81567000  1.0
  H  H34  1  0.12660000  0.75408000  0.43320000  1.0
  H  H35  1  0.13369000  0.07962000  0.42038000  1.0
  H  H36  1  0.21746000  0.00554000  0.42440000  1.0
  H  H37  1  0.02928000  0.54625000  0.56770000  1.0
  H  H38  1  0.07664000  0.00759000  0.46916000  1.0
  H  H39  1  0.26267000  0.03501000  0.55306000  1.0
  H  H40  1  0.18007000  0.10892000  0.55032000  1.0
  H  H41  1  0.09228000  0.24183000  0.49681000  1.0
  H  H42  1  0.90487000  0.75682000  0.54312000  1.0
  H  H43  1  0.85027000  0.07466000  0.45475000  1.0
  H  H44  1  0.67655000  0.98694000  0.63717000  1.0
  H  H45  1  0.74166000  0.91123000  0.66257000  1.0
  H  H46  1  0.84206000  0.98970000  0.64908000  1.0
  H  H47  1  0.84491000  0.90363000  0.54516000  1.0
  H  H48  1  0.34626000  0.89611000  0.46289000  1.0
  H  H49  1  0.77196000  0.97750000  0.52227000  1.0
  H  H50  1  0.08200000  0.43429000  0.33054000  1.0
  H  H51  1  0.06449000  0.35594000  0.37397000  1.0
  H  H52  1  0.94167000  0.37446000  0.31593000  1.0
  H  H53  1  0.88495000  0.39659000  0.43819000  1.0
  C  C54  1  0.51329000  0.68857000  0.50796000  1.0
  C  C55  1  0.51958000  0.76727000  0.50681000  1.0
  C  C56  1  0.63333000  0.80971000  0.52743000  1.0
  C  C57  1  0.49157000  0.31086000  0.48686000  1.0
  C  C58  1  0.64536000  0.88356000  0.52564000  1.0
  C  C59  1  0.46914000  0.49796000  0.76706000  1.0
  C  C60  1  0.58076000  0.51108000  0.81004000  1.0
  C  C61  1  0.57100000  0.50398000  0.88168000  1.0
  C  C62  1  0.45165000  0.48737000  0.90886000  1.0
  C  C63  1  0.34032000  0.47554000  0.86532000  1.0
  C  C64  1  0.34934000  0.48020000  0.79295000  1.0
  C  C65  1  0.58673000  0.19824000  0.46587000  1.0
  C  C66  1  0.44418000  0.45346000  0.11856000  1.0
  C  C67  1  0.44277000  0.44898000  0.19011000  1.0
  C  C68  1  0.52000000  0.50907000  0.09130000  1.0
  C  C69  1  0.51768000  0.49670000  0.31201000  1.0
  C  C70  1  0.51865000  0.49994000  0.23493000  1.0
  C  C71  1  0.59524000  0.55476000  0.20743000  1.0
  C  C72  1  0.59779000  0.56084000  0.13567000  1.0
  C  C73  1  0.48065000  0.50103000  0.68981000  1.0
  C  C74  1  0.83530000  0.51677000  0.52242000  1.0
  C  C75  1  0.16859000  0.48311000  0.48466000  1.0
  C  C76  1  0.57659000  0.12474000  0.46741000  1.0
  C  C77  1  0.02908000  0.47930000  0.47482000  1.0
  C  C78  1  0.97338000  0.51647000  0.52397000  1.0
  C  C79  1  0.48230000  0.23175000  0.48476000  1.0
  C  C80  1  0.95104000  0.43590000  0.41485000  1.0
  C  C81  1  0.01433000  0.39806000  0.35581000  1.0
  C  C82  1  0.70078000  0.24065000  0.43953000  1.0
  C  C83  1  0.68014000  0.25651000  0.36292000  1.0
  C  C84  1  0.21567000  0.45904000  0.89792000  1.0
  C  C85  1  0.17040000  0.37953000  0.89357000  1.0
  C  C86  1  0.23449000  0.46550000  0.74300000  1.0
  C  C87  1  0.46449000  0.08642000  0.48761000  1.0
  C  C88  1  0.22890000  0.39598000  0.69681000  1.0
  C  C89  1  0.68876000  0.51168000  0.92790000  1.0
  C  C90  1  0.67713000  0.62052000  0.10508000  1.0
  C  C91  1  0.75963000  0.67171000  0.15778000  1.0
  C  C92  1  0.70640000  0.53303000  0.78013000  1.0
  C  C93  1  0.78778000  0.47314000  0.76923000  1.0
  C  C94  1  0.29927000  0.75263000  0.45409000  1.0
  C  C95  1  0.23775000  0.07579000  0.51990000  1.0
  C  C96  1  0.16154000  0.04015000  0.45441000  1.0
  C  C97  1  0.26271000  0.23469000  0.51770000  1.0
  C  C98  1  0.35684000  0.11967000  0.50167000  1.0
  C  C99  1  0.73783000  0.77269000  0.55529000  1.0
  C  C100  1  0.68019000  0.08691000  0.43893000  1.0
  C  C101  1  0.76238000  0.93106000  0.55250000  1.0
  C  C102  1  0.75515000  0.95604000  0.63005000  1.0
  C  C103  1  0.36778000  0.19323000  0.49969000  1.0
  C  C104  1  0.42515000  0.87107000  0.48178000  1.0
  C  C105  1  0.41512000  0.79814000  0.48317000  1.0
  C  C106  1  0.53833000  0.91340000  0.50269000  1.0
  N  N107  1  0.45062000  0.01359000  0.49448000  1.0
  N  N108  1  0.55252000  0.98732000  0.50002000  1.0
  N  N109  1  0.43636000  0.48289000  0.98066000  1.0
  N  N110  1  0.52649000  0.51599000  0.01926000  1.0
  O  O111  1  0.50182000  0.49991000  0.50141000  1.0
  O  O112  1  0.79068000  0.55786000  0.48171000  1.0
  O  O113  1  0.22319000  0.52846000  0.53200000  1.0
  O  O114  1  0.77542000  0.47550000  0.56186000  1.0
  O  O115  1  0.22204000  0.44063000  0.44539000  1.0
  O  O116  1  0.76501000  0.56478000  0.93831000  1.0
  O  O117  1  0.71097000  0.44804000  0.95066000  1.0
  O  O118  1  0.29511000  0.69188000  0.42891000  1.0
  O  O119  1  0.19546000  0.78704000  0.45664000  1.0
  O  O120  1  0.27366000  0.28644000  0.55972000  1.0
  O  O121  1  0.15241000  0.21016000  0.48126000  1.0
  O  O122  1  0.43429000  0.45201000  0.33515000  1.0
  O  O123  1  0.72774000  0.73506000  0.60365000  1.0
  O  O124  1  0.84532000  0.78400000  0.52057000  1.0
  O  O125  1  0.67389000  0.05624000  0.38062000  1.0
  O  O126  1  0.78766000  0.09720000  0.48103000  1.0
  O  O127  1  0.42728000  0.54715000  0.65985000  1.0
  O  O128  1  0.58622000  0.66088000  0.46676000  1.0
  O  O129  1  0.56716000  0.34505000  0.53368000  1.0
  O  O130  1  0.44067000  0.65890000  0.55006000  1.0
  O  O131  1  0.42457000  0.33553000  0.44094000  1.0
  O  O132  1  0.60036000  0.53899000  0.34934000  1.0
  O  O133  1  0.54381000  0.45605000  0.66040000  1.0
