# generated using pymatgen
data_AgH3(CO)2
_symmetry_space_group_name_H-M   'P 1'
_cell_length_a   5.57865000
_cell_length_b   9.76477000
_cell_length_c   21.58903016
_cell_angle_alpha   89.01024408
_cell_angle_beta   82.55554788
_cell_angle_gamma   82.59720000
_symmetry_Int_Tables_number   1
_chemical_formula_structural   AgH3(CO)2
_chemical_formula_sum   'Ag14 H42 C28 O28'
_cell_volume   1156.41284841
_cell_formula_units_Z   14
loop_
 _symmetry_equiv_pos_site_id
 _symmetry_equiv_pos_as_xyz
  1  'x, y, z'
loop_
 _atom_site_type_symbol
 _atom_site_label
 _atom_site_symmetry_multiplicity
 _atom_site_fract_x
 _atom_site_fract_y
 _atom_site_fract_z
 _atom_site_occupancy
  Ag  Ag0  1  0.39136000  0.56332000  0.56312000  1.0
  Ag  Ag1  1  0.60863000  0.43670000  0.43689000  1.0
  Ag  Ag2  1  0.83505000  0.40661000  0.56751000  1.0
  Ag  Ag3  1  0.16493000  0.59340000  0.43249000  1.0
  Ag  Ag4  1  0.84703000  0.57505000  0.72824000  1.0
  Ag  Ag5  1  0.15299000  0.42495000  0.27176000  1.0
  Ag  Ag6  1  0.29674000  0.41826000  0.71866000  1.0
  Ag  Ag7  1  0.70330000  0.58175000  0.28133000  1.0
  Ag  Ag8  1  0.51403000  0.61105000  0.85781000  1.0
  Ag  Ag9  1  0.48597000  0.38892000  0.14219000  1.0
  Ag  Ag10  1  0.96070000  0.45565000  0.85596000  1.0
  Ag  Ag11  1  0.03929000  0.54433000  0.14403000  1.0
  Ag  Ag12  1  0.78144000  0.57870000  0.99375000  1.0
  Ag  Ag13  1  0.21856000  0.42130000  0.00625000  1.0
  H  H14  1  0.82731000  0.94968000  0.56339000  1.0
  H  H15  1  0.17268000  0.05033000  0.43661000  1.0
  H  H16  1  0.11497000  0.84532000  0.54139000  1.0
  H  H17  1  0.88502000  0.15468000  0.45860000  1.0
  H  H18  1  0.99320000  0.86145000  0.62113000  1.0
  H  H19  1  0.00680000  0.13856000  0.37887000  1.0
  H  H20  1  0.42286000  0.01722000  0.55519000  1.0
  H  H21  1  0.57710000  0.98280000  0.44481000  1.0
  H  H22  1  0.12742000  0.11797000  0.55883000  1.0
  H  H23  1  0.87256000  0.88204000  0.44117000  1.0
  H  H24  1  0.26671000  0.08368000  0.62756000  1.0
  H  H25  1  0.73326000  0.91632000  0.37244000  1.0
  H  H26  1  0.58214000  0.12999000  0.72821000  1.0
  H  H27  1  0.41786000  0.87003000  0.27179000  1.0
  H  H28  1  0.87569000  0.02746000  0.72409000  1.0
  H  H29  1  0.12432000  0.97255000  0.27591000  1.0
  H  H30  1  0.76919000  0.10624000  0.65598000  1.0
  H  H31  1  0.23082000  0.89378000  0.34401000  1.0
  H  H32  1  0.51463000  0.87246000  0.67113000  1.0
  H  H33  1  0.48539000  0.12754000  0.32887000  1.0
  H  H34  1  0.54004000  0.85811000  0.75202000  1.0
  H  H35  1  0.45997000  0.14189000  0.24798000  1.0
  H  H36  1  0.28165000  0.96129000  0.72592000  1.0
  H  H37  1  0.71836000  0.03872000  0.27409000  1.0
  H  H38  1  0.22742000  0.90262000  0.85057000  1.0
  H  H39  1  0.77258000  0.09737000  0.14944000  1.0
  H  H40  1  0.97436000  0.96268000  0.90660000  1.0
  H  H41  1  0.02563000  0.03730000  0.09340000  1.0
  H  H42  1  0.95314000  0.99360000  0.82684000  1.0
  H  H43  1  0.04685000  0.00638000  0.17317000  1.0
  H  H44  1  0.52379000  0.06834000  0.85551000  1.0
  H  H45  1  0.47622000  0.93164000  0.14448000  1.0
  H  H46  1  0.29286000  0.16995000  0.81756000  1.0
  H  H47  1  0.70714000  0.83004000  0.18243000  1.0
  H  H48  1  0.26263000  0.16496000  0.89958000  1.0
  H  H49  1  0.73737000  0.83502000  0.10042000  1.0
  H  H50  1  0.44462000  0.87379000  0.94725000  1.0
  H  H51  1  0.55538000  0.12621000  0.05275000  1.0
  H  H52  1  0.45520000  0.86880000  0.02843000  1.0
  H  H53  1  0.54479000  0.13120000  0.97157000  1.0
  H  H54  1  0.20328000  0.96833000  0.99824000  1.0
  H  H55  1  0.79672000  0.03167000  0.00176000  1.0
  C  C56  1  0.94451000  0.85547000  0.57359000  1.0
  C  C57  1  0.05548000  0.14454000  0.42640000  1.0
  C  C58  1  0.81819000  0.72889000  0.57051000  1.0
  C  C59  1  0.18180000  0.27112000  0.42949000  1.0
  C  C60  1  0.41834000  0.23645000  0.57078000  1.0
  C  C61  1  0.58164000  0.76357000  0.42923000  1.0
  C  C62  1  0.30261000  0.10514000  0.57730000  1.0
  C  C63  1  0.69736000  0.89488000  0.42270000  1.0
  C  C64  1  0.88374000  0.24894000  0.71471000  1.0
  C  C65  1  0.11628000  0.75107000  0.28528000  1.0
  C  C66  1  0.77183000  0.11925000  0.70637000  1.0
  C  C67  1  0.22817000  0.88076000  0.29363000  1.0
  C  C68  1  0.28162000  0.74032000  0.71931000  1.0
  C  C69  1  0.71839000  0.25968000  0.28070000  1.0
  C  C70  1  0.41025000  0.86703000  0.71764000  1.0
  C  C71  1  0.58975000  0.13297000  0.28237000  1.0
  C  C72  1  0.92303000  0.78473000  0.85763000  1.0
  C  C73  1  0.07697000  0.21524000  0.14238000  1.0
  C  C74  1  0.02853000  0.91858000  0.85973000  1.0
  C  C75  1  0.97146000  0.08140000  0.14027000  1.0
  C  C76  1  0.52774000  0.28994000  0.85813000  1.0
  C  C77  1  0.47226000  0.71004000  0.14187000  1.0
  C  C78  1  0.39729000  0.16409000  0.85757000  1.0
  C  C79  1  0.60271000  0.83589000  0.14242000  1.0
  C  C80  1  0.20344000  0.74573000  0.99726000  1.0
  C  C81  1  0.79656000  0.25427000  0.00274000  1.0
  C  C82  1  0.33110000  0.87316000  0.99285000  1.0
  C  C83  1  0.66890000  0.12685000  0.00715000  1.0
  O  O84  1  0.59006000  0.74359000  0.56905000  1.0
  O  O85  1  0.40993000  0.25641000  0.43095000  1.0
  O  O86  1  0.95379000  0.61161000  0.57085000  1.0
  O  O87  1  0.04621000  0.38840000  0.42915000  1.0
  O  O88  1  0.65043000  0.22529000  0.56374000  1.0
  O  O89  1  0.34955000  0.77473000  0.43626000  1.0
  O  O90  1  0.27569000  0.35068000  0.57525000  1.0
  O  O91  1  0.72430000  0.64933000  0.42476000  1.0
  O  O92  1  0.41708000  0.62327000  0.72023000  1.0
  O  O93  1  0.58294000  0.37674000  0.27977000  1.0
  O  O94  1  0.05288000  0.75511000  0.71882000  1.0
  O  O95  1  0.94714000  0.24490000  0.28118000  1.0
  O  O96  1  0.74584000  0.36391000  0.71162000  1.0
  O  O97  1  0.25419000  0.63611000  0.28837000  1.0
  O  O98  1  0.10874000  0.23668000  0.72171000  1.0
  O  O99  1  0.89128000  0.76332000  0.27829000  1.0
  O  O100  1  0.69388000  0.79407000  0.85545000  1.0
  O  O101  1  0.30613000  0.20591000  0.14456000  1.0
  O  O102  1  0.06596000  0.67184000  0.85963000  1.0
  O  O103  1  0.93403000  0.32813000  0.14038000  1.0
  O  O104  1  0.39108000  0.40746000  0.85946000  1.0
  O  O105  1  0.60891000  0.59253000  0.14054000  1.0
  O  O106  1  0.75656000  0.27505000  0.85749000  1.0
  O  O107  1  0.24341000  0.72492000  0.14251000  1.0
  O  O108  1  0.97230000  0.75941000  0.00246000  1.0
  O  O109  1  0.02772000  0.24059000  0.99753000  1.0
  O  O110  1  0.34179000  0.62935000  0.99412000  1.0
  O  O111  1  0.65823000  0.37065000  0.00588000  1.0
