# generated using pymatgen
data_Al2H10C20S2O17
_symmetry_space_group_name_H-M   'P 1'
_cell_length_a   6.58743000
_cell_length_b   11.02453550
_cell_length_c   12.55390000
_cell_angle_alpha   89.63122269
_cell_angle_beta   77.71500000
_cell_angle_gamma   73.49583256
_symmetry_Int_Tables_number   1
_chemical_formula_structural   Al2H10C20S2O17
_chemical_formula_sum   'Al2 H10 C20 S2 O17'
_cell_volume   852.70589698
_cell_formula_units_Z   1
loop_
 _symmetry_equiv_pos_site_id
 _symmetry_equiv_pos_as_xyz
  1  'x, y, z'
loop_
 _atom_site_type_symbol
 _atom_site_label
 _atom_site_symmetry_multiplicity
 _atom_site_fract_x
 _atom_site_fract_y
 _atom_site_fract_z
 _atom_site_occupancy
  Al  Al0  1  0.99209000  0.49663000  0.47278000  1.0
  Al  Al1  1  0.49365000  0.49617000  0.47109000  1.0
  H  H2  1  0.32619000  0.43624000  0.33990000  1.0
  H  H3  1  0.63886000  0.59204000  0.59766000  1.0
  H  H4  1  0.81030000  0.42615000  0.81208000  1.0
  H  H5  1  0.35192000  0.56204000  0.08875000  1.0
  H  H6  1  0.44291000  0.78975000  0.43611000  1.0
  H  H7  1  0.21220000  0.21621000  0.43502000  1.0
  H  H8  1  0.85863000  0.70169000  0.61764000  1.0
  H  H9  1  0.49801000  0.78724000  0.79818000  1.0
  H  H10  1  0.26193000  0.22826000  0.79805000  1.0
  H  H11  1  0.53408000  0.30312000  0.62230000  1.0
  C  C12  1  0.84070000  0.26664000  0.49569000  1.0
  C  C13  1  0.83070000  0.50383000  0.27770000  1.0
  C  C14  1  0.13471000  0.73097000  0.49588000  1.0
  C  C15  1  0.15648000  0.48773000  0.66830000  1.0
  C  C16  1  0.07750000  0.52615000  0.09713000  1.0
  C  C17  1  0.92487000  0.45605000  0.84888000  1.0
  C  C18  1  0.89358000  0.49934000  0.15939000  1.0
  C  C19  1  0.10216000  0.48733000  0.78754000  1.0
  C  C20  1  0.91738000  0.46900000  0.96132000  1.0
  C  C21  1  0.08845000  0.51016000  0.98362000  1.0
  C  C22  1  0.91625000  0.13664000  0.52919000  1.0
  C  C23  1  0.77882000  0.07024000  0.59723000  1.0
  C  C24  1  0.13594000  0.07102000  0.48563000  1.0
  C  C25  1  0.58657000  0.13458000  0.67305000  1.0
  C  C26  1  0.45883000  0.07177000  0.74230000  1.0
  C  C27  1  0.06370000  0.86624000  0.52913000  1.0
  C  C28  1  0.20973000  0.93519000  0.48585000  1.0
  C  C29  1  0.85208000  0.93314000  0.59689000  1.0
  C  C30  1  0.72359000  0.87329000  0.67190000  1.0
  C  C31  1  0.52833000  0.94005000  0.74178000  1.0
  S  S32  1  0.74245000  0.44958000  0.07907000  1.0
  S  S33  1  0.26025000  0.53201000  0.86566000  1.0
  O  O34  1  0.98422000  0.32415000  0.45574000  1.0
  O  O35  1  0.65088000  0.48219000  0.32258000  1.0
  O  O36  1  0.33917000  0.67452000  0.45868000  1.0
  O  O37  1  0.02163000  0.46325000  0.61859000  1.0
  O  O38  1  0.99266000  0.66963000  0.50081000  1.0
  O  O39  1  0.33059000  0.51379000  0.62197000  1.0
  O  O40  1  0.63753000  0.32148000  0.49992000  1.0
  O  O41  1  0.96226000  0.52833000  0.32976000  1.0
  O  O42  1  0.29093000  0.44046000  0.41938000  1.0
  O  O43  1  0.69342000  0.55276000  0.52422000  1.0
  O  O44  1  0.21936000  0.56339000  0.14259000  1.0
  O  O45  1  0.41609000  0.88380000  0.43349000  1.0
  O  O46  1  0.28632000  0.12301000  0.43301000  1.0
  O  O47  1  0.77993000  0.74571000  0.69045000  1.0
  O  O48  1  0.41258000  0.87664000  0.81216000  1.0
  O  O49  1  0.27405000  0.13913000  0.81291000  1.0
  O  O50  1  0.51227000  0.26381000  0.69390000  1.0
