# generated using pymatgen
data_Al2H15C19O10F3
_symmetry_space_group_name_H-M   'P 1'
_cell_length_a   6.95202000
_cell_length_b   11.81270000
_cell_length_c   17.74240000
_cell_angle_alpha   89.99970000
_cell_angle_beta   89.99830000
_cell_angle_gamma   76.96300000
_symmetry_Int_Tables_number   1
_chemical_formula_structural   Al2H15C19O10F3
_chemical_formula_sum   'Al4 H30 C38 O20 F6'
_cell_volume   1419.48772930
_cell_formula_units_Z   2
loop_
 _symmetry_equiv_pos_site_id
 _symmetry_equiv_pos_as_xyz
  1  'x, y, z'
loop_
 _atom_site_type_symbol
 _atom_site_label
 _atom_site_symmetry_multiplicity
 _atom_site_fract_x
 _atom_site_fract_y
 _atom_site_fract_z
 _atom_site_occupancy
  Al  Al0  1  0.87576000  0.49685000  0.49999000  1.0
  Al  Al1  1  0.37215000  0.49843000  0.49999000  1.0
  Al  Al2  1  0.24526000  0.00342000  0.00001000  1.0
  Al  Al3  1  0.75155000  0.99791000  0.00001000  1.0
  H  H4  1  0.20930000  0.17230000  0.19722000  1.0
  H  H5  1  0.20931000  0.17231000  0.80278000  1.0
  H  H6  1  0.90087000  0.32126000  0.30725000  1.0
  H  H7  1  0.90087000  0.32122000  0.69274000  1.0
  H  H8  1  0.35534000  0.26408000  0.30770000  1.0
  H  H9  1  0.35534000  0.26406000  0.69226000  1.0
  H  H10  1  0.86879000  0.67385000  0.31665000  1.0
  H  H11  1  0.86877000  0.67385000  0.68335000  1.0
  H  H12  1  0.86563000  0.77481000  0.19173000  1.0
  H  H13  1  0.86562000  0.77481000  0.80826000  1.0
  H  H14  1  0.07377000  0.76778000  0.31849000  1.0
  H  H15  1  0.07376000  0.76779000  0.68153000  1.0
  H  H16  1  0.36588000  0.49813000  0.09522000  1.0
  H  H17  1  0.36949000  0.45965000  0.19179000  1.0
  H  H18  1  0.31857000  0.36228000  0.12253000  1.0
  H  H19  1  0.71712000  0.43468000  0.13866000  1.0
  H  H20  1  0.66384000  0.33630000  0.07131000  1.0
  H  H21  1  0.60182000  0.20595000  0.17728000  1.0
  H  H22  1  0.67212000  0.30263000  0.24295000  1.0
  H  H23  1  0.36941000  0.45961000  0.80821000  1.0
  H  H24  1  0.31851000  0.36221000  0.87746000  1.0
  H  H25  1  0.36575000  0.49807000  0.90478000  1.0
  H  H26  1  0.66378000  0.33630000  0.92869000  1.0
  H  H27  1  0.71700000  0.43469000  0.86134000  1.0
  H  H28  1  0.67214000  0.30263000  0.75705000  1.0
  H  H29  1  0.60185000  0.20592000  0.82271000  1.0
  H  H30  1  0.67862000  0.34508000  0.50003000  1.0
  H  H31  1  0.06395000  0.65414000  0.50002000  1.0
  H  H32  1  0.44525000  0.15416000  0.99986000  1.0
  H  H33  1  0.06309000  0.84550000  0.99955000  1.0
  C  C34  1  0.57467000  0.62670000  0.39488000  1.0
  C  C35  1  0.57467000  0.62668000  0.60512000  1.0
  C  C36  1  0.17551000  0.36701000  0.60430000  1.0
  C  C37  1  0.17552000  0.36704000  0.39567000  1.0
  C  C38  1  0.20343000  0.29743000  0.32609000  1.0
  C  C39  1  0.20343000  0.29740000  0.67388000  1.0
  C  C40  1  0.04725000  0.28149000  0.28525000  1.0
  C  C41  1  0.04726000  0.28146000  0.71473000  1.0
  C  C42  1  0.90635000  0.20851000  0.17200000  1.0
  C  C43  1  0.90635000  0.20852000  0.82801000  1.0
  C  C44  1  0.06236000  0.21772000  0.21592000  1.0
  C  C45  1  0.06238000  0.21772000  0.78407000  1.0
  C  C46  1  0.38910000  0.72714000  0.27922000  1.0
  C  C47  1  0.38909000  0.72713000  0.72079000  1.0
  C  C48  1  0.56051000  0.68903000  0.32120000  1.0
  C  C49  1  0.56049000  0.68903000  0.67881000  1.0
  C  C50  1  0.73158000  0.70875000  0.28727000  1.0
  C  C51  1  0.73156000  0.70874000  0.71273000  1.0
  C  C52  1  0.73050000  0.76509000  0.21783000  1.0
  C  C53  1  0.73048000  0.76509000  0.78217000  1.0
  C  C54  1  0.55681000  0.80825000  0.17770000  1.0
  C  C55  1  0.55681000  0.80823000  0.82231000  1.0
  C  C56  1  0.38927000  0.78529000  0.21104000  1.0
  C  C57  1  0.38925000  0.78527000  0.78898000  1.0
  C  C58  1  0.17539000  0.79336000  0.19766000  1.0
  C  C59  1  0.17538000  0.79337000  0.80235000  1.0
  C  C60  1  0.17516000  0.72379000  0.27471000  1.0
  C  C61  1  0.17514000  0.72379000  0.72531000  1.0
  C  C62  1  0.54569000  0.87191000  0.89545000  1.0
  C  C63  1  0.54568000  0.87193000  0.10457000  1.0
  C  C64  1  0.94513000  0.13388000  0.10320000  1.0
  C  C65  1  0.94514000  0.13392000  0.89682000  1.0
  C  C66  1  0.69514000  0.26891000  0.18515000  1.0
  C  C67  1  0.62863000  0.36954000  0.12887000  1.0
  C  C68  1  0.40889000  0.42544000  0.13494000  1.0
  C  C69  1  0.69515000  0.26890000  0.81484000  1.0
  C  C70  1  0.62857000  0.36953000  0.87114000  1.0
  C  C71  1  0.40881000  0.42539000  0.86506000  1.0
  O  O72  1  0.41673000  0.60488000  0.57838000  1.0
  O  O73  1  0.41674000  0.60490000  0.42163000  1.0
  O  O74  1  0.74625000  0.60189000  0.42407000  1.0
  O  O75  1  0.74624000  0.60187000  0.57593000  1.0
  O  O76  1  0.00097000  0.39514000  0.42319000  1.0
  O  O77  1  0.00096000  0.39511000  0.57679000  1.0
  O  O78  1  0.64937000  0.42925000  0.49999000  1.0
  O  O79  1  0.33013000  0.39362000  0.57696000  1.0
  O  O80  1  0.33013000  0.39366000  0.42301000  1.0
  O  O81  1  0.09643000  0.57003000  0.50001000  1.0
  O  O82  1  0.70354000  0.89328000  0.07795000  1.0
  O  O83  1  0.70356000  0.89327000  0.92205000  1.0
  O  O84  1  0.37294000  0.89924000  0.92350000  1.0
  O  O85  1  0.37293000  0.89928000  0.07653000  1.0
  O  O86  1  0.12071000  0.10754000  0.92297000  1.0
  O  O87  1  0.12070000  0.10749000  0.07704000  1.0
  O  O88  1  0.47331000  0.07000000  0.00000000  1.0
  O  O89  1  0.79468000  0.10317000  0.07593000  1.0
  O  O90  1  0.79466000  0.10323000  0.92409000  1.0
  O  O91  1  0.02665000  0.92967000  0.99999000  1.0
  F  F92  1  0.13007000  0.73698000  0.13445000  1.0
  F  F93  1  0.13003000  0.73699000  0.86558000  1.0
  F  F94  1  0.05586000  0.90372000  0.19793000  1.0
  F  F95  1  0.05586000  0.90372000  0.80209000  1.0
  F  F96  1  0.14668000  0.61112000  0.26461000  1.0
  F  F97  1  0.14664000  0.61112000  0.73541000  1.0
