# generated using pymatgen
data_SrH11C11NO5
_symmetry_space_group_name_H-M   'P 1'
_cell_length_a   9.79766000
_cell_length_b   10.61120000
_cell_length_c   10.61222269
_cell_angle_alpha   120.00443511
_cell_angle_beta   90.00959901
_cell_angle_gamma   89.99360000
_symmetry_Int_Tables_number   1
_chemical_formula_structural   SrH11C11NO5
_chemical_formula_sum   'Sr3 H33 C33 N3 O15'
_cell_volume   955.44223208
_cell_formula_units_Z   3
loop_
 _symmetry_equiv_pos_site_id
 _symmetry_equiv_pos_as_xyz
  1  'x, y, z'
loop_
 _atom_site_type_symbol
 _atom_site_label
 _atom_site_symmetry_multiplicity
 _atom_site_fract_x
 _atom_site_fract_y
 _atom_site_fract_z
 _atom_site_occupancy
  Sr  Sr0  1  0.16808000  0.97652000  0.87782000  1.0
  Sr  Sr1  1  0.83478000  0.90135000  0.02357000  1.0
  Sr  Sr2  1  0.50140000  0.12219000  0.09874000  1.0
  H  H3  1  0.88683000  0.19726000  0.34104000  1.0
  H  H4  1  0.55347000  0.14416000  0.80300000  1.0
  H  H5  1  0.22027000  0.65891000  0.85599000  1.0
  H  H6  1  0.81182000  0.41312000  0.57220000  1.0
  H  H7  1  0.47851000  0.15982000  0.58737000  1.0
  H  H8  1  0.14514000  0.42770000  0.84043000  1.0
  H  H9  1  0.19957000  0.61799000  0.61046000  1.0
  H  H10  1  0.86592000  0.99239000  0.38212000  1.0
  H  H11  1  0.53261000  0.38946000  0.00753000  1.0
  H  H12  1  0.27757000  0.39825000  0.37936000  1.0
  H  H13  1  0.94395000  0.98088000  0.60174000  1.0
  H  H14  1  0.61081000  0.62044000  0.01882000  1.0
  H  H15  1  0.09938000  0.08580000  0.46977000  1.0
  H  H16  1  0.76559000  0.38403000  0.91452000  1.0
  H  H17  1  0.43302000  0.53013000  0.61586000  1.0
  H  H18  1  0.27824000  0.11802000  0.47356000  1.0
  H  H19  1  0.94432000  0.35532000  0.88174000  1.0
  H  H20  1  0.61186000  0.52635000  0.64442000  1.0
  H  H21  1  0.19932000  0.09812000  0.61640000  1.0
  H  H22  1  0.86538000  0.51818000  0.90185000  1.0
  H  H23  1  0.53299000  0.38354000  0.48156000  1.0
  H  H24  1  0.26889000  0.72585000  0.21140000  1.0
  H  H25  1  0.93598000  0.48550000  0.27397000  1.0
  H  H26  1  0.60257000  0.78870000  0.51467000  1.0
  H  H27  1  0.33381000  0.89728000  0.24293000  1.0
  H  H28  1  0.00085000  0.34568000  0.10248000  1.0
  H  H29  1  0.66741000  0.75707000  0.65452000  1.0
  H  H30  1  0.15585000  0.85735000  0.20967000  1.0
  H  H31  1  0.82295000  0.35209000  0.14259000  1.0
  H  H32  1  0.48947000  0.79028000  0.64776000  1.0
  H  H33  1  0.25677000  0.70801000  0.40265000  1.0
  H  H34  1  0.92384000  0.69451000  0.29180000  1.0
  H  H35  1  0.59041000  0.59746000  0.30544000  1.0
  C  C36  1  0.13114000  0.15530000  0.20591000  1.0
  C  C37  1  0.79770000  0.05070000  0.84484000  1.0
  C  C38  1  0.46456000  0.79403000  0.94931000  1.0
  C  C39  1  0.08777000  0.28401000  0.34697000  1.0
  C  C40  1  0.75429000  0.06305000  0.71613000  1.0
  C  C41  1  0.42111000  0.65295000  0.93690000  1.0
  C  C42  1  0.95647000  0.28810000  0.40096000  1.0
  C  C43  1  0.62308000  0.11323000  0.71219000  1.0
  C  C44  1  0.28984000  0.59895000  0.88685000  1.0
  C  C45  1  0.91362000  0.40927000  0.52918000  1.0
  C  C46  1  0.58019000  0.12039000  0.59109000  1.0
  C  C47  1  0.24688000  0.47075000  0.87975000  1.0
  C  C48  1  0.00076000  0.52849000  0.60548000  1.0
  C  C49  1  0.66723000  0.07719000  0.47174000  1.0
  C  C50  1  0.33393000  0.39449000  0.92285000  1.0
  C  C51  1  0.95130000  0.65711000  0.74401000  1.0
  C  C52  1  0.61773000  0.08692000  0.34304000  1.0
  C  C53  1  0.28437000  0.25604000  0.91307000  1.0
  C  C54  1  0.13256000  0.52434000  0.55147000  1.0
  C  C55  1  0.79900000  0.02720000  0.47582000  1.0
  C  C56  1  0.46573000  0.44845000  0.97275000  1.0
  C  C57  1  0.17578000  0.40296000  0.42302000  1.0
  C  C58  1  0.84223000  0.02005000  0.59714000  1.0
  C  C59  1  0.50904000  0.57686000  0.97982000  1.0
  C  C60  1  0.19918000  0.06138000  0.49991000  1.0
  C  C61  1  0.86542000  0.43846000  0.93864000  1.0
  C  C62  1  0.53284000  0.50000000  0.56138000  1.0
  C  C63  1  0.24719000  0.84250000  0.26103000  1.0
  C  C64  1  0.91417000  0.41844000  0.15735000  1.0
  C  C65  1  0.58082000  0.73898000  0.58159000  1.0
  C  C66  1  0.23435000  0.82400000  0.48037000  1.0
  C  C67  1  0.90105000  0.65630000  0.17591000  1.0
  C  C68  1  0.56801000  0.51967000  0.34364000  1.0
  N  N69  1  0.22572000  0.90544000  0.41701000  1.0
  N  N70  1  0.89236000  0.51151000  0.09449000  1.0
  N  N71  1  0.55940000  0.58297000  0.48843000  1.0
  O  O72  1  0.04572000  0.05228000  0.13511000  1.0
  O  O73  1  0.71227000  0.08292000  0.94782000  1.0
  O  O74  1  0.37909000  0.86490000  0.91721000  1.0
  O  O75  1  0.25009000  0.15426000  0.15768000  1.0
  O  O76  1  0.91663000  0.00339000  0.84584000  1.0
  O  O77  1  0.58355000  0.84213000  0.99640000  1.0
  O  O78  1  0.82484000  0.66656000  0.77386000  1.0
  O  O79  1  0.49125000  0.10714000  0.33351000  1.0
  O  O80  1  0.15787000  0.22630000  0.89278000  1.0
  O  O81  1  0.03916000  0.75094000  0.82871000  1.0
  O  O82  1  0.70555000  0.07765000  0.24911000  1.0
  O  O83  1  0.37219000  0.17131000  0.92229000  1.0
  O  O84  1  0.21911000  0.86813000  0.61298000  1.0
  O  O85  1  0.88570000  0.74484000  0.13184000  1.0
  O  O86  1  0.55278000  0.38704000  0.25507000  1.0
