# generated using pymatgen
data_Zr3H14(C13O8)2
_symmetry_space_group_name_H-M   'P 1'
_cell_length_a   15.54230000
_cell_length_b   19.33550000
_cell_length_c   19.34560000
_cell_angle_alpha   88.62540000
_cell_angle_beta   89.90710000
_cell_angle_gamma   89.89050000
_symmetry_Int_Tables_number   1
_chemical_formula_structural   Zr3H14(C13O8)2
_chemical_formula_sum   'Zr6 H28 C52 O32'
_cell_volume   5812.01287682
_cell_formula_units_Z   2
loop_
 _symmetry_equiv_pos_site_id
 _symmetry_equiv_pos_as_xyz
  1  'x, y, z'
loop_
 _atom_site_type_symbol
 _atom_site_label
 _atom_site_symmetry_multiplicity
 _atom_site_fract_x
 _atom_site_fract_y
 _atom_site_fract_z
 _atom_site_occupancy
  Zr  Zr0  1  0.00827000  0.98995000  0.89947000  1.0
  Zr  Zr1  1  0.00408000  0.11147000  0.03802000  1.0
  Zr  Zr2  1  0.00586000  0.85027000  0.02497000  1.0
  Zr  Zr3  1  0.00495000  0.97104000  0.15943000  1.0
  Zr  Zr4  1  0.16612000  0.98175000  0.03137000  1.0
  Zr  Zr5  1  0.84533000  0.98110000  0.02986000  1.0
  H  H6  1  0.64431000  0.97594000  0.64527000  1.0
  H  H7  1  0.50399000  0.98300000  0.83768000  1.0
  H  H8  1  0.36664000  0.98918000  0.64391000  1.0
  H  H9  1  0.36600000  0.97608000  0.41986000  1.0
  H  H10  1  0.50200000  0.97812000  0.22501000  1.0
  H  H11  1  0.64365000  0.98541000  0.41653000  1.0
  H  H12  1  0.64411000  0.36944000  0.03246000  1.0
  H  H13  1  0.50712000  0.17578000  0.02701000  1.0
  H  H14  1  0.36622000  0.36852000  0.02557000  1.0
  H  H15  1  0.64417000  0.59411000  0.02814000  1.0
  H  H16  1  0.50791000  0.78890000  0.03029000  1.0
  H  H17  1  0.36624000  0.59704000  0.03312000  1.0
  H  H18  1  0.88723000  0.08987000  0.92341000  1.0
  H  H19  1  0.12602000  0.08193000  0.14190000  1.0
  H  H20  1  0.87906000  0.87510000  0.13442000  1.0
  H  H21  1  0.13287000  0.88163000  0.92568000  1.0
  H  H22  1  0.06330000  0.20954000  0.12235000  1.0
  H  H23  1  0.94759000  0.03732000  0.27224000  1.0
  H  H24  1  0.05083000  0.87181000  0.24899000  1.0
  H  H25  1  0.00552000  0.81816000  0.16789000  1.0
  H  H26  1  0.96058000  0.76205000  0.92942000  1.0
  H  H27  1  0.00390000  0.84840000  0.87160000  1.0
  H  H28  1  0.04217000  0.07898000  0.79963000  1.0
  H  H29  1  0.95970000  0.23065000  0.96731000  1.0
  H  H30  1  0.95734000  0.75362000  0.13107000  1.0
  H  H31  1  0.94927000  0.89317000  0.81476000  1.0
  H  H32  1  0.05987000  0.21857000  0.95752000  1.0
  H  H33  1  0.04852000  0.02946000  0.28695000  1.0
  C  C34  1  0.50553000  0.98245000  0.63613000  1.0
  C  C35  1  0.58347000  0.97875000  0.67307000  1.0
  C  C36  1  0.58313000  0.97875000  0.74570000  1.0
  C  C37  1  0.50448000  0.98283000  0.78139000  1.0
  C  C38  1  0.42638000  0.98681000  0.74490000  1.0
  C  C39  1  0.42704000  0.98639000  0.67230000  1.0
  C  C40  1  0.50494000  0.98111000  0.42670000  1.0
  C  C41  1  0.42622000  0.97784000  0.39101000  1.0
  C  C42  1  0.42494000  0.97659000  0.31840000  1.0
  C  C43  1  0.50287000  0.97895000  0.28126000  1.0
  C  C44  1  0.58188000  0.98218000  0.31648000  1.0
  C  C45  1  0.58261000  0.98318000  0.38910000  1.0
  C  C46  1  0.50505000  0.37746000  0.02929000  1.0
  C  C47  1  0.58369000  0.34111000  0.03072000  1.0
  C  C48  1  0.58458000  0.26849000  0.02993000  1.0
  C  C49  1  0.50646000  0.23207000  0.02753000  1.0
  C  C50  1  0.42765000  0.26790000  0.02577000  1.0
  C  C51  1  0.42713000  0.34056000  0.02674000  1.0
  C  C52  1  0.50511000  0.58700000  0.03076000  1.0
  C  C53  1  0.58388000  0.62287000  0.02927000  1.0
  C  C54  1  0.58515000  0.69556000  0.02900000  1.0
  C  C55  1  0.50710000  0.73258000  0.03051000  1.0
  C  C56  1  0.42802000  0.69719000  0.03222000  1.0
  C  C57  1  0.42739000  0.62448000  0.03216000  1.0
  C  C58  1  0.21660000  0.99398000  0.87027000  1.0
  C  C59  1  0.79515000  0.14330000  0.03407000  1.0
  C  C60  1  0.21780000  0.14248000  0.02507000  1.0
  C  C61  1  0.79341000  0.97465000  0.87076000  1.0
  C  C62  1  0.79929000  0.81618000  0.02503000  1.0
  C  C63  1  0.21254000  0.96955000  0.19635000  1.0
  C  C64  1  0.79350000  0.98240000  0.19231000  1.0
  C  C65  1  0.21477000  0.81994000  0.03401000  1.0
  C  C66  1  0.72906000  0.76753000  0.02532000  1.0
  C  C67  1  0.66396000  0.73252000  0.02707000  1.0
  C  C68  1  0.35010000  0.73556000  0.03380000  1.0
  C  C69  1  0.28554000  0.77132000  0.03502000  1.0
  C  C70  1  0.66247000  0.23022000  0.03150000  1.0
  C  C71  1  0.72500000  0.19223000  0.03290000  1.0
  C  C72  1  0.35037000  0.22911000  0.02350000  1.0
  C  C73  1  0.28803000  0.19108000  0.02223000  1.0
  C  C74  1  0.50450000  0.45070000  0.03007000  1.0
  C  C75  1  0.50444000  0.51375000  0.03054000  1.0
  C  C76  1  0.72322000  0.98489000  0.24098000  1.0
  C  C77  1  0.65946000  0.98392000  0.27769000  1.0
  C  C78  1  0.34644000  0.97299000  0.28130000  1.0
  C  C79  1  0.28228000  0.96997000  0.24544000  1.0
  C  C80  1  0.66039000  0.97525000  0.78452000  1.0
  C  C81  1  0.72284000  0.97300000  0.82241000  1.0
  C  C82  1  0.28642000  0.99402000  0.82116000  1.0
  C  C83  1  0.34870000  0.99093000  0.78313000  1.0
  C  C84  1  0.50590000  0.98217000  0.56289000  1.0
  C  C85  1  0.50575000  0.98190000  0.49990000  1.0
  O  O86  1  0.14022000  0.99712000  0.84704000  1.0
  O  O87  1  0.23941000  0.98965000  0.93376000  1.0
  O  O88  1  0.87151000  0.16699000  0.03215000  1.0
  O  O89  1  0.77314000  0.07981000  0.03640000  1.0
  O  O90  1  0.14149000  0.16562000  0.01783000  1.0
  O  O91  1  0.23930000  0.07953000  0.03688000  1.0
  O  O92  1  0.86937000  0.96791000  0.84819000  1.0
  O  O93  1  0.77112000  0.98443000  0.93366000  1.0
  O  O94  1  0.99318000  0.06547000  0.82801000  1.0
  O  O95  1  0.00564000  0.89051000  0.83710000  1.0
  O  O96  1  0.00282000  0.19832000  0.95031000  1.0
  O  O97  1  0.01188000  0.18539000  0.10838000  1.0
  O  O98  1  0.07508000  0.03917000  0.97955000  1.0
  O  O99  1  0.91787000  0.05952000  0.95575000  1.0
  O  O100  1  0.87649000  0.79257000  0.02534000  1.0
  O  O101  1  0.77654000  0.87943000  0.02544000  1.0
  O  O102  1  0.13527000  0.96612000  0.21969000  1.0
  O  O103  1  0.23506000  0.97391000  0.13331000  1.0
  O  O104  1  0.87047000  0.98521000  0.21552000  1.0
  O  O105  1  0.77162000  0.97594000  0.12943000  1.0
  O  O106  1  0.13833000  0.79706000  0.03435000  1.0
  O  O107  1  0.23804000  0.88353000  0.03167000  1.0
  O  O108  1  0.00666000  0.78423000  0.12623000  1.0
  O  O109  1  0.00683000  0.79559000  0.93271000  1.0
  O  O110  1  0.00170000  0.87686000  0.21815000  1.0
  O  O111  1  0.00564000  0.04548000  0.25347000  1.0
  O  O112  1  0.91516000  0.90325000  0.10404000  1.0
  O  O113  1  0.07355000  0.92405000  0.08381000  1.0
  O  O114  1  0.93886000  0.92989000  0.97733000  1.0
  O  O115  1  0.09146000  0.05339000  0.11220000  1.0
  O  O116  1  0.09658000  0.91045000  0.95408000  1.0
  O  O117  1  0.93537000  0.03380000  0.08831000  1.0
