# generated using pymatgen
data_Zn4H20C40O21
_symmetry_space_group_name_H-M   'P 1'
_cell_length_a   23.81230863
_cell_length_b   23.81240000
_cell_length_c   23.81080000
_cell_angle_alpha   66.34080000
_cell_angle_beta   72.57833812
_cell_angle_gamma   107.41821636
_symmetry_Int_Tables_number   1
_chemical_formula_structural   Zn4H20C40O21
_chemical_formula_sum   'Zn8 H40 C80 O42'
_cell_volume   10351.10772989
_cell_formula_units_Z   2
loop_
 _symmetry_equiv_pos_site_id
 _symmetry_equiv_pos_as_xyz
  1  'x, y, z'
loop_
 _atom_site_type_symbol
 _atom_site_label
 _atom_site_symmetry_multiplicity
 _atom_site_fract_x
 _atom_site_fract_y
 _atom_site_fract_z
 _atom_site_occupancy
  Zn  Zn0  1  0.05600000  0.09998000  0.45601000  1.0
  Zn  Zn1  1  0.05600000  0.95602000  0.48798000  1.0
  Zn  Zn2  1  0.94399000  0.95600000  0.60000000  1.0
  Zn  Zn3  1  0.94401000  0.98799000  0.45601000  1.0
  Zn  Zn4  1  0.94400000  0.40002000  0.04399000  1.0
  Zn  Zn5  1  0.05601000  0.54400000  0.90000000  1.0
  Zn  Zn6  1  0.94400000  0.54398000  0.01202000  1.0
  Zn  Zn7  1  0.05599000  0.51201000  0.04399000  1.0
  H  H8  1  0.92369000  0.12555000  0.29814000  1.0
  H  H9  1  0.07631000  0.37445000  0.20186000  1.0
  H  H10  1  0.92369000  0.22183000  0.20186000  1.0
  H  H11  1  0.07631000  0.27817000  0.29814000  1.0
  H  H12  1  0.92369000  0.79814000  0.77818000  1.0
  H  H13  1  0.07631000  0.70186000  0.72182000  1.0
  H  H14  1  0.92369000  0.70185000  0.87446000  1.0
  H  H15  1  0.07631000  0.79814000  0.62554000  1.0
  H  H16  1  0.92267000  0.20764000  0.90237000  1.0
  H  H17  1  0.07732000  0.40237000  0.70761000  1.0
  H  H18  1  0.92267000  0.09763000  0.79239000  1.0
  H  H19  1  0.07727000  0.29237000  0.59762000  1.0
  H  H20  1  0.07734000  0.67500000  0.21500000  1.0
  H  H21  1  0.92268000  0.71507000  0.17494000  1.0
  H  H22  1  0.07728000  0.78490000  0.32509000  1.0
  H  H23  1  0.92267000  0.82504000  0.28496000  1.0
  H  H24  1  0.61000000  0.20764000  0.21507000  1.0
  H  H25  1  0.60999000  0.40237000  0.17494000  1.0
  H  H26  1  0.39001000  0.09762000  0.32507000  1.0
  H  H27  1  0.39000000  0.29235000  0.28501000  1.0
  H  H28  1  0.39001000  0.71510000  0.70763000  1.0
  H  H29  1  0.39000000  0.67494000  0.90239000  1.0
  H  H30  1  0.61001000  0.82508000  0.59760000  1.0
  H  H31  1  0.60999000  0.78497000  0.79236000  1.0
  H  H32  1  0.91981000  0.29199000  0.99413000  1.0
  H  H33  1  0.08018000  0.49413000  0.79197000  1.0
  H  H34  1  0.91982000  0.00587000  0.70803000  1.0
  H  H35  1  0.08013000  0.20802000  0.50585000  1.0
  H  H36  1  0.08019000  0.58609000  0.12780000  1.0
  H  H37  1  0.91983000  0.62787000  0.08602000  1.0
  H  H38  1  0.08013000  0.87211000  0.41400000  1.0
  H  H39  1  0.91981000  0.91394000  0.37218000  1.0
  H  H40  1  0.78612000  0.29200000  0.12785000  1.0
  H  H41  1  0.78611000  0.49414000  0.08603000  1.0
  H  H42  1  0.21389000  0.00586000  0.41398000  1.0
  H  H43  1  0.21389000  0.20800000  0.37221000  1.0
  H  H44  1  0.21389000  0.62788000  0.79199000  1.0
  H  H45  1  0.21388000  0.58603000  0.99416000  1.0
  H  H46  1  0.78612000  0.91398000  0.50584000  1.0
  H  H47  1  0.78611000  0.87219000  0.70799000  1.0
  C  C48  1  0.18363000  0.09180000  0.40820000  1.0
  C  C49  1  0.00000000  0.86071000  0.63929000  1.0
  C  C50  1  0.99999000  0.09181000  0.59182000  1.0
  C  C51  1  0.81637000  0.90820000  0.59179000  1.0
  C  C52  1  1.00000000  0.13929000  0.36071000  1.0
  C  C53  1  0.99999000  0.90817000  0.40819000  1.0
  C  C54  1  0.00000000  0.40819000  0.90817000  1.0
  C  C55  1  0.00000000  0.63929000  0.86071000  1.0
  C  C56  1  0.81636000  0.40818000  0.09183000  1.0
  C  C57  1  0.99999000  0.59183000  0.09181000  1.0
  C  C58  1  0.00000000  0.36071000  0.13929000  1.0
  C  C59  1  0.18363000  0.59182000  0.90821000  1.0
  C  C60  1  0.00000000  0.19652000  0.30349000  1.0
  C  C61  1  0.00000000  0.30348000  0.19652000  1.0
  C  C62  1  0.95683000  0.18017000  0.27667000  1.0
  C  C63  1  0.04318000  0.31984000  0.22333000  1.0
  C  C64  1  0.95683000  0.23350000  0.22333000  1.0
  C  C65  1  0.04318000  0.26651000  0.27666000  1.0
  C  C66  1  0.00000000  0.80348000  0.69652000  1.0
  C  C67  1  0.00000000  0.69651000  0.80349000  1.0
  C  C68  1  0.95683000  0.77667000  0.76651000  1.0
  C  C69  1  0.04318000  0.72334000  0.73348000  1.0
  C  C70  1  0.95683000  0.72333000  0.81984000  1.0
  C  C71  1  0.04317000  0.77666000  0.68016000  1.0
  C  C72  1  0.00000000  0.37182000  0.87180000  1.0
  C  C73  1  0.95624000  0.29807000  0.90838000  1.0
  C  C74  1  0.95650000  0.26353000  0.87310000  1.0
  C  C75  1  0.99999000  0.30082000  0.80081000  1.0
  C  C76  1  0.04349000  0.37311000  0.76350000  1.0
  C  C77  1  0.04375000  0.40838000  0.79805000  1.0
  C  C78  1  0.99999000  0.26531000  0.76530000  1.0
  C  C79  1  0.99998000  0.23470000  0.73469000  1.0
  C  C80  1  0.99997000  0.19918000  0.69918000  1.0
  C  C81  1  0.95649000  0.12689000  0.73649000  1.0
  C  C82  1  0.95623000  0.09162000  0.70195000  1.0
  C  C83  1  0.99998000  0.12819000  0.62819000  1.0
  C  C84  1  0.04372000  0.20195000  0.59160000  1.0
  C  C85  1  0.04345000  0.23649000  0.62688000  1.0
  C  C86  1  0.00000000  0.62821000  0.12817000  1.0
  C  C87  1  0.04376000  0.63541000  0.15815000  1.0
  C  C88  1  0.04351000  0.67043000  0.19295000  1.0
  C  C89  1  0.00001000  0.69921000  0.19915000  1.0
  C  C90  1  0.95651000  0.69301000  0.17037000  1.0
  C  C91  1  0.95625000  0.65821000  0.13535000  1.0
  C  C92  1  0.00000000  0.73471000  0.23468000  1.0
  C  C93  1  0.99999000  0.76531000  0.26531000  1.0
  C  C94  1  0.99998000  0.80080000  0.30084000  1.0
  C  C95  1  0.04346000  0.80697000  0.32965000  1.0
  C  C96  1  0.04372000  0.84177000  0.36466000  1.0
  C  C97  1  0.99998000  0.87178000  0.37183000  1.0
  C  C98  1  0.95623000  0.86461000  0.34183000  1.0
  C  C99  1  0.95649000  0.82960000  0.30703000  1.0
  C  C100  1  0.74362000  0.37182000  0.12819000  1.0
  C  C101  1  0.70644000  0.29807000  0.15820000  1.0
  C  C102  1  0.63662000  0.26352000  0.19301000  1.0
  C  C103  1  0.60164000  0.30083000  0.19918000  1.0
  C  C104  1  0.63662000  0.37311000  0.17038000  1.0
  C  C105  1  0.70644000  0.40839000  0.13536000  1.0
  C  C106  1  0.53061000  0.26530000  0.23471000  1.0
  C  C107  1  0.46939000  0.23469000  0.26533000  1.0
  C  C108  1  0.39837000  0.19917000  0.30085000  1.0
  C  C109  1  0.36338000  0.12688000  0.32965000  1.0
  C  C110  1  0.29357000  0.09161000  0.36465000  1.0
  C  C111  1  0.25638000  0.12817000  0.37184000  1.0
  C  C112  1  0.29356000  0.20192000  0.34186000  1.0
  C  C113  1  0.36338000  0.23647000  0.30706000  1.0
  C  C114  1  0.25638000  0.62820000  0.87182000  1.0
  C  C115  1  0.29357000  0.65823000  0.79806000  1.0
  C  C116  1  0.36338000  0.69303000  0.76352000  1.0
  C  C117  1  0.39836000  0.69920000  0.80083000  1.0
  C  C118  1  0.36337000  0.67038000  0.87313000  1.0
  C  C119  1  0.29356000  0.63537000  0.90840000  1.0
  C  C120  1  0.46939000  0.73472000  0.76531000  1.0
  C  C121  1  0.53061000  0.76533000  0.73468000  1.0
  C  C122  1  0.60164000  0.80085000  0.69916000  1.0
  C  C123  1  0.63663000  0.82964000  0.62686000  1.0
  C  C124  1  0.70644000  0.86465000  0.59160000  1.0
  C  C125  1  0.74362000  0.87183000  0.62817000  1.0
  C  C126  1  0.70644000  0.84184000  0.70191000  1.0
  C  C127  1  0.63662000  0.80704000  0.73646000  1.0
  O  O128  1  0.00000000  0.00000000  0.50000000  1.0
  O  O129  1  0.15205000  0.12688000  0.41354000  1.0
  O  O130  1  0.04037000  0.88307000  0.57655000  1.0
  O  O131  1  0.95956000  0.02514000  0.62691000  1.0
  O  O132  1  0.15205000  0.02515000  0.43441000  1.0
  O  O133  1  0.04042000  0.12688000  0.52516000  1.0
  O  O134  1  0.95962000  0.88306000  0.65731000  1.0
  O  O135  1  0.84795000  0.91355000  0.62687000  1.0
  O  O136  1  0.95963000  0.07656000  0.38307000  1.0
  O  O137  1  0.84796000  0.93443000  0.52512000  1.0
  O  O138  1  0.04037000  0.15730000  0.38307000  1.0
  O  O139  1  0.04042000  0.91353000  0.43442000  1.0
  O  O140  1  0.95958000  0.93443000  0.41352000  1.0
  O  O141  1  0.00000000  0.50000000  0.00000000  1.0
  O  O142  1  0.95956000  0.37311000  0.97485000  1.0
  O  O143  1  0.04038000  0.61693000  0.84269000  1.0
  O  O144  1  0.84795000  0.47485000  0.06559000  1.0
  O  O145  1  0.04043000  0.47485000  0.87310000  1.0
  O  O146  1  0.84795000  0.37311000  0.08648000  1.0
  O  O147  1  0.95963000  0.61692000  0.92345000  1.0
  O  O148  1  0.95955000  0.58646000  0.06559000  1.0
  O  O149  1  0.04036000  0.42343000  0.11694000  1.0
  O  O150  1  0.04042000  0.56560000  0.08645000  1.0
  O  O151  1  0.95963000  0.34270000  0.11693000  1.0
  O  O152  1  0.15205000  0.58647000  0.87313000  1.0
  O  O153  1  0.15204000  0.56557000  0.97488000  1.0
  O  O154  1  0.91346000  0.25937000  0.97767000  1.0
  O  O155  1  0.08653000  0.47767000  0.75934000  1.0
  O  O156  1  0.91346000  0.02233000  0.74066000  1.0
  O  O157  1  0.08648000  0.24065000  0.52230000  1.0
  O  O158  1  0.08655000  0.60891000  0.15406000  1.0
  O  O159  1  0.91347000  0.65414000  0.10884000  1.0
  O  O160  1  0.08648000  0.84583000  0.39120000  1.0
  O  O161  1  0.91346000  0.89113000  0.34590000  1.0
  O  O162  1  0.73703000  0.25937000  0.15413000  1.0
  O  O163  1  0.73702000  0.47768000  0.10884000  1.0
  O  O164  1  0.26298000  0.02232000  0.39117000  1.0
  O  O165  1  0.26297000  0.24061000  0.34595000  1.0
  O  O166  1  0.26298000  0.65417000  0.75936000  1.0
  O  O167  1  0.26297000  0.60885000  0.97770000  1.0
  O  O168  1  0.73704000  0.89117000  0.52229000  1.0
  O  O169  1  0.73702000  0.84592000  0.74062000  1.0
