# generated using pymatgen
data_ZnH8(C2N)8
_symmetry_space_group_name_H-M   'P 1'
_cell_length_a   10.10380000
_cell_length_b   10.94290000
_cell_length_c   14.13510000
_cell_angle_alpha   90.00000000
_cell_angle_beta   101.10900000
_cell_angle_gamma   90.00000000
_symmetry_Int_Tables_number   1
_chemical_formula_structural   ZnH8(C2N)8
_chemical_formula_sum   'Zn4 H32 C64 N32'
_cell_volume   1533.56157867
_cell_formula_units_Z   4
loop_
 _symmetry_equiv_pos_site_id
 _symmetry_equiv_pos_as_xyz
  1  'x, y, z'
loop_
 _atom_site_type_symbol
 _atom_site_label
 _atom_site_symmetry_multiplicity
 _atom_site_fract_x
 _atom_site_fract_y
 _atom_site_fract_z
 _atom_site_occupancy
  Zn  Zn0  1  0.84944000  0.12722000  0.25353000  1.0
  Zn  Zn1  1  0.15056000  0.62722000  0.24648000  1.0
  Zn  Zn2  1  0.15056000  0.87278000  0.74647000  1.0
  Zn  Zn3  1  0.84944000  0.37277000  0.75353000  1.0
  H  H4  1  0.69471000  0.37590000  0.19271000  1.0
  H  H5  1  0.30529000  0.87591000  0.30729000  1.0
  H  H6  1  0.30529000  0.62410000  0.80729000  1.0
  H  H7  1  0.69471000  0.12409000  0.69271000  1.0
  H  H8  1  0.46354000  0.43514000  0.10286000  1.0
  H  H9  1  0.53646000  0.93514000  0.39714000  1.0
  H  H10  1  0.53646000  0.56486000  0.89714000  1.0
  H  H11  1  0.46354000  0.06486000  0.60286000  1.0
  H  H12  1  0.29567000  0.27052000  0.04413000  1.0
  H  H13  1  0.70432000  0.77052000  0.45587000  1.0
  H  H14  1  0.70433000  0.72948000  0.95587000  1.0
  H  H15  1  0.29568000  0.22948000  0.54413000  1.0
  H  H16  1  0.24353000  0.04299000  0.03183000  1.0
  H  H17  1  0.75647000  0.54299000  0.46817000  1.0
  H  H18  1  0.75647000  0.95701000  0.96817000  1.0
  H  H19  1  0.24353000  0.45701000  0.53183000  1.0
  H  H20  1  0.32195000  0.82816000  0.06494000  1.0
  H  H21  1  0.67805000  0.32816000  0.43506000  1.0
  H  H22  1  0.67805000  0.17184000  0.93506000  1.0
  H  H23  1  0.32195000  0.67184000  0.56494000  1.0
  H  H24  1  0.50781000  0.68209000  0.13156000  1.0
  H  H25  1  0.49219000  0.18209000  0.36843000  1.0
  H  H26  1  0.49219000  0.31791000  0.86844000  1.0
  H  H27  1  0.50781000  0.81791000  0.63156000  1.0
  H  H28  1  0.74964000  0.65233000  0.21706000  1.0
  H  H29  1  0.25036000  0.15233000  0.28294000  1.0
  H  H30  1  0.25036000  0.34767000  0.78294000  1.0
  H  H31  1  0.74964000  0.84767000  0.71706000  1.0
  H  H32  1  0.89205000  0.83692000  0.26893000  1.0
  H  H33  1  0.10795000  0.33692000  0.23107000  1.0
  H  H34  1  0.10795000  0.16308000  0.73107000  1.0
  H  H35  1  0.89205000  0.66308000  0.76893000  1.0
  C  C36  1  0.61903000  0.30713000  0.16496000  1.0
  C  C37  1  0.38097000  0.80713000  0.33504000  1.0
  C  C38  1  0.38097000  0.69287000  0.83504000  1.0
  C  C39  1  0.61904000  0.19287000  0.66496000  1.0
  C  C40  1  0.48967000  0.33916000  0.11482000  1.0
  C  C41  1  0.51033000  0.83917000  0.38519000  1.0
  C  C42  1  0.51033000  0.66083000  0.88518000  1.0
  C  C43  1  0.48968000  0.16083000  0.61482000  1.0
  C  C44  1  0.39679000  0.24802000  0.08302000  1.0
  C  C45  1  0.60321000  0.74803000  0.41698000  1.0
  C  C46  1  0.60321000  0.75197000  0.91698000  1.0
  C  C47  1  0.39679000  0.25197000  0.58302000  1.0
  C  C48  1  0.43397000  0.12434000  0.10076000  1.0
  C  C49  1  0.56603000  0.62435000  0.39923000  1.0
  C  C50  1  0.56603000  0.87565000  0.89923000  1.0
  C  C51  1  0.43398000  0.37566000  0.60076000  1.0
  C  C52  1  0.34579000  0.02325000  0.07012000  1.0
  C  C53  1  0.65421000  0.52325000  0.42988000  1.0
  C  C54  1  0.65421000  0.97675000  0.92988000  1.0
  C  C55  1  0.34579000  0.47675000  0.57012000  1.0
  C  C56  1  0.38876000  0.90538000  0.08747000  1.0
  C  C57  1  0.61123000  0.40538000  0.41253000  1.0
  C  C58  1  0.61124000  0.09462000  0.91253000  1.0
  C  C59  1  0.38877000  0.59462000  0.58747000  1.0
  C  C60  1  0.52364000  0.87904000  0.13646000  1.0
  C  C61  1  0.47636000  0.37904000  0.36354000  1.0
  C  C62  1  0.47636000  0.12097000  0.86354000  1.0
  C  C63  1  0.52364000  0.62096000  0.63646000  1.0
  C  C64  1  0.57480000  0.75920000  0.15433000  1.0
  C  C65  1  0.42520000  0.25920000  0.34567000  1.0
  C  C66  1  0.42520000  0.24080000  0.84567000  1.0
  C  C67  1  0.57480000  0.74081000  0.65433000  1.0
  C  C68  1  0.70676000  0.74308000  0.20171000  1.0
  C  C69  1  0.29324000  0.24308000  0.29829000  1.0
  C  C70  1  0.29324000  0.25692000  0.79829000  1.0
  C  C71  1  0.70676000  0.75692000  0.70171000  1.0
  C  C72  1  0.78763000  0.84601000  0.23127000  1.0
  C  C73  1  0.21237000  0.34601000  0.26873000  1.0
  C  C74  1  0.21237000  0.15399000  0.76873000  1.0
  C  C75  1  0.78763000  0.65399000  0.73127000  1.0
  C  C76  1  0.61282000  0.97704000  0.16828000  1.0
  C  C77  1  0.38718000  0.47704000  0.33172000  1.0
  C  C78  1  0.38718000  0.02296000  0.83171000  1.0
  C  C79  1  0.61282000  0.52296000  0.66828000  1.0
  C  C80  1  0.56735000  0.10107000  0.15059000  1.0
  C  C81  1  0.43265000  0.60107000  0.34941000  1.0
  C  C82  1  0.43265000  0.89893000  0.84941000  1.0
  C  C83  1  0.56735000  0.39893000  0.65059000  1.0
  C  C84  1  0.10233000  0.02066000  0.39870000  1.0
  C  C85  1  0.89767000  0.52066000  0.10130000  1.0
  C  C86  1  0.89767000  0.97934000  0.60130000  1.0
  C  C87  1  0.10233000  0.47934000  0.89870000  1.0
  C  C88  1  0.24832000  0.94399000  0.53092000  1.0
  C  C89  1  0.75168000  0.44398000  0.96908000  1.0
  C  C90  1  0.75168000  0.05602000  0.46909000  1.0
  C  C91  1  0.24832000  0.55602000  0.03092000  1.0
  C  C92  1  0.95436000  0.32065000  0.39789000  1.0
  C  C93  1  0.04564000  0.82064000  0.10211000  1.0
  C  C94  1  0.04564000  0.67936000  0.60211000  1.0
  C  C95  1  0.95436000  0.17935000  0.89789000  1.0
  C  C96  1  0.97430000  0.34957000  0.56089000  1.0
  C  C97  1  0.02570000  0.84957000  0.93911000  1.0
  C  C98  1  0.02570000  0.65043000  0.43911000  1.0
  C  C99  1  0.97430000  0.15043000  0.06089000  1.0
  N  N100  1  0.65640000  0.19153000  0.18180000  1.0
  N  N101  1  0.34360000  0.69153000  0.31820000  1.0
  N  N102  1  0.34360000  0.80847000  0.81820000  1.0
  N  N103  1  0.65640000  0.30847000  0.68180000  1.0
  N  N104  1  0.74165000  0.95941000  0.21455000  1.0
  N  N105  1  0.25835000  0.45941000  0.28545000  1.0
  N  N106  1  0.25835000  0.04059000  0.78545000  1.0
  N  N107  1  0.74165000  0.54059000  0.71455000  1.0
  N  N108  1  0.00125000  0.03760000  0.34296000  1.0
  N  N109  1  0.99875000  0.53759000  0.15705000  1.0
  N  N110  1  0.99875000  0.96240000  0.65705000  1.0
  N  N111  1  0.00125000  0.46240000  0.84295000  1.0
  N  N112  1  0.21959000  0.00929000  0.45295000  1.0
  N  N113  1  0.78041000  0.50929000  0.04705000  1.0
  N  N114  1  0.78041000  0.99071000  0.54705000  1.0
  N  N115  1  0.21959000  0.49071000  0.95295000  1.0
  N  N116  1  0.28740000  0.88908000  0.60287000  1.0
  N  N117  1  0.71260000  0.38908000  0.89714000  1.0
  N  N118  1  0.71260000  0.11092000  0.39714000  1.0
  N  N119  1  0.28740000  0.61092000  0.10287000  1.0
  N  N120  1  0.90196000  0.29758000  0.31775000  1.0
  N  N121  1  0.09804000  0.79758000  0.18225000  1.0
  N  N122  1  0.09804000  0.70242000  0.68225000  1.0
  N  N123  1  0.90195000  0.20242000  0.81775000  1.0
  N  N124  1  0.02220000  0.34733000  0.48237000  1.0
  N  N125  1  0.97780000  0.84733000  0.01763000  1.0
  N  N126  1  0.97780000  0.65267000  0.51763000  1.0
  N  N127  1  0.02220000  0.15267000  0.98237000  1.0
  N  N128  1  0.94368000  0.35381000  0.63702000  1.0
  N  N129  1  0.05632000  0.85381000  0.86298000  1.0
  N  N130  1  0.05632000  0.64618000  0.36298000  1.0
  N  N131  1  0.94368000  0.14619000  0.13702000  1.0
