# generated using pymatgen
data_CdH10C10(SO4)2
_symmetry_space_group_name_H-M   'P 1'
_cell_length_a   5.85847000
_cell_length_b   10.16450000
_cell_length_c   12.11834026
_cell_angle_alpha   109.62178908
_cell_angle_beta   103.99145807
_cell_angle_gamma   89.99150000
_symmetry_Int_Tables_number   1
_chemical_formula_structural   CdH10C10(SO4)2
_chemical_formula_sum   'Cd2 H20 C20 S4 O16'
_cell_volume   656.95881257
_cell_formula_units_Z   2
loop_
 _symmetry_equiv_pos_site_id
 _symmetry_equiv_pos_as_xyz
  1  'x, y, z'
loop_
 _atom_site_type_symbol
 _atom_site_label
 _atom_site_symmetry_multiplicity
 _atom_site_fract_x
 _atom_site_fract_y
 _atom_site_fract_z
 _atom_site_occupancy
  Cd  Cd0  1  0.00001000  0.50000000  0.00000000  1.0
  Cd  Cd1  1  0.00000000  0.00000000  0.00000000  1.0
  H  H2  1  0.69864000  0.75502000  0.68971000  1.0
  H  H3  1  0.00901000  0.74500000  0.31023000  1.0
  H  H4  1  0.30135000  0.24498000  0.31030000  1.0
  H  H5  1  0.99100000  0.25500000  0.68976000  1.0
  H  H6  1  0.36789000  0.47754000  0.68692000  1.0
  H  H7  1  0.68111000  0.02231000  0.31314000  1.0
  H  H8  1  0.63209000  0.52247000  0.31310000  1.0
  H  H9  1  0.31892000  0.97768000  0.68686000  1.0
  H  H10  1  0.48335000  0.69149000  0.47231000  1.0
  H  H11  1  0.01090000  0.80877000  0.52769000  1.0
  H  H12  1  0.51663000  0.30851000  0.52771000  1.0
  H  H13  1  0.98913000  0.19121000  0.47231000  1.0
  H  H14  1  0.57768000  0.62828000  0.90593000  1.0
  H  H15  1  0.67194000  0.87167000  0.09412000  1.0
  H  H16  1  0.42235000  0.37173000  0.09407000  1.0
  H  H17  1  0.32805000  0.12834000  0.90588000  1.0
  H  H18  1  0.58631000  0.62132000  0.03443000  1.0
  H  H19  1  0.55191000  0.87882000  0.96571000  1.0
  H  H20  1  0.41368000  0.37868000  0.96556000  1.0
  H  H21  1  0.44809000  0.12119000  0.03429000  1.0
  C  C22  1  0.97079000  0.61856000  0.65150000  1.0
  C  C23  1  0.31931000  0.88143000  0.34850000  1.0
  C  C24  1  0.02920000  0.38143000  0.34850000  1.0
  C  C25  1  0.68069000  0.11857000  0.65150000  1.0
  C  C26  1  0.76597000  0.67955000  0.61983000  1.0
  C  C27  1  0.14602000  0.82055000  0.38015000  1.0
  C  C28  1  0.23400000  0.32043000  0.38018000  1.0
  C  C29  1  0.85398000  0.17944000  0.61983000  1.0
  C  C30  1  0.06329000  0.51768000  0.56274000  1.0
  C  C31  1  0.50060000  0.98229000  0.43729000  1.0
  C  C32  1  0.93672000  0.48233000  0.43728000  1.0
  C  C33  1  0.49943000  0.01770000  0.56271000  1.0
  C  C34  1  0.27171000  0.45180000  0.59252000  1.0
  C  C35  1  0.67941000  0.04802000  0.40753000  1.0
  C  C36  1  0.72827000  0.54821000  0.40750000  1.0
  C  C37  1  0.32062000  0.95197000  0.59246000  1.0
  C  C38  1  0.64511000  0.64359000  0.49660000  1.0
  C  C39  1  0.14830000  0.85665000  0.50337000  1.0
  C  C40  1  0.35484000  0.35642000  0.50341000  1.0
  C  C41  1  0.85172000  0.14333000  0.49662000  1.0
  S  S42  1  0.11211000  0.66604000  0.80886000  1.0
  S  S43  1  0.30355000  0.83386000  0.19114000  1.0
  S  S44  1  0.88789000  0.33396000  0.19115000  1.0
  S  S45  1  0.69645000  0.16614000  0.80885000  1.0
  O  O46  1  0.09864000  0.53498000  0.83566000  1.0
  O  O47  1  0.26346000  0.96489000  0.16427000  1.0
  O  O48  1  0.90138000  0.46502000  0.16435000  1.0
  O  O49  1  0.73653000  0.03511000  0.83572000  1.0
  O  O50  1  0.35808000  0.72035000  0.82937000  1.0
  O  O51  1  0.52908000  0.77944000  0.17073000  1.0
  O  O52  1  0.64191000  0.27966000  0.17062000  1.0
  O  O53  1  0.47092000  0.22056000  0.82926000  1.0
  O  O54  1  0.97071000  0.77098000  0.87129000  1.0
  O  O55  1  0.09961000  0.72902000  0.12869000  1.0
  O  O56  1  0.02931000  0.22903000  0.12873000  1.0
  O  O57  1  0.90041000  0.27099000  0.87131000  1.0
  O  O58  1  0.63737000  0.57504000  0.96008000  1.0
  O  O59  1  0.67748000  0.92495000  0.04001000  1.0
  O  O60  1  0.36263000  0.42496000  0.03991000  1.0
  O  O61  1  0.32251000  0.07506000  0.95998000  1.0
