# generated using pymatgen
data_AgPH6C7O5
_symmetry_space_group_name_H-M   'P 1'
_cell_length_a   4.56426000
_cell_length_b   5.61260000
_cell_length_c   33.02498321
_cell_angle_alpha   89.99994472
_cell_angle_beta   87.37147989
_cell_angle_gamma   89.99960000
_symmetry_Int_Tables_number   1
_chemical_formula_structural   AgPH6C7O5
_chemical_formula_sum   'Ag4 P4 H24 C28 O20'
_cell_volume   845.12295201
_cell_formula_units_Z   4
loop_
 _symmetry_equiv_pos_site_id
 _symmetry_equiv_pos_as_xyz
  1  'x, y, z'
loop_
 _atom_site_type_symbol
 _atom_site_label
 _atom_site_symmetry_multiplicity
 _atom_site_fract_x
 _atom_site_fract_y
 _atom_site_fract_z
 _atom_site_occupancy
  Ag  Ag0  1  0.70838000  0.31629000  0.73515000  1.0
  Ag  Ag1  1  0.29161000  0.81626000  0.76485000  1.0
  Ag  Ag2  1  0.29162000  0.68374000  0.26485000  1.0
  Ag  Ag3  1  0.70838000  0.18374000  0.23515000  1.0
  P  P4  1  0.80969000  0.84094000  0.68605000  1.0
  P  P5  1  0.19031000  0.34091000  0.81394000  1.0
  P  P6  1  0.19030000  0.15909000  0.31395000  1.0
  P  P7  1  0.80970000  0.65909000  0.18606000  1.0
  H  H8  1  0.02119000  0.86115000  0.60037000  1.0
  H  H9  1  0.97881000  0.36110000  0.89962000  1.0
  H  H10  1  0.97883000  0.13886000  0.39962000  1.0
  H  H11  1  0.02118000  0.63886000  0.10038000  1.0
  H  H12  1  0.67160000  0.12613000  0.48705000  1.0
  H  H13  1  0.32840000  0.62610000  0.01295000  1.0
  H  H14  1  0.32838000  0.87389000  0.51295000  1.0
  H  H15  1  0.67159000  0.37386000  0.98705000  1.0
  H  H16  1  0.27927000  0.21430000  0.61565000  1.0
  H  H17  1  0.72076000  0.71427000  0.88434000  1.0
  H  H18  1  0.72073000  0.78571000  0.38435000  1.0
  H  H19  1  0.27927000  0.28573000  0.11565000  1.0
  H  H20  1  0.25177000  0.00590000  0.68262000  1.0
  H  H21  1  0.74824000  0.50587000  0.81738000  1.0
  H  H22  1  0.74822000  0.99412000  0.31738000  1.0
  H  H23  1  0.25177000  0.49412000  0.18262000  1.0
  H  H24  1  0.37364000  0.47299000  0.67417000  1.0
  H  H25  1  0.62637000  0.97296000  0.82583000  1.0
  H  H26  1  0.62636000  0.52704000  0.32583000  1.0
  H  H27  1  0.37366000  0.02705000  0.17417000  1.0
  H  H28  1  0.91724000  0.60277000  0.54181000  1.0
  H  H29  1  0.08277000  0.10274000  0.95819000  1.0
  H  H30  1  0.08277000  0.39722000  0.45819000  1.0
  H  H31  1  0.91721000  0.89721000  0.04181000  1.0
  C  C32  1  0.85795000  0.72034000  0.60387000  1.0
  C  C33  1  0.14207000  0.22032000  0.89612000  1.0
  C  C34  1  0.14205000  0.27967000  0.39613000  1.0
  C  C35  1  0.85792000  0.77967000  0.10388000  1.0
  C  C36  1  0.59670000  0.38975000  0.57542000  1.0
  C  C37  1  0.40331000  0.88974000  0.92458000  1.0
  C  C38  1  0.40327000  0.61026000  0.42459000  1.0
  C  C39  1  0.59670000  0.11025000  0.07542000  1.0
  C  C40  1  0.71129000  0.68043000  0.64153000  1.0
  C  C41  1  0.28871000  0.18039000  0.85847000  1.0
  C  C42  1  0.28873000  0.31959000  0.35847000  1.0
  C  C43  1  0.71129000  0.81960000  0.14153000  1.0
  C  C44  1  0.44209000  0.35531000  0.61261000  1.0
  C  C45  1  0.55793000  0.85528000  0.88739000  1.0
  C  C46  1  0.55791000  0.64471000  0.38739000  1.0
  C  C47  1  0.44209000  0.14472000  0.11261000  1.0
  C  C48  1  0.54478000  0.22265000  0.54178000  1.0
  C  C49  1  0.45521000  0.72262000  0.95822000  1.0
  C  C50  1  0.45519000  0.77735000  0.45823000  1.0
  C  C51  1  0.54480000  0.27734000  0.04177000  1.0
  C  C52  1  0.49792000  0.50012000  0.64546000  1.0
  C  C53  1  0.50208000  0.00009000  0.85454000  1.0
  C  C54  1  0.50209000  0.49990000  0.35454000  1.0
  C  C55  1  0.49794000  0.99991000  0.14546000  1.0
  C  C56  1  0.80048000  0.57559000  0.57091000  1.0
  C  C57  1  0.19951000  0.07558000  0.92908000  1.0
  C  C58  1  0.19951000  0.42441000  0.42909000  1.0
  C  C59  1  0.80047000  0.92440000  0.07092000  1.0
  O  O60  1  0.93363000  0.66969000  0.71683000  1.0
  O  O61  1  0.06637000  0.16967000  0.78317000  1.0
  O  O62  1  0.06636000  0.33034000  0.28317000  1.0
  O  O63  1  0.93364000  0.83032000  0.21683000  1.0
  O  O64  1  0.70965000  0.25744000  0.50843000  1.0
  O  O65  1  0.29036000  0.75740000  0.99157000  1.0
  O  O66  1  0.29033000  0.74260000  0.49157000  1.0
  O  O67  1  0.70961000  0.24255000  0.00843000  1.0
  O  O68  1  0.36013000  0.05857000  0.54572000  1.0
  O  O69  1  0.63990000  0.55854000  0.95428000  1.0
  O  O70  1  0.63987000  0.94145000  0.45428000  1.0
  O  O71  1  0.36011000  0.44144000  0.04572000  1.0
  O  O72  1  0.04590000  0.03190000  0.67168000  1.0
  O  O73  1  0.95410000  0.53188000  0.82832000  1.0
  O  O74  1  0.95410000  0.96811000  0.32832000  1.0
  O  O75  1  0.04592000  0.46812000  0.17168000  1.0
  O  O76  1  0.53669000  0.98045000  0.70270000  1.0
  O  O77  1  0.46332000  0.48044000  0.79730000  1.0
  O  O78  1  0.46331000  0.01956000  0.29730000  1.0
  O  O79  1  0.53671000  0.51956000  0.20270000  1.0
