# generated using pymatgen
data_ZnH14(C4N)6
_symmetry_space_group_name_H-M   'P 1'
_cell_length_a   7.46955000
_cell_length_b   10.17200000
_cell_length_c   10.57850000
_cell_angle_alpha   82.56500000
_cell_angle_beta   90.00040000
_cell_angle_gamma   90.00440000
_symmetry_Int_Tables_number   1
_chemical_formula_structural   ZnH14(C4N)6
_chemical_formula_sum   'Zn1 H14 C24 N6'
_cell_volume   796.99945657
_cell_formula_units_Z   1
loop_
 _symmetry_equiv_pos_site_id
 _symmetry_equiv_pos_as_xyz
  1  'x, y, z'
loop_
 _atom_site_type_symbol
 _atom_site_label
 _atom_site_symmetry_multiplicity
 _atom_site_fract_x
 _atom_site_fract_y
 _atom_site_fract_z
 _atom_site_occupancy
  Zn  Zn0  1  0.99999000  0.00000000  0.00000000  1.0
  H  H1  1  0.21215000  0.03276000  0.38420000  1.0
  H  H2  1  0.21215000  0.96723000  0.61578000  1.0
  H  H3  1  0.78781000  0.96721000  0.61579000  1.0
  H  H4  1  0.78781000  0.03275000  0.38421000  1.0
  H  H5  1  0.00003000  0.69861000  0.01485000  1.0
  H  H6  1  0.00005000  0.49808000  0.18123000  1.0
  H  H7  1  0.99996000  0.76790000  0.46602000  1.0
  H  H8  1  0.99996000  0.95217000  0.28795000  1.0
  H  H9  1  0.99999000  0.30140000  0.98516000  1.0
  H  H10  1  0.00003000  0.50192000  0.81877000  1.0
  H  H11  1  0.00001000  0.23211000  0.53397000  1.0
  H  H12  1  0.99997000  0.04784000  0.71205000  1.0
  H  H13  1  0.00005000  0.40346000  0.39896000  1.0
  H  H14  1  0.00005000  0.59655000  0.60105000  1.0
  C  C15  1  0.34125000  0.08424000  0.15659000  1.0
  C  C16  1  0.33951000  0.01825000  0.43438000  1.0
  C  C17  1  0.34123000  0.91575000  0.84341000  1.0
  C  C18  1  0.33951000  0.98175000  0.56561000  1.0
  C  C19  1  0.65875000  0.91576000  0.84339000  1.0
  C  C20  1  0.66046000  0.98173000  0.56561000  1.0
  C  C21  1  0.65874000  0.08425000  0.15659000  1.0
  C  C22  1  0.66046000  0.01823000  0.43439000  1.0
  C  C23  1  0.00001000  0.70750000  0.11648000  1.0
  C  C24  1  0.00003000  0.59751000  0.20938000  1.0
  C  C25  1  0.00003000  0.61450000  0.33944000  1.0
  C  C26  1  0.00003000  0.49880000  0.43624000  1.0
  C  C27  1  0.00001000  0.74579000  0.36806000  1.0
  C  C28  1  0.99999000  0.84946000  0.26950000  1.0
  C  C29  1  0.99998000  0.29250000  0.88352000  1.0
  C  C30  1  0.00000000  0.40250000  0.79062000  1.0
  C  C31  1  0.00003000  0.38551000  0.66057000  1.0
  C  C32  1  0.00003000  0.50121000  0.56377000  1.0
  C  C33  1  0.00004000  0.25423000  0.63194000  1.0
  C  C34  1  0.00000000  0.15056000  0.73050000  1.0
  C  C35  1  0.49999000  0.07081000  0.22525000  1.0
  C  C36  1  0.49999000  0.03673000  0.36459000  1.0
  C  C37  1  0.49999000  0.92919000  0.77475000  1.0
  C  C38  1  0.49998000  0.96326000  0.63540000  1.0
  N  N39  1  0.20338000  0.09588000  0.10197000  1.0
  N  N40  1  0.20337000  0.90413000  0.89801000  1.0
  N  N41  1  0.79662000  0.90412000  0.89800000  1.0
  N  N42  1  0.79663000  0.09587000  0.10200000  1.0
  N  N43  1  0.99999000  0.83194000  0.14584000  1.0
  N  N44  1  0.99997000  0.16807000  0.85416000  1.0
