# generated using pymatgen
data_AlH7C14N2Cl2O5
_symmetry_space_group_name_H-M   'P 1'
_cell_length_a   6.67232000
_cell_length_b   16.97950000
_cell_length_c   16.97980000
_cell_angle_alpha   87.11890000
_cell_angle_beta   82.40760000
_cell_angle_gamma   82.40940000
_symmetry_Int_Tables_number   1
_chemical_formula_structural   AlH7C14N2Cl2O5
_chemical_formula_sum   'Al2 H14 C28 N4 Cl4 O10'
_cell_volume   1889.05865056
_cell_formula_units_Z   2
loop_
 _symmetry_equiv_pos_site_id
 _symmetry_equiv_pos_as_xyz
  1  'x, y, z'
loop_
 _atom_site_type_symbol
 _atom_site_label
 _atom_site_symmetry_multiplicity
 _atom_site_fract_x
 _atom_site_fract_y
 _atom_site_fract_z
 _atom_site_occupancy
  Al  Al0  1  0.49999000  0.50000000  0.50000000  1.0
  Al  Al1  1  0.00000000  0.50000000  0.50000000  1.0
  H  H2  1  0.74999000  0.42404000  0.57598000  1.0
  H  H3  1  0.25000000  0.57597000  0.42403000  1.0
  H  H4  1  0.38130000  0.73829000  0.46659000  1.0
  H  H5  1  0.31735000  0.88718000  0.46355000  1.0
  H  H6  1  0.87102000  0.89223000  0.56650000  1.0
  H  H7  1  0.12908000  0.10776000  0.43347000  1.0
  H  H8  1  0.68265000  0.11283000  0.53647000  1.0
  H  H9  1  0.61867000  0.26171000  0.53344000  1.0
  H  H10  1  0.88128000  0.46657000  0.73830000  1.0
  H  H11  1  0.81731000  0.46353000  0.88717000  1.0
  H  H12  1  0.37097000  0.56650000  0.89223000  1.0
  H  H13  1  0.62895000  0.43352000  0.10777000  1.0
  H  H14  1  0.18268000  0.53644000  0.11282000  1.0
  H  H15  1  0.11874000  0.53340000  0.26170000  1.0
  C  C16  1  0.19421000  0.50783000  0.64290000  1.0
  C  C17  1  0.30578000  0.35709000  0.49216000  1.0
  C  C18  1  0.80578000  0.49217000  0.35710000  1.0
  C  C19  1  0.69421000  0.64291000  0.50784000  1.0
  C  C20  1  0.66445000  0.73124000  0.51449000  1.0
  C  C21  1  0.48914000  0.77315000  0.48690000  1.0
  C  C22  1  0.45250000  0.85528000  0.48550000  1.0
  C  C23  1  0.59393000  0.89828000  0.51323000  1.0
  C  C24  1  0.76598000  0.85791000  0.54349000  1.0
  C  C25  1  0.80137000  0.77504000  0.54441000  1.0
  C  C26  1  0.23410000  0.14209000  0.45649000  1.0
  C  C27  1  0.40613000  0.10172000  0.48676000  1.0
  C  C28  1  0.54752000  0.14472000  0.51451000  1.0
  C  C29  1  0.51087000  0.22685000  0.51311000  1.0
  C  C30  1  0.33557000  0.26876000  0.48551000  1.0
  C  C31  1  0.19868000  0.22495000  0.45558000  1.0
  C  C32  1  0.16442000  0.51448000  0.73123000  1.0
  C  C33  1  0.98910000  0.48689000  0.77316000  1.0
  C  C34  1  0.95246000  0.48549000  0.85528000  1.0
  C  C35  1  0.09388000  0.51322000  0.89828000  1.0
  C  C36  1  0.26592000  0.54349000  0.85791000  1.0
  C  C37  1  0.30133000  0.54440000  0.77504000  1.0
  C  C38  1  0.73402000  0.45652000  0.14209000  1.0
  C  C39  1  0.90607000  0.48678000  0.10172000  1.0
  C  C40  1  0.04753000  0.51450000  0.14471000  1.0
  C  C41  1  0.01089000  0.51310000  0.22684000  1.0
  C  C42  1  0.83556000  0.48551000  0.26876000  1.0
  C  C43  1  0.69862000  0.45561000  0.22496000  1.0
  N  N44  1  0.57721000  0.98209000  0.51437000  1.0
  N  N45  1  0.42286000  0.01791000  0.48562000  1.0
  N  N46  1  0.07716000  0.51437000  0.98208000  1.0
  N  N47  1  0.92278000  0.48563000  0.01792000  1.0
  Cl  Cl48  1  0.01108000  0.73021000  0.58672000  1.0
  Cl  Cl49  1  0.98898000  0.26977000  0.41326000  1.0
  Cl  Cl50  1  0.51105000  0.58671000  0.73021000  1.0
  Cl  Cl51  1  0.48890000  0.41331000  0.26979000  1.0
  O  O52  1  0.37580000  0.49392000  0.60846000  1.0
  O  O53  1  0.12417000  0.39154000  0.50608000  1.0
  O  O54  1  0.96711000  0.48670000  0.39058000  1.0
  O  O55  1  0.53290000  0.60942000  0.51330000  1.0
  O  O56  1  0.62420000  0.50608000  0.39154000  1.0
  O  O57  1  0.87581000  0.60846000  0.49392000  1.0
  O  O58  1  0.03289000  0.51329000  0.60942000  1.0
  O  O59  1  0.46707000  0.39058000  0.48670000  1.0
  O  O60  1  0.75000000  0.46536000  0.53463000  1.0
  O  O61  1  0.25000000  0.53464000  0.46536000  1.0
