# generated using pymatgen
data_CdH8C4(N4Cl)2
_symmetry_space_group_name_H-M   'P 1'
_cell_length_a   3.78589000
_cell_length_b   8.34456000
_cell_length_c   16.91000000
_cell_angle_alpha   89.99940000
_cell_angle_beta   86.73640000
_cell_angle_gamma   89.99620000
_symmetry_Int_Tables_number   1
_chemical_formula_structural   CdH8C4(N4Cl)2
_chemical_formula_sum   'Cd2 H16 C8 N16 Cl4'
_cell_volume   533.34732691
_cell_formula_units_Z   2
loop_
 _symmetry_equiv_pos_site_id
 _symmetry_equiv_pos_as_xyz
  1  'x, y, z'
loop_
 _atom_site_type_symbol
 _atom_site_label
 _atom_site_symmetry_multiplicity
 _atom_site_fract_x
 _atom_site_fract_y
 _atom_site_fract_z
 _atom_site_occupancy
  Cd  Cd0  1  0.49999000  0.50000000  0.50000000  1.0
  Cd  Cd1  1  0.00000000  0.00000000  0.00000000  1.0
  H  H2  1  0.26519000  0.53551000  0.08059000  1.0
  H  H3  1  0.23474000  0.03548000  0.41942000  1.0
  H  H4  1  0.73481000  0.46449000  0.91940000  1.0
  H  H5  1  0.76524000  0.96452000  0.58058000  1.0
  H  H6  1  0.04848000  0.69930000  0.12589000  1.0
  H  H7  1  0.45155000  0.19934000  0.37410000  1.0
  H  H8  1  0.95152000  0.30070000  0.87411000  1.0
  H  H9  1  0.54846000  0.80067000  0.62590000  1.0
  H  H10  1  0.24300000  0.28524000  0.14298000  1.0
  H  H11  1  0.25694000  0.78522000  0.35703000  1.0
  H  H12  1  0.75701000  0.71476000  0.85702000  1.0
  H  H13  1  0.74303000  0.21478000  0.64297000  1.0
  H  H14  1  0.97803000  0.25896000  0.23038000  1.0
  H  H15  1  0.52200000  0.75896000  0.26961000  1.0
  H  H16  1  0.02196000  0.74104000  0.76962000  1.0
  H  H17  1  0.47801000  0.24104000  0.73038000  1.0
  C  C18  1  0.67683000  0.48220000  0.30779000  1.0
  C  C19  1  0.82314000  0.98218000  0.19221000  1.0
  C  C20  1  0.32317000  0.51779000  0.69221000  1.0
  C  C21  1  0.17685000  0.01781000  0.80779000  1.0
  C  C22  1  0.99880000  0.48749000  0.18688000  1.0
  C  C23  1  0.50123000  0.98748000  0.31310000  1.0
  C  C24  1  0.00120000  0.51251000  0.81312000  1.0
  C  C25  1  0.49878000  0.01252000  0.68690000  1.0
  N  N26  1  0.54638000  0.42915000  0.36763000  1.0
  N  N27  1  0.95365000  0.92915000  0.13236000  1.0
  N  N28  1  0.45360000  0.57085000  0.63237000  1.0
  N  N29  1  0.04636000  0.07085000  0.86764000  1.0
  N  N30  1  0.78806000  0.55647000  0.24464000  1.0
  N  N31  1  0.71201000  0.05654000  0.25535000  1.0
  N  N32  1  0.21192000  0.44355000  0.75536000  1.0
  N  N33  1  0.28802000  0.94348000  0.74464000  1.0
  N  N34  1  0.10027000  0.57873000  0.12491000  1.0
  N  N35  1  0.39974000  0.07872000  0.37509000  1.0
  N  N36  1  0.89974000  0.42127000  0.87508000  1.0
  N  N37  1  0.60026000  0.92129000  0.62491000  1.0
  N  N38  1  0.10511000  0.33524000  0.19081000  1.0
  N  N39  1  0.39486000  0.83521000  0.30919000  1.0
  N  N40  1  0.89490000  0.66475000  0.80919000  1.0
  N  N41  1  0.60513000  0.16479000  0.69081000  1.0
  Cl  Cl42  1  0.00663000  0.72042000  0.47363000  1.0
  Cl  Cl43  1  0.49334000  0.22042000  0.02637000  1.0
  Cl  Cl44  1  0.99336000  0.27957000  0.52637000  1.0
  Cl  Cl45  1  0.50666000  0.77957000  0.97363000  1.0
