# generated using pymatgen
data_BaH8C6N2O7
_symmetry_space_group_name_H-M   'P 1'
_cell_length_a   7.42791000
_cell_length_b   9.53606000
_cell_length_c   13.74310000
_cell_angle_alpha   89.99990000
_cell_angle_beta   96.29220000
_cell_angle_gamma   89.99940000
_symmetry_Int_Tables_number   1
_chemical_formula_structural   BaH8C6N2O7
_chemical_formula_sum   'Ba4 H32 C24 N8 O28'
_cell_volume   967.60067476
_cell_formula_units_Z   4
loop_
 _symmetry_equiv_pos_site_id
 _symmetry_equiv_pos_as_xyz
  1  'x, y, z'
loop_
 _atom_site_type_symbol
 _atom_site_label
 _atom_site_symmetry_multiplicity
 _atom_site_fract_x
 _atom_site_fract_y
 _atom_site_fract_z
 _atom_site_occupancy
  Ba  Ba0  1  0.82882000  0.41066000  0.68319000  1.0
  Ba  Ba1  1  0.67117000  0.91066000  0.31681000  1.0
  Ba  Ba2  1  0.17118000  0.58934000  0.31681000  1.0
  Ba  Ba3  1  0.32883000  0.08934000  0.68319000  1.0
  H  H4  1  0.09699000  0.42712000  0.89314000  1.0
  H  H5  1  0.40300000  0.92712000  0.10686000  1.0
  H  H6  1  0.90300000  0.57288000  0.10686000  1.0
  H  H7  1  0.59699000  0.07288000  0.89314000  1.0
  H  H8  1  0.04148000  0.27305000  0.85848000  1.0
  H  H9  1  0.45851000  0.77304000  0.14152000  1.0
  H  H10  1  0.95851000  0.72695000  0.14152000  1.0
  H  H11  1  0.54148000  0.22695000  0.85848000  1.0
  H  H12  1  0.00713000  0.20335000  0.49998000  1.0
  H  H13  1  0.49286000  0.70335000  0.50003000  1.0
  H  H14  1  0.99286000  0.79665000  0.50002000  1.0
  H  H15  1  0.50714000  0.29665000  0.49997000  1.0
  H  H16  1  0.11854000  0.33282000  0.54463000  1.0
  H  H17  1  0.38146000  0.83281000  0.45537000  1.0
  H  H18  1  0.88146000  0.66718000  0.45537000  1.0
  H  H19  1  0.61854000  0.16718000  0.54463000  1.0
  H  H20  1  0.87059000  0.42914000  0.43877000  1.0
  H  H21  1  0.62940000  0.92914000  0.56123000  1.0
  H  H22  1  0.12941000  0.57086000  0.56123000  1.0
  H  H23  1  0.37060000  0.07086000  0.43877000  1.0
  H  H24  1  0.67641000  0.48424000  0.43919000  1.0
  H  H25  1  0.82359000  0.98424000  0.56081000  1.0
  H  H26  1  0.32359000  0.51576000  0.56081000  1.0
  H  H27  1  0.17642000  0.01576000  0.43919000  1.0
  H  H28  1  0.67380000  0.80553000  0.00626000  1.0
  H  H29  1  0.82621000  0.30552000  0.99374000  1.0
  H  H30  1  0.32621000  0.19447000  0.99374000  1.0
  H  H31  1  0.17379000  0.69447000  0.00626000  1.0
  H  H32  1  0.74545000  0.57228000  0.92753000  1.0
  H  H33  1  0.75456000  0.07227000  0.07247000  1.0
  H  H34  1  0.25455000  0.42772000  0.07247000  1.0
  H  H35  1  0.24545000  0.92773000  0.92754000  1.0
  C  C36  1  0.89004000  0.79041000  0.76880000  1.0
  C  C37  1  0.60996000  0.29041000  0.23119000  1.0
  C  C38  1  0.10996000  0.20960000  0.23120000  1.0
  C  C39  1  0.39004000  0.70960000  0.76881000  1.0
  C  C40  1  0.84996000  0.91857000  0.81220000  1.0
  C  C41  1  0.65004000  0.41857000  0.18780000  1.0
  C  C42  1  0.15004000  0.08144000  0.18780000  1.0
  C  C43  1  0.34996000  0.58143000  0.81220000  1.0
  C  C44  1  0.73788000  0.79998000  0.93837000  1.0
  C  C45  1  0.76213000  0.29997000  0.06163000  1.0
  C  C46  1  0.26213000  0.20002000  0.06163000  1.0
  C  C47  1  0.23787000  0.70002000  0.93837000  1.0
  C  C48  1  0.77627000  0.67245000  0.89485000  1.0
  C  C49  1  0.72375000  0.17245000  0.10515000  1.0
  C  C50  1  0.22374000  0.32755000  0.10515000  1.0
  C  C51  1  0.27626000  0.82755000  0.89485000  1.0
  C  C52  1  0.97810000  0.77933000  0.67447000  1.0
  C  C53  1  0.52191000  0.27933000  0.32553000  1.0
  C  C54  1  0.02190000  0.22067000  0.32553000  1.0
  C  C55  1  0.47809000  0.72067000  0.67447000  1.0
  C  C56  1  0.88950000  0.06198000  0.77325000  1.0
  C  C57  1  0.61048000  0.56198000  0.22674000  1.0
  C  C58  1  0.11050000  0.93802000  0.22675000  1.0
  C  C59  1  0.38951000  0.43802000  0.77326000  1.0
  N  N60  1  0.84763000  0.66837000  0.80973000  1.0
  N  N61  1  0.65238000  0.16837000  0.19027000  1.0
  N  N62  1  0.15237000  0.33163000  0.19027000  1.0
  N  N63  1  0.34763000  0.83163000  0.80973000  1.0
  N  N64  1  0.77002000  0.92230000  0.89565000  1.0
  N  N65  1  0.72998000  0.42230000  0.10434000  1.0
  N  N66  1  0.22998000  0.07770000  0.10435000  1.0
  N  N67  1  0.27002000  0.57770000  0.89565000  1.0
  O  O68  1  0.99232000  0.36300000  0.88012000  1.0
  O  O69  1  0.50768000  0.86300000  0.11988000  1.0
  O  O70  1  0.00768000  0.63700000  0.11988000  1.0
  O  O71  1  0.49232000  0.13700000  0.88012000  1.0
  O  O72  1  0.05468000  0.24614000  0.56288000  1.0
  O  O73  1  0.44532000  0.74613000  0.43712000  1.0
  O  O74  1  0.94532000  0.75386000  0.43712000  1.0
  O  O75  1  0.55468000  0.25386000  0.56288000  1.0
  O  O76  1  0.79778000  0.49409000  0.47560000  1.0
  O  O77  1  0.70222000  0.99408000  0.52440000  1.0
  O  O78  1  0.20222000  0.50591000  0.52440000  1.0
  O  O79  1  0.29779000  0.00592000  0.47561000  1.0
  O  O80  1  0.00715000  0.65630000  0.64511000  1.0
  O  O81  1  0.49285000  0.15631000  0.35489000  1.0
  O  O82  1  0.99285000  0.34370000  0.35489000  1.0
  O  O83  1  0.50715000  0.84369000  0.64511000  1.0
  O  O84  1  0.01759000  0.89135000  0.63073000  1.0
  O  O85  1  0.48241000  0.39136000  0.36927000  1.0
  O  O86  1  0.98241000  0.10865000  0.36927000  1.0
  O  O87  1  0.51759000  0.60865000  0.63073000  1.0
  O  O88  1  0.04932000  0.10812000  0.79708000  1.0
  O  O89  1  0.45067000  0.60812000  0.20291000  1.0
  O  O90  1  0.95067000  0.89188000  0.20292000  1.0
  O  O91  1  0.54933000  0.39188000  0.79709000  1.0
  O  O92  1  0.75942000  0.12778000  0.72775000  1.0
  O  O93  1  0.74057000  0.62778000  0.27225000  1.0
  O  O94  1  0.24058000  0.87222000  0.27225000  1.0
  O  O95  1  0.25942000  0.37222000  0.72775000  1.0
