# generated using pymatgen
data_KH(CO2)2
_symmetry_space_group_name_H-M   'P 1'
_cell_length_a   4.25402000
_cell_length_b   7.69344000
_cell_length_c   12.96540000
_cell_angle_alpha   89.99980000
_cell_angle_beta   90.00000000
_cell_angle_gamma   101.69100000
_symmetry_Int_Tables_number   1
_chemical_formula_structural   KH(CO2)2
_chemical_formula_sum   'K4 H4 C8 O16'
_cell_volume   415.52930910
_cell_formula_units_Z   4
loop_
 _symmetry_equiv_pos_site_id
 _symmetry_equiv_pos_as_xyz
  1  'x, y, z'
loop_
 _atom_site_type_symbol
 _atom_site_label
 _atom_site_symmetry_multiplicity
 _atom_site_fract_x
 _atom_site_fract_y
 _atom_site_fract_z
 _atom_site_occupancy
  K  K0  1  0.18535000  0.77142000  0.93152000  1.0
  K  K1  1  0.81467000  0.72858000  0.43152000  1.0
  K  K2  1  0.81466000  0.22858000  0.06848000  1.0
  K  K3  1  0.18535000  0.27142000  0.56848000  1.0
  H  H4  1  0.86421000  0.02180000  0.77424000  1.0
  H  H5  1  0.13579000  0.47820000  0.27425000  1.0
  H  H6  1  0.13578000  0.97820000  0.22576000  1.0
  H  H7  1  0.86421000  0.52180000  0.72576000  1.0
  C  C8  1  0.59920000  0.87245000  0.67187000  1.0
  C  C9  1  0.40081000  0.62756000  0.17187000  1.0
  C  C10  1  0.40081000  0.12756000  0.32813000  1.0
  C  C11  1  0.59919000  0.37244000  0.82813000  1.0
  C  C12  1  0.31461000  0.71331000  0.65306000  1.0
  C  C13  1  0.68539000  0.78669000  0.15306000  1.0
  C  C14  1  0.68539000  0.28669000  0.34694000  1.0
  C  C15  1  0.31461000  0.21331000  0.84694000  1.0
  O  O16  1  0.65832000  0.91398000  0.76964000  1.0
  O  O17  1  0.34168000  0.58602000  0.26964000  1.0
  O  O18  1  0.34168000  0.08601000  0.23036000  1.0
  O  O19  1  0.65832000  0.41399000  0.73036000  1.0
  O  O20  1  0.13105000  0.66649000  0.73018000  1.0
  O  O21  1  0.86895000  0.83351000  0.23018000  1.0
  O  O22  1  0.86895000  0.33351000  0.26982000  1.0
  O  O23  1  0.13106000  0.16649000  0.76982000  1.0
  O  O24  1  0.75109000  0.94956000  0.59826000  1.0
  O  O25  1  0.24890000  0.55044000  0.09826000  1.0
  O  O26  1  0.24891000  0.05044000  0.40173000  1.0
  O  O27  1  0.75109000  0.44956000  0.90174000  1.0
  O  O28  1  0.28915000  0.64610000  0.56459000  1.0
  O  O29  1  0.71085000  0.85390000  0.06459000  1.0
  O  O30  1  0.71084000  0.35390000  0.43541000  1.0
  O  O31  1  0.28916000  0.14610000  0.93541000  1.0
