# generated using pymatgen
data_GdH6(C2N3)3
_symmetry_space_group_name_H-M   'P 1'
_cell_length_a   9.37201000
_cell_length_b   9.37200000
_cell_length_c   12.68580000
_cell_angle_alpha   91.71320000
_cell_angle_beta   91.71320000
_cell_angle_gamma   119.48900000
_symmetry_Int_Tables_number   1
_chemical_formula_structural   GdH6(C2N3)3
_chemical_formula_sum   'Gd4 H24 C24 N36'
_cell_volume   968.19083289
_cell_formula_units_Z   4
loop_
 _symmetry_equiv_pos_site_id
 _symmetry_equiv_pos_as_xyz
  1  'x, y, z'
loop_
 _atom_site_type_symbol
 _atom_site_label
 _atom_site_symmetry_multiplicity
 _atom_site_fract_x
 _atom_site_fract_y
 _atom_site_fract_z
 _atom_site_occupancy
  Gd  Gd0  1  0.74261000  0.48048000  0.57159000  1.0
  Gd  Gd1  1  0.51952000  0.25739000  0.92841000  1.0
  Gd  Gd2  1  0.25739000  0.51952000  0.42841000  1.0
  Gd  Gd3  1  0.48048000  0.74261000  0.07159000  1.0
  H  H4  1  0.70621000  0.77809000  0.76619000  1.0
  H  H5  1  0.22191000  0.29379000  0.73381000  1.0
  H  H6  1  0.29379000  0.22191000  0.23381000  1.0
  H  H7  1  0.77809000  0.70621000  0.26619000  1.0
  H  H8  1  0.46494000  0.86674000  0.72863000  1.0
  H  H9  1  0.13326000  0.53506000  0.77136000  1.0
  H  H10  1  0.53506000  0.13326000  0.27136000  1.0
  H  H11  1  0.86674000  0.46494000  0.22864000  1.0
  H  H12  1  0.25478000  0.90113000  0.33663000  1.0
  H  H13  1  0.09887000  0.74522000  0.16337000  1.0
  H  H14  1  0.74522000  0.09887000  0.66337000  1.0
  H  H15  1  0.90113000  0.25478000  0.83663000  1.0
  H  H16  1  0.01147000  0.97145000  0.40039000  1.0
  H  H17  1  0.02855000  0.98853000  0.09961000  1.0
  H  H18  1  0.98853000  0.02855000  0.59961000  1.0
  H  H19  1  0.97145000  0.01147000  0.90039000  1.0
  H  H20  1  0.15674000  0.89013000  0.66048000  1.0
  H  H21  1  0.10987000  0.84326000  0.83952000  1.0
  H  H22  1  0.84326000  0.10987000  0.33952000  1.0
  H  H23  1  0.89013000  0.15674000  0.16048000  1.0
  H  H24  1  0.35859000  0.08107000  0.50470000  1.0
  H  H25  1  0.91893000  0.64140000  0.99530000  1.0
  H  H26  1  0.64140000  0.91892000  0.49530000  1.0
  H  H27  1  0.08108000  0.35859000  0.00470000  1.0
  C  C28  1  0.61014000  0.73663000  0.70422000  1.0
  C  C29  1  0.26337000  0.38986000  0.79578000  1.0
  C  C30  1  0.38986000  0.26337000  0.29578000  1.0
  C  C31  1  0.73663000  0.61014000  0.20422000  1.0
  C  C32  1  0.49034000  0.78104000  0.68524000  1.0
  C  C33  1  0.21896000  0.50966000  0.81476000  1.0
  C  C34  1  0.50966000  0.21896000  0.31475000  1.0
  C  C35  1  0.78104000  0.49035000  0.18525000  1.0
  C  C36  1  0.14789000  0.83127000  0.38189000  1.0
  C  C37  1  0.16873000  0.85211000  0.11811000  1.0
  C  C38  1  0.85211000  0.16873000  0.61811000  1.0
  C  C39  1  0.83127000  0.14789000  0.88189000  1.0
  C  C40  1  0.02677000  0.86595000  0.41362000  1.0
  C  C41  1  0.13405000  0.97323000  0.08638000  1.0
  C  C42  1  0.97323000  0.13405000  0.58638000  1.0
  C  C43  1  0.86595000  0.02677000  0.91362000  1.0
  C  C44  1  0.27448000  0.00230000  0.66752000  1.0
  C  C45  1  0.99770000  0.72552000  0.83248000  1.0
  C  C46  1  0.72552000  0.99770000  0.33248000  1.0
  C  C47  1  0.00230000  0.27448000  0.16752000  1.0
  C  C48  1  0.37543000  0.09651000  0.58979000  1.0
  C  C49  1  0.90349000  0.62457000  0.91021000  1.0
  C  C50  1  0.62457000  0.90349000  0.41021000  1.0
  C  C51  1  0.09651000  0.37543000  0.08979000  1.0
  N  N52  1  0.58816000  0.62106000  0.62875000  1.0
  N  N53  1  0.37894000  0.41183000  0.87125000  1.0
  N  N54  1  0.41183000  0.37894000  0.37125000  1.0
  N  N55  1  0.62106000  0.58817000  0.12875000  1.0
  N  N56  1  0.45907000  0.59550000  0.56718000  1.0
  N  N57  1  0.40450000  0.54093000  0.93282000  1.0
  N  N58  1  0.54093000  0.40450000  0.43282000  1.0
  N  N59  1  0.59550000  0.45907000  0.06718000  1.0
  N  N60  1  0.39779000  0.69032000  0.59898000  1.0
  N  N61  1  0.30968000  0.60221000  0.90102000  1.0
  N  N62  1  0.60221000  0.30968000  0.40102000  1.0
  N  N63  1  0.69032000  0.39780000  0.09898000  1.0
  N  N64  1  0.11380000  0.68465000  0.41963000  1.0
  N  N65  1  0.31535000  0.88620000  0.08037000  1.0
  N  N66  1  0.88620000  0.31535000  0.58037000  1.0
  N  N67  1  0.68466000  0.11380000  0.91963000  1.0
  N  N68  1  0.97692000  0.63237000  0.47203000  1.0
  N  N69  1  0.36763000  0.02308000  0.02796000  1.0
  N  N70  1  0.02308000  0.36763000  0.52796000  1.0
  N  N71  1  0.63237000  0.97692000  0.97203000  1.0
  N  N72  1  0.92170000  0.73905000  0.47002000  1.0
  N  N73  1  0.26095000  0.07830000  0.02998000  1.0
  N  N74  1  0.07830000  0.26095000  0.52998000  1.0
  N  N75  1  0.73905000  0.92171000  0.97002000  1.0
  N  N76  1  0.35226000  0.07423000  0.76213000  1.0
  N  N77  1  0.92577000  0.64774000  0.73787000  1.0
  N  N78  1  0.64774000  0.92577000  0.23787000  1.0
  N  N79  1  0.07423000  0.35226000  0.26213000  1.0
  N  N80  1  0.49438000  0.20591000  0.74210000  1.0
  N  N81  1  0.79409000  0.50562000  0.75790000  1.0
  N  N82  1  0.50562000  0.79409000  0.25790000  1.0
  N  N83  1  0.20591000  0.49438000  0.24210000  1.0
  N  N84  1  0.51178000  0.22316000  0.63839000  1.0
  N  N85  1  0.77684000  0.48822000  0.86161000  1.0
  N  N86  1  0.48822000  0.77684000  0.36161000  1.0
  N  N87  1  0.22316000  0.51178000  0.13839000  1.0
