# generated using pymatgen
data_LiH9C5INO2
_symmetry_space_group_name_H-M   'P 1'
_cell_length_a   5.05595000
_cell_length_b   9.94577000
_cell_length_c   15.93920000
_cell_angle_alpha   89.99980000
_cell_angle_beta   90.00020000
_cell_angle_gamma   89.99950000
_symmetry_Int_Tables_number   1
_chemical_formula_structural   LiH9C5INO2
_chemical_formula_sum   'Li4 H36 C20 I4 N4 O8'
_cell_volume   801.50770606
_cell_formula_units_Z   4
loop_
 _symmetry_equiv_pos_site_id
 _symmetry_equiv_pos_as_xyz
  1  'x, y, z'
loop_
 _atom_site_type_symbol
 _atom_site_label
 _atom_site_symmetry_multiplicity
 _atom_site_fract_x
 _atom_site_fract_y
 _atom_site_fract_z
 _atom_site_occupancy
  Li  Li0  1  0.52579000  0.75593000  0.94356000  1.0
  Li  Li1  1  0.97422000  0.24407000  0.44356000  1.0
  Li  Li2  1  0.02577000  0.74407000  0.05644000  1.0
  Li  Li3  1  0.47423000  0.25593000  0.55644000  1.0
  H  H4  1  0.77726000  0.23241000  0.79494000  1.0
  H  H5  1  0.72274000  0.76759000  0.29494000  1.0
  H  H6  1  0.27726000  0.26759000  0.20506000  1.0
  H  H7  1  0.22274000  0.73241000  0.70506000  1.0
  H  H8  1  0.12292000  0.25988000  0.77728000  1.0
  H  H9  1  0.37707000  0.74012000  0.27728000  1.0
  H  H10  1  0.62292000  0.24012000  0.22272000  1.0
  H  H11  1  0.87707000  0.75988000  0.72272000  1.0
  H  H12  1  0.09544000  0.30506000  0.92556000  1.0
  H  H13  1  0.40456000  0.69493000  0.42556000  1.0
  H  H14  1  0.59544000  0.19494000  0.07444000  1.0
  H  H15  1  0.90455000  0.80507000  0.57444000  1.0
  H  H16  1  0.86577000  0.17212000  0.94327000  1.0
  H  H17  1  0.63424000  0.82787000  0.44327000  1.0
  H  H18  1  0.36576000  0.32788000  0.05673000  1.0
  H  H19  1  0.13424000  0.67212000  0.55673000  1.0
  H  H20  1  0.35218000  0.94125000  0.82334000  1.0
  H  H21  1  0.14783000  0.05876000  0.32335000  1.0
  H  H22  1  0.85217000  0.55876000  0.17665000  1.0
  H  H23  1  0.64783000  0.44124000  0.67665000  1.0
  H  H24  1  0.11525000  0.04706000  0.73034000  1.0
  H  H25  1  0.38475000  0.95294000  0.23034000  1.0
  H  H26  1  0.61524000  0.45294000  0.26966000  1.0
  H  H27  1  0.88475000  0.54706000  0.76966000  1.0
  H  H28  1  0.83600000  0.00637000  0.78289000  1.0
  H  H29  1  0.66400000  0.99363000  0.28289000  1.0
  H  H30  1  0.33599000  0.49363000  0.21711000  1.0
  H  H31  1  0.16400000  0.50637000  0.71712000  1.0
  H  H32  1  0.29014000  0.06461000  0.97842000  1.0
  H  H33  1  0.20987000  0.93539000  0.47842000  1.0
  H  H34  1  0.79013000  0.43539000  0.02158000  1.0
  H  H35  1  0.70987000  0.56461000  0.52158000  1.0
  H  H36  1  0.44956000  0.14678000  0.89298000  1.0
  H  H37  1  0.05044000  0.85322000  0.39298000  1.0
  H  H38  1  0.94956000  0.35322000  0.10702000  1.0
  H  H39  1  0.55043000  0.64678000  0.60702000  1.0
  C  C40  1  0.97713000  0.20056000  0.81252000  1.0
  C  C41  1  0.52286000  0.79944000  0.31252000  1.0
  C  C42  1  0.47713000  0.29945000  0.18748000  1.0
  C  C43  1  0.02286000  0.70055000  0.68748000  1.0
  C  C44  1  0.03769000  0.20364000  0.90598000  1.0
  C  C45  1  0.46231000  0.79635000  0.40598000  1.0
  C  C46  1  0.53768000  0.29636000  0.09402000  1.0
  C  C47  1  0.96231000  0.70364000  0.59402000  1.0
  C  C48  1  0.18114000  0.98768000  0.85444000  1.0
  C  C49  1  0.31886000  0.01232000  0.35444000  1.0
  C  C50  1  0.68114000  0.51232000  0.14556000  1.0
  C  C51  1  0.81886000  0.48769000  0.64556000  1.0
  C  C52  1  0.02040000  0.87918000  0.89935000  1.0
  C  C53  1  0.47962000  0.12082000  0.39934000  1.0
  C  C54  1  0.52037000  0.62082000  0.10066000  1.0
  C  C55  1  0.97963000  0.37918000  0.60066000  1.0
  C  C56  1  0.26281000  0.10178000  0.91428000  1.0
  C  C57  1  0.23719000  0.89822000  0.41428000  1.0
  C  C58  1  0.76281000  0.39822000  0.08572000  1.0
  C  C59  1  0.73718000  0.60178000  0.58572000  1.0
  I  I60  1  0.49756000  0.50517000  0.85649000  1.0
  I  I61  1  0.00243000  0.49484000  0.35649000  1.0
  I  I62  1  0.99757000  0.99484000  0.14351000  1.0
  I  I63  1  0.50242000  0.00516000  0.64350000  1.0
  N  N64  1  0.01658000  0.05543000  0.78819000  1.0
  N  N65  1  0.48342000  0.94456000  0.28820000  1.0
  N  N66  1  0.51658000  0.44456000  0.21180000  1.0
  N  N67  1  0.98342000  0.55544000  0.71181000  1.0
  O  O68  1  0.77418000  0.87309000  0.88632000  1.0
  O  O69  1  0.72584000  0.12690000  0.38632000  1.0
  O  O70  1  0.27418000  0.62690000  0.11368000  1.0
  O  O71  1  0.22582000  0.37309000  0.61368000  1.0
  O  O72  1  0.15332000  0.80472000  0.94876000  1.0
  O  O73  1  0.34671000  0.19529000  0.44876000  1.0
  O  O74  1  0.65330000  0.69529000  0.05124000  1.0
  O  O75  1  0.84670000  0.30471000  0.55124000  1.0
