# generated using pymatgen
data_TlH6C7NO2
_symmetry_space_group_name_H-M   'P 1'
_cell_length_a   7.02021000
_cell_length_b   11.03496998
_cell_length_c   11.03524259
_cell_angle_alpha   81.68926044
_cell_angle_beta   71.48111028
_cell_angle_gamma   71.47953866
_symmetry_Int_Tables_number   1
_chemical_formula_structural   TlH6C7NO2
_chemical_formula_sum   'Tl4 H24 C28 N4 O8'
_cell_volume   767.72200994
_cell_formula_units_Z   4
loop_
 _symmetry_equiv_pos_site_id
 _symmetry_equiv_pos_as_xyz
  1  'x, y, z'
loop_
 _atom_site_type_symbol
 _atom_site_label
 _atom_site_symmetry_multiplicity
 _atom_site_fract_x
 _atom_site_fract_y
 _atom_site_fract_z
 _atom_site_occupancy
  Tl  Tl0  1  0.43168000  0.21143000  0.98583000  1.0
  Tl  Tl1  1  0.62924000  0.78842000  0.01410000  1.0
  Tl  Tl2  1  0.12923000  0.01411000  0.78843000  1.0
  Tl  Tl3  1  0.93169000  0.98583000  0.21143000  1.0
  H  H4  1  0.95718000  0.66015000  0.29258000  1.0
  H  H5  1  0.91034000  0.34004000  0.70722000  1.0
  H  H6  1  0.41034000  0.70723000  0.34006000  1.0
  H  H7  1  0.45718000  0.29257000  0.66015000  1.0
  H  H8  1  0.11587000  0.57337000  0.38234000  1.0
  H  H9  1  0.07234000  0.42677000  0.61757000  1.0
  H  H10  1  0.57238000  0.61756000  0.42678000  1.0
  H  H11  1  0.61584000  0.38233000  0.57337000  1.0
  H  H12  1  0.95472000  0.80446000  0.74048000  1.0
  H  H13  1  0.49956000  0.19543000  0.25944000  1.0
  H  H14  1  0.99955000  0.25943000  0.19542000  1.0
  H  H15  1  0.45468000  0.74047000  0.80446000  1.0
  H  H16  1  0.11207000  0.64020000  0.58023000  1.0
  H  H17  1  0.33311000  0.35976000  0.41959000  1.0
  H  H18  1  0.83312000  0.41958000  0.35975000  1.0
  H  H19  1  0.61205000  0.58024000  0.64019000  1.0
  H  H20  1  0.63857000  0.83546000  0.38948000  1.0
  H  H21  1  0.86406000  0.16470000  0.61075000  1.0
  H  H22  1  0.36404000  0.61079000  0.16472000  1.0
  H  H23  1  0.13856000  0.38948000  0.83544000  1.0
  H  H24  1  0.49857000  0.00762000  0.54255000  1.0
  H  H25  1  0.04885000  0.99226000  0.45782000  1.0
  H  H26  1  0.54876000  0.45786000  0.99228000  1.0
  H  H27  1  0.99857000  0.54253000  0.00761000  1.0
  C  C28  1  0.62741000  0.02107000  0.74749000  1.0
  C  C29  1  0.39542000  0.97873000  0.25272000  1.0
  C  C30  1  0.89536000  0.25273000  0.97872000  1.0
  C  C31  1  0.12737000  0.74749000  0.02107000  1.0
  C  C32  1  0.71441000  0.91836000  0.65384000  1.0
  C  C33  1  0.28648000  0.08152000  0.34627000  1.0
  C  C34  1  0.78643000  0.34629000  0.08153000  1.0
  C  C35  1  0.21438000  0.65383000  0.91835000  1.0
  C  C36  1  0.88606000  0.81194000  0.66287000  1.0
  C  C37  1  0.36098000  0.18794000  0.33707000  1.0
  C  C38  1  0.86096000  0.33708000  0.18793000  1.0
  C  C39  1  0.38603000  0.66286000  0.81195000  1.0
  C  C40  1  0.97312000  0.71816000  0.57380000  1.0
  C  C41  1  0.26562000  0.28172000  0.42618000  1.0
  C  C42  1  0.76561000  0.42616000  0.28174000  1.0
  C  C43  1  0.47307000  0.57380000  0.71817000  1.0
  C  C44  1  0.88856000  0.72565000  0.47158000  1.0
  C  C45  1  0.08649000  0.27434000  0.52840000  1.0
  C  C46  1  0.58649000  0.52842000  0.27434000  1.0
  C  C47  1  0.38856000  0.47157000  0.72565000  1.0
  C  C48  1  0.71122000  0.83007000  0.46482000  1.0
  C  C49  1  0.00663000  0.16989000  0.53535000  1.0
  C  C50  1  0.50658000  0.53537000  0.16991000  1.0
  C  C51  1  0.21123000  0.46481000  0.83007000  1.0
  C  C52  1  0.62952000  0.92526000  0.55269000  1.0
  C  C53  1  0.10754000  0.07469000  0.44751000  1.0
  C  C54  1  0.60751000  0.44754000  0.07470000  1.0
  C  C55  1  0.12949000  0.55269000  0.92525000  1.0
  N  N56  1  0.97153000  0.63285000  0.38301000  1.0
  N  N57  1  0.98827000  0.36720000  0.61688000  1.0
  N  N58  1  0.48829000  0.61688000  0.36720000  1.0
  N  N59  1  0.47153000  0.38300000  0.63285000  1.0
  O  O60  1  0.48160000  0.12066000  0.73085000  1.0
  O  O61  1  0.33250000  0.87906000  0.26955000  1.0
  O  O62  1  0.83245000  0.26959000  0.87907000  1.0
  O  O63  1  0.98162000  0.73082000  0.12066000  1.0
  O  O64  1  0.70151000  0.00405000  0.84332000  1.0
  O  O65  1  0.54825000  0.99571000  0.15685000  1.0
  O  O66  1  0.04820000  0.15687000  0.99570000  1.0
  O  O67  1  0.20148000  0.84331000  0.00404000  1.0
