# generated using pymatgen
data_ZnH11C15N3Cl2O
_symmetry_space_group_name_H-M   'P 1'
_cell_length_a   7.33116000
_cell_length_b   10.22570000
_cell_length_c   19.87000000
_cell_angle_alpha   89.99990000
_cell_angle_beta   89.99980000
_cell_angle_gamma   92.00620000
_symmetry_Int_Tables_number   1
_chemical_formula_structural   ZnH11C15N3Cl2O
_chemical_formula_sum   'Zn4 H44 C60 N12 Cl8 O4'
_cell_volume   1488.66619914
_cell_formula_units_Z   4
loop_
 _symmetry_equiv_pos_site_id
 _symmetry_equiv_pos_as_xyz
  1  'x, y, z'
loop_
 _atom_site_type_symbol
 _atom_site_label
 _atom_site_symmetry_multiplicity
 _atom_site_fract_x
 _atom_site_fract_y
 _atom_site_fract_z
 _atom_site_occupancy
  Zn  Zn0  1  0.75798000  0.70909000  0.73205000  1.0
  Zn  Zn1  1  0.74203000  0.79092000  0.23205000  1.0
  Zn  Zn2  1  0.24202000  0.29091000  0.26795000  1.0
  Zn  Zn3  1  0.25797000  0.20908000  0.76795000  1.0
  H  H4  1  0.37752000  0.67472000  0.78373000  1.0
  H  H5  1  0.12248000  0.82527000  0.28373000  1.0
  H  H6  1  0.62247000  0.32528000  0.21627000  1.0
  H  H7  1  0.87753000  0.17472000  0.71627000  1.0
  H  H8  1  0.21124000  0.54456000  0.86954000  1.0
  H  H9  1  0.28877000  0.95543000  0.36955000  1.0
  H  H10  1  0.78876000  0.45544000  0.13046000  1.0
  H  H11  1  0.71123000  0.04457000  0.63046000  1.0
  H  H12  1  0.72962000  0.38251000  0.92614000  1.0
  H  H13  1  0.77039000  0.11750000  0.42615000  1.0
  H  H14  1  0.27038000  0.61750000  0.07385000  1.0
  H  H15  1  0.22962000  0.88250000  0.57385000  1.0
  H  H16  1  0.87150000  0.51950000  0.83732000  1.0
  H  H17  1  0.62851000  0.98051000  0.33733000  1.0
  H  H18  1  0.12850000  0.48051000  0.16268000  1.0
  H  H19  1  0.37150000  0.01949000  0.66267000  1.0
  H  H20  1  0.09380000  0.45397000  0.94477000  1.0
  H  H21  1  0.40621000  0.04603000  0.44477000  1.0
  H  H22  1  0.90620000  0.54603000  0.05523000  1.0
  H  H23  1  0.59378000  0.95397000  0.55523000  1.0
  H  H24  1  0.08302000  0.16643000  0.08917000  1.0
  H  H25  1  0.41699000  0.33358000  0.58917000  1.0
  H  H26  1  0.91698000  0.83357000  0.91082000  1.0
  H  H27  1  0.58301000  0.66642000  0.41083000  1.0
  H  H28  1  0.59344000  0.25303000  0.98502000  1.0
  H  H29  1  0.90657000  0.24697000  0.48502000  1.0
  H  H30  1  0.40657000  0.74698000  0.01498000  1.0
  H  H31  1  0.09343000  0.75303000  0.51498000  1.0
  H  H32  1  0.19250000  0.98589000  0.11407000  1.0
  H  H33  1  0.30750000  0.51411000  0.61407000  1.0
  H  H34  1  0.80750000  0.01411000  0.88592000  1.0
  H  H35  1  0.69250000  0.48589000  0.38593000  1.0
  H  H36  1  0.35330000  0.83568000  0.18867000  1.0
  H  H37  1  0.14670000  0.66433000  0.68867000  1.0
  H  H38  1  0.64670000  0.16432000  0.81133000  1.0
  H  H39  1  0.85330000  0.33567000  0.31133000  1.0
  H  H40  1  0.85816000  0.00105000  0.13784000  1.0
  H  H41  1  0.64184000  0.49895000  0.63784000  1.0
  H  H42  1  0.14184000  0.99895000  0.86216000  1.0
  H  H43  1  0.35816000  0.50105000  0.36216000  1.0
  H  H44  1  0.72135000  0.16809000  0.06521000  1.0
  H  H45  1  0.77865000  0.33191000  0.56521000  1.0
  H  H46  1  0.27865000  0.83191000  0.93479000  1.0
  H  H47  1  0.22134000  0.66809000  0.43479000  1.0
  C  C48  1  0.71084000  0.00278000  0.13104000  1.0
  C  C49  1  0.78917000  0.49722000  0.63104000  1.0
  C  C50  1  0.28916000  0.99722000  0.86896000  1.0
  C  C51  1  0.21084000  0.50278000  0.36896000  1.0
  C  C52  1  0.44922000  0.60835000  0.81660000  1.0
  C  C53  1  0.05079000  0.89165000  0.31661000  1.0
  C  C54  1  0.55077000  0.39165000  0.18340000  1.0
  C  C55  1  0.94922000  0.10835000  0.68339000  1.0
  C  C56  1  0.35752000  0.53398000  0.86497000  1.0
  C  C57  1  0.14248000  0.96601000  0.36498000  1.0
  C  C58  1  0.64248000  0.46602000  0.13502000  1.0
  C  C59  1  0.85752000  0.03398000  0.63502000  1.0
  C  C60  1  0.45373000  0.44792000  0.90586000  1.0
  C  C61  1  0.04628000  0.05208000  0.40587000  1.0
  C  C62  1  0.54626000  0.55208000  0.09414000  1.0
  C  C63  1  0.95373000  0.94792000  0.59413000  1.0
  C  C64  1  0.64319000  0.44422000  0.89590000  1.0
  C  C65  1  0.85682000  0.05578000  0.39590000  1.0
  C  C66  1  0.35681000  0.55579000  0.10410000  1.0
  C  C67  1  0.14319000  0.94421000  0.60410000  1.0
  C  C68  1  0.72526000  0.52238000  0.84664000  1.0
  C  C69  1  0.77475000  0.97762000  0.34664000  1.0
  C  C70  1  0.27474000  0.47762000  0.15336000  1.0
  C  C71  1  0.22525000  0.02238000  0.65336000  1.0
  C  C72  1  0.35936000  0.36407000  0.95662000  1.0
  C  C73  1  0.14064000  0.13593000  0.45662000  1.0
  C  C74  1  0.64064000  0.63593000  0.04338000  1.0
  C  C75  1  0.85935000  0.86408000  0.54338000  1.0
  C  C76  1  0.17394000  0.37971000  0.96823000  1.0
  C  C77  1  0.32607000  0.12029000  0.46823000  1.0
  C  C78  1  0.82606000  0.62029000  0.03177000  1.0
  C  C79  1  0.67394000  0.87970000  0.53177000  1.0
  C  C80  1  0.16693000  0.21298000  0.05030000  1.0
  C  C81  1  0.33308000  0.28702000  0.55030000  1.0
  C  C82  1  0.83307000  0.78702000  0.94970000  1.0
  C  C83  1  0.66692000  0.71298000  0.44970000  1.0
  C  C84  1  0.35201000  0.19210000  0.04080000  1.0
  C  C85  1  0.14800000  0.30790000  0.54081000  1.0
  C  C86  1  0.64799000  0.80790000  0.95919000  1.0
  C  C87  1  0.85201000  0.69210000  0.45919000  1.0
  C  C88  1  0.44892000  0.26801000  0.99305000  1.0
  C  C89  1  0.05108000  0.23198000  0.49305000  1.0
  C  C90  1  0.55109000  0.73199000  0.00695000  1.0
  C  C91  1  0.94891000  0.76802000  0.50695000  1.0
  C  C92  1  0.44158000  0.09331000  0.08260000  1.0
  C  C93  1  0.05842000  0.40669000  0.58260000  1.0
  C  C94  1  0.55842000  0.90669000  0.91740000  1.0
  C  C95  1  0.94157000  0.59331000  0.41740000  1.0
  C  C96  1  0.34031000  0.99617000  0.11786000  1.0
  C  C97  1  0.15969000  0.50383000  0.61786000  1.0
  C  C98  1  0.65968000  0.00382000  0.88213000  1.0
  C  C99  1  0.84032000  0.49617000  0.38214000  1.0
  C  C100  1  0.42890000  0.91028000  0.15972000  1.0
  C  C101  1  0.07110000  0.58973000  0.65971000  1.0
  C  C102  1  0.57109000  0.08972000  0.84028000  1.0
  C  C103  1  0.92890000  0.41027000  0.34028000  1.0
  C  C104  1  0.63230000  0.09455000  0.08971000  1.0
  C  C105  1  0.86770000  0.40545000  0.58971000  1.0
  C  C106  1  0.36770000  0.90544000  0.91030000  1.0
  C  C107  1  0.13230000  0.59456000  0.41030000  1.0
  N  N108  1  0.61180000  0.91362000  0.16663000  1.0
  N  N109  1  0.88820000  0.58639000  0.66666667  1.0
  N  N110  1  0.38819000  0.08638000  0.83337000  1.0
  N  N111  1  0.11181000  0.41362000  0.33337000  1.0
  N  N112  1  0.07907000  0.30405000  0.01345000  1.0
  N  N113  1  0.42092000  0.19596000  0.51345000  1.0
  N  N114  1  0.92092000  0.69595000  0.98655000  1.0
  N  N115  1  0.57907000  0.80405000  0.48655000  1.0
  N  N116  1  0.63055000  0.60254000  0.80711000  1.0
  N  N117  1  0.86945000  0.89747000  0.30712000  1.0
  N  N118  1  0.36944000  0.39747000  0.19289000  1.0
  N  N119  1  0.13056000  0.10253000  0.69288000  1.0
  Cl  Cl120  1  0.52106000  0.78253000  0.67380000  1.0
  Cl  Cl121  1  0.97894000  0.71748000  0.17380000  1.0
  Cl  Cl122  1  0.47894000  0.21747000  0.32620000  1.0
  Cl  Cl123  1  0.02106000  0.28253000  0.82620000  1.0
  Cl  Cl124  1  0.98900000  0.81950000  0.78166000  1.0
  Cl  Cl125  1  0.51101000  0.68051000  0.28166000  1.0
  Cl  Cl126  1  0.01101000  0.18050000  0.21834000  1.0
  Cl  Cl127  1  0.48899000  0.31950000  0.71834000  1.0
  O  O128  1  0.90520000  0.32093000  0.02255000  1.0
  O  O129  1  0.59481000  0.17908000  0.52255000  1.0
  O  O130  1  0.09480000  0.67908000  0.97745000  1.0
  O  O131  1  0.40519000  0.82091000  0.47745000  1.0
