# generated using pymatgen
data_Cd3H22C20S2(NO10)2
_symmetry_space_group_name_H-M   'P 1'
_cell_length_a   8.41229000
_cell_length_b   8.53924000
_cell_length_c   11.35820000
_cell_angle_alpha   84.57860000
_cell_angle_beta   88.56200000
_cell_angle_gamma   75.32800000
_symmetry_Int_Tables_number   1
_chemical_formula_structural   Cd3H22C20S2(NO10)2
_chemical_formula_sum   'Cd3 H22 C20 S2 N2 O20'
_cell_volume   785.77447103
_cell_formula_units_Z   1
loop_
 _symmetry_equiv_pos_site_id
 _symmetry_equiv_pos_as_xyz
  1  'x, y, z'
loop_
 _atom_site_type_symbol
 _atom_site_label
 _atom_site_symmetry_multiplicity
 _atom_site_fract_x
 _atom_site_fract_y
 _atom_site_fract_z
 _atom_site_occupancy
  Cd  Cd0  1  0.90688000  0.43838000  0.69601000  1.0
  Cd  Cd1  1  0.09311000  0.56163000  0.30399000  1.0
  Cd  Cd2  1  0.50000000  0.00000000  0.00000000  1.0
  H  H3  1  0.39739000  0.91850000  0.70915000  1.0
  H  H4  1  0.60259000  0.08150000  0.29085000  1.0
  H  H5  1  0.52141000  0.68120000  0.38939000  1.0
  H  H6  1  0.47858000  0.31880000  0.61061000  1.0
  H  H7  1  0.10243000  0.09171000  0.39581000  1.0
  H  H8  1  0.89756000  0.90829000  0.60419000  1.0
  H  H9  1  0.03633000  0.68863000  0.83261000  1.0
  H  H10  1  0.96372000  0.31136000  0.16737000  1.0
  H  H11  1  0.90333000  0.26588000  0.95728000  1.0
  H  H12  1  0.09671000  0.73411000  0.04270000  1.0
  H  H13  1  0.05201000  0.66319000  0.56705000  1.0
  H  H14  1  0.94799000  0.33682000  0.43295000  1.0
  H  H15  1  0.19233000  0.50870000  0.58952000  1.0
  H  H16  1  0.80766000  0.49131000  0.41048000  1.0
  H  H17  1  0.49787000  0.31876000  0.03165000  1.0
  H  H18  1  0.50214000  0.68123000  0.96837000  1.0
  H  H19  1  0.39508000  0.27744000  0.14320000  1.0
  H  H20  1  0.60492000  0.72256000  0.85681000  1.0
  H  H21  1  0.16694000  0.02260000  0.99976000  1.0
  H  H22  1  0.83306000  0.97740000  0.00024000  1.0
  H  H23  1  0.20514000  0.04953000  0.85962000  1.0
  H  H24  1  0.79486000  0.95046000  0.14039000  1.0
  C  C25  1  0.23521000  0.01521000  0.56159000  1.0
  C  C26  1  0.76478000  0.98479000  0.43842000  1.0
  C  C27  1  0.36987000  0.90573000  0.61803000  1.0
  C  C28  1  0.63011000  0.09427000  0.38197000  1.0
  C  C29  1  0.47265000  0.78452000  0.55665000  1.0
  C  C30  1  0.52734000  0.21549000  0.44335000  1.0
  C  C31  1  0.44063000  0.77390000  0.43792000  1.0
  C  C32  1  0.55935000  0.22610000  0.56208000  1.0
  C  C33  1  0.30839000  0.88578000  0.38153000  1.0
  C  C34  1  0.69160000  0.11422000  0.61847000  1.0
  C  C35  1  0.20465000  0.00569000  0.44188000  1.0
  C  C36  1  0.79534000  0.99431000  0.55812000  1.0
  C  C37  1  0.12905000  0.14801000  0.62610000  1.0
  C  C38  1  0.87093000  0.85200000  0.37390000  1.0
  C  C39  1  0.62192000  0.67125000  0.61328000  1.0
  C  C40  1  0.37807000  0.32876000  0.38672000  1.0
  C  C41  1  0.02039000  0.60466000  0.90765000  1.0
  C  C42  1  0.97966000  0.39532000  0.09234000  1.0
  C  C43  1  0.94799000  0.36960000  0.97707000  1.0
  C  C44  1  0.05205000  0.63038000  0.02292000  1.0
  S  S45  1  0.28782000  0.87662000  0.22727000  1.0
  S  S46  1  0.71217000  0.12338000  0.77273000  1.0
  N  N47  1  0.96861000  0.47415000  0.88581000  1.0
  N  N48  1  0.03142000  0.52584000  0.11417000  1.0
  O  O49  1  0.15430000  0.16287000  0.73314000  1.0
  O  O50  1  0.84568000  0.83712000  0.26686000  1.0
  O  O51  1  0.01180000  0.24911000  0.56699000  1.0
  O  O52  1  0.98820000  0.75090000  0.43301000  1.0
  O  O53  1  0.66059000  0.68307000  0.71901000  1.0
  O  O54  1  0.33939000  0.31694000  0.28098000  1.0
  O  O55  1  0.71136000  0.56426000  0.55125000  1.0
  O  O56  1  0.28864000  0.43573000  0.44876000  1.0
  O  O57  1  0.27083000  0.71208000  0.21024000  1.0
  O  O58  1  0.72916000  0.28792000  0.78975000  1.0
  O  O59  1  0.45007000  0.89386000  0.18168000  1.0
  O  O60  1  0.54993000  0.10614000  0.81832000  1.0
  O  O61  1  0.14903000  0.00774000  0.18214000  1.0
  O  O62  1  0.85097000  0.99227000  0.81786000  1.0
  O  O63  1  0.10471000  0.58153000  0.63250000  1.0
  O  O64  1  0.89529000  0.41848000  0.36750000  1.0
  O  O65  1  0.40958000  0.26796000  0.05602000  1.0
  O  O66  1  0.59043000  0.73204000  0.94399000  1.0
  O  O67  1  0.24288000  0.98272000  0.93612000  1.0
  O  O68  1  0.75712000  0.01728000  0.06388000  1.0
