# generated using pymatgen
data_CuH10C12IN6
_symmetry_space_group_name_H-M   'P 1'
_cell_length_a   9.39194000
_cell_length_b   9.95891000
_cell_length_c   14.28500000
_cell_angle_alpha   89.99990000
_cell_angle_beta   90.31130000
_cell_angle_gamma   90.00000000
_symmetry_Int_Tables_number   1
_chemical_formula_structural   CuH10C12IN6
_chemical_formula_sum   'Cu4 H40 C48 I4 N24'
_cell_volume   1336.10611486
_cell_formula_units_Z   4
loop_
 _symmetry_equiv_pos_site_id
 _symmetry_equiv_pos_as_xyz
  1  'x, y, z'
loop_
 _atom_site_type_symbol
 _atom_site_label
 _atom_site_symmetry_multiplicity
 _atom_site_fract_x
 _atom_site_fract_y
 _atom_site_fract_z
 _atom_site_occupancy
  Cu  Cu0  1  0.56758000  0.11534000  0.01559000  1.0
  Cu  Cu1  1  0.43241000  0.61534000  0.48442000  1.0
  Cu  Cu2  1  0.43242000  0.88467000  0.98441000  1.0
  Cu  Cu3  1  0.56758000  0.38467000  0.51558000  1.0
  H  H4  1  0.12683000  0.16764000  0.74408000  1.0
  H  H5  1  0.87318000  0.66764000  0.75591000  1.0
  H  H6  1  0.87317000  0.83236000  0.25591000  1.0
  H  H7  1  0.12683000  0.33237000  0.24408000  1.0
  H  H8  1  0.28810000  0.21326000  0.78930000  1.0
  H  H9  1  0.71190000  0.71326000  0.71070000  1.0
  H  H10  1  0.71190000  0.78675000  0.21071000  1.0
  H  H11  1  0.28810000  0.28674000  0.28929000  1.0
  H  H12  1  0.50183000  0.33550000  0.15056000  1.0
  H  H13  1  0.49816000  0.83550000  0.34944000  1.0
  H  H14  1  0.49817000  0.66450000  0.84944000  1.0
  H  H15  1  0.50183000  0.16450000  0.65056000  1.0
  H  H16  1  0.33108000  0.52631000  0.15798000  1.0
  H  H17  1  0.66892000  0.02631000  0.34203000  1.0
  H  H18  1  0.66892000  0.47369000  0.84202000  1.0
  H  H19  1  0.33108000  0.97369000  0.65797000  1.0
  H  H20  1  0.16903000  0.56946000  0.01942000  1.0
  H  H21  1  0.83097000  0.06946000  0.48058000  1.0
  H  H22  1  0.83097000  0.43054000  0.98058000  1.0
  H  H23  1  0.16904000  0.93054000  0.51942000  1.0
  H  H24  1  0.40191000  0.25691000  0.87544000  1.0
  H  H25  1  0.59809000  0.75691000  0.62456000  1.0
  H  H26  1  0.59810000  0.74308000  0.12456000  1.0
  H  H27  1  0.40190000  0.24310000  0.37544000  1.0
  H  H28  1  0.18767000  0.33641000  0.57519000  1.0
  H  H29  1  0.81233000  0.83642000  0.92480000  1.0
  H  H30  1  0.81233000  0.66358000  0.42481000  1.0
  H  H31  1  0.18766000  0.16358000  0.07519000  1.0
  H  H32  1  0.07502000  0.29468000  0.41750000  1.0
  H  H33  1  0.92497000  0.79468000  0.08249000  1.0
  H  H34  1  0.92497000  0.70532000  0.58250000  1.0
  H  H35  1  0.07502000  0.20532000  0.91750000  1.0
  H  H36  1  0.81271000  0.32324000  0.39824000  1.0
  H  H37  1  0.18728000  0.82324000  0.10176000  1.0
  H  H38  1  0.18728000  0.67676000  0.60176000  1.0
  H  H39  1  0.81271000  0.17676000  0.89824000  1.0
  H  H40  1  0.76532000  0.42489000  0.67727000  1.0
  H  H41  1  0.23468000  0.92488000  0.82272000  1.0
  H  H42  1  0.23468000  0.57511000  0.32273000  1.0
  H  H43  1  0.76531000  0.07511000  0.17727000  1.0
  C  C44  1  0.43607000  0.36174000  0.09014000  1.0
  C  C45  1  0.56393000  0.86174000  0.40986000  1.0
  C  C46  1  0.56394000  0.63826000  0.90986000  1.0
  C  C47  1  0.43607000  0.13826000  0.59014000  1.0
  C  C48  1  0.33848000  0.46705000  0.09406000  1.0
  C  C49  1  0.66152000  0.96705000  0.40594000  1.0
  C  C50  1  0.66152000  0.53295000  0.90594000  1.0
  C  C51  1  0.33848000  0.03295000  0.59406000  1.0
  C  C52  1  0.25065000  0.49200000  0.01776000  1.0
  C  C53  1  0.74935000  0.99200000  0.48224000  1.0
  C  C54  1  0.74935000  0.50800000  0.98224000  1.0
  C  C55  1  0.25066000  0.00800000  0.51775000  1.0
  C  C56  1  0.26751000  0.41490000  0.93574000  1.0
  C  C57  1  0.73249000  0.91489000  0.56427000  1.0
  C  C58  1  0.73250000  0.58510000  0.06427000  1.0
  C  C59  1  0.26751000  0.08511000  0.43573000  1.0
  C  C60  1  0.37356000  0.31649000  0.93650000  1.0
  C  C61  1  0.62645000  0.81649000  0.56351000  1.0
  C  C62  1  0.62645000  0.68350000  0.06350000  1.0
  C  C63  1  0.37355000  0.18351000  0.43650000  1.0
  C  C64  1  0.17204000  0.44087000  0.85696000  1.0
  C  C65  1  0.82796000  0.94087000  0.64304000  1.0
  C  C66  1  0.82796000  0.55913000  0.14305000  1.0
  C  C67  1  0.17204000  0.05913000  0.35696000  1.0
  C  C68  1  0.04274000  0.42774000  0.72853000  1.0
  C  C69  1  0.95726000  0.92774000  0.77147000  1.0
  C  C70  1  0.95726000  0.57226000  0.27147000  1.0
  C  C71  1  0.04273000  0.07226000  0.22853000  1.0
  C  C72  1  0.98487000  0.38579000  0.63809000  1.0
  C  C73  1  0.01514000  0.88579000  0.86191000  1.0
  C  C74  1  0.01513000  0.61421000  0.36191000  1.0
  C  C75  1  0.98486000  0.11421000  0.13809000  1.0
  C  C76  1  0.07311000  0.34496000  0.56442000  1.0
  C  C77  1  0.92689000  0.84496000  0.93558000  1.0
  C  C78  1  0.92689000  0.65503000  0.43558000  1.0
  C  C79  1  0.07310000  0.15503000  0.06442000  1.0
  C  C80  1  0.01054000  0.32124000  0.47761000  1.0
  C  C81  1  0.98946000  0.82123000  0.02239000  1.0
  C  C82  1  0.98946000  0.67876000  0.52240000  1.0
  C  C83  1  0.01054000  0.17876000  0.97761000  1.0
  C  C84  1  0.86440000  0.33671000  0.46622000  1.0
  C  C85  1  0.13560000  0.83670000  0.03377000  1.0
  C  C86  1  0.13559000  0.66329000  0.53378000  1.0
  C  C87  1  0.86440000  0.16330000  0.96622000  1.0
  C  C88  1  0.83826000  0.39585000  0.62157000  1.0
  C  C89  1  0.16174000  0.89584000  0.87842000  1.0
  C  C90  1  0.16174000  0.60415000  0.37843000  1.0
  C  C91  1  0.83825000  0.10415000  0.12157000  1.0
  I  I92  1  0.54152000  0.01738000  0.84032000  1.0
  I  I93  1  0.45849000  0.51738000  0.65969000  1.0
  I  I94  1  0.45848000  0.98262000  0.15968000  1.0
  I  I95  1  0.54152000  0.48263000  0.34032000  1.0
  N  N96  1  0.45245000  0.28638000  0.01273000  1.0
  N  N97  1  0.54755000  0.78639000  0.48727000  1.0
  N  N98  1  0.54756000  0.71362000  0.98727000  1.0
  N  N99  1  0.45245000  0.21362000  0.51273000  1.0
  N  N100  1  0.08608000  0.54786000  0.85372000  1.0
  N  N101  1  0.91392000  0.04786000  0.64627000  1.0
  N  N102  1  0.91392000  0.45213000  0.14628000  1.0
  N  N103  1  0.08608000  0.95214000  0.35372000  1.0
  N  N104  1  0.00511000  0.53860000  0.77494000  1.0
  N  N105  1  0.99489000  0.03860000  0.72505000  1.0
  N  N106  1  0.99489000  0.46140000  0.22506000  1.0
  N  N107  1  0.00511000  0.96140000  0.27494000  1.0
  N  N108  1  0.14695000  0.36277000  0.77838000  1.0
  N  N109  1  0.85305000  0.86277000  0.72162000  1.0
  N  N110  1  0.85305000  0.63723000  0.22162000  1.0
  N  N111  1  0.14695000  0.13724000  0.27838000  1.0
  N  N112  1  0.20548000  0.24244000  0.74777000  1.0
  N  N113  1  0.79453000  0.74243000  0.75223000  1.0
  N  N114  1  0.79453000  0.75757000  0.25223000  1.0
  N  N115  1  0.20547000  0.25757000  0.24777000  1.0
  N  N116  1  0.77826000  0.37258000  0.53733000  1.0
  N  N117  1  0.22174000  0.87257000  0.96267000  1.0
  N  N118  1  0.22174000  0.62742000  0.46267000  1.0
  N  N119  1  0.77826000  0.12742000  0.03733000  1.0
