# generated using pymatgen
data_CdH2C2SIN3
_symmetry_space_group_name_H-M   'P 1'
_cell_length_a   8.28468000
_cell_length_b   11.08950000
_cell_length_c   14.33180000
_cell_angle_alpha   90.00010000
_cell_angle_beta   90.00000000
_cell_angle_gamma   89.99980000
_symmetry_Int_Tables_number   1
_chemical_formula_structural   CdH2C2SIN3
_chemical_formula_sum   'Cd8 H16 C16 S8 I8 N24'
_cell_volume   1316.70487178
_cell_formula_units_Z   8
loop_
 _symmetry_equiv_pos_site_id
 _symmetry_equiv_pos_as_xyz
  1  'x, y, z'
loop_
 _atom_site_type_symbol
 _atom_site_label
 _atom_site_symmetry_multiplicity
 _atom_site_fract_x
 _atom_site_fract_y
 _atom_site_fract_z
 _atom_site_occupancy
  Cd  Cd0  1  0.80495000  0.18162000  0.67013000  1.0
  Cd  Cd1  1  0.69505000  0.31838000  0.17013000  1.0
  Cd  Cd2  1  0.80495000  0.81837000  0.82987000  1.0
  Cd  Cd3  1  0.69505000  0.68163000  0.32987000  1.0
  Cd  Cd4  1  0.19505000  0.81838000  0.32987000  1.0
  Cd  Cd5  1  0.30495000  0.68162000  0.82987000  1.0
  Cd  Cd6  1  0.19505000  0.18162000  0.17013000  1.0
  Cd  Cd7  1  0.30495000  0.31838000  0.67013000  1.0
  H  H8  1  0.16924000  0.98311000  0.54721000  1.0
  H  H9  1  0.33076000  0.51689000  0.04721000  1.0
  H  H10  1  0.16924000  0.01688000  0.95279000  1.0
  H  H11  1  0.33076000  0.48311000  0.45279000  1.0
  H  H12  1  0.83076000  0.01689000  0.45279000  1.0
  H  H13  1  0.66924000  0.48311000  0.95279000  1.0
  H  H14  1  0.83076000  0.98311000  0.04721000  1.0
  H  H15  1  0.66924000  0.51688000  0.54721000  1.0
  H  H16  1  0.38974000  0.87513000  0.64592000  1.0
  H  H17  1  0.11026000  0.62488000  0.14592000  1.0
  H  H18  1  0.38973000  0.12488000  0.85408000  1.0
  H  H19  1  0.11027000  0.37513000  0.35408000  1.0
  H  H20  1  0.61026000  0.12488000  0.35408000  1.0
  H  H21  1  0.88973000  0.37513000  0.85408000  1.0
  H  H22  1  0.61027000  0.87512000  0.14592000  1.0
  H  H23  1  0.88974000  0.62487000  0.64592000  1.0
  C  C24  1  0.00158000  0.91244000  0.64734000  1.0
  C  C25  1  0.49842000  0.58755000  0.14734000  1.0
  C  C26  1  0.00158000  0.08755000  0.85266000  1.0
  C  C27  1  0.49842000  0.41245000  0.35266000  1.0
  C  C28  1  0.99842000  0.08756000  0.35266000  1.0
  C  C29  1  0.50158000  0.41245000  0.85266000  1.0
  C  C30  1  0.99842000  0.91244000  0.14734000  1.0
  C  C31  1  0.50158000  0.58755000  0.64734000  1.0
  C  C32  1  0.26111000  0.87597000  0.65995000  1.0
  C  C33  1  0.23889000  0.62403000  0.15995000  1.0
  C  C34  1  0.26111000  0.12403000  0.84005000  1.0
  C  C35  1  0.23889000  0.37597000  0.34005000  1.0
  C  C36  1  0.73889000  0.12403000  0.34005000  1.0
  C  C37  1  0.76111000  0.37597000  0.84005000  1.0
  C  C38  1  0.73889000  0.87597000  0.15995000  1.0
  C  C39  1  0.76111000  0.62403000  0.65995000  1.0
  S  S40  1  0.81570000  0.96203000  0.61105000  1.0
  S  S41  1  0.68430000  0.53797000  0.11105000  1.0
  S  S42  1  0.81570000  0.03797000  0.88895000  1.0
  S  S43  1  0.68430000  0.46203000  0.38895000  1.0
  S  S44  1  0.18430000  0.03797000  0.38895000  1.0
  S  S45  1  0.31570000  0.46203000  0.88895000  1.0
  S  S46  1  0.18430000  0.96203000  0.11105000  1.0
  S  S47  1  0.31571000  0.53797000  0.61105000  1.0
  I  I48  1  0.99998000  0.32825000  0.55550000  1.0
  I  I49  1  0.50001000  0.17175000  0.05550000  1.0
  I  I50  1  0.99998000  0.67175000  0.94450000  1.0
  I  I51  1  0.50001000  0.82825000  0.44450000  1.0
  I  I52  1  0.00001000  0.67175000  0.44451000  1.0
  I  I53  1  0.49998000  0.82825000  0.94450000  1.0
  I  I54  1  0.00002000  0.32825000  0.05550000  1.0
  I  I55  1  0.49998000  0.17175000  0.55550000  1.0
  N  N56  1  0.02488000  0.84030000  0.72095000  1.0
  N  N57  1  0.47512000  0.65970000  0.22095000  1.0
  N  N58  1  0.02488000  0.15970000  0.77905000  1.0
  N  N59  1  0.47512000  0.34030000  0.27905000  1.0
  N  N60  1  0.97512000  0.15970000  0.27905000  1.0
  N  N61  1  0.52488000  0.34030000  0.77905000  1.0
  N  N62  1  0.97512000  0.84030000  0.22095000  1.0
  N  N63  1  0.52488000  0.65970000  0.72094000  1.0
  N  N64  1  0.18757000  0.81781000  0.72827000  1.0
  N  N65  1  0.31243000  0.68219000  0.22828000  1.0
  N  N66  1  0.18757000  0.18219000  0.77173000  1.0
  N  N67  1  0.31243000  0.31781000  0.27173000  1.0
  N  N68  1  0.81243000  0.18219000  0.27172000  1.0
  N  N69  1  0.68757000  0.31781000  0.77173000  1.0
  N  N70  1  0.81243000  0.81781000  0.22828000  1.0
  N  N71  1  0.68758000  0.68218000  0.72827000  1.0
  N  N72  1  0.14985000  0.93608000  0.60851000  1.0
  N  N73  1  0.35015000  0.56393000  0.10852000  1.0
  N  N74  1  0.14985000  0.06392000  0.89149000  1.0
  N  N75  1  0.35015000  0.43608000  0.39149000  1.0
  N  N76  1  0.85015000  0.06393000  0.39149000  1.0
  N  N77  1  0.64985000  0.43608000  0.89149000  1.0
  N  N78  1  0.85015000  0.93608000  0.10851000  1.0
  N  N79  1  0.64985000  0.56392000  0.60851000  1.0
