# generated using pymatgen
data_Zn4H15C24N3O13
_symmetry_space_group_name_H-M   'P 1'
_cell_length_a   25.21090000
_cell_length_b   25.21090000
_cell_length_c   25.21090000
_cell_angle_alpha   89.99990000
_cell_angle_beta   89.99990000
_cell_angle_gamma   89.99990000
_symmetry_Int_Tables_number   1
_chemical_formula_structural   Zn4H15C24N3O13
_chemical_formula_sum   'Zn32 H120 C192 N24 O104'
_cell_volume   16023.78279126
_cell_formula_units_Z   8
loop_
 _symmetry_equiv_pos_site_id
 _symmetry_equiv_pos_as_xyz
  1  'x, y, z'
loop_
 _atom_site_type_symbol
 _atom_site_label
 _atom_site_symmetry_multiplicity
 _atom_site_fract_x
 _atom_site_fract_y
 _atom_site_fract_z
 _atom_site_occupancy
  Zn  Zn0  1  0.84008000  0.15992000  0.15992000  1.0
  Zn  Zn1  1  0.15992000  0.34008000  0.65992000  1.0
  Zn  Zn2  1  0.34008000  0.84008000  0.34008000  1.0
  Zn  Zn3  1  0.65992000  0.65992000  0.84008000  1.0
  Zn  Zn4  1  0.15992000  0.84008000  0.84008000  1.0
  Zn  Zn5  1  0.84008000  0.65992000  0.34008000  1.0
  Zn  Zn6  1  0.65992000  0.15992000  0.65992000  1.0
  Zn  Zn7  1  0.34008000  0.34008000  0.15992000  1.0
  Zn  Zn8  1  0.73762000  0.16284000  0.23557000  1.0
  Zn  Zn9  1  0.26238000  0.33717000  0.73557000  1.0
  Zn  Zn10  1  0.23762000  0.83716000  0.26443000  1.0
  Zn  Zn11  1  0.76238000  0.66284000  0.76443000  1.0
  Zn  Zn12  1  0.83716000  0.23557000  0.26237000  1.0
  Zn  Zn13  1  0.66283000  0.73557000  0.73762000  1.0
  Zn  Zn14  1  0.16283000  0.26443000  0.76238000  1.0
  Zn  Zn15  1  0.33717000  0.76443000  0.23762000  1.0
  Zn  Zn16  1  0.76443000  0.26238000  0.16283000  1.0
  Zn  Zn17  1  0.26443000  0.73762000  0.33717000  1.0
  Zn  Zn18  1  0.73557000  0.76238000  0.83717000  1.0
  Zn  Zn19  1  0.23557000  0.23762000  0.66283000  1.0
  Zn  Zn20  1  0.26238000  0.83717000  0.76443000  1.0
  Zn  Zn21  1  0.73762000  0.66283000  0.26443000  1.0
  Zn  Zn22  1  0.76238000  0.16283000  0.73557000  1.0
  Zn  Zn23  1  0.23762000  0.33717000  0.23557000  1.0
  Zn  Zn24  1  0.16283000  0.76443000  0.73762000  1.0
  Zn  Zn25  1  0.33717000  0.26443000  0.26238000  1.0
  Zn  Zn26  1  0.83716000  0.73557000  0.23762000  1.0
  Zn  Zn27  1  0.66284000  0.23557000  0.76238000  1.0
  Zn  Zn28  1  0.23557000  0.73762000  0.83716000  1.0
  Zn  Zn29  1  0.73557000  0.26238000  0.66283000  1.0
  Zn  Zn30  1  0.26443000  0.23762000  0.16283000  1.0
  Zn  Zn31  1  0.76443000  0.76237000  0.33716000  1.0
  H  H32  1  0.88662000  0.85672000  0.20197000  1.0
  H  H33  1  0.11338000  0.64328000  0.70197000  1.0
  H  H34  1  0.38662000  0.14328000  0.29803000  1.0
  H  H35  1  0.61338000  0.35672000  0.79803000  1.0
  H  H36  1  0.14328000  0.20197000  0.11338000  1.0
  H  H37  1  0.35672000  0.70198000  0.88662000  1.0
  H  H38  1  0.85672000  0.29803000  0.61338000  1.0
  H  H39  1  0.64328000  0.79803000  0.38662000  1.0
  H  H40  1  0.79802000  0.11338000  0.85672000  1.0
  H  H41  1  0.29803000  0.88662000  0.64328000  1.0
  H  H42  1  0.70197000  0.61338000  0.14328000  1.0
  H  H43  1  0.20197000  0.38662000  0.35672000  1.0
  H  H44  1  0.11338000  0.14328000  0.79803000  1.0
  H  H45  1  0.88662000  0.35672000  0.29803000  1.0
  H  H46  1  0.61338000  0.85672000  0.70197000  1.0
  H  H47  1  0.38662000  0.64328000  0.20198000  1.0
  H  H48  1  0.85672000  0.79803000  0.88662000  1.0
  H  H49  1  0.64328000  0.29803000  0.11338000  1.0
  H  H50  1  0.14328000  0.70197000  0.38662000  1.0
  H  H51  1  0.35672000  0.20198000  0.61338000  1.0
  H  H52  1  0.20197000  0.88662000  0.14328000  1.0
  H  H53  1  0.70197000  0.11338000  0.35672000  1.0
  H  H54  1  0.29803000  0.38662000  0.85672000  1.0
  H  H55  1  0.79803000  0.61338000  0.64328000  1.0
  H  H56  1  0.90986000  0.91387000  0.16915000  1.0
  H  H57  1  0.09014000  0.58613000  0.66915000  1.0
  H  H58  1  0.40986000  0.08613000  0.33085000  1.0
  H  H59  1  0.59014000  0.41387000  0.83085000  1.0
  H  H60  1  0.08613000  0.16915000  0.09014000  1.0
  H  H61  1  0.41387000  0.66915000  0.90986000  1.0
  H  H62  1  0.91387000  0.33085000  0.59014000  1.0
  H  H63  1  0.58613000  0.83085000  0.40986000  1.0
  H  H64  1  0.83085000  0.09014000  0.91387000  1.0
  H  H65  1  0.33085000  0.90986000  0.58613000  1.0
  H  H66  1  0.66915000  0.59014000  0.08613000  1.0
  H  H67  1  0.16915000  0.40986000  0.41387000  1.0
  H  H68  1  0.09014000  0.08613000  0.83085000  1.0
  H  H69  1  0.90986000  0.41387000  0.33085000  1.0
  H  H70  1  0.59014000  0.91387000  0.66915000  1.0
  H  H71  1  0.40986000  0.58613000  0.16915000  1.0
  H  H72  1  0.91387000  0.83085000  0.90986000  1.0
  H  H73  1  0.58613000  0.33085000  0.09014000  1.0
  H  H74  1  0.08613000  0.66915000  0.40986000  1.0
  H  H75  1  0.41387000  0.16915000  0.59014000  1.0
  H  H76  1  0.16915000  0.90986000  0.08613000  1.0
  H  H77  1  0.66915000  0.09014000  0.41387000  1.0
  H  H78  1  0.33085000  0.40986000  0.91387000  1.0
  H  H79  1  0.83085000  0.59014000  0.58613000  1.0
  H  H80  1  0.86292000  0.99543000  0.17042000  1.0
  H  H81  1  0.13708000  0.50457000  0.67042000  1.0
  H  H82  1  0.36292000  0.00457000  0.32958000  1.0
  H  H83  1  0.63708000  0.49543000  0.82958000  1.0
  H  H84  1  0.00457000  0.17042000  0.13708000  1.0
  H  H85  1  0.49543000  0.67042000  0.86292000  1.0
  H  H86  1  0.99543000  0.32958000  0.63708000  1.0
  H  H87  1  0.50457000  0.82958000  0.36292000  1.0
  H  H88  1  0.82958000  0.13708000  0.99543000  1.0
  H  H89  1  0.32958000  0.86292000  0.50457000  1.0
  H  H90  1  0.67042000  0.63708000  0.00457000  1.0
  H  H91  1  0.17042000  0.36292000  0.49543000  1.0
  H  H92  1  0.13708000  0.00457000  0.82958000  1.0
  H  H93  1  0.86292000  0.49543000  0.32958000  1.0
  H  H94  1  0.63708000  0.99543000  0.67042000  1.0
  H  H95  1  0.36292000  0.50457000  0.17042000  1.0
  H  H96  1  0.99543000  0.82958000  0.86292000  1.0
  H  H97  1  0.50457000  0.32958000  0.13708000  1.0
  H  H98  1  0.00457000  0.67042000  0.36292000  1.0
  H  H99  1  0.49543000  0.17042000  0.63708000  1.0
  H  H100  1  0.17042000  0.86292000  0.00457000  1.0
  H  H101  1  0.67042000  0.13708000  0.49543000  1.0
  H  H102  1  0.32958000  0.36292000  0.99543000  1.0
  H  H103  1  0.82958000  0.63708000  0.50457000  1.0
  H  H104  1  0.72027000  0.00747000  0.26287000  1.0
  H  H105  1  0.27973000  0.49253000  0.76287000  1.0
  H  H106  1  0.22027000  0.99253000  0.23713000  1.0
  H  H107  1  0.77973000  0.50747000  0.73713000  1.0
  H  H108  1  0.99253000  0.26287000  0.27973000  1.0
  H  H109  1  0.50747000  0.76287000  0.72027000  1.0
  H  H110  1  0.00747000  0.23713000  0.77973000  1.0
  H  H111  1  0.49253000  0.73713000  0.22027000  1.0
  H  H112  1  0.73713000  0.27973000  0.00747000  1.0
  H  H113  1  0.23713000  0.72027000  0.49253000  1.0
  H  H114  1  0.76287000  0.77973000  0.99253000  1.0
  H  H115  1  0.26287000  0.22027000  0.50747000  1.0
  H  H116  1  0.27973000  0.99253000  0.73713000  1.0
  H  H117  1  0.72027000  0.50747000  0.23713000  1.0
  H  H118  1  0.77973000  0.00747000  0.76287000  1.0
  H  H119  1  0.22027000  0.49253000  0.26287000  1.0
  H  H120  1  0.00747000  0.73713000  0.72027000  1.0
  H  H121  1  0.49253000  0.23713000  0.27973000  1.0
  H  H122  1  0.99253000  0.76287000  0.22027000  1.0
  H  H123  1  0.50747000  0.26287000  0.77973000  1.0
  H  H124  1  0.26287000  0.72027000  0.99253000  1.0
  H  H125  1  0.76287000  0.27973000  0.50747000  1.0
  H  H126  1  0.23713000  0.22027000  0.00747000  1.0
  H  H127  1  0.73713000  0.77973000  0.49253000  1.0
  H  H128  1  0.73192000  0.91301000  0.29182000  1.0
  H  H129  1  0.26808000  0.58699000  0.79182000  1.0
  H  H130  1  0.23192000  0.08699000  0.20818000  1.0
  H  H131  1  0.76808000  0.41301000  0.70818000  1.0
  H  H132  1  0.08699000  0.29182000  0.26808000  1.0
  H  H133  1  0.41301000  0.79182000  0.73192000  1.0
  H  H134  1  0.91301000  0.20818000  0.76808000  1.0
  H  H135  1  0.58699000  0.70818000  0.23192000  1.0
  H  H136  1  0.70818000  0.26808000  0.91301000  1.0
  H  H137  1  0.20818000  0.73192000  0.58699000  1.0
  H  H138  1  0.79182000  0.76808000  0.08699000  1.0
  H  H139  1  0.29182000  0.23192000  0.41301000  1.0
  H  H140  1  0.26808000  0.08699000  0.70818000  1.0
  H  H141  1  0.73192000  0.41301000  0.20818000  1.0
  H  H142  1  0.76808000  0.91301000  0.79182000  1.0
  H  H143  1  0.23192000  0.58699000  0.29182000  1.0
  H  H144  1  0.91301000  0.70818000  0.73192000  1.0
  H  H145  1  0.58699000  0.20818000  0.26808000  1.0
  H  H146  1  0.08699000  0.79182000  0.23192000  1.0
  H  H147  1  0.41301000  0.29182000  0.76808000  1.0
  H  H148  1  0.29182000  0.73192000  0.08699000  1.0
  H  H149  1  0.79182000  0.26808000  0.41301000  1.0
  H  H150  1  0.20818000  0.23192000  0.91301000  1.0
  H  H151  1  0.70818000  0.76808000  0.58699000  1.0
  C  C152  1  0.80268000  0.90028000  0.24668000  1.0
  C  C153  1  0.19732000  0.59972000  0.74668000  1.0
  C  C154  1  0.30268000  0.09972000  0.25332000  1.0
  C  C155  1  0.69732000  0.40028000  0.75332000  1.0
  C  C156  1  0.09972000  0.24668000  0.19732000  1.0
  C  C157  1  0.40028000  0.74668000  0.80268000  1.0
  C  C158  1  0.90028000  0.25332000  0.69732000  1.0
  C  C159  1  0.59972000  0.75332000  0.30268000  1.0
  C  C160  1  0.75332000  0.19732000  0.90028000  1.0
  C  C161  1  0.25332000  0.80268000  0.59972000  1.0
  C  C162  1  0.74668000  0.69732000  0.09972000  1.0
  C  C163  1  0.24668000  0.30268000  0.40028000  1.0
  C  C164  1  0.19732000  0.09972000  0.75332000  1.0
  C  C165  1  0.80268000  0.40028000  0.25332000  1.0
  C  C166  1  0.69732000  0.90028000  0.74668000  1.0
  C  C167  1  0.30268000  0.59972000  0.24668000  1.0
  C  C168  1  0.90028000  0.75332000  0.80268000  1.0
  C  C169  1  0.59972000  0.25332000  0.19732000  1.0
  C  C170  1  0.09972000  0.74668000  0.30268000  1.0
  C  C171  1  0.40028000  0.24668000  0.69732000  1.0
  C  C172  1  0.24668000  0.80268000  0.09972000  1.0
  C  C173  1  0.74668000  0.19732000  0.40028000  1.0
  C  C174  1  0.25332000  0.30268000  0.90028000  1.0
  C  C175  1  0.75332000  0.69732000  0.59972000  1.0
  C  C176  1  0.84018000  0.92279000  0.21062000  1.0
  C  C177  1  0.15982000  0.57721000  0.71062000  1.0
  C  C178  1  0.34018000  0.07721000  0.28938000  1.0
  C  C179  1  0.65982000  0.42279000  0.78938000  1.0
  C  C180  1  0.07721000  0.21062000  0.15982000  1.0
  C  C181  1  0.42279000  0.71062000  0.84018000  1.0
  C  C182  1  0.92279000  0.28938000  0.65982000  1.0
  C  C183  1  0.57721000  0.78938000  0.34018000  1.0
  C  C184  1  0.78938000  0.15982000  0.92279000  1.0
  C  C185  1  0.28938000  0.84018000  0.57721000  1.0
  C  C186  1  0.71062000  0.65982000  0.07721000  1.0
  C  C187  1  0.21062000  0.34018000  0.42279000  1.0
  C  C188  1  0.15982000  0.07721000  0.78938000  1.0
  C  C189  1  0.84018000  0.42279000  0.28938000  1.0
  C  C190  1  0.65982000  0.92279000  0.71062000  1.0
  C  C191  1  0.34018000  0.57721000  0.21062000  1.0
  C  C192  1  0.92279000  0.78938000  0.84018000  1.0
  C  C193  1  0.57721000  0.28938000  0.15982000  1.0
  C  C194  1  0.07721000  0.71062000  0.34018000  1.0
  C  C195  1  0.42279000  0.21062000  0.65982000  1.0
  C  C196  1  0.21062000  0.84018000  0.07721000  1.0
  C  C197  1  0.71062000  0.15982000  0.42279000  1.0
  C  C198  1  0.28938000  0.34018000  0.92279000  1.0
  C  C199  1  0.78938000  0.65982000  0.57721000  1.0
  C  C200  1  0.83397000  0.97671000  0.19656000  1.0
  C  C201  1  0.16603000  0.52330000  0.69656000  1.0
  C  C202  1  0.33397000  0.02329000  0.30344000  1.0
  C  C203  1  0.66603000  0.47671000  0.80344000  1.0
  C  C204  1  0.02329000  0.19656000  0.16603000  1.0
  C  C205  1  0.47671000  0.69656000  0.83397000  1.0
  C  C206  1  0.97670000  0.30344000  0.66603000  1.0
  C  C207  1  0.52330000  0.80344000  0.33397000  1.0
  C  C208  1  0.80344000  0.16603000  0.97671000  1.0
  C  C209  1  0.30344000  0.83397000  0.52329000  1.0
  C  C210  1  0.69656000  0.66603000  0.02330000  1.0
  C  C211  1  0.19656000  0.33397000  0.47671000  1.0
  C  C212  1  0.16603000  0.02329000  0.80344000  1.0
  C  C213  1  0.83397000  0.47670000  0.30344000  1.0
  C  C214  1  0.66603000  0.97670000  0.69656000  1.0
  C  C215  1  0.33397000  0.52329000  0.19656000  1.0
  C  C216  1  0.97671000  0.80344000  0.83397000  1.0
  C  C217  1  0.52330000  0.30344000  0.16603000  1.0
  C  C218  1  0.02330000  0.69656000  0.33397000  1.0
  C  C219  1  0.47671000  0.19656000  0.66603000  1.0
  C  C220  1  0.19656000  0.83397000  0.02330000  1.0
  C  C221  1  0.69656000  0.16603000  0.47671000  1.0
  C  C222  1  0.30344000  0.33397000  0.97670000  1.0
  C  C223  1  0.80344000  0.66603000  0.52329000  1.0
  C  C224  1  0.79170000  0.00662000  0.21530000  1.0
  C  C225  1  0.20831000  0.49338000  0.71530000  1.0
  C  C226  1  0.29169000  0.99338000  0.28470000  1.0
  C  C227  1  0.70831000  0.50662000  0.78470000  1.0
  C  C228  1  0.99338000  0.21530000  0.20830000  1.0
  C  C229  1  0.50662000  0.71530000  0.79169000  1.0
  C  C230  1  0.00662000  0.28470000  0.70830000  1.0
  C  C231  1  0.49338000  0.78470000  0.29169000  1.0
  C  C232  1  0.78470000  0.20831000  0.00662000  1.0
  C  C233  1  0.28470000  0.79169000  0.49338000  1.0
  C  C234  1  0.71530000  0.70831000  0.99338000  1.0
  C  C235  1  0.21530000  0.29169000  0.50662000  1.0
  C  C236  1  0.20830000  0.99338000  0.78470000  1.0
  C  C237  1  0.79169000  0.50662000  0.28470000  1.0
  C  C238  1  0.70831000  0.00662000  0.71530000  1.0
  C  C239  1  0.29169000  0.49338000  0.21530000  1.0
  C  C240  1  0.00662000  0.78470000  0.79169000  1.0
  C  C241  1  0.49338000  0.28470000  0.20831000  1.0
  C  C242  1  0.99338000  0.71530000  0.29169000  1.0
  C  C243  1  0.50662000  0.21530000  0.70831000  1.0
  C  C244  1  0.21530000  0.79169000  0.99338000  1.0
  C  C245  1  0.71530000  0.20831000  0.50662000  1.0
  C  C246  1  0.28470000  0.29169000  0.00662000  1.0
  C  C247  1  0.78470000  0.70830000  0.49338000  1.0
  C  C248  1  0.75356000  0.98372000  0.24914000  1.0
  C  C249  1  0.24644000  0.51628000  0.74914000  1.0
  C  C250  1  0.25356000  0.01628000  0.25086000  1.0
  C  C251  1  0.74644000  0.48372000  0.75086000  1.0
  C  C252  1  0.01628000  0.24914000  0.24644000  1.0
  C  C253  1  0.48372000  0.74914000  0.75356000  1.0
  C  C254  1  0.98372000  0.25086000  0.74644000  1.0
  C  C255  1  0.51628000  0.75086000  0.25356000  1.0
  C  C256  1  0.75086000  0.24644000  0.98372000  1.0
  C  C257  1  0.25086000  0.75356000  0.51628000  1.0
  C  C258  1  0.74914000  0.74644000  0.01628000  1.0
  C  C259  1  0.24914000  0.25356000  0.48372000  1.0
  C  C260  1  0.24644000  0.01628000  0.75086000  1.0
  C  C261  1  0.75356000  0.48372000  0.25086000  1.0
  C  C262  1  0.74644000  0.98372000  0.74914000  1.0
  C  C263  1  0.25356000  0.51628000  0.24914000  1.0
  C  C264  1  0.98372000  0.75086000  0.75356000  1.0
  C  C265  1  0.51628000  0.25086000  0.24644000  1.0
  C  C266  1  0.01628000  0.74914000  0.25356000  1.0
  C  C267  1  0.48372000  0.24914000  0.74644000  1.0
  C  C268  1  0.24914000  0.75356000  0.01628000  1.0
  C  C269  1  0.74914000  0.24644000  0.48372000  1.0
  C  C270  1  0.25086000  0.25356000  0.98372000  1.0
  C  C271  1  0.75086000  0.74644000  0.51628000  1.0
  C  C272  1  0.76001000  0.93158000  0.26475000  1.0
  C  C273  1  0.23999000  0.56842000  0.76475000  1.0
  C  C274  1  0.26001000  0.06842000  0.23525000  1.0
  C  C275  1  0.73999000  0.43158000  0.73525000  1.0
  C  C276  1  0.06842000  0.26475000  0.23999000  1.0
  C  C277  1  0.43158000  0.76475000  0.76001000  1.0
  C  C278  1  0.93158000  0.23525000  0.73999000  1.0
  C  C279  1  0.56842000  0.73525000  0.26001000  1.0
  C  C280  1  0.73525000  0.23999000  0.93158000  1.0
  C  C281  1  0.23525000  0.76001000  0.56842000  1.0
  C  C282  1  0.76475000  0.73999000  0.06842000  1.0
  C  C283  1  0.26475000  0.26001000  0.43158000  1.0
  C  C284  1  0.23999000  0.06842000  0.73525000  1.0
  C  C285  1  0.76001000  0.43158000  0.23525000  1.0
  C  C286  1  0.73999000  0.93158000  0.76475000  1.0
  C  C287  1  0.26001000  0.56842000  0.26475000  1.0
  C  C288  1  0.93158000  0.73525000  0.76001000  1.0
  C  C289  1  0.56842000  0.23525000  0.23999000  1.0
  C  C290  1  0.06842000  0.76475000  0.26001000  1.0
  C  C291  1  0.43158000  0.26475000  0.73999000  1.0
  C  C292  1  0.26475000  0.76001000  0.06842000  1.0
  C  C293  1  0.76475000  0.23999000  0.43158000  1.0
  C  C294  1  0.23525000  0.26001000  0.93158000  1.0
  C  C295  1  0.73525000  0.73999000  0.56842000  1.0
  C  C296  1  0.80632000  0.84503000  0.26587000  1.0
  C  C297  1  0.19368000  0.65497000  0.76588000  1.0
  C  C298  1  0.30632000  0.15497000  0.23412000  1.0
  C  C299  1  0.69368000  0.34503000  0.73413000  1.0
  C  C300  1  0.15497000  0.26588000  0.19368000  1.0
  C  C301  1  0.34504000  0.76588000  0.80632000  1.0
  C  C302  1  0.84503000  0.23413000  0.69368000  1.0
  C  C303  1  0.65497000  0.73413000  0.30632000  1.0
  C  C304  1  0.73412000  0.19368000  0.84503000  1.0
  C  C305  1  0.23413000  0.80632000  0.65497000  1.0
  C  C306  1  0.76588000  0.69368000  0.15497000  1.0
  C  C307  1  0.26587000  0.30632000  0.34503000  1.0
  C  C308  1  0.19368000  0.15497000  0.73413000  1.0
  C  C309  1  0.80632000  0.34503000  0.23412000  1.0
  C  C310  1  0.69368000  0.84503000  0.76588000  1.0
  C  C311  1  0.30632000  0.65497000  0.26588000  1.0
  C  C312  1  0.84504000  0.73413000  0.80632000  1.0
  C  C313  1  0.65497000  0.23412000  0.19368000  1.0
  C  C314  1  0.15497000  0.76587000  0.30632000  1.0
  C  C315  1  0.34503000  0.26588000  0.69368000  1.0
  C  C316  1  0.26588000  0.80632000  0.15497000  1.0
  C  C317  1  0.76588000  0.19368000  0.34503000  1.0
  C  C318  1  0.23413000  0.30632000  0.84503000  1.0
  C  C319  1  0.73413000  0.69368000  0.65497000  1.0
  C  C320  1  0.78789000  0.06412000  0.20133000  1.0
  C  C321  1  0.21211000  0.43588000  0.70133000  1.0
  C  C322  1  0.28789000  0.93588000  0.29867000  1.0
  C  C323  1  0.71211000  0.56412000  0.79867000  1.0
  C  C324  1  0.93588000  0.20133000  0.21211000  1.0
  C  C325  1  0.56412000  0.70133000  0.78789000  1.0
  C  C326  1  0.06412000  0.29867000  0.71211000  1.0
  C  C327  1  0.43588000  0.79867000  0.28789000  1.0
  C  C328  1  0.79867000  0.21211000  0.06412000  1.0
  C  C329  1  0.29867000  0.78789000  0.43588000  1.0
  C  C330  1  0.70133000  0.71211000  0.93588000  1.0
  C  C331  1  0.20133000  0.28789000  0.56412000  1.0
  C  C332  1  0.21211000  0.93588000  0.79867000  1.0
  C  C333  1  0.78789000  0.56412000  0.29867000  1.0
  C  C334  1  0.71211000  0.06412000  0.70133000  1.0
  C  C335  1  0.28789000  0.43588000  0.20133000  1.0
  C  C336  1  0.06412000  0.79867000  0.78789000  1.0
  C  C337  1  0.43588000  0.29867000  0.21211000  1.0
  C  C338  1  0.93588000  0.70133000  0.28789000  1.0
  C  C339  1  0.56412000  0.20133000  0.71211000  1.0
  C  C340  1  0.20133000  0.78789000  0.93588000  1.0
  C  C341  1  0.70133000  0.21211000  0.56412000  1.0
  C  C342  1  0.29867000  0.28789000  0.06412000  1.0
  C  C343  1  0.79867000  0.71211000  0.43588000  1.0
  N  N344  1  0.88128000  0.89468000  0.18965000  1.0
  N  N345  1  0.11872000  0.60532000  0.68965000  1.0
  N  N346  1  0.38128000  0.10532000  0.31035000  1.0
  N  N347  1  0.61872000  0.39468000  0.81035000  1.0
  N  N348  1  0.10532000  0.18965000  0.11872000  1.0
  N  N349  1  0.39468000  0.68965000  0.88128000  1.0
  N  N350  1  0.89468000  0.31035000  0.61872000  1.0
  N  N351  1  0.60532000  0.81035000  0.38128000  1.0
  N  N352  1  0.81035000  0.11872000  0.89468000  1.0
  N  N353  1  0.31035000  0.88128000  0.60532000  1.0
  N  N354  1  0.68965000  0.61872000  0.10532000  1.0
  N  N355  1  0.18965000  0.38128000  0.39468000  1.0
  N  N356  1  0.11872000  0.10532000  0.81035000  1.0
  N  N357  1  0.88128000  0.39468000  0.31035000  1.0
  N  N358  1  0.61872000  0.89468000  0.68965000  1.0
  N  N359  1  0.38128000  0.60531000  0.18965000  1.0
  N  N360  1  0.89468000  0.81035000  0.88128000  1.0
  N  N361  1  0.60532000  0.31035000  0.11872000  1.0
  N  N362  1  0.10532000  0.68965000  0.38128000  1.0
  N  N363  1  0.39468000  0.18965000  0.61872000  1.0
  N  N364  1  0.18965000  0.88128000  0.10532000  1.0
  N  N365  1  0.68965000  0.11872000  0.39468000  1.0
  N  N366  1  0.31035000  0.38128000  0.89468000  1.0
  N  N367  1  0.81035000  0.61872000  0.60532000  1.0
  O  O368  1  0.79508000  0.20492000  0.20492000  1.0
  O  O369  1  0.20492000  0.29508000  0.70492000  1.0
  O  O370  1  0.29508000  0.79508000  0.29508000  1.0
  O  O371  1  0.70492000  0.70492000  0.79508000  1.0
  O  O372  1  0.20492000  0.79508000  0.79508000  1.0
  O  O373  1  0.79508000  0.70492000  0.29508000  1.0
  O  O374  1  0.70492000  0.20492000  0.70492000  1.0
  O  O375  1  0.29508000  0.29508000  0.20492000  1.0
  O  O376  1  0.84099000  0.81405000  0.24465000  1.0
  O  O377  1  0.15901000  0.68595000  0.74465000  1.0
  O  O378  1  0.34099000  0.18595000  0.25534000  1.0
  O  O379  1  0.65901000  0.31405000  0.75534000  1.0
  O  O380  1  0.18595000  0.24466000  0.15901000  1.0
  O  O381  1  0.31405000  0.74466000  0.84099000  1.0
  O  O382  1  0.81405000  0.25535000  0.65901000  1.0
  O  O383  1  0.68595000  0.75534000  0.34099000  1.0
  O  O384  1  0.75534000  0.15901000  0.81405000  1.0
  O  O385  1  0.25534000  0.84099000  0.68595000  1.0
  O  O386  1  0.74466000  0.65901000  0.18596000  1.0
  O  O387  1  0.24465000  0.34099000  0.31405000  1.0
  O  O388  1  0.15901000  0.18595000  0.75534000  1.0
  O  O389  1  0.84099000  0.31405000  0.25534000  1.0
  O  O390  1  0.65901000  0.81405000  0.74466000  1.0
  O  O391  1  0.34099000  0.68595000  0.24466000  1.0
  O  O392  1  0.81405000  0.75535000  0.84099000  1.0
  O  O393  1  0.68595000  0.25534000  0.15901000  1.0
  O  O394  1  0.18595000  0.74465000  0.34099000  1.0
  O  O395  1  0.31405000  0.24466000  0.65901000  1.0
  O  O396  1  0.24465000  0.84099000  0.18595000  1.0
  O  O397  1  0.74466000  0.15901000  0.31405000  1.0
  O  O398  1  0.25535000  0.34099000  0.81405000  1.0
  O  O399  1  0.75534000  0.65901000  0.68595000  1.0
  O  O400  1  0.77447000  0.83108000  0.30299000  1.0
  O  O401  1  0.22552000  0.66892000  0.80299000  1.0
  O  O402  1  0.27448000  0.16892000  0.19701000  1.0
  O  O403  1  0.72553000  0.33108000  0.69701000  1.0
  O  O404  1  0.16892000  0.30299000  0.22552000  1.0
  O  O405  1  0.33108000  0.80299000  0.77448000  1.0
  O  O406  1  0.83108000  0.19701000  0.72553000  1.0
  O  O407  1  0.66892000  0.69701000  0.27448000  1.0
  O  O408  1  0.69701000  0.22552000  0.83108000  1.0
  O  O409  1  0.19701000  0.77448000  0.66892000  1.0
  O  O410  1  0.80299000  0.72552000  0.16892000  1.0
  O  O411  1  0.30299000  0.27448000  0.33108000  1.0
  O  O412  1  0.22553000  0.16892000  0.69701000  1.0
  O  O413  1  0.77448000  0.33108000  0.19701000  1.0
  O  O414  1  0.72552000  0.83108000  0.80299000  1.0
  O  O415  1  0.27448000  0.66892000  0.30299000  1.0
  O  O416  1  0.83108000  0.69702000  0.77447000  1.0
  O  O417  1  0.66892000  0.19701000  0.22552000  1.0
  O  O418  1  0.16892000  0.80299000  0.27447000  1.0
  O  O419  1  0.33108000  0.30299000  0.72552000  1.0
  O  O420  1  0.30299000  0.77448000  0.16892000  1.0
  O  O421  1  0.80299000  0.22552000  0.33108000  1.0
  O  O422  1  0.19701000  0.27447000  0.83108000  1.0
  O  O423  1  0.69701000  0.72552000  0.66892000  1.0
  O  O424  1  0.82739000  0.08483000  0.17723000  1.0
  O  O425  1  0.17261000  0.41517000  0.67722000  1.0
  O  O426  1  0.32739000  0.91517000  0.32277000  1.0
  O  O427  1  0.67261000  0.58483000  0.82277000  1.0
  O  O428  1  0.91517000  0.17723000  0.17261000  1.0
  O  O429  1  0.58483000  0.67723000  0.82739000  1.0
  O  O430  1  0.08483000  0.32277000  0.67261000  1.0
  O  O431  1  0.41517000  0.82277000  0.32739000  1.0
  O  O432  1  0.82277000  0.17261000  0.08483000  1.0
  O  O433  1  0.32277000  0.82739000  0.41517000  1.0
  O  O434  1  0.67723000  0.67261000  0.91517000  1.0
  O  O435  1  0.17723000  0.32739000  0.58483000  1.0
  O  O436  1  0.17261000  0.91517000  0.82277000  1.0
  O  O437  1  0.82739000  0.58483000  0.32277000  1.0
  O  O438  1  0.67261000  0.08483000  0.67723000  1.0
  O  O439  1  0.32739000  0.41517000  0.17723000  1.0
  O  O440  1  0.08483000  0.82278000  0.82739000  1.0
  O  O441  1  0.41517000  0.32277000  0.17261000  1.0
  O  O442  1  0.91517000  0.67723000  0.32739000  1.0
  O  O443  1  0.58483000  0.17723000  0.67261000  1.0
  O  O444  1  0.17723000  0.82739000  0.91517000  1.0
  O  O445  1  0.67723000  0.17261000  0.58483000  1.0
  O  O446  1  0.32277000  0.32739000  0.08483000  1.0
  O  O447  1  0.82278000  0.67261000  0.41517000  1.0
  O  O448  1  0.74554000  0.08832000  0.21530000  1.0
  O  O449  1  0.25446000  0.41168000  0.71530000  1.0
  O  O450  1  0.24554000  0.91168000  0.28470000  1.0
  O  O451  1  0.75446000  0.58832000  0.78470000  1.0
  O  O452  1  0.91168000  0.21530000  0.25446000  1.0
  O  O453  1  0.58832000  0.71530000  0.74554000  1.0
  O  O454  1  0.08832000  0.28470000  0.75446000  1.0
  O  O455  1  0.41168000  0.78470000  0.24554000  1.0
  O  O456  1  0.78470000  0.25446000  0.08832000  1.0
  O  O457  1  0.28470000  0.74554000  0.41168000  1.0
  O  O458  1  0.71530000  0.75446000  0.91168000  1.0
  O  O459  1  0.21530000  0.24554000  0.58832000  1.0
  O  O460  1  0.25446000  0.91168000  0.78470000  1.0
  O  O461  1  0.74554000  0.58832000  0.28470000  1.0
  O  O462  1  0.75446000  0.08832000  0.71530000  1.0
  O  O463  1  0.24554000  0.41168000  0.21530000  1.0
  O  O464  1  0.08832000  0.78470000  0.74554000  1.0
  O  O465  1  0.41168000  0.28470000  0.25446000  1.0
  O  O466  1  0.91168000  0.71530000  0.24554000  1.0
  O  O467  1  0.58832000  0.21530000  0.75446000  1.0
  O  O468  1  0.21530000  0.74554000  0.91168000  1.0
  O  O469  1  0.71530000  0.25446000  0.58832000  1.0
  O  O470  1  0.28470000  0.24554000  0.08832000  1.0
  O  O471  1  0.78470000  0.75446000  0.41168000  1.0
