# generated using pymatgen
data_FeH12C8(NO4)2
_symmetry_space_group_name_H-M   'P 1'
_cell_length_a   7.46028000
_cell_length_b   7.63068000
_cell_length_c   9.29810000
_cell_angle_alpha   89.68800000
_cell_angle_beta   89.41570000
_cell_angle_gamma   71.54900000
_symmetry_Int_Tables_number   1
_chemical_formula_structural   FeH12C8(NO4)2
_chemical_formula_sum   'Fe2 H24 C16 N4 O16'
_cell_volume   502.07603453
_cell_formula_units_Z   2
loop_
 _symmetry_equiv_pos_site_id
 _symmetry_equiv_pos_as_xyz
  1  'x, y, z'
loop_
 _atom_site_type_symbol
 _atom_site_label
 _atom_site_symmetry_multiplicity
 _atom_site_fract_x
 _atom_site_fract_y
 _atom_site_fract_z
 _atom_site_occupancy
  Fe  Fe0  1  0.00000000  0.00000000  0.00000000  1.0
  Fe  Fe1  1  0.50000000  0.00000000  0.50000000  1.0
  H  H2  1  0.41425000  0.77684000  0.11135000  1.0
  H  H3  1  0.08426000  0.22303000  0.61006000  1.0
  H  H4  1  0.58575000  0.22315000  0.88865000  1.0
  H  H5  1  0.91573000  0.77697000  0.38994000  1.0
  H  H6  1  0.66387000  0.66752000  0.11261000  1.0
  H  H7  1  0.83504000  0.33462000  0.61943000  1.0
  H  H8  1  0.33613000  0.33248000  0.88739000  1.0
  H  H9  1  0.16495000  0.66538000  0.38057000  1.0
  H  H10  1  0.64883000  0.74744000  0.74573000  1.0
  H  H11  1  0.85796000  0.24635000  0.24821000  1.0
  H  H12  1  0.35117000  0.25256000  0.25427000  1.0
  H  H13  1  0.14204000  0.75365000  0.75179000  1.0
  H  H14  1  0.64713000  0.85901000  0.91245000  1.0
  H  H15  1  0.85314000  0.13849000  0.41641000  1.0
  H  H16  1  0.35287000  0.14099000  0.08755000  1.0
  H  H17  1  0.14686000  0.86151000  0.58359000  1.0
  H  H18  1  0.04483000  0.64004000  0.91923000  1.0
  H  H19  1  0.47177000  0.34438000  0.42047000  1.0
  H  H20  1  0.95516000  0.35996000  0.08077000  1.0
  H  H21  1  0.52823000  0.65562000  0.57953000  1.0
  H  H22  1  0.05080000  0.64739000  0.08960000  1.0
  H  H23  1  0.46191000  0.33654000  0.59106000  1.0
  H  H24  1  0.94920000  0.35262000  0.91040000  1.0
  H  H25  1  0.53809000  0.66346000  0.40894000  1.0
  C  C26  1  0.50001000  0.50745000  0.84596000  1.0
  C  C27  1  0.99770000  0.49313000  0.34649000  1.0
  C  C28  1  0.49999000  0.49255000  0.15404000  1.0
  C  C29  1  0.00230000  0.50686000  0.65351000  1.0
  C  C30  1  0.52932000  0.65342000  0.07565000  1.0
  C  C31  1  0.96896000  0.34760000  0.57781000  1.0
  C  C32  1  0.47068000  0.34657000  0.92435000  1.0
  C  C33  1  0.03104000  0.65241000  0.42220000  1.0
  C  C34  1  0.56479000  0.79824000  0.84231000  1.0
  C  C35  1  0.93704000  0.20034000  0.34687000  1.0
  C  C36  1  0.43521000  0.20176000  0.15769000  1.0
  C  C37  1  0.06296000  0.79967000  0.65313000  1.0
  C  C38  1  0.38151000  0.95087000  0.80595000  1.0
  C  C39  1  0.12784000  0.05284000  0.31519000  1.0
  C  C40  1  0.61850000  0.04913000  0.19405000  1.0
  C  C41  1  0.87216000  0.94716000  0.68481000  1.0
  N  N42  1  0.53204000  0.64395000  0.91929000  1.0
  N  N43  1  0.96212000  0.35852000  0.42160000  1.0
  N  N44  1  0.46796000  0.35605000  0.08071000  1.0
  N  N45  1  0.03788000  0.64148000  0.57840000  1.0
  O  O46  1  0.49567000  0.50571000  0.70986000  1.0
  O  O47  1  0.00249000  0.49421000  0.21043000  1.0
  O  O48  1  0.50433000  0.49429000  0.29014000  1.0
  O  O49  1  0.99751000  0.50579000  0.78957000  1.0
  O  O50  1  0.36318000  0.03196000  0.68451000  1.0
  O  O51  1  0.15151000  0.96286000  0.19838000  1.0
  O  O52  1  0.63682000  0.96805000  0.31549000  1.0
  O  O53  1  0.84849000  0.03714000  0.80162000  1.0
  O  O54  1  0.25552000  0.99600000  0.90394000  1.0
  O  O55  1  0.24707000  0.03030000  0.41520000  1.0
  O  O56  1  0.74448000  0.00399000  0.09606000  1.0
  O  O57  1  0.75293000  0.96970000  0.58480000  1.0
  O  O58  1  0.08210000  0.70463000  0.00064000  1.0
  O  O59  1  0.43077000  0.28108000  0.50223000  1.0
  O  O60  1  0.91790000  0.29537000  0.99936000  1.0
  O  O61  1  0.56923000  0.71892000  0.49777000  1.0
