# generated using pymatgen
data_ZnH6C4(SN4)2
_symmetry_space_group_name_H-M   'P 1'
_cell_length_a   10.02890000
_cell_length_b   10.02880000
_cell_length_c   12.11470000
_cell_angle_alpha   67.75110000
_cell_angle_beta   67.75090000
_cell_angle_gamma   84.72610000
_symmetry_Int_Tables_number   1
_chemical_formula_structural   ZnH6C4(SN4)2
_chemical_formula_sum   'Zn4 H24 C16 S8 N32'
_cell_volume   1041.90329309
_cell_formula_units_Z   4
loop_
 _symmetry_equiv_pos_site_id
 _symmetry_equiv_pos_as_xyz
  1  'x, y, z'
loop_
 _atom_site_type_symbol
 _atom_site_label
 _atom_site_symmetry_multiplicity
 _atom_site_fract_x
 _atom_site_fract_y
 _atom_site_fract_z
 _atom_site_occupancy
  Zn  Zn0  1  0.33966000  0.96765000  0.67186000  1.0
  Zn  Zn1  1  0.03235000  0.66034000  0.82814000  1.0
  Zn  Zn2  1  0.66034000  0.03234000  0.32814000  1.0
  Zn  Zn3  1  0.96765000  0.33966000  0.17186000  1.0
  H  H4  1  0.24215000  0.51169000  0.40033000  1.0
  H  H5  1  0.48831000  0.75785000  0.09967000  1.0
  H  H6  1  0.75785000  0.48831000  0.59967000  1.0
  H  H7  1  0.51169000  0.24215000  0.90033000  1.0
  H  H8  1  0.35694000  0.50217000  0.48600000  1.0
  H  H9  1  0.49784000  0.64306000  0.01399000  1.0
  H  H10  1  0.64306000  0.49783000  0.51400000  1.0
  H  H11  1  0.50217000  0.35694000  0.98600000  1.0
  H  H12  1  0.21163000  0.37003000  0.55374000  1.0
  H  H13  1  0.62997000  0.78837000  0.94626000  1.0
  H  H14  1  0.78837000  0.62997000  0.44626000  1.0
  H  H15  1  0.37003000  0.21163000  0.05373000  1.0
  H  H16  1  0.23844000  0.94027000  0.23321000  1.0
  H  H17  1  0.05973000  0.76156000  0.26679000  1.0
  H  H18  1  0.76156000  0.05974000  0.76679000  1.0
  H  H19  1  0.94027000  0.23844000  0.73321000  1.0
  H  H20  1  0.33573000  0.02036000  0.29256000  1.0
  H  H21  1  0.97964000  0.66427000  0.20744000  1.0
  H  H22  1  0.66427000  0.97964000  0.70744000  1.0
  H  H23  1  0.02036000  0.33573000  0.79256000  1.0
  H  H24  1  0.16031000  0.07765000  0.29551000  1.0
  H  H25  1  0.92235000  0.83969000  0.20449000  1.0
  H  H26  1  0.83969000  0.92235000  0.70449000  1.0
  H  H27  1  0.07765000  0.16031000  0.79551000  1.0
  C  C28  1  0.46792000  0.24395000  0.44125000  1.0
  C  C29  1  0.75605000  0.53208000  0.05875000  1.0
  C  C30  1  0.53208000  0.75605000  0.55875000  1.0
  C  C31  1  0.24395000  0.46792000  0.94125000  1.0
  C  C32  1  0.29358000  0.43951000  0.46386000  1.0
  C  C33  1  0.56050000  0.70642000  0.03613000  1.0
  C  C34  1  0.70643000  0.56050000  0.53613000  1.0
  C  C35  1  0.43950000  0.29357000  0.96386000  1.0
  C  C36  1  0.14529000  0.87918000  0.54674000  1.0
  C  C37  1  0.12082000  0.85470000  0.95326000  1.0
  C  C38  1  0.85471000  0.12082000  0.45326000  1.0
  C  C39  1  0.87918000  0.14529000  0.04674000  1.0
  C  C40  1  0.22882000  0.98547000  0.30493000  1.0
  C  C41  1  0.01452000  0.77118000  0.19507000  1.0
  C  C42  1  0.77117000  0.01453000  0.69507000  1.0
  C  C43  1  0.98547000  0.22882000  0.80493000  1.0
  S  S44  1  0.47653000  0.18377000  0.59063000  1.0
  S  S45  1  0.81623000  0.52347000  0.90937000  1.0
  S  S46  1  0.52346000  0.81623000  0.40938000  1.0
  S  S47  1  0.18377000  0.47653000  0.09063000  1.0
  S  S48  1  0.17941000  0.03011000  0.56720000  1.0
  S  S49  1  0.96989000  0.82058000  0.93280000  1.0
  S  S50  1  0.82059000  0.96989000  0.43280000  1.0
  S  S51  1  0.03011000  0.17941000  0.06720000  1.0
  N  N52  1  0.38653000  0.35172000  0.39802000  1.0
  N  N53  1  0.64829000  0.61347000  0.10198000  1.0
  N  N54  1  0.61347000  0.64829000  0.60198000  1.0
  N  N55  1  0.35171000  0.38653000  0.89802000  1.0
  N  N56  1  0.40314000  0.37113000  0.27668000  1.0
  N  N57  1  0.62888000  0.59686000  0.22332000  1.0
  N  N58  1  0.59686000  0.62887000  0.72333000  1.0
  N  N59  1  0.37112000  0.40314000  0.77667000  1.0
  N  N60  1  0.49249000  0.27870000  0.24412000  1.0
  N  N61  1  0.72130000  0.50751000  0.25588000  1.0
  N  N62  1  0.50751000  0.72129000  0.75589000  1.0
  N  N63  1  0.27870000  0.49249000  0.74412000  1.0
  N  N64  1  0.53536000  0.19918000  0.34281000  1.0
  N  N65  1  0.80082000  0.46464000  0.15719000  1.0
  N  N66  1  0.46464000  0.80081000  0.65720000  1.0
  N  N67  1  0.19918000  0.53536000  0.84281000  1.0
  N  N68  1  0.16504000  0.87375000  0.43132000  1.0
  N  N69  1  0.12625000  0.83495000  0.06868000  1.0
  N  N70  1  0.83496000  0.12626000  0.56868000  1.0
  N  N71  1  0.87374000  0.16504000  0.93132000  1.0
  N  N72  1  0.11916000  0.74173000  0.44884000  1.0
  N  N73  1  0.25827000  0.88084000  0.05116000  1.0
  N  N74  1  0.88084000  0.25827000  0.55116000  1.0
  N  N75  1  0.74173000  0.11916000  0.94884000  1.0
  N  N76  1  0.07296000  0.66630000  0.57103000  1.0
  N  N77  1  0.33370000  0.92704000  0.92897000  1.0
  N  N78  1  0.92704000  0.33370000  0.42897000  1.0
  N  N79  1  0.66630000  0.07296000  0.07103000  1.0
  N  N80  1  0.08704000  0.74749000  0.63437000  1.0
  N  N81  1  0.25251000  0.91296000  0.86563000  1.0
  N  N82  1  0.91296000  0.25251000  0.36563000  1.0
  N  N83  1  0.74749000  0.08704000  0.13437000  1.0
