# generated using pymatgen
data_Ag2P2H26C29(NO2)3
_symmetry_space_group_name_H-M   'P 1'
_cell_length_a   10.41440000
_cell_length_b   12.30930000
_cell_length_c   12.34280000
_cell_angle_alpha   95.55800000
_cell_angle_beta   97.35050000
_cell_angle_gamma   108.79100000
_symmetry_Int_Tables_number   1
_chemical_formula_structural   Ag2P2H26C29(NO2)3
_chemical_formula_sum   'Ag4 P4 H52 C58 N6 O12'
_cell_volume   1469.47797125
_cell_formula_units_Z   2
loop_
 _symmetry_equiv_pos_site_id
 _symmetry_equiv_pos_as_xyz
  1  'x, y, z'
loop_
 _atom_site_type_symbol
 _atom_site_label
 _atom_site_symmetry_multiplicity
 _atom_site_fract_x
 _atom_site_fract_y
 _atom_site_fract_z
 _atom_site_occupancy
  Ag  Ag0  1  0.77966000  0.61973000  0.65633000  1.0
  Ag  Ag1  1  0.22034000  0.38027000  0.34368000  1.0
  Ag  Ag2  1  0.44733000  0.61694000  0.58462000  1.0
  Ag  Ag3  1  0.55268000  0.38306000  0.41538000  1.0
  P  P4  1  0.41710000  0.71363000  0.74426000  1.0
  P  P5  1  0.58290000  0.28637000  0.25574000  1.0
  P  P6  1  0.95738000  0.79055000  0.73055000  1.0
  P  P7  1  0.04263000  0.20945000  0.26945000  1.0
  H  H8  1  0.96079000  0.68724000  0.49524000  1.0
  H  H9  1  0.03920000  0.31276000  0.50475000  1.0
  H  H10  1  0.16592000  0.47041000  0.64688000  1.0
  H  H11  1  0.83407000  0.52958000  0.35311000  1.0
  H  H12  1  0.19706000  0.58143000  0.78116000  1.0
  H  H13  1  0.80294000  0.41857000  0.21883000  1.0
  H  H14  1  0.23040000  0.72726000  0.83829000  1.0
  H  H15  1  0.76960000  0.27274000  0.16170000  1.0
  H  H16  1  0.70560000  0.79793000  0.83846000  1.0
  H  H17  1  0.29440000  0.20207000  0.16155000  1.0
  H  H18  1  0.83536000  0.79074000  0.01898000  1.0
  H  H19  1  0.16463000  0.20925000  0.98103000  1.0
  H  H20  1  0.71029000  0.69055000  0.16050000  1.0
  H  H21  1  0.28969000  0.30945000  0.83951000  1.0
  H  H22  1  0.45678000  0.59823000  0.12064000  1.0
  H  H23  1  0.54321000  0.40176000  0.87936000  1.0
  H  H24  1  0.32566000  0.60735000  0.94306000  1.0
  H  H25  1  0.67433000  0.39264000  0.05694000  1.0
  H  H26  1  0.47349000  0.91197000  0.91990000  1.0
  H  H27  1  0.52653000  0.08802000  0.08011000  1.0
  H  H28  1  0.47563000  0.11422000  0.91043000  1.0
  H  H29  1  0.52439000  0.88578000  0.08958000  1.0
  H  H30  1  0.44736000  0.18078000  0.72773000  1.0
  H  H31  1  0.55266000  0.81922000  0.27228000  1.0
  H  H32  1  0.42220000  0.04991000  0.55650000  1.0
  H  H33  1  0.57781000  0.95010000  0.44351000  1.0
  H  H34  1  0.42370000  0.84779000  0.56432000  1.0
  H  H35  1  0.57630000  0.15222000  0.43568000  1.0
  H  H36  1  0.11002000  0.82052000  0.59116000  1.0
  H  H37  1  0.88998000  0.17948000  0.40883000  1.0
  H  H38  1  0.20364000  0.86210000  0.72677000  1.0
  H  H39  1  0.79636000  0.13790000  0.27322000  1.0
  H  H40  1  0.93356000  0.61022000  0.86456000  1.0
  H  H41  1  0.06644000  0.38979000  0.13544000  1.0
  H  H42  1  0.04896000  0.60640000  0.05417000  1.0
  H  H43  1  0.95103000  0.39360000  0.94584000  1.0
  H  H44  1  0.19760000  0.78887000  0.17140000  1.0
  H  H45  1  0.80239000  0.21114000  0.82860000  1.0
  H  H46  1  0.22742000  0.97854000  0.10352000  1.0
  H  H47  1  0.77258000  0.02146000  0.89648000  1.0
  H  H48  1  0.11735000  0.98411000  0.91477000  1.0
  H  H49  1  0.88266000  0.01589000  0.08522000  1.0
  H  H50  1  0.72144000  0.85961000  0.66335000  1.0
  H  H51  1  0.27857000  0.14039000  0.33665000  1.0
  H  H52  1  0.69872000  0.04791000  0.62556000  1.0
  H  H53  1  0.30128000  0.95210000  0.37445000  1.0
  H  H54  1  0.90520000  0.21991000  0.63520000  1.0
  H  H55  1  0.09480000  0.78009000  0.36480000  1.0
  H  H56  1  0.14020000  0.20570000  0.68384000  1.0
  H  H57  1  0.85980000  0.79430000  0.31616000  1.0
  H  H58  1  0.16466000  0.02360000  0.73046000  1.0
  H  H59  1  0.83534000  0.97641000  0.26954000  1.0
  C  C60  1  0.97899000  0.60548000  0.49976000  1.0
  C  C61  1  0.02100000  0.39452000  0.50024000  1.0
  C  C62  1  0.07391000  0.59408000  0.58658000  1.0
  C  C63  1  0.92608000  0.40592000  0.41342000  1.0
  C  C64  1  0.09278000  0.48585000  0.58440000  1.0
  C  C65  1  0.90721000  0.51415000  0.41560000  1.0
  C  C66  1  0.23263000  0.67129000  0.76429000  1.0
  C  C67  1  0.76736000  0.32871000  0.23570000  1.0
  C  C68  1  0.50646000  0.70404000  0.87776000  1.0
  C  C69  1  0.49353000  0.29596000  0.12224000  1.0
  C  C70  1  0.65066000  0.75490000  0.90058000  1.0
  C  C71  1  0.34934000  0.24509000  0.09942000  1.0
  C  C72  1  0.72370000  0.75079000  0.00197000  1.0
  C  C73  1  0.27628000  0.24920000  0.99804000  1.0
  C  C74  1  0.65414000  0.69425000  0.08116000  1.0
  C  C75  1  0.34584000  0.30574000  0.91885000  1.0
  C  C76  1  0.51127000  0.64249000  0.05893000  1.0
  C  C77  1  0.48872000  0.35750000  0.94107000  1.0
  C  C78  1  0.43724000  0.64763000  0.95793000  1.0
  C  C79  1  0.56275000  0.35236000  0.04207000  1.0
  C  C80  1  0.45032000  0.86789000  0.74289000  1.0
  C  C81  1  0.54969000  0.13211000  0.25711000  1.0
  C  C82  1  0.46495000  0.94292000  0.84038000  1.0
  C  C83  1  0.53507000  0.05708000  0.15963000  1.0
  C  C84  1  0.46521000  0.05565000  0.83513000  1.0
  C  C85  1  0.53481000  0.94434000  0.16488000  1.0
  C  C86  1  0.44972000  0.09367000  0.73279000  1.0
  C  C87  1  0.55029000  0.90633000  0.26722000  1.0
  C  C88  1  0.43552000  0.01938000  0.63567000  1.0
  C  C89  1  0.56449000  0.98061000  0.36434000  1.0
  C  C90  1  0.43705000  0.90691000  0.64022000  1.0
  C  C91  1  0.56295000  0.09309000  0.35978000  1.0
  C  C92  1  0.11794000  0.79365000  0.67342000  1.0
  C  C93  1  0.88206000  0.20635000  0.32657000  1.0
  C  C94  1  0.02021000  0.79717000  0.87650000  1.0
  C  C95  1  0.97980000  0.20284000  0.12350000  1.0
  C  C96  1  0.99901000  0.69088000  0.91698000  1.0
  C  C97  1  0.00100000  0.30913000  0.08302000  1.0
  C  C98  1  0.06345000  0.68857000  0.02269000  1.0
  C  C99  1  0.93655000  0.31144000  0.97731000  1.0
  C  C100  1  0.14709000  0.79181000  0.08937000  1.0
  C  C101  1  0.85290000  0.20820000  0.91063000  1.0
  C  C102  1  0.16410000  0.89787000  0.05078000  1.0
  C  C103  1  0.83590000  0.10213000  0.94922000  1.0
  C  C104  1  0.10171000  0.90101000  0.94462000  1.0
  C  C105  1  0.89829000  0.09900000  0.05538000  1.0
  C  C106  1  0.94392000  0.92911000  0.70405000  1.0
  C  C107  1  0.05608000  0.07090000  0.29595000  1.0
  C  C108  1  0.81305000  0.93656000  0.67169000  1.0
  C  C109  1  0.18694000  0.06344000  0.32831000  1.0
  C  C110  1  0.80023000  0.04120000  0.64741000  1.0
  C  C111  1  0.19977000  0.95881000  0.35259000  1.0
  C  C112  1  0.91739000  0.13836000  0.65258000  1.0
  C  C113  1  0.08260000  0.86164000  0.34742000  1.0
  C  C114  1  0.04801000  0.13097000  0.68158000  1.0
  C  C115  1  0.95199000  0.86904000  0.31841000  1.0
  C  C116  1  0.06157000  0.02718000  0.70807000  1.0
  C  C117  1  0.93842000  0.97282000  0.29193000  1.0
  N  N118  1  0.14461000  0.68607000  0.67102000  1.0
  N  N119  1  0.85539000  0.31393000  0.32898000  1.0
  N  N120  1  0.64877000  0.66267000  0.41141000  1.0
  N  N121  1  0.35123000  0.33732000  0.58859000  1.0
  N  N122  1  0.72501000  0.36497000  0.66185000  1.0
  N  N123  1  0.27500000  0.63503000  0.33813000  1.0
  O  O124  1  0.61382000  0.58791000  0.48139000  1.0
  O  O125  1  0.38619000  0.41209000  0.51861000  1.0
  O  O126  1  0.65741000  0.76486000  0.43949000  1.0
  O  O127  1  0.34260000  0.23513000  0.56051000  1.0
  O  O128  1  0.67221000  0.62579000  0.32054000  1.0
  O  O129  1  0.32778000  0.37420000  0.67946000  1.0
  O  O130  1  0.80943000  0.41029000  0.74887000  1.0
  O  O131  1  0.19058000  0.58970000  0.25113000  1.0
  O  O132  1  0.66971000  0.43153000  0.60837000  1.0
  O  O133  1  0.33029000  0.56847000  0.39163000  1.0
  O  O134  1  0.68893000  0.26065000  0.62255000  1.0
  O  O135  1  0.31109000  0.73936000  0.37742000  1.0
