# generated using pymatgen
data_CuH12C10(SN4)2
_symmetry_space_group_name_H-M   'P 1'
_cell_length_a   8.68231000
_cell_length_b   9.16997000
_cell_length_c   9.55753000
_cell_angle_alpha   108.60700000
_cell_angle_beta   89.99990000
_cell_angle_gamma   89.99980000
_symmetry_Int_Tables_number   1
_chemical_formula_structural   CuH12C10(SN4)2
_chemical_formula_sum   'Cu2 H24 C20 S4 N16'
_cell_volume   721.16267690
_cell_formula_units_Z   2
loop_
 _symmetry_equiv_pos_site_id
 _symmetry_equiv_pos_as_xyz
  1  'x, y, z'
loop_
 _atom_site_type_symbol
 _atom_site_label
 _atom_site_symmetry_multiplicity
 _atom_site_fract_x
 _atom_site_fract_y
 _atom_site_fract_z
 _atom_site_occupancy
  Cu  Cu0  1  0.00000000  0.00000000  0.00000000  1.0
  Cu  Cu1  1  0.50000000  0.50000000  0.00000000  1.0
  H  H2  1  0.95100000  0.93499000  0.31668000  1.0
  H  H3  1  0.45100000  0.56502000  0.68332000  1.0
  H  H4  1  0.04900000  0.06501000  0.68332000  1.0
  H  H5  1  0.54901000  0.43499000  0.31668000  1.0
  H  H6  1  0.32399000  0.13572000  0.16210000  1.0
  H  H7  1  0.82398000  0.36428000  0.83790000  1.0
  H  H8  1  0.67602000  0.86427000  0.83790000  1.0
  H  H9  1  0.17602000  0.63571000  0.16209000  1.0
  H  H10  1  0.35665000  0.28492000  0.54465000  1.0
  H  H11  1  0.85665000  0.21508000  0.45536000  1.0
  H  H12  1  0.64335000  0.71508000  0.45535000  1.0
  H  H13  1  0.14336000  0.78492000  0.54465000  1.0
  H  H14  1  0.48797000  0.20421000  0.39647000  1.0
  H  H15  1  0.98797000  0.29580000  0.60353000  1.0
  H  H16  1  0.51203000  0.79579000  0.60353000  1.0
  H  H17  1  0.01203000  0.70421000  0.39647000  1.0
  H  H18  1  0.37796000  0.05287000  0.62347000  1.0
  H  H19  1  0.87795000  0.44713000  0.37653000  1.0
  H  H20  1  0.62204000  0.94712000  0.37652000  1.0
  H  H21  1  0.12204000  0.55287000  0.62347000  1.0
  H  H22  1  0.55683000  0.14230000  0.62526000  1.0
  H  H23  1  0.05683000  0.35770000  0.37473000  1.0
  H  H24  1  0.44317000  0.85770000  0.37473000  1.0
  H  H25  1  0.94317000  0.64230000  0.62527000  1.0
  C  C26  1  0.05941000  0.99141000  0.31066000  1.0
  C  C27  1  0.55940000  0.50859000  0.68934000  1.0
  C  C28  1  0.94059000  0.00859000  0.68934000  1.0
  C  C29  1  0.44060000  0.49141000  0.31066000  1.0
  C  C30  1  0.24702000  0.09436000  0.23054000  1.0
  C  C31  1  0.74701000  0.40564000  0.76946000  1.0
  C  C32  1  0.75298000  0.90564000  0.76945000  1.0
  C  C33  1  0.25299000  0.59436000  0.23054000  1.0
  C  C34  1  0.40087000  0.17694000  0.46761000  1.0
  C  C35  1  0.90086000  0.32306000  0.53239000  1.0
  C  C36  1  0.59913000  0.82306000  0.53239000  1.0
  C  C37  1  0.09914000  0.67694000  0.46760000  1.0
  C  C38  1  0.46699000  0.07528000  0.55111000  1.0
  C  C39  1  0.96699000  0.42472000  0.44889000  1.0
  C  C40  1  0.53301000  0.92472000  0.44889000  1.0
  C  C41  1  0.03301000  0.57528000  0.55111000  1.0
  C  C42  1  0.12848000  0.27645000  0.93016000  1.0
  C  C43  1  0.62848000  0.22355000  0.06984000  1.0
  C  C44  1  0.87152000  0.72355000  0.06984000  1.0
  C  C45  1  0.37153000  0.77645000  0.93017000  1.0
  S  S46  1  0.19540000  0.38358000  0.83912000  1.0
  S  S47  1  0.69539000  0.11642000  0.16089000  1.0
  S  S48  1  0.80460000  0.61642000  0.16088000  1.0
  S  S49  1  0.30461000  0.88359000  0.83911000  1.0
  N  N50  1  0.27376000  0.10245000  0.37109000  1.0
  N  N51  1  0.77376000  0.39755000  0.62892000  1.0
  N  N52  1  0.72624000  0.89754000  0.62891000  1.0
  N  N53  1  0.22624000  0.60245000  0.37109000  1.0
  N  N54  1  0.15555000  0.03785000  0.42426000  1.0
  N  N55  1  0.65554000  0.46215000  0.57574000  1.0
  N  N56  1  0.84445000  0.96215000  0.57574000  1.0
  N  N57  1  0.34446000  0.53785000  0.42426000  1.0
  N  N58  1  0.11108000  0.02455000  0.18958000  1.0
  N  N59  1  0.61108000  0.47545000  0.81042000  1.0
  N  N60  1  0.88892000  0.97544000  0.81042000  1.0
  N  N61  1  0.38892000  0.52455000  0.18958000  1.0
  N  N62  1  0.07740000  0.20140000  0.00055000  1.0
  N  N63  1  0.57741000  0.29860000  0.99945000  1.0
  N  N64  1  0.92260000  0.79861000  0.99944000  1.0
  N  N65  1  0.42259000  0.70141000  0.00055000  1.0
