# generated using pymatgen
data_CaH4(C4O3)2
_symmetry_space_group_name_H-M   'P 1'
_cell_length_a   6.85339000
_cell_length_b   6.85339000
_cell_length_c   7.95190000
_cell_angle_alpha   91.39100000
_cell_angle_beta   91.39120000
_cell_angle_gamma   97.79280000
_symmetry_Int_Tables_number   1
_chemical_formula_structural   CaH4(C4O3)2
_chemical_formula_sum   'Ca2 H8 C16 O12'
_cell_volume   369.79079726
_cell_formula_units_Z   2
loop_
 _symmetry_equiv_pos_site_id
 _symmetry_equiv_pos_as_xyz
  1  'x, y, z'
loop_
 _atom_site_type_symbol
 _atom_site_label
 _atom_site_symmetry_multiplicity
 _atom_site_fract_x
 _atom_site_fract_y
 _atom_site_fract_z
 _atom_site_occupancy
  Ca  Ca0  1  0.99858000  0.00142000  0.25000000  1.0
  Ca  Ca1  1  0.00142000  0.99858000  0.75000000  1.0
  H  H2  1  0.15773000  0.47324000  0.88281000  1.0
  H  H3  1  0.52676000  0.84227000  0.61719000  1.0
  H  H4  1  0.84227000  0.52676000  0.11719000  1.0
  H  H5  1  0.47324000  0.15773000  0.38281000  1.0
  H  H6  1  0.54743000  0.91090000  0.20041000  1.0
  H  H7  1  0.08910000  0.45257000  0.29959000  1.0
  H  H8  1  0.45257000  0.08910000  0.79959000  1.0
  H  H9  1  0.91091000  0.54744000  0.70041000  1.0
  C  C10  1  0.26883000  0.81586000  0.05216000  1.0
  C  C11  1  0.18415000  0.73117000  0.44784000  1.0
  C  C12  1  0.73117000  0.18414000  0.94785000  1.0
  C  C13  1  0.81586000  0.26883000  0.55215000  1.0
  C  C14  1  0.38915000  0.65505000  0.02357000  1.0
  C  C15  1  0.34495000  0.61085000  0.47644000  1.0
  C  C16  1  0.61085000  0.34494000  0.97644000  1.0
  C  C17  1  0.65506000  0.38915000  0.52356000  1.0
  C  C18  1  0.58324000  0.66923000  0.09278000  1.0
  C  C19  1  0.33077000  0.41676000  0.40722000  1.0
  C  C20  1  0.41676000  0.33077000  0.90722000  1.0
  C  C21  1  0.66923000  0.58324000  0.59279000  1.0
  C  C22  1  0.30782000  0.48512000  0.93269000  1.0
  C  C23  1  0.51488000  0.69218000  0.56731000  1.0
  C  C24  1  0.69218000  0.51488000  0.06731000  1.0
  C  C25  1  0.48512000  0.30782000  0.43269000  1.0
  O  O26  1  0.33333333  0.95355000  0.16108000  1.0
  O  O27  1  0.04645000  0.66661000  0.33892000  1.0
  O  O28  1  0.66661000  0.04645000  0.83892000  1.0
  O  O29  1  0.95356000  0.33333333  0.66108000  1.0
  O  O30  1  0.10169000  0.81371000  0.97713000  1.0
  O  O31  1  0.18629000  0.89831000  0.52287000  1.0
  O  O32  1  0.89831000  0.18629000  0.02287000  1.0
  O  O33  1  0.81371000  0.10170000  0.47713000  1.0
  O  O34  1  0.66312000  0.83241000  0.18549000  1.0
  O  O35  1  0.16759000  0.33688000  0.31451000  1.0
  O  O36  1  0.33688000  0.16758000  0.81451000  1.0
  O  O37  1  0.83242000  0.66312000  0.68549000  1.0
