# generated using pymatgen
data_Al6H48(C17O6)5
_symmetry_space_group_name_H-M   'P 1'
_cell_length_a   12.37800000
_cell_length_b   12.64540000
_cell_length_c   28.70470000
_cell_angle_alpha   89.85850000
_cell_angle_beta   89.65860000
_cell_angle_gamma   118.53830000
_symmetry_Int_Tables_number   1
_chemical_formula_structural   Al6H48(C17O6)5
_chemical_formula_sum   'Al6 H48 C85 O30'
_cell_volume   3946.94572388
_cell_formula_units_Z   1
loop_
 _symmetry_equiv_pos_site_id
 _symmetry_equiv_pos_as_xyz
  1  'x, y, z'
loop_
 _atom_site_type_symbol
 _atom_site_label
 _atom_site_symmetry_multiplicity
 _atom_site_fract_x
 _atom_site_fract_y
 _atom_site_fract_z
 _atom_site_occupancy
  Al  Al0  1  0.58932000  0.41192000  0.50023000  1.0
  Al  Al1  1  0.57729000  0.65996000  0.49868000  1.0
  Al  Al2  1  0.33870000  0.42857000  0.50037000  1.0
  Al  Al3  1  0.06897000  0.91515000  0.99725000  1.0
  Al  Al4  1  0.32611000  0.91051000  0.00066000  1.0
  Al  Al5  1  0.09377000  0.67386000  0.99989000  1.0
  H  H6  1  0.52290000  0.27281000  0.28909000  1.0
  H  H7  1  0.34149000  0.31659000  0.80670000  1.0
  H  H8  1  0.34202000  0.35484000  0.72137000  1.0
  H  H9  1  0.91856000  0.85428000  0.70283000  1.0
  H  H10  1  0.75449000  0.47403000  0.79374000  1.0
  H  H11  1  0.55213000  0.75564000  0.27312000  1.0
  H  H12  1  0.43534000  0.56419000  0.20888000  1.0
  H  H13  1  0.23277000  0.45062000  0.27091000  1.0
  H  H14  1  0.12041000  0.57519000  0.22723000  1.0
  H  H15  1  0.12847000  0.12263000  0.29348000  1.0
  H  H16  1  0.11934000  0.08056000  0.20829000  1.0
  H  H17  1  0.88578000  0.53358000  0.29820000  1.0
  H  H18  1  0.51381000  0.23120000  0.20386000  1.0
  H  H19  1  0.45923000  0.99918000  0.29025000  1.0
  H  H20  1  0.58589000  0.97092000  0.28464000  1.0
  H  H21  1  0.58498000  0.09193000  0.25356000  1.0
  H  H22  1  0.53434000  0.92490000  0.19805000  1.0
  H  H23  1  0.40253000  0.94148000  0.20631000  1.0
  H  H24  1  0.88059000  0.97002000  0.20981000  1.0
  H  H25  1  0.92327000  0.91593000  0.15932000  1.0
  H  H26  1  0.81390000  0.96841000  0.15481000  1.0
  H  H27  1  0.70761000  0.74427000  0.15435000  1.0
  H  H28  1  0.91230000  0.53471000  0.21169000  1.0
  H  H29  1  0.66465000  0.79740000  0.20433000  1.0
  H  H30  1  0.08364000  0.28145000  0.79809000  1.0
  H  H31  1  0.24273000  0.92322000  0.25301000  1.0
  H  H32  1  0.10842000  0.78524000  0.24184000  1.0
  H  H33  1  0.11309000  0.87343000  0.29047000  1.0
  H  H34  1  0.14173000  0.70479000  0.32004000  1.0
  H  H35  1  0.28112000  0.83865000  0.32616000  1.0
  H  H36  1  0.07447000  0.01570000  0.73671000  1.0
  H  H37  1  0.93580000  0.01213000  0.75568000  1.0
  H  H38  1  0.07257000  0.08762000  0.78910000  1.0
  H  H39  1  0.72946000  0.77128000  0.28256000  1.0
  H  H40  1  0.93649000  0.89463000  0.82811000  1.0
  H  H41  1  0.06986000  0.89558000  0.80803000  1.0
  H  H42  1  0.73436000  0.31689000  0.74330000  1.0
  H  H43  1  0.59456000  0.31433000  0.75996000  1.0
  H  H44  1  0.60081000  0.23993000  0.70868000  1.0
  H  H45  1  0.60503000  0.43301000  0.68756000  1.0
  H  H46  1  0.73876000  0.43190000  0.66930000  1.0
  H  H47  1  0.22603000  0.47009000  0.70996000  1.0
  H  H48  1  0.44655000  0.86154000  0.79175000  1.0
  H  H49  1  0.46002000  0.85486000  0.70540000  1.0
  H  H50  1  0.33002000  0.01484000  0.69267000  1.0
  H  H51  1  0.32826000  0.97619000  0.77778000  1.0
  H  H52  1  0.71114000  0.32951000  0.47286000  1.0
  H  H53  1  0.94940000  0.00105000  0.02398000  1.0
  C  C54  1  0.71857000  0.62392000  0.43285000  1.0
  C  C55  1  0.35253000  0.64253000  0.34596000  1.0
  C  C56  1  0.34749000  0.24702000  0.38649000  1.0
  C  C57  1  0.38179000  0.61184000  0.43498000  1.0
  C  C58  1  0.21235000  0.14695000  0.27354000  1.0
  C  C59  1  0.20727000  0.12374000  0.22620000  1.0
  C  C60  1  0.43009000  0.20828000  0.22370000  1.0
  C  C61  1  0.43515000  0.23133000  0.27103000  1.0
  C  C62  1  0.32626000  0.20020000  0.29677000  1.0
  C  C63  1  0.31597000  0.15307000  0.20064000  1.0
  C  C64  1  0.30898000  0.12318000  0.15295000  1.0
  C  C65  1  0.36009000  0.63534000  0.38813000  1.0
  C  C66  1  0.33394000  0.22344000  0.34511000  1.0
  C  C67  1  0.29926000  0.09310000  0.11225000  1.0
  C  C68  1  0.76738000  0.64689000  0.38615000  1.0
  C  C69  1  0.37972000  0.29459000  0.43278000  1.0
  C  C70  1  0.85745000  0.58517000  0.27565000  1.0
  C  C71  1  0.87172000  0.58564000  0.22777000  1.0
  C  C72  1  0.78132000  0.71998000  0.21821000  1.0
  C  C73  1  0.76920000  0.71956000  0.26648000  1.0
  C  C74  1  0.80626000  0.65314000  0.29572000  1.0
  C  C75  1  0.83542000  0.65307000  0.19868000  1.0
  C  C76  1  0.21662000  0.61471000  0.23779000  1.0
  C  C77  1  0.85885000  0.65835000  0.15028000  1.0
  C  C78  1  0.78791000  0.65154000  0.34441000  1.0
  C  C79  1  0.88522000  0.66912000  0.10895000  1.0
  C  C80  1  0.36431000  0.64527000  0.61090000  1.0
  C  C81  1  0.71365000  0.61855000  0.56556000  1.0
  C  C82  1  0.27491000  0.55580000  0.72789000  1.0
  C  C83  1  0.27045000  0.55841000  0.77639000  1.0
  C  C84  1  0.39923000  0.77602000  0.77353000  1.0
  C  C85  1  0.40603000  0.77243000  0.72533000  1.0
  C  C86  1  0.34383000  0.66182000  0.70167000  1.0
  C  C87  1  0.32865000  0.67765000  0.20267000  1.0
  C  C88  1  0.33238000  0.66996000  0.80017000  1.0
  C  C89  1  0.32400000  0.68005000  0.84903000  1.0
  C  C90  1  0.35361000  0.65485000  0.65271000  1.0
  C  C91  1  0.31515000  0.69747000  0.89030000  1.0
  C  C92  1  0.34577000  0.23739000  0.61201000  1.0
  C  C93  1  0.39042000  0.62125000  0.56445000  1.0
  C  C94  1  0.33230000  0.08041000  0.71776000  1.0
  C  C95  1  0.33214000  0.05930000  0.76520000  1.0
  C  C96  1  0.33923000  0.25135000  0.78145000  1.0
  C  C97  1  0.33893000  0.27215000  0.73402000  1.0
  C  C98  1  0.27844000  0.54601000  0.26133000  1.0
  C  C99  1  0.33541000  0.18715000  0.70145000  1.0
  C  C100  1  0.33514000  0.14417000  0.79773000  1.0
  C  C101  1  0.32920000  0.11955000  0.84600000  1.0
  C  C102  1  0.33900000  0.21189000  0.65325000  1.0
  C  C103  1  0.31921000  0.09545000  0.88744000  1.0
  C  C104  1  0.76438000  0.64974000  0.61132000  1.0
  C  C105  1  0.37160000  0.28760000  0.56568000  1.0
  C  C106  1  0.88359000  0.77200000  0.72352000  1.0
  C  C107  1  0.90861000  0.77756000  0.77086000  1.0
  C  C108  1  0.78963000  0.55630000  0.77305000  1.0
  C  C109  1  0.34449000  0.65214000  0.29727000  1.0
  C  C110  1  0.76463000  0.55067000  0.72571000  1.0
  C  C111  1  0.81334000  0.66149000  0.70076000  1.0
  C  C112  1  0.85988000  0.66666667  0.79580000  1.0
  C  C113  1  0.88331000  0.66861000  0.84395000  1.0
  C  C114  1  0.78959000  0.65949000  0.65263000  1.0
  C  C115  1  0.90766000  0.67807000  0.88532000  1.0
  C  C116  1  0.27211000  0.04066000  0.06658000  1.0
  C  C117  1  0.28097000  0.72171000  0.27268000  1.0
  C  C118  1  0.28796000  0.72836000  0.06591000  1.0
  C  C119  1  0.94076000  0.69892000  0.06338000  1.0
  C  C120  1  0.39150000  0.60893000  0.22761000  1.0
  C  C121  1  0.29110000  0.04677000  0.93397000  1.0
  C  C122  1  0.28685000  0.72101000  0.93641000  1.0
  C  C123  1  0.95643000  0.70951000  0.93135000  1.0
  C  C124  1  0.39556000  0.78538000  0.23852000  1.0
  C  C125  1  0.31172000  0.70348000  0.11234000  1.0
  C  C126  1  0.46473000  0.91542000  0.22433000  1.0
  C  C127  1  0.52702000  0.99888000  0.26546000  1.0
  C  C128  1  0.74175000  0.79178000  0.18749000  1.0
  C  C129  1  0.84636000  0.91921000  0.17732000  1.0
  C  C130  1  0.20669000  0.44372000  0.80339000  1.0
  C  C131  1  0.45624000  0.71540000  0.26226000  1.0
  C  C132  1  0.21739000  0.77720000  0.29997000  1.0
  C  C133  1  0.16778000  0.84339000  0.26956000  1.0
  C  C134  1  0.98498000  0.89457000  0.79581000  1.0
  C  C135  1  0.01818000  0.00834000  0.76754000  1.0
  C  C136  1  0.68860000  0.43327000  0.70093000  1.0
  C  C137  1  0.65290000  0.32018000  0.72999000  1.0
  C  C138  1  0.32028000  0.69050000  0.15410000  1.0
  O  O139  1  0.48746000  0.32355000  0.44587000  1.0
  O  O140  1  0.19014000  0.64972000  0.04622000  1.0
  O  O141  1  0.97552000  0.62531000  0.04659000  1.0
  O  O142  1  0.70330000  0.52835000  0.45256000  1.0
  O  O143  1  0.98254000  0.81409000  0.94483000  1.0
  O  O144  1  0.18897000  0.02599000  0.95122000  1.0
  O  O145  1  0.37169000  0.02358000  0.95313000  1.0
  O  O146  1  0.36206000  0.81998000  0.95558000  1.0
  O  O147  1  0.18375000  0.64266000  0.95378000  1.0
  O  O148  1  0.97369000  0.63127000  0.95450000  1.0
  O  O149  1  0.16404000  0.83247000  0.99962000  1.0
  O  O150  1  0.49457000  0.69614000  0.54682000  1.0
  O  O151  1  0.68913000  0.70137000  0.44963000  1.0
  O  O152  1  0.48030000  0.68952000  0.45466000  1.0
  O  O153  1  0.30346000  0.51095000  0.45309000  1.0
  O  O154  1  0.29767000  0.30786000  0.45620000  1.0
  O  O155  1  0.47003000  0.30318000  0.54651000  1.0
  O  O156  1  0.68127000  0.51219000  0.55255000  1.0
  O  O157  1  0.70100000  0.69927000  0.54205000  1.0
  O  O158  1  0.23379000  0.42943000  0.84283000  1.0
  O  O159  1  0.11640000  0.35375000  0.77836000  1.0
  O  O160  1  0.31094000  0.52398000  0.54548000  1.0
  O  O161  1  0.29341000  0.31727000  0.54868000  1.0
  O  O162  1  0.50075000  0.50118000  0.49949000  1.0
  O  O163  1  0.95600000  0.79571000  0.04482000  1.0
  O  O164  1  0.16476000  0.00737000  0.05180000  1.0
  O  O165  1  0.35777000  0.02851000  0.04547000  1.0
  O  O166  1  0.36387000  0.83090000  0.04823000  1.0
  O  O167  1  0.66749000  0.32769000  0.50113000  1.0
  O  O168  1  0.98352000  0.99217000  0.99482000  1.0
