# generated using pymatgen
data_Al2H10C14BrO10
_symmetry_space_group_name_H-M   'P 1'
_cell_length_a   6.66849000
_cell_length_b   13.49850000
_cell_length_c   16.79060000
_cell_angle_alpha   89.12040000
_cell_angle_beta   88.86830000
_cell_angle_gamma   89.73310000
_symmetry_Int_Tables_number   1
_chemical_formula_structural   Al2H10C14BrO10
_chemical_formula_sum   'Al4 H20 C28 Br2 O20'
_cell_volume   1510.91212803
_cell_formula_units_Z   2
loop_
 _symmetry_equiv_pos_site_id
 _symmetry_equiv_pos_as_xyz
  1  'x, y, z'
loop_
 _atom_site_type_symbol
 _atom_site_label
 _atom_site_symmetry_multiplicity
 _atom_site_fract_x
 _atom_site_fract_y
 _atom_site_fract_z
 _atom_site_occupancy
  Al  Al0  1  0.10031000  0.49761000  0.49740000  1.0
  Al  Al1  1  0.60029000  0.49238000  0.49714000  1.0
  Al  Al2  1  0.62801000  0.01400000  0.99321000  1.0
  Al  Al3  1  0.12591000  0.01006000  0.99431000  1.0
  H  H4  1  0.03089000  0.41325000  0.76768000  1.0
  H  H5  1  0.22155000  0.22366000  0.77740000  1.0
  H  H6  1  0.70326000  0.09437000  0.72544000  1.0
  H  H7  1  0.51228000  0.28405000  0.71543000  1.0
  H  H8  1  0.16818000  0.31673000  0.29700000  1.0
  H  H9  1  0.71084000  0.28487000  0.30799000  1.0
  H  H10  1  0.17051000  0.20523000  0.18176000  1.0
  H  H11  1  0.10610000  0.79603000  0.82237000  1.0
  H  H12  1  0.52039000  0.70043000  0.68370000  1.0
  H  H13  1  0.09529000  0.79671000  0.17856000  1.0
  H  H14  1  0.06967000  0.70536000  0.30500000  1.0
  H  H15  1  0.52987000  0.68696000  0.29401000  1.0
  H  H16  1  0.70161000  0.33470000  0.86014000  1.0
  H  H17  1  0.70964000  0.20050000  0.19922000  1.0
  H  H18  1  0.06050000  0.70071000  0.70293000  1.0
  H  H19  1  0.03167000  0.17290000  0.63297000  1.0
  H  H20  1  0.34074000  0.37454000  0.53451000  1.0
  H  H21  1  0.84099000  0.61834000  0.52649000  1.0
  H  H22  1  0.37217000  0.13580000  0.96580000  1.0
  H  H23  1  0.87375000  0.87941000  0.99093000  1.0
  C  C24  1  0.34256000  0.61540000  0.60438000  1.0
  C  C25  1  0.36203000  0.60954000  0.38652000  1.0
  C  C26  1  0.86426000  0.37898000  0.39038000  1.0
  C  C27  1  0.84327000  0.37739000  0.60876000  1.0
  C  C28  1  0.95841000  0.34162000  0.75945000  1.0
  C  C29  1  0.77427000  0.29978000  0.80866000  1.0
  C  C30  1  0.88276000  0.19597000  0.81281000  1.0
  C  C31  1  0.06446000  0.23776000  0.76311000  1.0
  C  C32  1  0.95914000  0.20806000  0.68436000  1.0
  C  C33  1  0.77510000  0.16619000  0.73356000  1.0
  C  C34  1  0.66918000  0.26998000  0.72996000  1.0
  C  C35  1  0.85072000  0.31200000  0.68032000  1.0
  C  C36  1  0.02450000  0.28681000  0.27858000  1.0
  C  C37  1  0.85971000  0.31209000  0.32180000  1.0
  C  C38  1  0.02535000  0.22335000  0.20943000  1.0
  C  C39  1  0.86038000  0.18581000  0.17583000  1.0
  C  C40  1  0.23708000  0.78812000  0.78254000  1.0
  C  C41  1  0.39447000  0.84355000  0.80527000  1.0
  C  C42  1  0.21401000  0.72252000  0.71602000  1.0
  C  C43  1  0.36504000  0.68338000  0.67165000  1.0
  C  C44  1  0.23283000  0.78725000  0.21253000  1.0
  C  C45  1  0.38823000  0.84079000  0.18184000  1.0
  C  C46  1  0.22023000  0.72203000  0.28160000  1.0
  C  C47  1  0.37745000  0.67681000  0.31663000  1.0
  C  C48  1  0.37313000  0.89806000  0.10501000  1.0
  C  C49  1  0.38900000  0.90107000  0.88126000  1.0
  C  C50  1  0.88696000  0.13106000  0.88447000  1.0
  C  C51  1  0.86698000  0.12329000  0.10471000  1.0
  Br  Br52  1  0.64087000  0.85720000  0.74692000  1.0
  Br  Br53  1  0.64325000  0.85232000  0.22944000  1.0
  O  O54  1  0.52910000  0.57212000  0.40782000  1.0
  O  O55  1  0.16939000  0.58548000  0.58481000  1.0
  O  O56  1  0.01192000  0.39816000  0.57534000  1.0
  O  O57  1  0.19239000  0.59450000  0.42080000  1.0
  O  O58  1  0.03142000  0.41501000  0.41061000  1.0
  O  O59  1  0.50963000  0.59287000  0.57026000  1.0
  O  O60  1  0.34829000  0.43414000  0.50164000  1.0
  O  O61  1  0.69458000  0.39511000  0.42462000  1.0
  O  O62  1  0.67146000  0.40788000  0.58675000  1.0
  O  O63  1  0.84839000  0.55596000  0.49874000  1.0
  O  O64  1  0.21858000  0.91271000  0.91559000  1.0
  O  O65  1  0.53717000  0.91627000  0.06836000  1.0
  O  O66  1  0.69638000  0.09482000  0.08052000  1.0
  O  O67  1  0.55657000  0.93170000  0.90513000  1.0
  O  O68  1  0.71705000  0.11272000  0.91799000  1.0
  O  O69  1  0.19911000  0.92262000  0.08182000  1.0
  O  O70  1  0.37452000  0.07155000  0.99234000  1.0
  O  O71  1  0.05625000  0.09820000  0.90728000  1.0
  O  O72  1  0.03642000  0.10343000  0.07198000  1.0
  O  O73  1  0.87694000  0.95098000  0.99223000  1.0
