# generated using pymatgen
data_HoCuH15C16N2O13
_symmetry_space_group_name_H-M   'P 1'
_cell_length_a   10.74730000
_cell_length_b   13.89660000
_cell_length_c   19.61300000
_cell_angle_alpha   89.99960000
_cell_angle_beta   100.73200000
_cell_angle_gamma   89.99960000
_symmetry_Int_Tables_number   1
_chemical_formula_structural   HoCuH15C16N2O13
_chemical_formula_sum   'Ho4 Cu4 H60 C64 N8 O52'
_cell_volume   2877.98463697
_cell_formula_units_Z   4
loop_
 _symmetry_equiv_pos_site_id
 _symmetry_equiv_pos_as_xyz
  1  'x, y, z'
loop_
 _atom_site_type_symbol
 _atom_site_label
 _atom_site_symmetry_multiplicity
 _atom_site_fract_x
 _atom_site_fract_y
 _atom_site_fract_z
 _atom_site_occupancy
  Ho  Ho0  1  0.15496000  0.56842000  0.05885000  1.0
  Ho  Ho1  1  0.84504000  0.06842000  0.44114000  1.0
  Ho  Ho2  1  0.84504000  0.43159000  0.94115000  1.0
  Ho  Ho3  1  0.15496000  0.93159000  0.55886000  1.0
  Cu  Cu4  1  0.24797000  0.06810000  0.22382000  1.0
  Cu  Cu5  1  0.75202000  0.56810000  0.27616000  1.0
  Cu  Cu6  1  0.75200000  0.93188000  0.77616000  1.0
  Cu  Cu7  1  0.24801000  0.43188000  0.72386000  1.0
  H  H8  1  0.22860000  0.07558000  0.05409000  1.0
  H  H9  1  0.77141000  0.57558000  0.44591000  1.0
  H  H10  1  0.77140000  0.92441000  0.94591000  1.0
  H  H11  1  0.22860000  0.42441000  0.55409000  1.0
  H  H12  1  0.09266000  0.09619000  0.06659000  1.0
  H  H13  1  0.90734000  0.59619000  0.43341000  1.0
  H  H14  1  0.90734000  0.90380000  0.93341000  1.0
  H  H15  1  0.09267000  0.40380000  0.56659000  1.0
  H  H16  1  0.21445000  0.61871000  0.91473000  1.0
  H  H17  1  0.78555000  0.11871000  0.58527000  1.0
  H  H18  1  0.78555000  0.38129000  0.08527000  1.0
  H  H19  1  0.21445000  0.88129000  0.41473000  1.0
  H  H20  1  0.09171000  0.56035000  0.91304000  1.0
  H  H21  1  0.90829000  0.06035000  0.58696000  1.0
  H  H22  1  0.90828000  0.43965000  0.08696000  1.0
  H  H23  1  0.09171000  0.93965000  0.41304000  1.0
  H  H24  1  0.40216000  0.46973000  0.07708000  1.0
  H  H25  1  0.59784000  0.96973000  0.42292000  1.0
  H  H26  1  0.59783000  0.53027000  0.92292000  1.0
  H  H27  1  0.40217000  0.03027000  0.57708000  1.0
  H  H28  1  0.43798000  0.57806000  0.08802000  1.0
  H  H29  1  0.56201000  0.07806000  0.41197000  1.0
  H  H30  1  0.56201000  0.42194000  0.91198000  1.0
  H  H31  1  0.43799000  0.92194000  0.58803000  1.0
  H  H32  1  0.50990000  0.00596000  0.27989000  1.0
  H  H33  1  0.49009000  0.50597000  0.22011000  1.0
  H  H34  1  0.49010000  0.99404000  0.72011000  1.0
  H  H35  1  0.50991000  0.49403000  0.77989000  1.0
  H  H36  1  0.62755000  0.85257000  0.28351000  1.0
  H  H37  1  0.37244000  0.35257000  0.21647000  1.0
  H  H38  1  0.37245000  0.14743000  0.71649000  1.0
  H  H39  1  0.62755000  0.64743000  0.78353000  1.0
  H  H40  1  0.21128000  0.89876000  0.13494000  1.0
  H  H41  1  0.78871000  0.39876000  0.36505000  1.0
  H  H42  1  0.78872000  0.10124000  0.86506000  1.0
  H  H43  1  0.21129000  0.60124000  0.63495000  1.0
  H  H44  1  0.02210000  0.11062000  0.29160000  1.0
  H  H45  1  0.97789000  0.61062000  0.20839000  1.0
  H  H46  1  0.97790000  0.88939000  0.70840000  1.0
  H  H47  1  0.02211000  0.38939000  0.79161000  1.0
  H  H48  1  0.87323000  0.24599000  0.28895000  1.0
  H  H49  1  0.12676000  0.74599000  0.21104000  1.0
  H  H50  1  0.12679000  0.75401000  0.71105000  1.0
  H  H51  1  0.87323000  0.25401000  0.78896000  1.0
  H  H52  1  0.23254000  0.25895000  0.16865000  1.0
  H  H53  1  0.76746000  0.75895000  0.33134000  1.0
  H  H54  1  0.76747000  0.74105000  0.83135000  1.0
  H  H55  1  0.23254000  0.24105000  0.66866000  1.0
  H  H56  1  0.72121000  0.68990000  0.98073000  1.0
  H  H57  1  0.27878000  0.18990000  0.51927000  1.0
  H  H58  1  0.27878000  0.31010000  0.01927000  1.0
  H  H59  1  0.72122000  0.81010000  0.48073000  1.0
  H  H60  1  0.78040000  0.76465000  0.05481000  1.0
  H  H61  1  0.21959000  0.26466000  0.44518000  1.0
  H  H62  1  0.21959000  0.23534000  0.94519000  1.0
  H  H63  1  0.78041000  0.73534000  0.55482000  1.0
  H  H64  1  0.72528000  0.64596000  0.06620000  1.0
  H  H65  1  0.27472000  0.14597000  0.43380000  1.0
  H  H66  1  0.27471000  0.35403000  0.93380000  1.0
  H  H67  1  0.72529000  0.85403000  0.56621000  1.0
  C  C68  1  0.47126000  0.94539000  0.24756000  1.0
  C  C69  1  0.52873000  0.44539000  0.25243000  1.0
  C  C70  1  0.52874000  0.05460000  0.75244000  1.0
  C  C71  1  0.47127000  0.55460000  0.74756000  1.0
  C  C72  1  0.53585000  0.85858000  0.24932000  1.0
  C  C73  1  0.46415000  0.35858000  0.25066000  1.0
  C  C74  1  0.46415000  0.14141000  0.75068000  1.0
  C  C75  1  0.53585000  0.64141000  0.74934000  1.0
  C  C76  1  0.48100000  0.78145000  0.20889000  1.0
  C  C77  1  0.51899000  0.28145000  0.29109000  1.0
  C  C78  1  0.51899000  0.21855000  0.79110000  1.0
  C  C79  1  0.48101000  0.71855000  0.70892000  1.0
  C  C80  1  0.36280000  0.79614000  0.16598000  1.0
  C  C81  1  0.63719000  0.29613000  0.33401000  1.0
  C  C82  1  0.63720000  0.20386000  0.83402000  1.0
  C  C83  1  0.36282000  0.70387000  0.66599000  1.0
  C  C84  1  0.30443000  0.88545000  0.16634000  1.0
  C  C85  1  0.69556000  0.38545000  0.33365000  1.0
  C  C86  1  0.69557000  0.11455000  0.83366000  1.0
  C  C87  1  0.30445000  0.61455000  0.66635000  1.0
  C  C88  1  0.54959000  0.68650000  0.20933000  1.0
  C  C89  1  0.45041000  0.18650000  0.29066000  1.0
  C  C90  1  0.45040000  0.31350000  0.79067000  1.0
  C  C91  1  0.54960000  0.81350000  0.70934000  1.0
  C  C92  1  0.29219000  0.71568000  0.12534000  1.0
  C  C93  1  0.70781000  0.21567000  0.37465000  1.0
  C  C94  1  0.70781000  0.28432000  0.87465000  1.0
  C  C95  1  0.29219000  0.78433000  0.62536000  1.0
  C  C96  1  0.03526000  0.17659000  0.26383000  1.0
  C  C97  1  0.96473000  0.67659000  0.23616000  1.0
  C  C98  1  0.96473000  0.82340000  0.73616000  1.0
  C  C99  1  0.03528000  0.32340000  0.76385000  1.0
  C  C100  1  0.95289000  0.25378000  0.26241000  1.0
  C  C101  1  0.04710000  0.75378000  0.23758000  1.0
  C  C102  1  0.04710000  0.74621000  0.73757000  1.0
  C  C103  1  0.95292000  0.24621000  0.76244000  1.0
  C  C104  1  0.97194000  0.33814000  0.22680000  1.0
  C  C105  1  0.02805000  0.83814000  0.27319000  1.0
  C  C106  1  0.02806000  0.66187000  0.77320000  1.0
  C  C107  1  0.97195000  0.16187000  0.72681000  1.0
  C  C108  1  0.07798000  0.34205000  0.19411000  1.0
  C  C109  1  0.92202000  0.84204000  0.30588000  1.0
  C  C110  1  0.92201000  0.65794000  0.80588000  1.0
  C  C111  1  0.07800000  0.15795000  0.69413000  1.0
  C  C112  1  0.15366000  0.26017000  0.19614000  1.0
  C  C113  1  0.84633000  0.76016000  0.30386000  1.0
  C  C114  1  0.84633000  0.73983000  0.80386000  1.0
  C  C115  1  0.15368000  0.23983000  0.69615000  1.0
  C  C116  1  0.87367000  0.41657000  0.22409000  1.0
  C  C117  1  0.12632000  0.91657000  0.27590000  1.0
  C  C118  1  0.12633000  0.58344000  0.77592000  1.0
  C  C119  1  0.87368000  0.08344000  0.72409000  1.0
  C  C120  1  0.11315000  0.42689000  0.15501000  1.0
  C  C121  1  0.88685000  0.92688000  0.34499000  1.0
  C  C122  1  0.88686000  0.57311000  0.84499000  1.0
  C  C123  1  0.11315000  0.07311000  0.65501000  1.0
  C  C124  1  0.90594000  0.65123000  0.03609000  1.0
  C  C125  1  0.09405000  0.15123000  0.46390000  1.0
  C  C126  1  0.09405000  0.34877000  0.96391000  1.0
  C  C127  1  0.90595000  0.84877000  0.53610000  1.0
  C  C128  1  0.77541000  0.69134000  0.03400000  1.0
  C  C129  1  0.22458000  0.19134000  0.46599000  1.0
  C  C130  1  0.22458000  0.30866000  0.96600000  1.0
  C  C131  1  0.77542000  0.80866000  0.53401000  1.0
  N  N132  1  0.35640000  0.95796000  0.20750000  1.0
  N  N133  1  0.64358000  0.45796000  0.29250000  1.0
  N  N134  1  0.64361000  0.04205000  0.79249000  1.0
  N  N135  1  0.35641000  0.54204000  0.70751000  1.0
  N  N136  1  0.13382000  0.17950000  0.23018000  1.0
  N  N137  1  0.86618000  0.67950000  0.26981000  1.0
  N  N138  1  0.86625000  0.82052000  0.76987000  1.0
  N  N139  1  0.13376000  0.32052000  0.73014000  1.0
  O  O140  1  0.26488000  0.71933000  0.05971000  1.0
  O  O141  1  0.73511000  0.21933000  0.44028000  1.0
  O  O142  1  0.73511000  0.28067000  0.94029000  1.0
  O  O143  1  0.26489000  0.78067000  0.55972000  1.0
  O  O144  1  0.25797000  0.64565000  0.16026000  1.0
  O  O145  1  0.74202000  0.14564000  0.33973000  1.0
  O  O146  1  0.74202000  0.35435000  0.83974000  1.0
  O  O147  1  0.25799000  0.85436000  0.66027000  1.0
  O  O148  1  0.61094000  0.66193000  0.26966000  1.0
  O  O149  1  0.38905000  0.16194000  0.23032000  1.0
  O  O150  1  0.38905000  0.33808000  0.73034000  1.0
  O  O151  1  0.61096000  0.83808000  0.76968000  1.0
  O  O152  1  0.54610000  0.64089000  0.15378000  1.0
  O  O153  1  0.45389000  0.14088000  0.34621000  1.0
  O  O154  1  0.45390000  0.35911000  0.84622000  1.0
  O  O155  1  0.54611000  0.85911000  0.65379000  1.0
  O  O156  1  0.17969000  0.08698000  0.09030000  1.0
  O  O157  1  0.82031000  0.58697000  0.40969000  1.0
  O  O158  1  0.82031000  0.91303000  0.90970000  1.0
  O  O159  1  0.17969000  0.41304000  0.59030000  1.0
  O  O160  1  0.77587000  0.41195000  0.17849000  1.0
  O  O161  1  0.22411000  0.91196000  0.32150000  1.0
  O  O162  1  0.22414000  0.58803000  0.82151000  1.0
  O  O163  1  0.77588000  0.08803000  0.67850000  1.0
  O  O164  1  0.89669000  0.47854000  0.27380000  1.0
  O  O165  1  0.10329000  0.97855000  0.22619000  1.0
  O  O166  1  0.10331000  0.52147000  0.72621000  1.0
  O  O167  1  0.89670000  0.02147000  0.77380000  1.0
  O  O168  1  0.03106000  0.49425000  0.13713000  1.0
  O  O169  1  0.96893000  0.99424000  0.36287000  1.0
  O  O170  1  0.96894000  0.50575000  0.86288000  1.0
  O  O171  1  0.03107000  0.00575000  0.63713000  1.0
  O  O172  1  0.22068000  0.43045000  0.13741000  1.0
  O  O173  1  0.77931000  0.93044000  0.36259000  1.0
  O  O174  1  0.77932000  0.56955000  0.86260000  1.0
  O  O175  1  0.22069000  0.06956000  0.63740000  1.0
  O  O176  1  0.91993000  0.57368000  0.00198000  1.0
  O  O177  1  0.08007000  0.07367000  0.49802000  1.0
  O  O178  1  0.08006000  0.42632000  0.99802000  1.0
  O  O179  1  0.91993000  0.92633000  0.50198000  1.0
  O  O180  1  0.00261000  0.69046000  0.07212000  1.0
  O  O181  1  0.99738000  0.19046000  0.42788000  1.0
  O  O182  1  0.99738000  0.30954000  0.92788000  1.0
  O  O183  1  0.00262000  0.80954000  0.57213000  1.0
  O  O184  1  0.15348000  0.60154000  0.94436000  1.0
  O  O185  1  0.84652000  0.10154000  0.55564000  1.0
  O  O186  1  0.84652000  0.39846000  0.05564000  1.0
  O  O187  1  0.15348000  0.89846000  0.44436000  1.0
  O  O188  1  0.37740000  0.53356000  0.05915000  1.0
  O  O189  1  0.62259000  0.03357000  0.44085000  1.0
  O  O190  1  0.62259000  0.46644000  0.94085000  1.0
  O  O191  1  0.37741000  0.96644000  0.55915000  1.0
