# generated using pymatgen
data_ZnH11C14(N3O2)2
_symmetry_space_group_name_H-M   'P 1'
_cell_length_a   9.73498000
_cell_length_b   9.73504000
_cell_length_c   20.50130000
_cell_angle_alpha   79.89880000
_cell_angle_beta   79.89970000
_cell_angle_gamma   86.20470000
_symmetry_Int_Tables_number   1
_chemical_formula_structural   ZnH11C14(N3O2)2
_chemical_formula_sum   'Zn4 H44 C56 N24 O16'
_cell_volume   1881.89768998
_cell_formula_units_Z   4
loop_
 _symmetry_equiv_pos_site_id
 _symmetry_equiv_pos_as_xyz
  1  'x, y, z'
loop_
 _atom_site_type_symbol
 _atom_site_label
 _atom_site_symmetry_multiplicity
 _atom_site_fract_x
 _atom_site_fract_y
 _atom_site_fract_z
 _atom_site_occupancy
  Zn  Zn0  1  0.22528000  0.16995000  0.04773000  1.0
  Zn  Zn1  1  0.83005000  0.77472000  0.45227000  1.0
  Zn  Zn2  1  0.77471000  0.83005000  0.95227000  1.0
  Zn  Zn3  1  0.16996000  0.22528000  0.54773000  1.0
  H  H4  1  0.17168000  0.15484000  0.79726000  1.0
  H  H5  1  0.84517000  0.82832000  0.70274000  1.0
  H  H6  1  0.82833000  0.84516000  0.20274000  1.0
  H  H7  1  0.15483000  0.17168000  0.29726000  1.0
  H  H8  1  0.40576000  0.46677000  0.65484000  1.0
  H  H9  1  0.53323000  0.59424000  0.84516000  1.0
  H  H10  1  0.59422000  0.53325000  0.34516000  1.0
  H  H11  1  0.46676000  0.40577000  0.15484000  1.0
  H  H12  1  0.44854000  0.40406000  0.86396000  1.0
  H  H13  1  0.59595000  0.55147000  0.63604000  1.0
  H  H14  1  0.55147000  0.59594000  0.13604000  1.0
  H  H15  1  0.40405000  0.44853000  0.36396000  1.0
  H  H16  1  0.34805000  0.92792000  0.96094000  1.0
  H  H17  1  0.07208000  0.65196000  0.53906000  1.0
  H  H18  1  0.65195000  0.07208000  0.03906000  1.0
  H  H19  1  0.92792000  0.34804000  0.46094000  1.0
  H  H20  1  0.22625000  0.90256000  0.16986000  1.0
  H  H21  1  0.09743000  0.77376000  0.33014000  1.0
  H  H22  1  0.77374000  0.09744000  0.83014000  1.0
  H  H23  1  0.90258000  0.22624000  0.66986000  1.0
  H  H24  1  0.45724000  0.57057000  0.04274000  1.0
  H  H25  1  0.42943000  0.54276000  0.45727000  1.0
  H  H26  1  0.54276000  0.42943000  0.95727000  1.0
  H  H27  1  0.57058000  0.45724000  0.54274000  1.0
  H  H28  1  0.44939000  0.67314000  0.96232000  1.0
  H  H29  1  0.32685000  0.55061000  0.53768000  1.0
  H  H30  1  0.55061000  0.32686000  0.03768000  1.0
  H  H31  1  0.67315000  0.44939000  0.46232000  1.0
  H  H32  1  0.29622000  0.46521000  0.98283000  1.0
  H  H33  1  0.53480000  0.70377000  0.51717000  1.0
  H  H34  1  0.70378000  0.53479000  0.01717000  1.0
  H  H35  1  0.46521000  0.29623000  0.48283000  1.0
  H  H36  1  0.20936000  0.51482000  0.05952000  1.0
  H  H37  1  0.48518000  0.79064000  0.44048000  1.0
  H  H38  1  0.79065000  0.48517000  0.94048000  1.0
  H  H39  1  0.51483000  0.20936000  0.55952000  1.0
  H  H40  1  0.07045000  0.82494000  0.84377000  1.0
  H  H41  1  0.17505000  0.92955000  0.65623000  1.0
  H  H42  1  0.92956000  0.17506000  0.15623000  1.0
  H  H43  1  0.82494000  0.07045000  0.34377000  1.0
  H  H44  1  0.98099000  0.65284000  0.04894000  1.0
  H  H45  1  0.34717000  0.01901000  0.45107000  1.0
  H  H46  1  0.01901000  0.34714000  0.95106000  1.0
  H  H47  1  0.65284000  0.98099000  0.54894000  1.0
  C  C48  1  0.30389000  0.27622000  0.83787000  1.0
  C  C49  1  0.72380000  0.69610000  0.66213000  1.0
  C  C50  1  0.69610000  0.72379000  0.16213000  1.0
  C  C51  1  0.27621000  0.30390000  0.33787000  1.0
  C  C52  1  0.24612000  0.23786000  0.78618000  1.0
  C  C53  1  0.76215000  0.75388000  0.71382000  1.0
  C  C54  1  0.75388000  0.76214000  0.21382000  1.0
  C  C55  1  0.23785000  0.24612000  0.28618000  1.0
  C  C56  1  0.28493000  0.30654000  0.72015000  1.0
  C  C57  1  0.69346000  0.71506000  0.77985000  1.0
  C  C58  1  0.71506000  0.69347000  0.27985000  1.0
  C  C59  1  0.30653000  0.28494000  0.22015000  1.0
  C  C60  1  0.38058000  0.41312000  0.70641000  1.0
  C  C61  1  0.58688000  0.61942000  0.79358000  1.0
  C  C62  1  0.61940000  0.58689000  0.29359000  1.0
  C  C63  1  0.41311000  0.38058000  0.20641000  1.0
  C  C64  1  0.44196000  0.45100000  0.75739000  1.0
  C  C65  1  0.54900000  0.55804000  0.74260000  1.0
  C  C66  1  0.55803000  0.54901000  0.24261000  1.0
  C  C67  1  0.45100000  0.44196000  0.25739000  1.0
  C  C68  1  0.40151000  0.38084000  0.82306000  1.0
  C  C69  1  0.61916000  0.59850000  0.67694000  1.0
  C  C70  1  0.59849000  0.61915000  0.17694000  1.0
  C  C71  1  0.38084000  0.40151000  0.32306000  1.0
  C  C72  1  0.26107000  0.20484000  0.90891000  1.0
  C  C73  1  0.79517000  0.73893000  0.59109000  1.0
  C  C74  1  0.73892000  0.79516000  0.09109000  1.0
  C  C75  1  0.20483000  0.26107000  0.40891000  1.0
  C  C76  1  0.22563000  0.26269000  0.66477000  1.0
  C  C77  1  0.73731000  0.77438000  0.83523000  1.0
  C  C78  1  0.77437000  0.73730000  0.33523000  1.0
  C  C79  1  0.26270000  0.22562000  0.16477000  1.0
  C  C80  1  0.32838000  0.89035000  0.01463000  1.0
  C  C81  1  0.10965000  0.67162000  0.48537000  1.0
  C  C82  1  0.67161000  0.10965000  0.98537000  1.0
  C  C83  1  0.89035000  0.32838000  0.51463000  1.0
  C  C84  1  0.26501000  0.87206000  0.12132000  1.0
  C  C85  1  0.12794000  0.73499000  0.37868000  1.0
  C  C86  1  0.73498000  0.12794000  0.87868000  1.0
  C  C87  1  0.87207000  0.26501000  0.62132000  1.0
  C  C88  1  0.38905000  0.63692000  0.01221000  1.0
  C  C89  1  0.36307000  0.61094000  0.48779000  1.0
  C  C90  1  0.61094000  0.36308000  0.98779000  1.0
  C  C91  1  0.63693000  0.38905000  0.51221000  1.0
  C  C92  1  0.26305000  0.55468000  0.00873000  1.0
  C  C93  1  0.44532000  0.73694000  0.49127000  1.0
  C  C94  1  0.73695000  0.44532000  0.99127000  1.0
  C  C95  1  0.55468000  0.26305000  0.50873000  1.0
  C  C96  1  0.08232000  0.76728000  0.89289000  1.0
  C  C97  1  0.23272000  0.91768000  0.60711000  1.0
  C  C98  1  0.91768000  0.23272000  0.10711000  1.0
  C  C99  1  0.76728000  0.08232000  0.39289000  1.0
  C  C100  1  0.03189000  0.68082000  0.99723000  1.0
  C  C101  1  0.31919000  0.96811000  0.50278000  1.0
  C  C102  1  0.96812000  0.31917000  0.00277000  1.0
  C  C103  1  0.68082000  0.03188000  0.49723000  1.0
  N  N104  1  0.27723000  0.96585000  0.06256000  1.0
  N  N105  1  0.03415000  0.72278000  0.43743000  1.0
  N  N106  1  0.72277000  0.03415000  0.93744000  1.0
  N  N107  1  0.96586000  0.27721000  0.56256000  1.0
  N  N108  1  0.34616000  0.75780000  0.04407000  1.0
  N  N109  1  0.24220000  0.65385000  0.45592000  1.0
  N  N110  1  0.65384000  0.24220000  0.95593000  1.0
  N  N111  1  0.75781000  0.34615000  0.54407000  1.0
  N  N112  1  0.30526000  0.74333000  0.11196000  1.0
  N  N113  1  0.25667000  0.69475000  0.38804000  1.0
  N  N114  1  0.69474000  0.25667000  0.88804000  1.0
  N  N115  1  0.74334000  0.30526000  0.61196000  1.0
  N  N116  1  0.16314000  0.64168000  0.97324000  1.0
  N  N117  1  0.35833000  0.83685000  0.52676000  1.0
  N  N118  1  0.83686000  0.35832000  0.02676000  1.0
  N  N119  1  0.64168000  0.16314000  0.47324000  1.0
  N  N120  1  0.19776000  0.69655000  0.90680000  1.0
  N  N121  1  0.30344000  0.80224000  0.59320000  1.0
  N  N122  1  0.80224000  0.30345000  0.09320000  1.0
  N  N123  1  0.69655000  0.19776000  0.40680000  1.0
  N  N124  1  0.97698000  0.75954000  0.94718000  1.0
  N  N125  1  0.24047000  0.02302000  0.55282000  1.0
  N  N126  1  0.02302000  0.24046000  0.05282000  1.0
  N  N127  1  0.75952000  0.97698000  0.44718000  1.0
  O  O128  1  0.31100000  0.25575000  0.95478000  1.0
  O  O129  1  0.74427000  0.68900000  0.54521000  1.0
  O  O130  1  0.68900000  0.74427000  0.04522000  1.0
  O  O131  1  0.25573000  0.31100000  0.45478000  1.0
  O  O132  1  0.18074000  0.10505000  0.92214000  1.0
  O  O133  1  0.89496000  0.81926000  0.57786000  1.0
  O  O134  1  0.81928000  0.89495000  0.07785000  1.0
  O  O135  1  0.10505000  0.18072000  0.42214000  1.0
  O  O136  1  0.13792000  0.16843000  0.67765000  1.0
  O  O137  1  0.83157000  0.86208000  0.82234000  1.0
  O  O138  1  0.86208000  0.83156000  0.32234000  1.0
  O  O139  1  0.16842000  0.13793000  0.17766000  1.0
  O  O140  1  0.27035000  0.32408000  0.60346000  1.0
  O  O141  1  0.67591000  0.72965000  0.89653000  1.0
  O  O142  1  0.72965000  0.67592000  0.39654000  1.0
  O  O143  1  0.32407000  0.27034000  0.10347000  1.0
