# generated using pymatgen
data_CdH12C12(NCl)2
_symmetry_space_group_name_H-M   'P 1'
_cell_length_a   7.25605000
_cell_length_b   9.27923000
_cell_length_c   10.75274822
_cell_angle_alpha   115.46543223
_cell_angle_beta   103.44768583
_cell_angle_gamma   90.05100000
_symmetry_Int_Tables_number   1
_chemical_formula_structural   CdH12C12(NCl)2
_chemical_formula_sum   'Cd2 H24 C24 N4 Cl4'
_cell_volume   631.51849954
_cell_formula_units_Z   2
loop_
 _symmetry_equiv_pos_site_id
 _symmetry_equiv_pos_as_xyz
  1  'x, y, z'
loop_
 _atom_site_type_symbol
 _atom_site_label
 _atom_site_symmetry_multiplicity
 _atom_site_fract_x
 _atom_site_fract_y
 _atom_site_fract_z
 _atom_site_occupancy
  Cd  Cd0  1  0.74990000  0.42078000  0.99985000  1.0
  Cd  Cd1  1  0.25010000  0.57922000  0.00015000  1.0
  H  H2  1  0.05589000  0.47199000  0.29191000  1.0
  H  H3  1  0.44362000  0.18038000  0.70801000  1.0
  H  H4  1  0.94411000  0.52801000  0.70809000  1.0
  H  H5  1  0.55638000  0.81962000  0.29199000  1.0
  H  H6  1  0.15408000  0.44806000  0.55554000  1.0
  H  H7  1  0.34601000  0.89323000  0.44444000  1.0
  H  H8  1  0.84592000  0.55194000  0.44446000  1.0
  H  H9  1  0.65399000  0.10677000  0.55556000  1.0
  H  H10  1  0.34658000  0.40381000  0.47574000  1.0
  H  H11  1  0.15320000  0.92836000  0.52398000  1.0
  H  H12  1  0.65342000  0.59619000  0.52426000  1.0
  H  H13  1  0.84680000  0.07163000  0.47601000  1.0
  H  H14  1  0.25797000  0.26909000  0.53090000  1.0
  H  H15  1  0.24195000  0.73885000  0.46923000  1.0
  H  H16  1  0.74203000  0.73091000  0.46910000  1.0
  H  H17  1  0.75805000  0.26114000  0.53077000  1.0
  H  H18  1  0.07241000  0.02722000  0.33110000  1.0
  H  H19  1  0.42768000  0.69665000  0.66914000  1.0
  H  H20  1  0.92759000  0.97278000  0.66890000  1.0
  H  H21  1  0.57233000  0.30335000  0.33086000  1.0
  H  H22  1  0.84548000  0.89696000  0.09707000  1.0
  H  H23  1  0.65445000  0.80013000  0.90314000  1.0
  H  H24  1  0.15453000  0.10304000  0.90293000  1.0
  H  H25  1  0.34556000  0.19988000  0.09686000  1.0
  C  C26  1  0.00894000  0.34508000  0.25567000  1.0
  C  C27  1  0.49067000  0.08974000  0.74435000  1.0
  C  C28  1  0.99106000  0.65492000  0.74433000  1.0
  C  C29  1  0.50932000  0.91026000  0.25565000  1.0
  C  C30  1  0.07927000  0.26402000  0.33762000  1.0
  C  C31  1  0.42041000  0.92690000  0.66248000  1.0
  C  C32  1  0.92074000  0.73598000  0.66238000  1.0
  C  C33  1  0.57958000  0.07310000  0.33752000  1.0
  C  C34  1  0.21596000  0.34981000  0.48173000  1.0
  C  C35  1  0.28389000  0.86866000  0.51827000  1.0
  C  C36  1  0.78404000  0.65019000  0.51827000  1.0
  C  C37  1  0.71611000  0.13134000  0.48173000  1.0
  C  C38  1  0.01807000  0.09961000  0.27606000  1.0
  C  C39  1  0.48181000  0.82403000  0.72414000  1.0
  C  C40  1  0.98193000  0.90039000  0.72394000  1.0
  C  C41  1  0.51820000  0.17597000  0.27586000  1.0
  C  C42  1  0.88933000  0.02532000  0.14264000  1.0
  C  C43  1  0.61055000  0.88297000  0.85754000  1.0
  C  C44  1  0.11067000  0.97468000  0.85736000  1.0
  C  C45  1  0.38946000  0.11703000  0.14246000  1.0
  C  C46  1  0.82074000  0.11691000  0.07045000  1.0
  C  C47  1  0.67899000  0.04661000  0.92968000  1.0
  C  C48  1  0.17926000  0.88310000  0.92955000  1.0
  C  C49  1  0.32101000  0.95340000  0.07032000  1.0
  N  N50  1  0.88383000  0.27442000  0.12776000  1.0
  N  N51  1  0.61577000  0.14682000  0.87228000  1.0
  N  N52  1  0.11617000  0.72559000  0.87225000  1.0
  N  N53  1  0.38423000  0.85318000  0.12772000  1.0
  Cl  Cl54  1  0.98953000  0.67078000  0.16670000  1.0
  Cl  Cl55  1  0.51029000  0.50420000  0.83310000  1.0
  Cl  Cl56  1  0.01048000  0.32922000  0.83330000  1.0
  Cl  Cl57  1  0.48970000  0.49580000  0.16690000  1.0
