# generated using pymatgen
data_Cd3H44C46(N2O3)4
_symmetry_space_group_name_H-M   'P 1'
_cell_length_a   13.18380000
_cell_length_b   15.82840000
_cell_length_c   16.05380000
_cell_angle_alpha   90.87650000
_cell_angle_beta   89.98920000
_cell_angle_gamma   114.61800000
_symmetry_Int_Tables_number   1
_chemical_formula_structural   Cd3H44C46(N2O3)4
_chemical_formula_sum   'Cd6 H88 C92 N16 O24'
_cell_volume   3045.15066338
_cell_formula_units_Z   2
loop_
 _symmetry_equiv_pos_site_id
 _symmetry_equiv_pos_as_xyz
  1  'x, y, z'
loop_
 _atom_site_type_symbol
 _atom_site_label
 _atom_site_symmetry_multiplicity
 _atom_site_fract_x
 _atom_site_fract_y
 _atom_site_fract_z
 _atom_site_occupancy
  Cd  Cd0  1  0.57069000  0.76508000  0.76213000  1.0
  Cd  Cd1  1  0.80560000  0.23484000  0.73793000  1.0
  Cd  Cd2  1  0.42931000  0.23492000  0.23786000  1.0
  Cd  Cd3  1  0.19439000  0.76515000  0.26207000  1.0
  Cd  Cd4  1  0.76785000  0.99990000  0.74997000  1.0
  Cd  Cd5  1  0.23215000  0.00011000  0.25003000  1.0
  H  H6  1  0.80152000  0.94233000  0.51896000  1.0
  H  H7  1  0.85899000  0.05716000  0.98057000  1.0
  H  H8  1  0.19847000  0.05768000  0.48103000  1.0
  H  H9  1  0.14101000  0.94284000  0.01943000  1.0
  H  H10  1  0.93867000  0.96101000  0.40383000  1.0
  H  H11  1  0.97699000  0.03848000  0.09604000  1.0
  H  H12  1  0.06133000  0.03900000  0.59617000  1.0
  H  H13  1  0.02300000  0.96152000  0.90396000  1.0
  H  H14  1  0.98700000  0.72689000  0.49235000  1.0
  H  H15  1  0.25932000  0.27361000  0.00880000  1.0
  H  H16  1  0.01299000  0.27311000  0.50765000  1.0
  H  H17  1  0.74068000  0.72637000  0.99120000  1.0
  H  H18  1  0.84792000  0.70703000  0.60758000  1.0
  H  H19  1  0.14061000  0.29337000  0.89314000  1.0
  H  H20  1  0.15207000  0.29297000  0.39241000  1.0
  H  H21  1  0.85940000  0.70661000  0.10684000  1.0
  H  H22  1  0.66666667  0.05826000  0.90796000  1.0
  H  H23  1  0.60851000  0.94170000  0.59182000  1.0
  H  H24  1  0.33333333  0.94174000  0.09204000  1.0
  H  H25  1  0.39147000  0.05830000  0.40819000  1.0
  H  H26  1  0.34781000  0.84321000  0.97400000  1.0
  H  H27  1  0.50454000  0.15673000  0.52621000  1.0
  H  H28  1  0.65220000  0.15679000  0.02600000  1.0
  H  H29  1  0.49545000  0.84327000  0.47380000  1.0
  H  H30  1  0.49680000  0.63097000  0.59262000  1.0
  H  H31  1  0.86591000  0.36943000  0.90718000  1.0
  H  H32  1  0.50319000  0.36903000  0.40738000  1.0
  H  H33  1  0.13410000  0.63056000  0.09282000  1.0
  H  H34  1  0.29120000  0.79565000  0.74218000  1.0
  H  H35  1  0.49542000  0.20425000  0.75806000  1.0
  H  H36  1  0.70879000  0.20435000  0.25782000  1.0
  H  H37  1  0.50458000  0.79574000  0.24194000  1.0
  H  H38  1  0.29422000  0.85622000  0.64856000  1.0
  H  H39  1  0.43810000  0.14368000  0.85173000  1.0
  H  H40  1  0.70578000  0.14378000  0.35144000  1.0
  H  H41  1  0.56190000  0.85632000  0.14827000  1.0
  H  H42  1  0.41899000  0.88067000  0.70566000  1.0
  H  H43  1  0.53841000  0.11936000  0.79448000  1.0
  H  H44  1  0.58101000  0.11933000  0.29434000  1.0
  H  H45  1  0.46158000  0.88064000  0.20553000  1.0
  H  H46  1  0.32310000  0.60885000  0.48187000  1.0
  H  H47  1  0.71430000  0.39148000  0.01803000  1.0
  H  H48  1  0.67690000  0.39115000  0.51813000  1.0
  H  H49  1  0.28571000  0.60851000  0.98197000  1.0
  H  H50  1  0.22236000  0.72196000  0.46034000  1.0
  H  H51  1  0.50036000  0.27798000  0.03972000  1.0
  H  H52  1  0.77764000  0.27803000  0.53966000  1.0
  H  H53  1  0.49965000  0.72202000  0.96028000  1.0
  H  H54  1  0.19869000  0.77475000  0.55121000  1.0
  H  H55  1  0.42396000  0.22526000  0.94881000  1.0
  H  H56  1  0.80131000  0.22525000  0.44879000  1.0
  H  H57  1  0.57605000  0.77473000  0.05120000  1.0
  H  H58  1  0.03280000  0.62578000  0.50795000  1.0
  H  H59  1  0.40701000  0.37417000  0.99217000  1.0
  H  H60  1  0.96719000  0.37422000  0.49205000  1.0
  H  H61  1  0.59300000  0.62582000  0.00784000  1.0
  H  H62  1  0.11501000  0.56351000  0.52347000  1.0
  H  H63  1  0.55154000  0.43648000  0.97674000  1.0
  H  H64  1  0.88499000  0.43649000  0.47653000  1.0
  H  H65  1  0.44846000  0.56352000  0.02326000  1.0
  H  H66  1  0.14323000  0.61714000  0.67468000  1.0
  H  H67  1  0.52634000  0.38301000  0.82550000  1.0
  H  H68  1  0.85676000  0.38285000  0.32532000  1.0
  H  H69  1  0.47367000  0.61699000  0.17450000  1.0
  H  H70  1  0.05630000  0.67579000  0.65864000  1.0
  H  H71  1  0.38072000  0.32429000  0.84147000  1.0
  H  H72  1  0.94370000  0.32420000  0.34137000  1.0
  H  H73  1  0.61928000  0.67570000  0.15853000  1.0
  H  H74  1  0.84448000  0.57839000  0.64134000  1.0
  H  H75  1  0.26628000  0.42166000  0.85921000  1.0
  H  H76  1  0.15551000  0.42161000  0.35865000  1.0
  H  H77  1  0.73372000  0.57834000  0.14079000  1.0
  H  H78  1  0.71259000  0.39276000  0.67999000  1.0
  H  H79  1  0.31990000  0.60727000  0.82068000  1.0
  H  H80  1  0.28741000  0.60724000  0.32001000  1.0
  H  H81  1  0.68011000  0.39272000  0.17932000  1.0
  H  H82  1  0.12766000  0.44919000  0.62439000  1.0
  H  H83  1  0.67857000  0.55079000  0.87565000  1.0
  H  H84  1  0.87234000  0.55082000  0.37562000  1.0
  H  H85  1  0.32144000  0.44920000  0.12434000  1.0
  H  H86  1  0.05416000  0.35675000  0.69356000  1.0
  H  H87  1  0.69758000  0.64333000  0.80659000  1.0
  H  H88  1  0.94584000  0.64325000  0.30644000  1.0
  H  H89  1  0.30242000  0.35667000  0.19341000  1.0
  H  H90  1  0.13288000  0.47123000  0.73325000  1.0
  H  H91  1  0.66165000  0.52886000  0.76680000  1.0
  H  H92  1  0.86711000  0.52877000  0.26676000  1.0
  H  H93  1  0.33834000  0.47114000  0.23320000  1.0
  C  C94  1  0.73404000  0.80822000  0.63750000  1.0
  C  C95  1  0.92583000  0.19166000  0.86245000  1.0
  C  C96  1  0.26596000  0.19180000  0.36250000  1.0
  C  C97  1  0.07417000  0.80833000  0.13755000  1.0
  C  C98  1  0.81677000  0.82299000  0.56949000  1.0
  C  C99  1  0.99356000  0.17691000  0.93059000  1.0
  C  C100  1  0.18323000  0.17701000  0.43051000  1.0
  C  C101  1  0.00644000  0.82308000  0.06940000  1.0
  C  C102  1  0.84172000  0.89481000  0.51230000  1.0
  C  C103  1  0.94659000  0.10490000  0.98758000  1.0
  C  C104  1  0.15827000  0.10520000  0.48769000  1.0
  C  C105  1  0.05341000  0.89509000  0.01242000  1.0
  C  C106  1  0.91765000  0.90524000  0.44852000  1.0
  C  C107  1  0.01182000  0.09446000  0.05153000  1.0
  C  C108  1  0.08235000  0.09477000  0.55147000  1.0
  C  C109  1  0.98817000  0.90553000  0.94847000  1.0
  C  C110  1  0.97034000  0.84470000  0.44162000  1.0
  C  C111  1  0.12492000  0.15525000  0.05883000  1.0
  C  C112  1  0.02965000  0.15531000  0.55838000  1.0
  C  C113  1  0.87508000  0.84474000  0.94117000  1.0
  C  C114  1  0.94525000  0.77310000  0.49908000  1.0
  C  C115  1  0.17149000  0.22714000  0.00164000  1.0
  C  C116  1  0.05474000  0.22691000  0.50092000  1.0
  C  C117  1  0.82851000  0.77285000  0.99835000  1.0
  C  C118  1  0.86908000  0.76217000  0.56218000  1.0
  C  C119  1  0.10654000  0.23802000  0.93833000  1.0
  C  C120  1  0.13091000  0.23784000  0.43781000  1.0
  C  C121  1  0.89347000  0.76196000  0.06166000  1.0
  C  C122  1  0.05506000  0.85640000  0.37453000  1.0
  C  C123  1  0.19797000  0.14353000  0.12588000  1.0
  C  C124  1  0.94494000  0.14359000  0.62547000  1.0
  C  C125  1  0.80203000  0.85648000  0.87413000  1.0
  C  C126  1  0.51501000  0.88317000  0.86475000  1.0
  C  C127  1  0.63192000  0.11668000  0.63531000  1.0
  C  C128  1  0.48499000  0.11683000  0.13525000  1.0
  C  C129  1  0.36807000  0.88331000  0.36469000  1.0
  C  C130  1  0.50726000  0.94455000  0.93365000  1.0
  C  C131  1  0.56275000  0.05539000  0.56639000  1.0
  C  C132  1  0.49274000  0.05545000  0.06634000  1.0
  C  C133  1  0.43723000  0.94461000  0.43362000  1.0
  C  C134  1  0.59361000  0.03288000  0.94803000  1.0
  C  C135  1  0.56086000  0.96713000  0.55182000  1.0
  C  C136  1  0.40639000  0.96713000  0.05197000  1.0
  C  C137  1  0.43911000  0.03287000  0.44818000  1.0
  C  C138  1  0.41389000  0.91216000  0.98593000  1.0
  C  C139  1  0.50169000  0.08779000  0.51422000  1.0
  C  C140  1  0.58611000  0.08785000  0.01407000  1.0
  C  C141  1  0.49829000  0.91221000  0.48578000  1.0
  C  C142  1  0.43764000  0.66226000  0.59296000  1.0
  C  C143  1  0.77543000  0.33806000  0.90691000  1.0
  C  C144  1  0.56235000  0.33774000  0.40705000  1.0
  C  C145  1  0.22457000  0.66194000  0.09309000  1.0
  C  C146  1  0.36165000  0.75421000  0.63665000  1.0
  C  C147  1  0.60750000  0.24586000  0.86343000  1.0
  C  C148  1  0.63834000  0.24578000  0.36335000  1.0
  C  C149  1  0.39250000  0.75414000  0.13657000  1.0
  C  C150  1  0.33925000  0.82507000  0.68560000  1.0
  C  C151  1  0.51421000  0.17490000  0.81460000  1.0
  C  C152  1  0.66074000  0.17493000  0.31440000  1.0
  C  C153  1  0.48579000  0.82510000  0.18540000  1.0
  C  C154  1  0.35299000  0.65065000  0.53812000  1.0
  C  C155  1  0.70239000  0.34962000  0.96181000  1.0
  C  C156  1  0.64701000  0.34935000  0.46188000  1.0
  C  C157  1  0.29761000  0.65038000  0.03819000  1.0
  C  C158  1  0.20725000  0.71270000  0.52740000  1.0
  C  C159  1  0.49453000  0.28729000  0.97268000  1.0
  C  C160  1  0.79275000  0.28729000  0.47260000  1.0
  C  C161  1  0.50548000  0.71270000  0.02733000  1.0
  C  C162  1  0.10241000  0.62480000  0.54487000  1.0
  C  C163  1  0.47765000  0.37520000  0.95528000  1.0
  C  C164  1  0.89759000  0.37520000  0.45514000  1.0
  C  C165  1  0.52235000  0.62479000  0.04472000  1.0
  C  C166  1  0.07296000  0.61643000  0.63739000  1.0
  C  C167  1  0.45671000  0.38366000  0.86279000  1.0
  C  C168  1  0.92704000  0.38357000  0.36262000  1.0
  C  C169  1  0.54330000  0.61634000  0.13721000  1.0
  C  C170  1  0.86584000  0.52089000  0.65479000  1.0
  C  C171  1  0.34511000  0.47918000  0.84568000  1.0
  C  C172  1  0.13416000  0.47911000  0.34521000  1.0
  C  C173  1  0.65490000  0.52082000  0.15432000  1.0
  C  C174  1  0.80231000  0.42984000  0.67419000  1.0
  C  C175  1  0.37259000  0.57024000  0.82637000  1.0
  C  C176  1  0.19769000  0.57016000  0.32581000  1.0
  C  C177  1  0.62741000  0.42976000  0.17364000  1.0
  C  C178  1  0.97597000  0.44768000  0.67540000  1.0
  C  C179  1  0.52841000  0.55241000  0.82482000  1.0
  C  C180  1  0.02402000  0.55232000  0.32461000  1.0
  C  C181  1  0.47160000  0.44759000  0.17518000  1.0
  C  C182  1  0.07828000  0.43055000  0.68188000  1.0
  C  C183  1  0.64782000  0.56953000  0.81823000  1.0
  C  C184  1  0.92172000  0.56945000  0.31813000  1.0
  C  C185  1  0.35218000  0.43047000  0.18177000  1.0
  N  N186  1  0.44207000  0.72636000  0.65365000  1.0
  N  N187  1  0.71577000  0.27379000  0.84633000  1.0
  N  N188  1  0.55793000  0.27364000  0.34636000  1.0
  N  N189  1  0.28424000  0.72620000  0.15366000  1.0
  N  N190  1  0.30533000  0.70883000  0.56630000  1.0
  N  N191  1  0.59655000  0.29127000  0.93377000  1.0
  N  N192  1  0.69466000  0.29117000  0.43371000  1.0
  N  N193  1  0.40345000  0.70873000  0.06623000  1.0
  N  N194  1  0.87135000  0.38544000  0.68675000  1.0
  N  N195  1  0.48602000  0.61466000  0.81361000  1.0
  N  N196  1  0.12864000  0.61456000  0.31325000  1.0
  N  N197  1  0.51399000  0.38534000  0.18639000  1.0
  N  N198  1  0.97552000  0.53154000  0.65626000  1.0
  N  N199  1  0.44414000  0.46854000  0.84401000  1.0
  N  N200  1  0.02448000  0.46846000  0.34374000  1.0
  N  N201  1  0.55587000  0.53146000  0.15599000  1.0
  O  O202  1  0.70265000  0.87305000  0.65559000  1.0
  O  O203  1  0.82956000  0.12687000  0.84436000  1.0
  O  O204  1  0.29735000  0.12697000  0.34440000  1.0
  O  O205  1  0.17043000  0.87312000  0.15564000  1.0
  O  O206  1  0.69494000  0.73038000  0.67386000  1.0
  O  O207  1  0.96476000  0.26946000  0.82600000  1.0
  O  O208  1  0.30507000  0.26965000  0.32615000  1.0
  O  O209  1  0.03524000  0.73053000  0.17399000  1.0
  O  O210  1  0.59000000  0.91783000  0.80840000  1.0
  O  O211  1  0.67210000  0.08195000  0.69165000  1.0
  O  O212  1  0.41000000  0.08217000  0.19160000  1.0
  O  O213  1  0.32789000  0.91805000  0.30835000  1.0
  O  O214  1  0.44833000  0.79774000  0.86376000  1.0
  O  O215  1  0.65075000  0.20213000  0.63632000  1.0
  O  O216  1  0.55167000  0.20227000  0.13625000  1.0
  O  O217  1  0.34925000  0.79787000  0.36368000  1.0
  O  O218  1  0.09217000  0.79408000  0.36911000  1.0
  O  O219  1  0.29743000  0.20584000  0.13127000  1.0
  O  O220  1  0.90782000  0.20591000  0.63089000  1.0
  O  O221  1  0.70257000  0.79418000  0.86873000  1.0
  O  O222  1  0.08209000  0.92815000  0.32974000  1.0
  O  O223  1  0.15331000  0.07171000  0.17059000  1.0
  O  O224  1  0.91791000  0.07186000  0.67025000  1.0
  O  O225  1  0.84670000  0.92830000  0.82941000  1.0
