# generated using pymatgen
data_KHC7NClO4
_symmetry_space_group_name_H-M   'P 1'
_cell_length_a   6.90201000
_cell_length_b   7.04206000
_cell_length_c   17.24380000
_cell_angle_alpha   90.00010000
_cell_angle_beta   90.00050000
_cell_angle_gamma   79.01500000
_symmetry_Int_Tables_number   1
_chemical_formula_structural   KHC7NClO4
_chemical_formula_sum   'K4 H4 C28 N4 Cl4 O16'
_cell_volume   822.76715070
_cell_formula_units_Z   4
loop_
 _symmetry_equiv_pos_site_id
 _symmetry_equiv_pos_as_xyz
  1  'x, y, z'
loop_
 _atom_site_type_symbol
 _atom_site_label
 _atom_site_symmetry_multiplicity
 _atom_site_fract_x
 _atom_site_fract_y
 _atom_site_fract_z
 _atom_site_occupancy
  K  K0  1  0.14595000  0.72780000  0.94149000  1.0
  K  K1  1  0.85407000  0.77221000  0.44150000  1.0
  K  K2  1  0.85404000  0.27217000  0.05851000  1.0
  K  K3  1  0.14594000  0.22782000  0.55851000  1.0
  H  H4  1  0.15921000  0.86303000  0.73887000  1.0
  H  H5  1  0.84082000  0.63696000  0.23888000  1.0
  H  H6  1  0.84078000  0.13697000  0.26113000  1.0
  H  H7  1  0.15918000  0.36303000  0.76112000  1.0
  C  C8  1  0.71482000  0.57397000  0.62347000  1.0
  C  C9  1  0.28521000  0.92603000  0.12347000  1.0
  C  C10  1  0.28518000  0.42606000  0.37653000  1.0
  C  C11  1  0.71480000  0.07398000  0.87653000  1.0
  C  C12  1  0.51886000  0.68985000  0.62282000  1.0
  C  C13  1  0.48115000  0.81014000  0.12283000  1.0
  C  C14  1  0.48113000  0.31016000  0.37718000  1.0
  C  C15  1  0.51886000  0.18984000  0.87717000  1.0
  C  C16  1  0.41504000  0.74107000  0.69009000  1.0
  C  C17  1  0.58496000  0.75892000  0.19010000  1.0
  C  C18  1  0.58495000  0.25892000  0.30991000  1.0
  C  C19  1  0.41505000  0.24106000  0.80990000  1.0
  C  C20  1  0.50696000  0.68554000  0.76815000  1.0
  C  C21  1  0.49305000  0.81448000  0.26815000  1.0
  C  C22  1  0.49303000  0.31446000  0.23185000  1.0
  C  C23  1  0.50696000  0.18552000  0.73185000  1.0
  C  C24  1  0.70308000  0.57070000  0.77072000  1.0
  C  C25  1  0.29694000  0.92931000  0.27073000  1.0
  C  C26  1  0.29691000  0.42930000  0.22928000  1.0
  C  C27  1  0.70309000  0.07071000  0.72927000  1.0
  C  C28  1  0.81256000  0.51157000  0.70238000  1.0
  C  C29  1  0.18744000  0.98843000  0.20239000  1.0
  C  C30  1  0.18744000  0.48844000  0.29762000  1.0
  C  C31  1  0.81257000  0.01157000  0.79761000  1.0
  C  C32  1  0.78383000  0.52283000  0.84478000  1.0
  C  C33  1  0.21619000  0.97716000  0.34479000  1.0
  C  C34  1  0.21617000  0.47716000  0.15522000  1.0
  C  C35  1  0.78384000  0.02284000  0.65520000  1.0
  N  N36  1  0.84763000  0.48406000  0.90698000  1.0
  N  N37  1  0.15237000  0.01595000  0.40697000  1.0
  N  N38  1  0.15236000  0.51592000  0.09303000  1.0
  N  N39  1  0.84765000  0.98408000  0.59302000  1.0
  Cl  Cl40  1  0.41518000  0.76466000  0.53475000  1.0
  Cl  Cl41  1  0.58484000  0.73533000  0.03476000  1.0
  Cl  Cl42  1  0.58482000  0.23538000  0.46525000  1.0
  Cl  Cl43  1  0.41515000  0.26463000  0.96524000  1.0
  O  O44  1  0.81118000  0.52385000  0.56367000  1.0
  O  O45  1  0.18884000  0.97614000  0.06368000  1.0
  O  O46  1  0.18883000  0.47619000  0.43632000  1.0
  O  O47  1  0.81116000  0.02384000  0.93631000  1.0
  O  O48  1  0.23563000  0.84510000  0.68759000  1.0
  O  O49  1  0.76437000  0.65490000  0.18759000  1.0
  O  O50  1  0.76436000  0.15491000  0.31241000  1.0
  O  O51  1  0.23562000  0.34507000  0.81241000  1.0
  O  O52  1  0.40769000  0.74416000  0.82680000  1.0
  O  O53  1  0.59230000  0.75584000  0.32681000  1.0
  O  O54  1  0.59228000  0.25581000  0.17320000  1.0
  O  O55  1  0.40770000  0.24418000  0.67320000  1.0
  O  O56  1  0.98486000  0.41325000  0.69907000  1.0
  O  O57  1  0.01514000  0.08675000  0.19908000  1.0
  O  O58  1  0.01514000  0.58678000  0.30093000  1.0
  O  O59  1  0.98486000  0.91324000  0.80092000  1.0
