# generated using pymatgen
data_AgH16C16S(NO)3
_symmetry_space_group_name_H-M   'P 1'
_cell_length_a   9.51489000
_cell_length_b   9.51494000
_cell_length_c   10.47060000
_cell_angle_alpha   90.95120000
_cell_angle_beta   90.95110000
_cell_angle_gamma   116.81300000
_symmetry_Int_Tables_number   1
_chemical_formula_structural   AgH16C16S(NO)3
_chemical_formula_sum   'Ag2 H32 C32 S2 N6 O6'
_cell_volume   845.59705638
_cell_formula_units_Z   2
loop_
 _symmetry_equiv_pos_site_id
 _symmetry_equiv_pos_as_xyz
  1  'x, y, z'
loop_
 _atom_site_type_symbol
 _atom_site_label
 _atom_site_symmetry_multiplicity
 _atom_site_fract_x
 _atom_site_fract_y
 _atom_site_fract_z
 _atom_site_occupancy
  Ag  Ag0  1  0.16865000  0.66882000  0.00252000  1.0
  Ag  Ag1  1  0.66882000  0.16864000  0.50252000  1.0
  H  H2  1  0.69277000  0.96812000  0.27791000  1.0
  H  H3  1  0.96813000  0.69276000  0.77791000  1.0
  H  H4  1  0.73950000  0.30110000  0.02790000  1.0
  H  H5  1  0.30110000  0.73950000  0.52791000  1.0
  H  H6  1  0.15047000  0.91783000  0.85909000  1.0
  H  H7  1  0.91783000  0.15047000  0.35908000  1.0
  H  H8  1  0.31677000  0.91181000  0.80487000  1.0
  H  H9  1  0.91181000  0.31677000  0.30487000  1.0
  H  H10  1  0.56966000  0.06930000  0.89271000  1.0
  H  H11  1  0.06931000  0.56967000  0.39270000  1.0
  H  H12  1  0.13462000  0.81815000  0.25088000  1.0
  H  H13  1  0.81817000  0.13462000  0.75088000  1.0
  H  H14  1  0.34551000  0.04630000  0.53646000  1.0
  H  H15  1  0.04631000  0.34552000  0.03646000  1.0
  H  H16  1  0.31328000  0.15642000  0.41337000  1.0
  H  H17  1  0.15643000  0.31329000  0.91338000  1.0
  H  H18  1  0.16210000  0.96561000  0.44725000  1.0
  H  H19  1  0.96562000  0.16211000  0.94725000  1.0
  H  H20  1  0.15585000  0.07216000  0.05056000  1.0
  H  H21  1  0.07215000  0.15586000  0.55056000  1.0
  H  H22  1  0.34916000  0.49767000  0.35642000  1.0
  H  H23  1  0.49766000  0.34917000  0.85641000  1.0
  H  H24  1  0.64085000  0.62022000  0.34363000  1.0
  H  H25  1  0.62023000  0.64085000  0.84364000  1.0
  H  H26  1  0.18166000  0.27017000  0.21433000  1.0
  H  H27  1  0.27017000  0.18167000  0.71432000  1.0
  H  H28  1  0.45773000  0.63758000  0.05704000  1.0
  H  H29  1  0.63758000  0.45773000  0.55704000  1.0
  H  H30  1  0.55678000  0.82480000  0.98654000  1.0
  H  H31  1  0.82480000  0.55677000  0.48654000  1.0
  H  H32  1  0.65415000  0.77057000  0.10708000  1.0
  H  H33  1  0.77057000  0.65415000  0.60708000  1.0
  C  C34  1  0.54750000  0.32482000  0.11729000  1.0
  C  C35  1  0.32482000  0.54752000  0.61728000  1.0
  C  C36  1  0.56818000  0.93802000  0.26922000  1.0
  C  C37  1  0.93802000  0.56817000  0.76922000  1.0
  C  C38  1  0.61215000  0.25251000  0.03240000  1.0
  C  C39  1  0.25251000  0.61216000  0.53239000  1.0
  C  C40  1  0.63904000  0.45965000  0.19732000  1.0
  C  C41  1  0.45965000  0.63905000  0.69732000  1.0
  C  C42  1  0.35656000  0.96575000  0.34749000  1.0
  C  C43  1  0.96576000  0.35656000  0.84749000  1.0
  C  C44  1  0.35072000  0.05831000  0.96035000  1.0
  C  C45  1  0.05832000  0.35073000  0.46034000  1.0
  C  C46  1  0.37848000  0.25595000  0.12369000  1.0
  C  C47  1  0.25595000  0.37849000  0.62369000  1.0
  C  C48  1  0.51765000  0.12273000  0.95737000  1.0
  C  C49  1  0.12274000  0.51766000  0.45736000  1.0
  C  C50  1  0.26120000  0.85578000  0.25414000  1.0
  C  C51  1  0.85579000  0.26120000  0.75414000  1.0
  C  C52  1  0.29007000  0.03715000  0.44168000  1.0
  C  C53  1  0.03716000  0.29007000  0.94169000  1.0
  C  C54  1  0.28385000  0.12359000  0.04440000  1.0
  C  C55  1  0.12359000  0.28386000  0.54439000  1.0
  C  C56  1  0.47416000  0.82993000  0.17425000  1.0
  C  C57  1  0.82994000  0.47416000  0.67424000  1.0
  C  C58  1  0.40266000  0.44867000  0.28954000  1.0
  C  C59  1  0.44867000  0.40266000  0.78954000  1.0
  C  C60  1  0.56811000  0.51811000  0.28294000  1.0
  C  C61  1  0.51811000  0.56812000  0.78294000  1.0
  C  C62  1  0.30987000  0.32218000  0.21044000  1.0
  C  C63  1  0.32218000  0.30987000  0.71044000  1.0
  C  C64  1  0.53964000  0.76201000  0.07685000  1.0
  C  C65  1  0.76201000  0.53963000  0.57685000  1.0
  S  S66  1  0.84804000  0.56880000  0.18414000  1.0
  S  S67  1  0.56880000  0.84804000  0.68415000  1.0
  N  N68  1  0.31817000  0.78904000  0.16882000  1.0
  N  N69  1  0.78905000  0.31817000  0.66882000  1.0
  N  N70  1  0.51205000  0.00693000  0.35323000  1.0
  N  N71  1  0.00694000  0.51206000  0.85322000  1.0
  N  N72  1  0.25840000  0.92677000  0.88220000  1.0
  N  N73  1  0.92677000  0.25841000  0.38219000  1.0
  O  O74  1  0.90201000  0.67572000  0.29687000  1.0
  O  O75  1  0.67573000  0.90201000  0.79687000  1.0
  O  O76  1  0.91257000  0.45307000  0.18322000  1.0
  O  O77  1  0.45308000  0.91257000  0.68322000  1.0
  O  O78  1  0.87384000  0.65190000  0.06288000  1.0
  O  O79  1  0.65191000  0.87385000  0.56289000  1.0
