# generated using pymatgen
data_FeH8C12(NO2)2
_symmetry_space_group_name_H-M   'P 1'
_cell_length_a   7.04026000
_cell_length_b   24.81200000
_cell_length_c   24.81765166
_cell_angle_alpha   119.98140640
_cell_angle_beta   89.99509614
_cell_angle_gamma   89.99230000
_symmetry_Int_Tables_number   1
_chemical_formula_structural   FeH8C12(NO2)2
_chemical_formula_sum   'Fe6 H48 C72 N12 O24'
_cell_volume   3755.11391053
_cell_formula_units_Z   6
loop_
 _symmetry_equiv_pos_site_id
 _symmetry_equiv_pos_as_xyz
  1  'x, y, z'
loop_
 _atom_site_type_symbol
 _atom_site_label
 _atom_site_symmetry_multiplicity
 _atom_site_fract_x
 _atom_site_fract_y
 _atom_site_fract_z
 _atom_site_occupancy
  Fe  Fe0  1  0.99899000  0.40846000  0.93522000  1.0
  Fe  Fe1  1  0.00005000  0.06464000  0.47326000  1.0
  Fe  Fe2  1  0.99915000  0.52677000  0.59161000  1.0
  Fe  Fe3  1  0.99953000  0.59162000  0.06472000  1.0
  Fe  Fe4  1  0.00089000  0.93527000  0.52677000  1.0
  Fe  Fe5  1  0.99982000  0.47326000  0.40854000  1.0
  H  H6  1  0.00046000  0.63720000  0.91318000  1.0
  H  H7  1  0.00153000  0.08679000  0.72403000  1.0
  H  H8  1  0.99827000  0.27599000  0.36273000  1.0
  H  H9  1  0.99990000  0.36280000  0.08678000  1.0
  H  H10  1  0.00154000  0.91343000  0.27600000  1.0
  H  H11  1  0.99816000  0.72394000  0.63711000  1.0
  H  H12  1  0.00267000  0.63443000  0.81026000  1.0
  H  H13  1  0.00284000  0.18963000  0.82419000  1.0
  H  H14  1  0.99744000  0.17571000  0.36527000  1.0
  H  H15  1  0.00100000  0.36529000  0.18954000  1.0
  H  H16  1  0.00206000  0.81066000  0.17572000  1.0
  H  H17  1  0.99653000  0.82411000  0.63438000  1.0
  H  H18  1  0.00302000  0.43478000  0.71459000  1.0
  H  H19  1  0.00256000  0.28558000  0.72046000  1.0
  H  H20  1  0.99808000  0.27917000  0.56487000  1.0
  H  H21  1  0.00036000  0.56493000  0.28564000  1.0
  H  H22  1  0.00174000  0.71442000  0.27917000  1.0
  H  H23  1  0.99652000  0.72035000  0.43479000  1.0
  H  H24  1  0.00066000  0.43673000  0.81662000  1.0
  H  H25  1  0.00107000  0.18360000  0.62034000  1.0
  H  H26  1  0.99860000  0.37941000  0.56315000  1.0
  H  H27  1  0.99928000  0.56328000  0.18375000  1.0
  H  H28  1  0.00163000  0.81633000  0.37940000  1.0
  H  H29  1  0.99839000  0.62022000  0.43668000  1.0
  H  H30  1  0.67819000  0.45015000  0.88081000  1.0
  H  H31  1  0.67874000  0.11778000  0.56948000  1.0
  H  H32  1  0.67841000  0.43096000  0.55046000  1.0
  H  H33  1  0.67855000  0.54887000  0.11804000  1.0
  H  H34  1  0.67959000  0.88110000  0.43089000  1.0
  H  H35  1  0.67872000  0.56955000  0.45129000  1.0
  H  H36  1  0.32077000  0.54869000  0.11787000  1.0
  H  H37  1  0.32186000  0.88070000  0.43090000  1.0
  H  H38  1  0.32098000  0.56957000  0.45146000  1.0
  H  H39  1  0.32047000  0.45044000  0.88109000  1.0
  H  H40  1  0.32099000  0.11796000  0.56946000  1.0
  H  H41  1  0.32064000  0.43090000  0.55002000  1.0
  H  H42  1  0.67932000  0.36653000  0.99001000  1.0
  H  H43  1  0.67986000  0.01016000  0.37658000  1.0
  H  H44  1  0.67926000  0.62369000  0.63321000  1.0
  H  H45  1  0.67961000  0.63443000  0.01062000  1.0
  H  H46  1  0.68025000  0.99108000  0.62357000  1.0
  H  H47  1  0.67987000  0.37660000  0.36597000  1.0
  H  H48  1  0.31981000  0.63417000  0.01036000  1.0
  H  H49  1  0.32063000  0.99061000  0.62357000  1.0
  H  H50  1  0.32008000  0.37663000  0.36626000  1.0
  H  H51  1  0.31966000  0.36692000  0.99041000  1.0
  H  H52  1  0.32011000  0.01043000  0.37655000  1.0
  H  H53  1  0.31963000  0.62364000  0.63270000  1.0
  C  C54  1  0.99938000  0.53901000  0.93179000  1.0
  C  C55  1  0.00105000  0.06829000  0.60731000  1.0
  C  C56  1  0.99887000  0.39274000  0.46118000  1.0
  C  C57  1  0.99898000  0.46121000  0.06842000  1.0
  C  C58  1  0.00126000  0.93164000  0.39268000  1.0
  C  C59  1  0.99879000  0.60720000  0.53895000  1.0
  C  C60  1  0.00060000  0.53735000  0.87096000  1.0
  C  C61  1  0.00167000  0.12912000  0.66649000  1.0
  C  C62  1  0.99829000  0.33342000  0.46260000  1.0
  C  C63  1  0.99954000  0.46267000  0.12918000  1.0
  C  C64  1  0.00179000  0.87092000  0.33341000  1.0
  C  C65  1  0.99804000  0.66639000  0.53728000  1.0
  C  C66  1  0.00121000  0.59317000  0.86937000  1.0
  C  C67  1  0.00203000  0.13064000  0.72387000  1.0
  C  C68  1  0.99805000  0.27608000  0.40669000  1.0
  C  C69  1  0.00002000  0.40676000  0.13062000  1.0
  C  C70  1  0.00180000  0.86954000  0.27608000  1.0
  C  C71  1  0.99762000  0.72377000  0.59311000  1.0
  C  C72  1  0.00247000  0.59173000  0.81264000  1.0
  C  C73  1  0.00275000  0.18732000  0.77915000  1.0
  C  C74  1  0.99756000  0.22072000  0.40802000  1.0
  C  C75  1  0.00065000  0.40806000  0.18729000  1.0
  C  C76  1  0.00208000  0.81288000  0.22072000  1.0
  C  C77  1  0.99670000  0.77907000  0.59168000  1.0
  C  C78  1  0.00311000  0.53444000  0.75683000  1.0
  C  C79  1  0.00304000  0.24318000  0.77775000  1.0
  C  C80  1  0.99749000  0.22200000  0.46520000  1.0
  C  C81  1  0.00082000  0.46526000  0.24317000  1.0
  C  C82  1  0.00215000  0.75698000  0.22202000  1.0
  C  C83  1  0.99633000  0.77766000  0.53443000  1.0
  C  C84  1  0.00269000  0.47874000  0.75845000  1.0
  C  C85  1  0.00261000  0.24165000  0.72047000  1.0
  C  C86  1  0.99781000  0.27923000  0.52098000  1.0
  C  C87  1  0.00034000  0.52105000  0.24170000  1.0
  C  C88  1  0.00205000  0.75839000  0.27925000  1.0
  C  C89  1  0.99667000  0.72038000  0.47872000  1.0
  C  C90  1  0.00136000  0.47994000  0.81511000  1.0
  C  C91  1  0.00187000  0.18504000  0.66501000  1.0
  C  C92  1  0.99813000  0.33476000  0.51990000  1.0
  C  C93  1  0.99970000  0.52000000  0.18512000  1.0
  C  C94  1  0.00196000  0.81496000  0.33476000  1.0
  C  C95  1  0.99763000  0.66489000  0.47990000  1.0
  C  C96  1  0.00249000  0.53289000  0.69610000  1.0
  C  C97  1  0.00218000  0.30392000  0.83695000  1.0
  C  C98  1  0.99818000  0.16278000  0.46670000  1.0
  C  C99  1  0.00087000  0.46672000  0.30388000  1.0
  C  C100  1  0.00134000  0.69630000  0.16282000  1.0
  C  C101  1  0.99728000  0.83688000  0.53289000  1.0
  C  C102  1  0.59765000  0.43195000  0.90573000  1.0
  C  C103  1  0.59828000  0.09334000  0.52631000  1.0
  C  C104  1  0.59780000  0.47402000  0.56841000  1.0
  C  C105  1  0.59801000  0.56755000  0.09356000  1.0
  C  C106  1  0.59913000  0.90606000  0.47397000  1.0
  C  C107  1  0.59824000  0.52638000  0.43266000  1.0
  C  C108  1  0.40127000  0.56742000  0.09343000  1.0
  C  C109  1  0.40235000  0.90578000  0.47397000  1.0
  C  C110  1  0.40148000  0.52638000  0.43277000  1.0
  C  C111  1  0.40090000  0.43216000  0.90595000  1.0
  C  C112  1  0.40153000  0.09347000  0.52630000  1.0
  C  C113  1  0.40104000  0.47401000  0.56813000  1.0
  C  C114  1  0.59779000  0.38563000  0.96609000  1.0
  C  C115  1  0.59842000  0.03388000  0.41961000  1.0
  C  C116  1  0.59783000  0.58067000  0.61428000  1.0
  C  C117  1  0.59812000  0.61494000  0.03418000  1.0
  C  C118  1  0.59902000  0.96680000  0.58056000  1.0
  C  C119  1  0.59835000  0.41964000  0.38542000  1.0
  C  C120  1  0.40121000  0.61478000  0.03403000  1.0
  C  C121  1  0.40214000  0.96653000  0.58058000  1.0
  C  C122  1  0.40148000  0.41966000  0.38557000  1.0
  C  C123  1  0.40094000  0.38586000  0.96631000  1.0
  C  C124  1  0.40154000  0.03403000  0.41960000  1.0
  C  C125  1  0.40096000  0.58063000  0.61398000  1.0
  N  N126  1  0.69874000  0.40935000  0.93640000  1.0
  N  N127  1  0.69937000  0.06297000  0.47304000  1.0
  N  N128  1  0.69885000  0.52728000  0.59081000  1.0
  N  N129  1  0.69910000  0.59064000  0.06333000  1.0
  N  N130  1  0.70004000  0.93717000  0.52719000  1.0
  N  N131  1  0.69934000  0.47308000  0.40965000  1.0
  N  N132  1  0.30024000  0.59035000  0.06305000  1.0
  N  N133  1  0.30120000  0.93661000  0.52721000  1.0
  N  N134  1  0.30050000  0.47310000  0.40991000  1.0
  N  N135  1  0.29994000  0.40980000  0.93685000  1.0
  N  N136  1  0.30048000  0.06324000  0.47301000  1.0
  N  N137  1  0.30004000  0.52724000  0.59023000  1.0
  O  O138  1  0.99852000  0.48810000  0.93247000  1.0
  O  O139  1  0.00024000  0.06772000  0.55578000  1.0
  O  O140  1  0.99869000  0.44415000  0.51225000  1.0
  O  O141  1  0.99901000  0.51227000  0.06805000  1.0
  O  O142  1  0.00160000  0.93202000  0.44412000  1.0
  O  O143  1  0.99951000  0.55565000  0.48804000  1.0
  O  O144  1  0.99939000  0.59215000  0.98169000  1.0
  O  O145  1  0.00136000  0.01832000  0.61045000  1.0
  O  O146  1  0.99956000  0.38979000  0.40817000  1.0
  O  O147  1  0.99865000  0.40817000  0.01839000  1.0
  O  O148  1  0.00044000  0.98168000  0.38968000  1.0
  O  O149  1  0.99868000  0.61037000  0.59207000  1.0
  O  O150  1  0.00171000  0.48024000  0.64516000  1.0
  O  O151  1  0.00119000  0.35488000  0.83524000  1.0
  O  O152  1  0.99872000  0.16450000  0.51937000  1.0
  O  O153  1  0.00068000  0.51942000  0.35481000  1.0
  O  O154  1  0.00076000  0.64534000  0.16455000  1.0
  O  O155  1  0.99832000  0.83522000  0.48025000  1.0
  O  O156  1  0.00180000  0.58326000  0.69408000  1.0
  O  O157  1  0.00160000  0.30591000  0.88932000  1.0
  O  O158  1  0.99867000  0.11040000  0.41638000  1.0
  O  O159  1  0.00073000  0.41637000  0.30593000  1.0
  O  O160  1  0.00086000  0.69430000  0.11046000  1.0
  O  O161  1  0.99795000  0.88924000  0.58326000  1.0
