# generated using pymatgen
data_LiH3(C3O)2
_symmetry_space_group_name_H-M   'P 1'
_cell_length_a   5.27943000
_cell_length_b   8.54323000
_cell_length_c   10.35050000
_cell_angle_alpha   80.79080000
_cell_angle_beta   89.99910000
_cell_angle_gamma   89.99960000
_symmetry_Int_Tables_number   1
_chemical_formula_structural   LiH3(C3O)2
_chemical_formula_sum   'Li4 H12 C24 O8'
_cell_volume   460.82525383
_cell_formula_units_Z   4
loop_
 _symmetry_equiv_pos_site_id
 _symmetry_equiv_pos_as_xyz
  1  'x, y, z'
loop_
 _atom_site_type_symbol
 _atom_site_label
 _atom_site_symmetry_multiplicity
 _atom_site_fract_x
 _atom_site_fract_y
 _atom_site_fract_z
 _atom_site_occupancy
  Li  Li0  1  0.88981000  0.85425000  0.01147000  1.0
  Li  Li1  1  0.38982000  0.64577000  0.98852000  1.0
  Li  Li2  1  0.11018000  0.14577000  0.98853000  1.0
  Li  Li3  1  0.61020000  0.35424000  0.01147000  1.0
  H  H4  1  0.17590000  0.21211000  0.72465000  1.0
  H  H5  1  0.67594000  0.28789000  0.27536000  1.0
  H  H6  1  0.82406000  0.78789000  0.27535000  1.0
  H  H7  1  0.32409000  0.71212000  0.72464000  1.0
  H  H8  1  0.05426000  0.17319000  0.50150000  1.0
  H  H9  1  0.55428000  0.32679000  0.49852000  1.0
  H  H10  1  0.94570000  0.82679000  0.49851000  1.0
  H  H11  1  0.44573000  0.67320000  0.50149000  1.0
  H  H12  1  0.85311000  0.93718000  0.70195000  1.0
  H  H13  1  0.35315000  0.56278000  0.29805000  1.0
  H  H14  1  0.14687000  0.06278000  0.29806000  1.0
  H  H15  1  0.64691000  0.43720000  0.70194000  1.0
  C  C16  1  0.52372000  0.07591000  0.72731000  1.0
  C  C17  1  0.02376000  0.42408000  0.27271000  1.0
  C  C18  1  0.47623000  0.92409000  0.27271000  1.0
  C  C19  1  0.97627000  0.57591000  0.72732000  1.0
  C  C20  1  0.38562000  0.03461000  0.47095000  1.0
  C  C21  1  0.88566000  0.46538000  0.52906000  1.0
  C  C22  1  0.61433000  0.96536000  0.52905000  1.0
  C  C23  1  0.11437000  0.53462000  0.47095000  1.0
  C  C24  1  0.29535000  0.14202000  0.66998000  1.0
  C  C25  1  0.79537000  0.35798000  0.33003000  1.0
  C  C26  1  0.70463000  0.85799000  0.33002000  1.0
  C  C27  1  0.20466000  0.64202000  0.66997000  1.0
  C  C28  1  0.22838000  0.12138000  0.54533000  1.0
  C  C29  1  0.72843000  0.37860000  0.45468000  1.0
  C  C30  1  0.77156000  0.87858000  0.45469000  1.0
  C  C31  1  0.27162000  0.62138000  0.54532000  1.0
  C  C32  1  0.67761000  0.98730000  0.65786000  1.0
  C  C33  1  0.17764000  0.51271000  0.34215000  1.0
  C  C34  1  0.32235000  0.01270000  0.34215000  1.0
  C  C35  1  0.82239000  0.48732000  0.65787000  1.0
  C  C36  1  0.60855000  0.11132000  0.85797000  1.0
  C  C37  1  0.10857000  0.38868000  0.14201000  1.0
  C  C38  1  0.39142000  0.88868000  0.14202000  1.0
  C  C39  1  0.89145000  0.61132000  0.85796000  1.0
  O  O40  1  0.82774000  0.06377000  0.89867000  1.0
  O  O41  1  0.32778000  0.43624000  0.10131000  1.0
  O  O42  1  0.17222000  0.93625000  0.10132000  1.0
  O  O43  1  0.67227000  0.56379000  0.89868000  1.0
  O  O44  1  0.46179000  0.19233000  0.92008000  1.0
  O  O45  1  0.96179000  0.30767000  0.07991000  1.0
  O  O46  1  0.53821000  0.80768000  0.07991000  1.0
  O  O47  1  0.03821000  0.69234000  0.92007000  1.0
