# generated using pymatgen
data_GdH4C10(NO3)2
_symmetry_space_group_name_H-M   'P 1'
_cell_length_a   7.27477000
_cell_length_b   7.48301000
_cell_length_c   9.54446000
_cell_angle_alpha   92.42930000
_cell_angle_beta   101.51000000
_cell_angle_gamma   98.04730000
_symmetry_Int_Tables_number   1
_chemical_formula_structural   GdH4C10(NO3)2
_chemical_formula_sum   'Gd2 H8 C20 N4 O12'
_cell_volume   502.78557257
_cell_formula_units_Z   2
loop_
 _symmetry_equiv_pos_site_id
 _symmetry_equiv_pos_as_xyz
  1  'x, y, z'
loop_
 _atom_site_type_symbol
 _atom_site_label
 _atom_site_symmetry_multiplicity
 _atom_site_fract_x
 _atom_site_fract_y
 _atom_site_fract_z
 _atom_site_occupancy
  Gd  Gd0  1  0.63886000  0.18909000  0.91476000  1.0
  Gd  Gd1  1  0.36114000  0.81091000  0.08524000  1.0
  H  H2  1  0.82549000  0.64215000  0.90154000  1.0
  H  H3  1  0.17452000  0.35785000  0.09847000  1.0
  H  H4  1  0.62682000  0.12434000  0.52932000  1.0
  H  H5  1  0.37319000  0.87567000  0.47069000  1.0
  H  H6  1  0.79774000  0.75027000  0.37863000  1.0
  H  H7  1  0.20225000  0.24972000  0.62137000  1.0
  H  H8  1  0.86585000  0.82990000  0.69223000  1.0
  H  H9  1  0.13416000  0.17010000  0.30777000  1.0
  C  C10  1  0.80446000  0.58851000  0.79130000  1.0
  C  C11  1  0.19556000  0.41150000  0.20871000  1.0
  C  C12  1  0.77959000  0.58070000  0.55645000  1.0
  C  C13  1  0.22040000  0.41931000  0.44354000  1.0
  C  C14  1  0.73223000  0.40467000  0.60058000  1.0
  C  C15  1  0.26777000  0.59533000  0.39941000  1.0
  C  C16  1  0.67156000  0.25906000  0.49859000  1.0
  C  C17  1  0.32843000  0.74093000  0.50141000  1.0
  C  C18  1  0.65581000  0.28927000  0.35289000  1.0
  C  C19  1  0.34418000  0.71074000  0.64712000  1.0
  C  C20  1  0.70398000  0.46783000  0.31040000  1.0
  C  C21  1  0.29601000  0.53218000  0.68959000  1.0
  C  C22  1  0.76599000  0.61437000  0.41283000  1.0
  C  C23  1  0.23399000  0.38563000  0.58715000  1.0
  C  C24  1  0.69509000  0.51814000  0.15845000  1.0
  C  C25  1  0.30491000  0.48186000  0.84155000  1.0
  C  C26  1  0.56602000  0.12781000  0.25317000  1.0
  C  C27  1  0.43398000  0.87218000  0.74683000  1.0
  C  C28  1  0.01286000  0.00025000  0.92152000  1.0
  C  C29  1  0.98714000  0.99975000  0.07848000  1.0
  N  N30  1  0.74855000  0.41458000  0.74910000  1.0
  N  N31  1  0.25146000  0.58542000  0.25091000  1.0
  N  N32  1  0.82574000  0.69267000  0.68079000  1.0
  N  N33  1  0.17426000  0.30733000  0.31922000  1.0
  O  O34  1  0.88669000  0.06033000  0.83097000  1.0
  O  O35  1  0.11331000  0.93967000  0.16903000  1.0
  O  O36  1  0.61712000  0.65483000  0.12197000  1.0
  O  O37  1  0.38289000  0.34517000  0.87803000  1.0
  O  O38  1  0.77479000  0.43099000  0.07596000  1.0
  O  O39  1  0.22520000  0.56902000  0.92404000  1.0
  O  O40  1  0.49775000  0.14124000  0.11803000  1.0
  O  O41  1  0.50225000  0.85875000  0.88197000  1.0
  O  O42  1  0.54358000  0.97353000  0.30335000  1.0
  O  O43  1  0.45641000  0.02646000  0.69665000  1.0
  O  O44  1  0.84590000  0.06337000  0.10530000  1.0
  O  O45  1  0.15409000  0.93662000  0.89469000  1.0
