# generated using pymatgen
data_CuH7C6BrN2O3
_symmetry_space_group_name_H-M   'P 1'
_cell_length_a   6.48622000
_cell_length_b   10.36070000
_cell_length_c   13.37080000
_cell_angle_alpha   71.51500000
_cell_angle_beta   89.99990000
_cell_angle_gamma   89.99800000
_symmetry_Int_Tables_number   1
_chemical_formula_structural   CuH7C6BrN2O3
_chemical_formula_sum   'Cu4 H28 C24 Br4 N8 O12'
_cell_volume   852.18282313
_cell_formula_units_Z   4
loop_
 _symmetry_equiv_pos_site_id
 _symmetry_equiv_pos_as_xyz
  1  'x, y, z'
loop_
 _atom_site_type_symbol
 _atom_site_label
 _atom_site_symmetry_multiplicity
 _atom_site_fract_x
 _atom_site_fract_y
 _atom_site_fract_z
 _atom_site_occupancy
  Cu  Cu0  1  0.20104000  0.24602000  0.76575000  1.0
  Cu  Cu1  1  0.70102000  0.75395000  0.73425000  1.0
  Cu  Cu2  1  0.79898000  0.75395000  0.23425000  1.0
  Cu  Cu3  1  0.29892000  0.24603000  0.26575000  1.0
  H  H4  1  0.53768000  0.33388000  0.41777000  1.0
  H  H5  1  0.03767000  0.66613000  0.08223000  1.0
  H  H6  1  0.46233000  0.66613000  0.58223000  1.0
  H  H7  1  0.96232000  0.33386000  0.91777000  1.0
  H  H8  1  0.91441000  0.15249000  0.61547000  1.0
  H  H9  1  0.41438000  0.84752000  0.88453000  1.0
  H  H10  1  0.08561000  0.84751000  0.38453000  1.0
  H  H11  1  0.58561000  0.15249000  0.11547000  1.0
  H  H12  1  0.82118000  0.23919000  0.35504000  1.0
  H  H13  1  0.32115000  0.76080000  0.14495000  1.0
  H  H14  1  0.17883000  0.76079000  0.64495000  1.0
  H  H15  1  0.67884000  0.23918000  0.85505000  1.0
  H  H16  1  0.78982000  0.09206000  0.46746000  1.0
  H  H17  1  0.28977000  0.90795000  0.03252000  1.0
  H  H18  1  0.21021000  0.90794000  0.53252000  1.0
  H  H19  1  0.71020000  0.09205000  0.96747000  1.0
  H  H20  1  0.96315000  0.09210000  0.36236000  1.0
  H  H21  1  0.46310000  0.90792000  0.13763000  1.0
  H  H22  1  0.03688000  0.90791000  0.63764000  1.0
  H  H23  1  0.53689000  0.09209000  0.86237000  1.0
  H  H24  1  0.97413000  0.49063000  0.74697000  1.0
  H  H25  1  0.47416000  0.50936000  0.75305000  1.0
  H  H26  1  0.02587000  0.50936000  0.25305000  1.0
  H  H27  1  0.52584000  0.49064000  0.24696000  1.0
  H  H28  1  0.86364000  0.41215000  0.67481000  1.0
  H  H29  1  0.36369000  0.58785000  0.82522000  1.0
  H  H30  1  0.13635000  0.58785000  0.32521000  1.0
  H  H31  1  0.63634000  0.41216000  0.17479000  1.0
  C  C32  1  0.39663000  0.29616000  0.46124000  1.0
  C  C33  1  0.89663000  0.70384000  0.03876000  1.0
  C  C34  1  0.60338000  0.70384000  0.53876000  1.0
  C  C35  1  0.10338000  0.29615000  0.96125000  1.0
  C  C36  1  0.07081000  0.20122000  0.46403000  1.0
  C  C37  1  0.57082000  0.79877000  0.03598000  1.0
  C  C38  1  0.92917000  0.79877000  0.53597000  1.0
  C  C39  1  0.42919000  0.20121000  0.96404000  1.0
  C  C40  1  0.52238000  0.35947000  0.61998000  1.0
  C  C41  1  0.02241000  0.64055000  0.88002000  1.0
  C  C42  1  0.47761000  0.64055000  0.38002000  1.0
  C  C43  1  0.97762000  0.35947000  0.11998000  1.0
  C  C44  1  0.37045000  0.29735000  0.56397000  1.0
  C  C45  1  0.87045000  0.70264000  0.93603000  1.0
  C  C46  1  0.62956000  0.70264000  0.43603000  1.0
  C  C47  1  0.12954000  0.29734000  0.06398000  1.0
  C  C48  1  0.05065000  0.19737000  0.56964000  1.0
  C  C49  1  0.55063000  0.80259000  0.93036000  1.0
  C  C50  1  0.94936000  0.80258000  0.43036000  1.0
  C  C51  1  0.44936000  0.19737000  0.06965000  1.0
  C  C52  1  0.90218000  0.15228000  0.41031000  1.0
  C  C53  1  0.40216000  0.84773000  0.08968000  1.0
  C  C54  1  0.09783000  0.84771000  0.58968000  1.0
  C  C55  1  0.59783000  0.15227000  0.91033000  1.0
  Br  Br56  1  0.06513000  0.01787000  0.83525000  1.0
  Br  Br57  1  0.56515000  0.98213000  0.66474000  1.0
  Br  Br58  1  0.93485000  0.98214000  0.16474000  1.0
  Br  Br59  1  0.43484000  0.01789000  0.33525000  1.0
  N  N60  1  0.24787000  0.24968000  0.41197000  1.0
  N  N61  1  0.74787000  0.75034000  0.08804000  1.0
  N  N62  1  0.75211000  0.75033000  0.58804000  1.0
  N  N63  1  0.25215000  0.24968000  0.91198000  1.0
  N  N64  1  0.19782000  0.24569000  0.61751000  1.0
  N  N65  1  0.69785000  0.75436000  0.88245000  1.0
  N  N66  1  0.80214000  0.75436000  0.38245000  1.0
  N  N67  1  0.30217000  0.24568000  0.11752000  1.0
  O  O68  1  0.95961000  0.40154000  0.73511000  1.0
  O  O69  1  0.45966000  0.59846000  0.76491000  1.0
  O  O70  1  0.04036000  0.59847000  0.26490000  1.0
  O  O71  1  0.54037000  0.40153000  0.23510000  1.0
  O  O72  1  0.45786000  0.36712000  0.70922000  1.0
  O  O73  1  0.95789000  0.63289000  0.79078000  1.0
  O  O74  1  0.54213000  0.63288000  0.29079000  1.0
  O  O75  1  0.04213000  0.36712000  0.20921000  1.0
  O  O76  1  0.69342000  0.40079000  0.57873000  1.0
  O  O77  1  0.19346000  0.59923000  0.92127000  1.0
  O  O78  1  0.30654000  0.59924000  0.42127000  1.0
  O  O79  1  0.80655000  0.40078000  0.07872000  1.0
