# generated using pymatgen
data_CdH8C6S2Br2(N2O)2
_symmetry_space_group_name_H-M   'P 1'
_cell_length_a   7.77100000
_cell_length_b   7.87523000
_cell_length_c   10.89410000
_cell_angle_alpha   92.90440000
_cell_angle_beta   89.99930000
_cell_angle_gamma   89.99930000
_symmetry_Int_Tables_number   1
_chemical_formula_structural   CdH8C6S2Br2(N2O)2
_chemical_formula_sum   'Cd2 H16 C12 S4 Br4 N8 O4'
_cell_volume   665.84522474
_cell_formula_units_Z   2
loop_
 _symmetry_equiv_pos_site_id
 _symmetry_equiv_pos_as_xyz
  1  'x, y, z'
loop_
 _atom_site_type_symbol
 _atom_site_label
 _atom_site_symmetry_multiplicity
 _atom_site_fract_x
 _atom_site_fract_y
 _atom_site_fract_z
 _atom_site_occupancy
  Cd  Cd0  1  1.00000000  0.00001000  1.00000000  1.0
  Cd  Cd1  1  0.50001000  0.50001000  1.00000000  1.0
  H  H2  1  0.36678000  0.91263000  0.13193000  1.0
  H  H3  1  0.86677000  0.58735000  0.86806000  1.0
  H  H4  1  0.63324000  0.08737000  0.86806000  1.0
  H  H5  1  0.13323000  0.41264000  0.13193000  1.0
  H  H6  1  0.61819000  0.10945000  0.21654000  1.0
  H  H7  1  0.11817000  0.39053000  0.78346000  1.0
  H  H8  1  0.38182000  0.89057000  0.78347000  1.0
  H  H9  1  0.88182000  0.60944000  0.21654000  1.0
  H  H10  1  0.61216000  0.91720000  0.29770000  1.0
  H  H11  1  0.11216000  0.58278000  0.70230000  1.0
  H  H12  1  0.38785000  0.08281000  0.70230000  1.0
  H  H13  1  0.88785000  0.41721000  0.29771000  1.0
  H  H14  1  0.21825000  0.19095000  0.44446000  1.0
  H  H15  1  0.71826000  0.30904000  0.55553000  1.0
  H  H16  1  0.78173000  0.80903000  0.55553000  1.0
  H  H17  1  0.28174000  0.69095000  0.44448000  1.0
  C  C18  1  0.53737000  0.02950000  0.27390000  1.0
  C  C19  1  0.03737000  0.47048000  0.72609000  1.0
  C  C20  1  0.46263000  0.97051000  0.72611000  1.0
  C  C21  1  0.96263000  0.52951000  0.27391000  1.0
  C  C22  1  0.24009000  0.04227000  0.27622000  1.0
  C  C23  1  0.74009000  0.45772000  0.72379000  1.0
  C  C24  1  0.75990000  0.95772000  0.72378000  1.0
  C  C25  1  0.25990000  0.54228000  0.27621000  1.0
  C  C26  1  0.47578000  0.12843000  0.38830000  1.0
  C  C27  1  0.97576000  0.37155000  0.61170000  1.0
  C  C28  1  0.52422000  0.87156000  0.61172000  1.0
  C  C29  1  0.02423000  0.62844000  0.38829000  1.0
  S  S30  1  0.02943000  0.02376000  0.24305000  1.0
  S  S31  1  0.52943000  0.47623000  0.75694000  1.0
  S  S32  1  0.97055000  0.97622000  0.75693000  1.0
  S  S33  1  0.47057000  0.52377000  0.24305000  1.0
  Br  Br34  1  0.23074000  0.73015000  0.96327000  1.0
  Br  Br35  1  0.73071000  0.76989000  0.03674000  1.0
  Br  Br36  1  0.76929000  0.26988000  0.03674000  1.0
  Br  Br37  1  0.26927000  0.23016000  0.96328000  1.0
  N  N38  1  0.37655000  0.98235000  0.21360000  1.0
  N  N39  1  0.87656000  0.51764000  0.78639000  1.0
  N  N40  1  0.62345000  0.01765000  0.78639000  1.0
  N  N41  1  0.12345000  0.48236000  0.21361000  1.0
  N  N42  1  0.29898000  0.12888000  0.38168000  1.0
  N  N43  1  0.79897000  0.37113000  0.61832000  1.0
  N  N44  1  0.70101000  0.87112000  0.61832000  1.0
  N  N45  1  0.20102000  0.62886000  0.38168000  1.0
  O  O46  1  0.56190000  0.19521000  0.47222000  1.0
  O  O47  1  0.06191000  0.30479000  0.52777000  1.0
  O  O48  1  0.43808000  0.80480000  0.52778000  1.0
  O  O49  1  0.93808000  0.69522000  0.47222000  1.0
