# generated using pymatgen
data_AlH3C8O5F2
_symmetry_space_group_name_H-M   'P 1'
_cell_length_a   6.68230000
_cell_length_b   12.00150000
_cell_length_c   17.52070000
_cell_angle_alpha   90.06840000
_cell_angle_beta   90.50630000
_cell_angle_gamma   90.87600000
_symmetry_Int_Tables_number   1
_chemical_formula_structural   AlH3C8O5F2
_chemical_formula_sum   'Al4 H12 C32 O20 F8'
_cell_volume   1404.89818303
_cell_formula_units_Z   4
loop_
 _symmetry_equiv_pos_site_id
 _symmetry_equiv_pos_as_xyz
  1  'x, y, z'
loop_
 _atom_site_type_symbol
 _atom_site_label
 _atom_site_symmetry_multiplicity
 _atom_site_fract_x
 _atom_site_fract_y
 _atom_site_fract_z
 _atom_site_occupancy
  Al  Al0  1  0.99939000  0.00213000  0.50207000  1.0
  Al  Al1  1  0.49918000  0.99818000  0.50087000  1.0
  Al  Al2  1  0.00082000  0.50181000  0.99913000  1.0
  Al  Al3  1  0.50062000  0.49785000  0.99794000  1.0
  H  H4  1  0.74725000  0.14133000  0.47506000  1.0
  H  H5  1  0.23802000  0.86175000  0.47046000  1.0
  H  H6  1  0.75274000  0.35868000  0.02495000  1.0
  H  H7  1  0.26198000  0.63826000  0.02954000  1.0
  H  H8  1  0.55602000  0.34029000  0.80460000  1.0
  H  H9  1  0.94400000  0.15972000  0.69539000  1.0
  H  H10  1  0.06244000  0.66714000  0.20204000  1.0
  H  H11  1  0.43749000  0.83288000  0.29795000  1.0
  H  H12  1  0.43578000  0.71685000  0.82155000  1.0
  H  H13  1  0.06425000  0.78310000  0.67844000  1.0
  H  H14  1  0.56117000  0.33689000  0.20012000  1.0
  H  H15  1  0.93891000  0.16313000  0.29989000  1.0
  C  C16  1  0.24791000  0.12822000  0.39427000  1.0
  C  C17  1  0.26237000  0.12592000  0.60732000  1.0
  C  C18  1  0.75199000  0.87694000  0.60836000  1.0
  C  C19  1  0.74296000  0.87157000  0.39449000  1.0
  C  C20  1  0.25212000  0.37177000  0.10575000  1.0
  C  C21  1  0.23764000  0.37407000  0.89269000  1.0
  C  C22  1  0.74801000  0.62305000  0.89164000  1.0
  C  C23  1  0.75703000  0.62844000  0.10551000  1.0
  C  C24  1  0.25940000  0.19169000  0.67967000  1.0
  C  C25  1  0.24061000  0.30831000  0.82033000  1.0
  C  C26  1  0.42915000  0.24414000  0.71211000  1.0
  C  C27  1  0.07083000  0.25588000  0.78789000  1.0
  C  C28  1  0.42149000  0.30090000  0.78089000  1.0
  C  C29  1  0.07850000  0.19912000  0.71911000  1.0
  C  C30  1  0.75046000  0.80743000  0.32124000  1.0
  C  C31  1  0.74952000  0.69259000  0.17876000  1.0
  C  C32  1  0.92426000  0.75899000  0.29218000  1.0
  C  C33  1  0.57571000  0.74102000  0.20784000  1.0
  C  C34  1  0.92482000  0.70328000  0.22289000  1.0
  C  C35  1  0.57514000  0.79675000  0.27711000  1.0
  C  C36  1  0.74704000  0.81212000  0.68106000  1.0
  C  C37  1  0.75296000  0.68785000  0.81892000  1.0
  C  C38  1  0.57252000  0.79249000  0.72338000  1.0
  C  C39  1  0.92746000  0.70745000  0.77659000  1.0
  C  C40  1  0.57393000  0.73153000  0.79049000  1.0
  C  C41  1  0.92607000  0.76842000  0.70948000  1.0
  C  C42  1  0.25332000  0.19256000  0.32110000  1.0
  C  C43  1  0.24672000  0.30744000  0.17891000  1.0
  C  C44  1  0.42630000  0.24332000  0.29099000  1.0
  C  C45  1  0.07373000  0.25672000  0.20903000  1.0
  C  C46  1  0.42404000  0.29904000  0.22181000  1.0
  C  C47  1  0.07602000  0.20100000  0.27821000  1.0
  O  O48  1  0.07525000  0.09705000  0.41687000  1.0
  O  O49  1  0.42936000  0.08963000  0.58516000  1.0
  O  O50  1  0.58815000  0.89061000  0.57256000  1.0
  O  O51  1  0.90762000  0.89065000  0.42923000  1.0
  O  O52  1  0.92322000  0.91227000  0.58721000  1.0
  O  O53  1  0.57071000  0.90291000  0.41560000  1.0
  O  O54  1  0.41367000  0.10857000  0.42732000  1.0
  O  O55  1  0.09443000  0.10993000  0.57377000  1.0
  O  O56  1  0.74987000  0.06831000  0.49862000  1.0
  O  O57  1  0.24594000  0.93135000  0.49861000  1.0
  O  O58  1  0.08633000  0.39143000  0.07272000  1.0
  O  O59  1  0.40559000  0.39009000  0.92622000  1.0
  O  O60  1  0.57679000  0.58774000  0.91280000  1.0
  O  O61  1  0.92927000  0.59711000  0.08438000  1.0
  O  O62  1  0.91187000  0.60936000  0.92743000  1.0
  O  O63  1  0.59237000  0.60932000  0.07077000  1.0
  O  O64  1  0.42476000  0.40297000  0.08315000  1.0
  O  O65  1  0.07063000  0.41032000  0.91486000  1.0
  O  O66  1  0.75013000  0.43167000  0.00137000  1.0
  O  O67  1  0.25406000  0.56864000  0.00140000  1.0
  F  F68  1  0.60728000  0.24320000  0.67544000  1.0
  F  F69  1  0.89269000  0.25682000  0.82456000  1.0
  F  F70  1  0.10056000  0.76386000  0.33165000  1.0
  F  F71  1  0.39941000  0.73614000  0.16837000  1.0
  F  F72  1  0.39530000  0.83559000  0.70040000  1.0
  F  F73  1  0.10468000  0.66435000  0.79958000  1.0
  F  F74  1  0.60404000  0.24091000  0.32939000  1.0
  F  F75  1  0.89596000  0.25912000  0.17064000  1.0
