# generated using pymatgen
data_Ba2CuH14(C3O8)2
_symmetry_space_group_name_H-M   'P 1'
_cell_length_a   6.94195000
_cell_length_b   7.17879000
_cell_length_c   8.79165000
_cell_angle_alpha   82.25600000
_cell_angle_beta   71.35700000
_cell_angle_gamma   81.58290000
_symmetry_Int_Tables_number   1
_chemical_formula_structural   Ba2CuH14(C3O8)2
_chemical_formula_sum   'Ba2 Cu1 H14 C6 O16'
_cell_volume   408.85729234
_cell_formula_units_Z   1
loop_
 _symmetry_equiv_pos_site_id
 _symmetry_equiv_pos_as_xyz
  1  'x, y, z'
loop_
 _atom_site_type_symbol
 _atom_site_label
 _atom_site_symmetry_multiplicity
 _atom_site_fract_x
 _atom_site_fract_y
 _atom_site_fract_z
 _atom_site_occupancy
  Ba  Ba0  1  0.09830000  0.73435000  0.35341000  1.0
  Ba  Ba1  1  0.90169000  0.26565000  0.64659000  1.0
  Cu  Cu2  1  0.00001000  0.00000000  0.00000000  1.0
  H  H3  1  0.59630000  0.90437000  0.07226000  1.0
  H  H4  1  0.40370000  0.09563000  0.92774000  1.0
  H  H5  1  0.00461000  0.36603000  0.08998000  1.0
  H  H6  1  0.99539000  0.63396000  0.91002000  1.0
  H  H7  1  0.45740000  0.39774000  0.12471000  1.0
  H  H8  1  0.54260000  0.60226000  0.87528000  1.0
  H  H9  1  0.34668000  0.05720000  0.42535000  1.0
  H  H10  1  0.65332000  0.94280000  0.57466000  1.0
  H  H11  1  0.30122000  0.92729000  0.59164000  1.0
  H  H12  1  0.69878000  0.07271000  0.40836000  1.0
  H  H13  1  0.38406000  0.34764000  0.41906000  1.0
  H  H14  1  0.61594000  0.65236000  0.58094000  1.0
  H  H15  1  0.35029000  0.40454000  0.59271000  1.0
  H  H16  1  0.64971000  0.59547000  0.40729000  1.0
  C  C17  1  0.65179000  0.80750000  0.16208000  1.0
  C  C18  1  0.34821000  0.19250000  0.83792000  1.0
  C  C19  1  0.04498000  0.27532000  0.19007000  1.0
  C  C20  1  0.95502000  0.72468000  0.80993000  1.0
  C  C21  1  0.57703000  0.28113000  0.13767000  1.0
  C  C22  1  0.42297000  0.71886000  0.86233000  1.0
  O  O23  1  0.83700000  0.81495000  0.15898000  1.0
  O  O24  1  0.16300000  0.18505000  0.84102000  1.0
  O  O25  1  0.53522000  0.69685000  0.25824000  1.0
  O  O26  1  0.46478000  0.30316000  0.74177000  1.0
  O  O27  1  0.06417000  0.35074000  0.30403000  1.0
  O  O28  1  0.93582000  0.64926000  0.69597000  1.0
  O  O29  1  0.07042000  0.09575000  0.17915000  1.0
  O  O30  1  0.92959000  0.90425000  0.82085000  1.0
  O  O31  1  0.71898000  0.24146000  0.01130000  1.0
  O  O32  1  0.28103000  0.75854000  0.98870000  1.0
  O  O33  1  0.55542000  0.20130000  0.28060000  1.0
  O  O34  1  0.44457000  0.79870000  0.71939000  1.0
  O  O35  1  0.24144000  0.98685000  0.50577000  1.0
  O  O36  1  0.75856000  0.01315000  0.49424000  1.0
  O  O37  1  0.28604000  0.42259000  0.50474000  1.0
  O  O38  1  0.71396000  0.57741000  0.49526000  1.0
