# generated using pymatgen
data_CuH4C6INClO2
_symmetry_space_group_name_H-M   'P 1'
_cell_length_a   4.08030000
_cell_length_b   6.67503000
_cell_length_c   15.88260000
_cell_angle_alpha   94.98860000
_cell_angle_beta   91.99890000
_cell_angle_gamma   96.73740000
_symmetry_Int_Tables_number   1
_chemical_formula_structural   CuH4C6INClO2
_chemical_formula_sum   'Cu2 H8 C12 I2 N2 Cl2 O4'
_cell_volume   427.52134975
_cell_formula_units_Z   2
loop_
 _symmetry_equiv_pos_site_id
 _symmetry_equiv_pos_as_xyz
  1  'x, y, z'
loop_
 _atom_site_type_symbol
 _atom_site_label
 _atom_site_symmetry_multiplicity
 _atom_site_fract_x
 _atom_site_fract_y
 _atom_site_fract_z
 _atom_site_occupancy
  Cu  Cu0  1  0.24528000  0.98260000  0.94497000  1.0
  Cu  Cu1  1  0.75466000  0.01741000  0.05504000  1.0
  H  H2  1  0.03145000  0.36277000  0.89148000  1.0
  H  H3  1  0.96852000  0.63725000  0.10851000  1.0
  H  H4  1  0.94311000  0.51436000  0.75605000  1.0
  H  H5  1  0.05689000  0.48563000  0.24393000  1.0
  H  H6  1  0.45083000  0.88714000  0.76907000  1.0
  H  H7  1  0.54916000  0.11286000  0.23094000  1.0
  H  H8  1  0.86499000  0.58218000  0.55251000  1.0
  H  H9  1  0.13506000  0.41784000  0.44748000  1.0
  C  C10  1  0.10538000  0.29158000  0.83187000  1.0
  C  C11  1  0.89458000  0.70841000  0.16813000  1.0
  C  C12  1  0.05772000  0.37518000  0.75617000  1.0
  C  C13  1  0.94227000  0.62482000  0.24383000  1.0
  C  C14  1  0.15426000  0.28173000  0.67985000  1.0
  C  C15  1  0.84576000  0.71826000  0.32015000  1.0
  C  C16  1  0.30183000  0.10203000  0.68514000  1.0
  C  C17  1  0.69816000  0.89797000  0.31486000  1.0
  C  C18  1  0.33792000  0.02628000  0.76385000  1.0
  C  C19  1  0.66206000  0.97371000  0.23615000  1.0
  C  C20  1  0.09230000  0.37517000  0.59970000  1.0
  C  C21  1  0.90773000  0.62481000  0.40030000  1.0
  I  I22  1  0.30617000  0.27200000  0.06876000  1.0
  I  I23  1  0.69378000  0.72802000  0.93123000  1.0
  N  N24  1  0.24137000  0.11767000  0.83586000  1.0
  N  N25  1  0.75861000  0.88233000  0.16414000  1.0
  Cl  Cl26  1  0.44192000  0.96484000  0.60032000  1.0
  Cl  Cl27  1  0.55812000  0.03515000  0.39969000  1.0
  O  O28  1  0.20832000  0.32041000  0.53130000  1.0
  O  O29  1  0.79177000  0.67959000  0.46870000  1.0
  O  O30  1  0.90234000  0.52246000  0.60926000  1.0
  O  O31  1  0.09770000  0.47754000  0.39074000  1.0
