# generated using pymatgen
data_ZnH20C31N4O7
_symmetry_space_group_name_H-M   'P 1'
_cell_length_a   9.73934000
_cell_length_b   9.80915000
_cell_length_c   14.72410000
_cell_angle_alpha   86.21130000
_cell_angle_beta   85.39410000
_cell_angle_gamma   83.11660000
_symmetry_Int_Tables_number   1
_chemical_formula_structural   ZnH20C31N4O7
_chemical_formula_sum   'Zn2 H40 C62 N8 O14'
_cell_volume   1389.74580775
_cell_formula_units_Z   2
loop_
 _symmetry_equiv_pos_site_id
 _symmetry_equiv_pos_as_xyz
  1  'x, y, z'
loop_
 _atom_site_type_symbol
 _atom_site_label
 _atom_site_symmetry_multiplicity
 _atom_site_fract_x
 _atom_site_fract_y
 _atom_site_fract_z
 _atom_site_occupancy
  Zn  Zn0  1  0.51568000  0.09279000  0.25574000  1.0
  Zn  Zn1  1  0.48432000  0.90721000  0.74426000  1.0
  H  H2  1  0.68725000  0.58156000  0.95106000  1.0
  H  H3  1  0.31275000  0.41844000  0.04894000  1.0
  H  H4  1  0.24698000  0.04254000  0.50194000  1.0
  H  H5  1  0.75302000  0.95747000  0.49806000  1.0
  H  H6  1  0.14090000  0.95768000  0.64954000  1.0
  H  H7  1  0.85910000  0.04231000  0.35046000  1.0
  H  H8  1  0.94776000  0.97120000  0.76918000  1.0
  H  H9  1  0.05224000  0.02879000  0.23082000  1.0
  H  H10  1  0.74754000  0.15672000  0.75645000  1.0
  H  H11  1  0.25246000  0.84328000  0.24355000  1.0
  H  H12  1  0.74722000  0.33124000  0.62693000  1.0
  H  H13  1  0.25278000  0.66877000  0.37307000  1.0
  H  H14  1  0.86690000  0.42837000  0.48359000  1.0
  H  H15  1  0.13310000  0.57163000  0.51641000  1.0
  H  H16  1  0.89408000  0.25546000  0.32446000  1.0
  H  H17  1  0.10593000  0.74453000  0.67554000  1.0
  H  H18  1  0.94326000  0.62421000  0.08213000  1.0
  H  H19  1  0.05674000  0.37579000  0.91787000  1.0
  H  H20  1  0.08573000  0.61031000  0.21639000  1.0
  H  H21  1  0.91426000  0.38970000  0.78361000  1.0
  H  H22  1  0.23927000  0.15831000  0.15090000  1.0
  H  H23  1  0.76073000  0.84169000  0.84911000  1.0
  H  H24  1  0.36482000  0.79519000  0.00828000  1.0
  H  H25  1  0.63518000  0.20481000  0.99172000  1.0
  H  H26  1  0.57506000  0.84877000  0.11326000  1.0
  H  H27  1  0.42494000  0.15123000  0.88674000  1.0
  H  H28  1  0.11356000  0.21184000  0.01149000  1.0
  H  H29  1  0.88643000  0.78816000  0.98852000  1.0
  H  H30  1  0.12249000  0.77215000  0.04655000  1.0
  H  H31  1  0.87751000  0.22785000  0.95346000  1.0
  H  H32  1  0.58064000  0.43962000  0.34098000  1.0
  H  H33  1  0.41936000  0.56038000  0.65902000  1.0
  H  H34  1  0.50760000  0.73585000  0.55077000  1.0
  H  H35  1  0.49240000  0.26415000  0.44922000  1.0
  H  H36  1  0.76276000  0.58850000  0.29849000  1.0
  H  H37  1  0.23724000  0.41151000  0.70150000  1.0
  H  H38  1  0.78072000  0.84704000  0.20937000  1.0
  H  H39  1  0.21928000  0.15297000  0.79063000  1.0
  H  H40  1  0.45469000  0.88155000  0.41552000  1.0
  H  H41  1  0.54530000  0.11845000  0.58448000  1.0
  C  C42  1  0.27742000  0.20146000  0.34861000  1.0
  C  C43  1  0.72258000  0.79855000  0.65139000  1.0
  C  C44  1  0.16647000  0.22200000  0.42505000  1.0
  C  C45  1  0.83352000  0.77800000  0.57495000  1.0
  C  C46  1  0.16338000  0.12679000  0.49881000  1.0
  C  C47  1  0.83662000  0.87321000  0.50119000  1.0
  C  C48  1  0.05439000  0.13397000  0.56833000  1.0
  C  C49  1  0.94561000  0.86603000  0.43166000  1.0
  C  C50  1  0.05305000  0.03715000  0.64416000  1.0
  C  C51  1  0.94695000  0.96285000  0.35584000  1.0
  C  C52  1  0.94529000  0.04549000  0.71081000  1.0
  C  C53  1  0.05471000  0.95451000  0.28919000  1.0
  C  C54  1  0.83317000  0.15103000  0.70377000  1.0
  C  C55  1  0.16683000  0.84897000  0.29623000  1.0
  C  C56  1  0.83187000  0.24799000  0.63134000  1.0
  C  C57  1  0.16814000  0.75201000  0.36866000  1.0
  C  C58  1  0.94253000  0.24274000  0.56236000  1.0
  C  C59  1  0.05747000  0.75726000  0.43764000  1.0
  C  C60  1  0.94841000  0.34230000  0.48834000  1.0
  C  C61  1  0.05159000  0.65771000  0.51167000  1.0
  C  C62  1  0.05745000  0.33228000  0.42270000  1.0
  C  C63  1  0.94255000  0.66772000  0.57731000  1.0
  C  C64  1  0.99580000  0.43334000  0.27894000  1.0
  C  C65  1  0.00420000  0.56666000  0.72106000  1.0
  C  C66  1  0.90517000  0.33549000  0.27056000  1.0
  C  C67  1  0.09483000  0.66451000  0.72944000  1.0
  C  C68  1  0.82510000  0.34247000  0.19571000  1.0
  C  C69  1  0.17491000  0.65753000  0.80429000  1.0
  C  C70  1  0.83570000  0.44973000  0.12759000  1.0
  C  C71  1  0.16430000  0.55027000  0.87241000  1.0
  C  C72  1  0.93319000  0.54303000  0.13526000  1.0
  C  C73  1  0.06681000  0.45697000  0.86473000  1.0
  C  C74  1  0.01321000  0.53601000  0.20934000  1.0
  C  C75  1  0.98679000  0.46399000  0.79066000  1.0
  C  C76  1  0.74021000  0.46761000  0.05420000  1.0
  C  C77  1  0.25979000  0.53238000  0.94580000  1.0
  C  C78  1  0.30387000  0.07004000  0.12403000  1.0
  C  C79  1  0.69612000  0.92995000  0.87598000  1.0
  C  C80  1  0.37092000  0.87652000  0.05371000  1.0
  C  C81  1  0.62908000  0.12348000  0.94630000  1.0
  C  C82  1  0.47380000  0.90529000  0.10521000  1.0
  C  C83  1  0.52620000  0.09471000  0.89479000  1.0
  C  C84  1  0.13048000  0.99102000  0.03230000  1.0
  C  C85  1  0.86952000  0.00898000  0.96771000  1.0
  C  C86  1  0.06287000  0.11964000  0.00663000  1.0
  C  C87  1  0.93713000  0.88036000  0.99337000  1.0
  C  C88  1  0.06818000  0.87148000  0.02584000  1.0
  C  C89  1  0.93182000  0.12852000  0.97417000  1.0
  C  C90  1  0.54785000  0.46675000  0.41072000  1.0
  C  C91  1  0.45215000  0.53325000  0.58928000  1.0
  C  C92  1  0.50132000  0.63342000  0.52792000  1.0
  C  C93  1  0.49868000  0.36658000  0.47208000  1.0
  C  C94  1  0.54876000  0.59985000  0.43909000  1.0
  C  C95  1  0.45124000  0.40014000  0.56091000  1.0
  C  C96  1  0.70227000  0.68700000  0.30807000  1.0
  C  C97  1  0.29773000  0.31300000  0.69193000  1.0
  C  C98  1  0.70981000  0.81439000  0.26485000  1.0
  C  C99  1  0.29019000  0.18562000  0.73515000  1.0
  C  C100  1  0.54265000  0.83855000  0.37262000  1.0
  C  C101  1  0.45735000  0.16145000  0.62738000  1.0
  C  C102  1  0.72928000  0.23207000  0.19681000  1.0
  C  C103  1  0.27073000  0.76792000  0.80320000  1.0
  N  N104  1  0.26380000  0.98174000  0.06640000  1.0
  N  N105  1  0.73620000  0.01826000  0.93360000  1.0
  N  N106  1  0.59617000  0.70382000  0.37655000  1.0
  N  N107  1  0.40383000  0.29618000  0.62345000  1.0
  N  N108  1  0.60921000  0.90755000  0.30547000  1.0
  N  N109  1  0.39079000  0.09246000  0.69454000  1.0
  N  N110  1  0.43053000  0.02551000  0.14900000  1.0
  N  N111  1  0.56947000  0.97449000  0.85100000  1.0
  O  O112  1  0.38587000  0.11730000  0.36849000  1.0
  O  O113  1  0.61413000  0.88271000  0.63151000  1.0
  O  O114  1  0.26174000  0.25938000  0.27126000  1.0
  O  O115  1  0.73826000  0.74063000  0.72874000  1.0
  O  O116  1  0.06525000  0.43837000  0.35496000  1.0
  O  O117  1  0.93475000  0.56163000  0.64504000  1.0
  O  O118  1  0.65099000  0.39243000  0.04387000  1.0
  O  O119  1  0.34901000  0.60757000  0.95613000  1.0
  O  O120  1  0.75643000  0.58042000  0.99610000  1.0
  O  O121  1  0.24357000  0.41957000  0.00390000  1.0
  O  O122  1  0.61430000  0.25729000  0.24677000  1.0
  O  O123  1  0.38570000  0.74271000  0.75323000  1.0
  O  O124  1  0.76829000  0.12233000  0.15947000  1.0
  O  O125  1  0.23173000  0.87767000  0.84053000  1.0
