# generated using pymatgen
data_Ag2H15C15N5O9
_symmetry_space_group_name_H-M   'P 1'
_cell_length_a   8.20276000
_cell_length_b   11.20820000
_cell_length_c   12.46763973
_cell_angle_alpha   63.88363817
_cell_angle_beta   75.20191586
_cell_angle_gamma   81.52740000
_symmetry_Int_Tables_number   1
_chemical_formula_structural   Ag2H15C15N5O9
_chemical_formula_sum   'Ag4 H30 C30 N10 O18'
_cell_volume   994.27993154
_cell_formula_units_Z   2
loop_
 _symmetry_equiv_pos_site_id
 _symmetry_equiv_pos_as_xyz
  1  'x, y, z'
loop_
 _atom_site_type_symbol
 _atom_site_label
 _atom_site_symmetry_multiplicity
 _atom_site_fract_x
 _atom_site_fract_y
 _atom_site_fract_z
 _atom_site_occupancy
  Ag  Ag0  1  0.92996000  0.28171000  0.67480000  1.0
  Ag  Ag1  1  0.07004000  0.71829000  0.32520000  1.0
  Ag  Ag2  1  0.91463000  0.47182000  0.85682000  1.0
  Ag  Ag3  1  0.08537000  0.52818000  0.14318000  1.0
  H  H4  1  0.07200000  0.27082000  0.83790000  1.0
  H  H5  1  0.92800000  0.72918000  0.16209000  1.0
  H  H6  1  0.13860000  0.96367000  0.18621000  1.0
  H  H7  1  0.86141000  0.03633000  0.81379000  1.0
  H  H8  1  0.43888000  0.94908000  0.85218000  1.0
  H  H9  1  0.56112000  0.05092000  0.14782000  1.0
  H  H10  1  0.48085000  0.12386000  0.48432000  1.0
  H  H11  1  0.51915000  0.87614000  0.51568000  1.0
  H  H12  1  0.56943000  0.27198000  0.46513000  1.0
  H  H13  1  0.43057000  0.72802000  0.53487000  1.0
  H  H14  1  0.29696000  0.38897000  0.45569000  1.0
  H  H15  1  0.70303000  0.61103000  0.54431000  1.0
  H  H16  1  0.22261000  0.25333000  0.44750000  1.0
  H  H17  1  0.77739000  0.74668000  0.55249000  1.0
  H  H18  1  0.53225000  0.57507000  0.07583000  1.0
  H  H19  1  0.46775000  0.42493000  0.92417000  1.0
  H  H20  1  0.69296000  0.63284000  0.11430000  1.0
  H  H21  1  0.30704000  0.36716000  0.88570000  1.0
  H  H22  1  0.50488000  0.61958000  0.30505000  1.0
  H  H23  1  0.49513000  0.38043000  0.69494000  1.0
  H  H24  1  0.37911000  0.52228000  0.27955000  1.0
  H  H25  1  0.62090000  0.47772000  0.72045000  1.0
  H  H26  1  0.65150000  0.14291000  0.28782000  1.0
  H  H27  1  0.34850000  0.85709000  0.71218000  1.0
  H  H28  1  0.81708000  0.21060000  0.31421000  1.0
  H  H29  1  0.18292000  0.78940000  0.68579000  1.0
  H  H30  1  0.78697000  0.41172000  0.13978000  1.0
  H  H31  1  0.21303000  0.58828000  0.86022000  1.0
  H  H32  1  0.63172000  0.34209000  0.10978000  1.0
  H  H33  1  0.36828000  0.65790000  0.89023000  1.0
  C  C34  1  0.25908000  0.11603000  0.83106000  1.0
  C  C35  1  0.74092000  0.88397000  0.16894000  1.0
  C  C36  1  0.13450000  0.17817000  0.89114000  1.0
  C  C37  1  0.86550000  0.82181000  0.10887000  1.0
  C  C38  1  0.09011000  0.12352000  0.01880000  1.0
  C  C39  1  0.90989000  0.87648000  0.98120000  1.0
  C  C40  1  0.17065000  0.00488000  0.08667000  1.0
  C  C41  1  0.82935000  0.99512000  0.91333000  1.0
  C  C42  1  0.29386000  0.94124000  0.02661000  1.0
  C  C43  1  0.70614000  0.05876000  0.97339000  1.0
  C  C44  1  0.34179000  0.99825000  0.89860000  1.0
  C  C45  1  0.65821000  0.00174000  0.10140000  1.0
  C  C46  1  0.29780000  0.17200000  0.69703000  1.0
  C  C47  1  0.70220000  0.82800000  0.30297000  1.0
  C  C48  1  0.46212000  0.20692000  0.51091000  1.0
  C  C49  1  0.53788000  0.79308000  0.48909000  1.0
  C  C50  1  0.28954000  0.28042000  0.49857000  1.0
  C  C51  1  0.71046000  0.71958000  0.50143000  1.0
  C  C52  1  0.37174000  0.81259000  0.09603000  1.0
  C  C53  1  0.62826000  0.18740000  0.90397000  1.0
  C  C54  1  0.55865000  0.63915000  0.11467000  1.0
  C  C55  1  0.44134000  0.36086000  0.88532000  1.0
  C  C56  1  0.44130000  0.61696000  0.23858000  1.0
  C  C57  1  0.55871000  0.38304000  0.76142000  1.0
  C  C58  1  0.95621000  0.18746000  0.08113000  1.0
  C  C59  1  0.04380000  0.81254000  0.91887000  1.0
  C  C60  1  0.76956000  0.19595000  0.24651000  1.0
  C  C61  1  0.23043000  0.80405000  0.75349000  1.0
  C  C62  1  0.75718000  0.32455000  0.13122000  1.0
  C  C63  1  0.24282000  0.67545000  0.86878000  1.0
  N  N64  1  0.19437000  0.23968000  0.62621000  1.0
  N  N65  1  0.80563000  0.76032000  0.37379000  1.0
  N  N66  1  0.88617000  0.30462000  0.03312000  1.0
  N  N67  1  0.11383000  0.69538000  0.96688000  1.0
  N  N68  1  0.31591000  0.72924000  0.20783000  1.0
  N  N69  1  0.68409000  0.27075000  0.79217000  1.0
  N  N70  1  0.85330000  0.44039000  0.38921000  1.0
  N  N71  1  0.14671000  0.55961000  0.61079000  1.0
  N  N72  1  0.71790000  0.72582000  0.78215000  1.0
  N  N73  1  0.28210000  0.27418000  0.21785000  1.0
  O  O74  1  0.45634000  0.14955000  0.64311000  1.0
  O  O75  1  0.54365000  0.85046000  0.35688000  1.0
  O  O76  1  0.89682000  0.11304000  0.20101000  1.0
  O  O77  1  0.10318000  0.88696000  0.79899000  1.0
  O  O78  1  0.51631000  0.77661000  0.03467000  1.0
  O  O79  1  0.48368000  0.22338000  0.96533000  1.0
  O  O80  1  0.77087000  0.39375000  0.49854000  1.0
  O  O81  1  0.22913000  0.60625000  0.50146000  1.0
  O  O82  1  0.78140000  0.46786000  0.30194000  1.0
  O  O83  1  0.21860000  0.53214000  0.69806000  1.0
  O  O84  1  0.01105000  0.46046000  0.36538000  1.0
  O  O85  1  0.98895000  0.53953000  0.63463000  1.0
  O  O86  1  0.64119000  0.62420000  0.80202000  1.0
  O  O87  1  0.35881000  0.37579000  0.19798000  1.0
  O  O88  1  0.86602000  0.70722000  0.80430000  1.0
  O  O89  1  0.13397000  0.29277000  0.19571000  1.0
  O  O90  1  0.65109000  0.84040000  0.74145000  1.0
  O  O91  1  0.34891000  0.15960000  0.25856000  1.0
