# generated using pymatgen
data_CuH15C12Br2N5O
_symmetry_space_group_name_H-M   'P 1'
_cell_length_a   10.22010000
_cell_length_b   12.84400000
_cell_length_c   24.53320000
_cell_angle_alpha   90.00000000
_cell_angle_beta   90.00000000
_cell_angle_gamma   89.99990000
_symmetry_Int_Tables_number   1
_chemical_formula_structural   CuH15C12Br2N5O
_chemical_formula_sum   'Cu8 H120 C96 Br16 N40 O8'
_cell_volume   3220.39869101
_cell_formula_units_Z   8
loop_
 _symmetry_equiv_pos_site_id
 _symmetry_equiv_pos_as_xyz
  1  'x, y, z'
loop_
 _atom_site_type_symbol
 _atom_site_label
 _atom_site_symmetry_multiplicity
 _atom_site_fract_x
 _atom_site_fract_y
 _atom_site_fract_z
 _atom_site_occupancy
  Cu  Cu0  1  0.90471000  0.68826000  0.76989000  1.0
  Cu  Cu1  1  0.59529000  0.18826000  0.73011000  1.0
  Cu  Cu2  1  0.90466000  0.81177000  0.23012000  1.0
  Cu  Cu3  1  0.59534000  0.31177000  0.26988000  1.0
  Cu  Cu4  1  0.09534000  0.31177000  0.23012000  1.0
  Cu  Cu5  1  0.40466000  0.81177000  0.26989000  1.0
  Cu  Cu6  1  0.09529000  0.18826000  0.76989000  1.0
  Cu  Cu7  1  0.40472000  0.68826000  0.73011000  1.0
  H  H8  1  0.78491000  0.62458000  0.52072000  1.0
  H  H9  1  0.71508000  0.12458000  0.97928000  1.0
  H  H10  1  0.78490000  0.87540000  0.47927000  1.0
  H  H11  1  0.71511000  0.37540000  0.02073000  1.0
  H  H12  1  0.21510000  0.37540000  0.47927000  1.0
  H  H13  1  0.28489000  0.87540000  0.02073000  1.0
  H  H14  1  0.21509000  0.12458000  0.52072000  1.0
  H  H15  1  0.28491000  0.62458000  0.97928000  1.0
  H  H16  1  0.94119000  0.38568000  0.62627000  1.0
  H  H17  1  0.55882000  0.88568000  0.87373000  1.0
  H  H18  1  0.94117000  0.11432000  0.37374000  1.0
  H  H19  1  0.55883000  0.61432000  0.12627000  1.0
  H  H20  1  0.05883000  0.61432000  0.37374000  1.0
  H  H21  1  0.44117000  0.11432000  0.12627000  1.0
  H  H22  1  0.05881000  0.88568000  0.62627000  1.0
  H  H23  1  0.44119000  0.38568000  0.87373000  1.0
  H  H24  1  0.03892000  0.42798000  0.70785000  1.0
  H  H25  1  0.46108000  0.92798000  0.79215000  1.0
  H  H26  1  0.03886000  0.07205000  0.29215000  1.0
  H  H27  1  0.46114000  0.57205000  0.20785000  1.0
  H  H28  1  0.96114000  0.57205000  0.29215000  1.0
  H  H29  1  0.53886000  0.07205000  0.20785000  1.0
  H  H30  1  0.96108000  0.92798000  0.70785000  1.0
  H  H31  1  0.53892000  0.42798000  0.79215000  1.0
  H  H32  1  0.17398000  0.57496000  0.79857000  1.0
  H  H33  1  0.32602000  0.07497000  0.70142000  1.0
  H  H34  1  0.17401000  0.92516000  0.20144000  1.0
  H  H35  1  0.32599000  0.42516000  0.29857000  1.0
  H  H36  1  0.82600000  0.42516000  0.20144000  1.0
  H  H37  1  0.67401000  0.92516000  0.29857000  1.0
  H  H38  1  0.82602000  0.07496000  0.79857000  1.0
  H  H39  1  0.67398000  0.57496000  0.70143000  1.0
  H  H40  1  0.13713000  0.44341000  0.78195000  1.0
  H  H41  1  0.36287000  0.94341000  0.71805000  1.0
  H  H42  1  0.13700000  0.05669000  0.21804000  1.0
  H  H43  1  0.36300000  0.55669000  0.28196000  1.0
  H  H44  1  0.86300000  0.55669000  0.21804000  1.0
  H  H45  1  0.63700000  0.05669000  0.28196000  1.0
  H  H46  1  0.86287000  0.94341000  0.78195000  1.0
  H  H47  1  0.63713000  0.44341000  0.71805000  1.0
  H  H48  1  0.11256000  0.47005000  0.87830000  1.0
  H  H49  1  0.38744000  0.97005000  0.62170000  1.0
  H  H50  1  0.11252000  0.02996000  0.12168000  1.0
  H  H51  1  0.38748000  0.52996000  0.37832000  1.0
  H  H52  1  0.88748000  0.52996000  0.12168000  1.0
  H  H53  1  0.61252000  0.02996000  0.37832000  1.0
  H  H54  1  0.88744000  0.97005000  0.87830000  1.0
  H  H55  1  0.61256000  0.47005000  0.62170000  1.0
  H  H56  1  0.95712000  0.44403000  0.85040000  1.0
  H  H57  1  0.54288000  0.94403000  0.64960000  1.0
  H  H58  1  0.95706000  0.05595000  0.14957000  1.0
  H  H59  1  0.54294000  0.55595000  0.35043000  1.0
  H  H60  1  0.04294000  0.55595000  0.14957000  1.0
  H  H61  1  0.45706000  0.05595000  0.35043000  1.0
  H  H62  1  0.04288000  0.94403000  0.85040000  1.0
  H  H63  1  0.45712000  0.44403000  0.64959000  1.0
  H  H64  1  0.96489000  0.58627000  0.92262000  1.0
  H  H65  1  0.53511000  0.08627000  0.57738000  1.0
  H  H66  1  0.96493000  0.91366000  0.07738000  1.0
  H  H67  1  0.53507000  0.41366000  0.42262000  1.0
  H  H68  1  0.03507000  0.41366000  0.07738000  1.0
  H  H69  1  0.46493000  0.91366000  0.42262000  1.0
  H  H70  1  0.03511000  0.08627000  0.92262000  1.0
  H  H71  1  0.46489000  0.58627000  0.57738000  1.0
  H  H72  1  0.06961000  0.65981000  0.87940000  1.0
  H  H73  1  0.43039000  0.15981000  0.62060000  1.0
  H  H74  1  0.06964000  0.84018000  0.12064000  1.0
  H  H75  1  0.43036000  0.34018000  0.37936000  1.0
  H  H76  1  0.93036000  0.34018000  0.12064000  1.0
  H  H77  1  0.56964000  0.84018000  0.37936000  1.0
  H  H78  1  0.93039000  0.15981000  0.87940000  1.0
  H  H79  1  0.56961000  0.65981000  0.62060000  1.0
  H  H80  1  0.82788000  0.72989000  0.92795000  1.0
  H  H81  1  0.67213000  0.22989000  0.57205000  1.0
  H  H82  1  0.82790000  0.77009000  0.07207000  1.0
  H  H83  1  0.67210000  0.27009000  0.42793000  1.0
  H  H84  1  0.17210000  0.27009000  0.07207000  1.0
  H  H85  1  0.32789000  0.77009000  0.42794000  1.0
  H  H86  1  0.17212000  0.22989000  0.92795000  1.0
  H  H87  1  0.32788000  0.72989000  0.57205000  1.0
  H  H88  1  0.76839000  0.79168000  0.86711000  1.0
  H  H89  1  0.73161000  0.29168000  0.63289000  1.0
  H  H90  1  0.76843000  0.70829000  0.13290000  1.0
  H  H91  1  0.73157000  0.20829000  0.36710000  1.0
  H  H92  1  0.23157000  0.20829000  0.13290000  1.0
  H  H93  1  0.26843000  0.70829000  0.36710000  1.0
  H  H94  1  0.23161000  0.29168000  0.86711000  1.0
  H  H95  1  0.26839000  0.79168000  0.63289000  1.0
  H  H96  1  0.93829000  0.79810000  0.88396000  1.0
  H  H97  1  0.56171000  0.29810000  0.61604000  1.0
  H  H98  1  0.93833000  0.70189000  0.11605000  1.0
  H  H99  1  0.56167000  0.20189000  0.38396000  1.0
  H  H100  1  0.06167000  0.20189000  0.11605000  1.0
  H  H101  1  0.43833000  0.70189000  0.38396000  1.0
  H  H102  1  0.06171000  0.29810000  0.88396000  1.0
  H  H103  1  0.43829000  0.79810000  0.61604000  1.0
  H  H104  1  0.77239000  0.51755000  0.82983000  1.0
  H  H105  1  0.72760000  0.01754000  0.67017000  1.0
  H  H106  1  0.77240000  0.98241000  0.17021000  1.0
  H  H107  1  0.72760000  0.48241000  0.32979000  1.0
  H  H108  1  0.22760000  0.48241000  0.17021000  1.0
  H  H109  1  0.27240000  0.98241000  0.32979000  1.0
  H  H110  1  0.22760000  0.01754000  0.82983000  1.0
  H  H111  1  0.27240000  0.51754000  0.67017000  1.0
  H  H112  1  0.67555000  0.63178000  0.83921000  1.0
  H  H113  1  0.82445000  0.13178000  0.66079000  1.0
  H  H114  1  0.67557000  0.86818000  0.16080000  1.0
  H  H115  1  0.82443000  0.36818000  0.33919000  1.0
  H  H116  1  0.32443000  0.36818000  0.16080000  1.0
  H  H117  1  0.17557000  0.86818000  0.33920000  1.0
  H  H118  1  0.32445000  0.13178000  0.83921000  1.0
  H  H119  1  0.17555000  0.63178000  0.66079000  1.0
  H  H120  1  0.73576000  0.56229000  0.89728000  1.0
  H  H121  1  0.76423000  0.06228000  0.60272000  1.0
  H  H122  1  0.73578000  0.93772000  0.10274000  1.0
  H  H123  1  0.76422000  0.43772000  0.39726000  1.0
  H  H124  1  0.26422000  0.43772000  0.10274000  1.0
  H  H125  1  0.23578000  0.93772000  0.39726000  1.0
  H  H126  1  0.26423000  0.06229000  0.89728000  1.0
  H  H127  1  0.23577000  0.56229000  0.60272000  1.0
  C  C128  1  0.92567000  0.53908000  0.66156000  1.0
  C  C129  1  0.57433000  0.03907000  0.83843000  1.0
  C  C130  1  0.92566000  0.96093000  0.33844000  1.0
  C  C131  1  0.57434000  0.46092000  0.16156000  1.0
  C  C132  1  0.07434000  0.46093000  0.33844000  1.0
  C  C133  1  0.42566000  0.96092000  0.16156000  1.0
  C  C134  1  0.07433000  0.03908000  0.66156000  1.0
  C  C135  1  0.42567000  0.53907000  0.83844000  1.0
  C  C136  1  0.89134000  0.64685000  0.65391000  1.0
  C  C137  1  0.60865000  0.14685000  0.84609000  1.0
  C  C138  1  0.89135000  0.85314000  0.34609000  1.0
  C  C139  1  0.60866000  0.35314000  0.15392000  1.0
  C  C140  1  0.10865000  0.35314000  0.34609000  1.0
  C  C141  1  0.39134000  0.85314000  0.15392000  1.0
  C  C142  1  0.10866000  0.14686000  0.65391000  1.0
  C  C143  1  0.39134000  0.64686000  0.84609000  1.0
  C  C144  1  0.83886000  0.67246000  0.60154000  1.0
  C  C145  1  0.66112000  0.17246000  0.89845000  1.0
  C  C146  1  0.83885000  0.82753000  0.39844000  1.0
  C  C147  1  0.66115000  0.32753000  0.10156000  1.0
  C  C148  1  0.16114000  0.32753000  0.39845000  1.0
  C  C149  1  0.33885000  0.82753000  0.10156000  1.0
  C  C150  1  0.16114000  0.17246000  0.60155000  1.0
  C  C151  1  0.33886000  0.67246000  0.89845000  1.0
  C  C152  1  0.82322000  0.60027000  0.56015000  1.0
  C  C153  1  0.67677000  0.10027000  0.93985000  1.0
  C  C154  1  0.82320000  0.89971000  0.43985000  1.0
  C  C155  1  0.67680000  0.39971000  0.06015000  1.0
  C  C156  1  0.17680000  0.39971000  0.43985000  1.0
  C  C157  1  0.32320000  0.89971000  0.06015000  1.0
  C  C158  1  0.17678000  0.10027000  0.56015000  1.0
  C  C159  1  0.32322000  0.60027000  0.93985000  1.0
  C  C160  1  0.85958000  0.49640000  0.56947000  1.0
  C  C161  1  0.64042000  0.99641000  0.93052000  1.0
  C  C162  1  0.85956000  0.00358000  0.43052000  1.0
  C  C163  1  0.64044000  0.50358000  0.06948000  1.0
  C  C164  1  0.14044000  0.50359000  0.43052000  1.0
  C  C165  1  0.35956000  0.00358000  0.06948000  1.0
  C  C166  1  0.14042000  0.99640000  0.56948000  1.0
  C  C167  1  0.35958000  0.49640000  0.93052000  1.0
  C  C168  1  0.91016000  0.46575000  0.61921000  1.0
  C  C169  1  0.58983000  0.96575000  0.88079000  1.0
  C  C170  1  0.91015000  0.03425000  0.38079000  1.0
  C  C171  1  0.58985000  0.53425000  0.11921000  1.0
  C  C172  1  0.08985000  0.53425000  0.38079000  1.0
  C  C173  1  0.41015000  0.03425000  0.11921000  1.0
  C  C174  1  0.08983000  0.96575000  0.61921000  1.0
  C  C175  1  0.41016000  0.46574000  0.88079000  1.0
  C  C176  1  0.99056000  0.50450000  0.71044000  1.0
  C  C177  1  0.50944000  0.00450000  0.78955000  1.0
  C  C178  1  0.99053000  0.99552000  0.28955000  1.0
  C  C179  1  0.50947000  0.49551000  0.21045000  1.0
  C  C180  1  0.00947000  0.49552000  0.28955000  1.0
  C  C181  1  0.49053000  0.99551000  0.21045000  1.0
  C  C182  1  0.00944000  0.00450000  0.71044000  1.0
  C  C183  1  0.49056000  0.50450000  0.78955000  1.0
  C  C184  1  0.09421000  0.51741000  0.79594000  1.0
  C  C185  1  0.40578000  0.01742000  0.70406000  1.0
  C  C186  1  0.09416000  0.98265000  0.20405000  1.0
  C  C187  1  0.40584000  0.48265000  0.29595000  1.0
  C  C188  1  0.90584000  0.48265000  0.20405000  1.0
  C  C189  1  0.59416000  0.98265000  0.29595000  1.0
  C  C190  1  0.90578000  0.01742000  0.79594000  1.0
  C  C191  1  0.59422000  0.51742000  0.70406000  1.0
  C  C192  1  0.03522000  0.50276000  0.85231000  1.0
  C  C193  1  0.46478000  0.00276000  0.64769000  1.0
  C  C194  1  0.03520000  0.99725000  0.14768000  1.0
  C  C195  1  0.46480000  0.49725000  0.35233000  1.0
  C  C196  1  0.96480000  0.49725000  0.14768000  1.0
  C  C197  1  0.53520000  0.99725000  0.35233000  1.0
  C  C198  1  0.96478000  0.00276000  0.85231000  1.0
  C  C199  1  0.53522000  0.50276000  0.64769000  1.0
  C  C200  1  0.99010000  0.60223000  0.87951000  1.0
  C  C201  1  0.50990000  0.10223000  0.62048000  1.0
  C  C202  1  0.99012000  0.89774000  0.12050000  1.0
  C  C203  1  0.50989000  0.39774000  0.37951000  1.0
  C  C204  1  0.00989000  0.39774000  0.12050000  1.0
  C  C205  1  0.49011000  0.89774000  0.37951000  1.0
  C  C206  1  0.00990000  0.10223000  0.87952000  1.0
  C  C207  1  0.49010000  0.60223000  0.62048000  1.0
  C  C208  1  0.85046000  0.74945000  0.88520000  1.0
  C  C209  1  0.64954000  0.24945000  0.61480000  1.0
  C  C210  1  0.85049000  0.75053000  0.11481000  1.0
  C  C211  1  0.64951000  0.25053000  0.38519000  1.0
  C  C212  1  0.14951000  0.25053000  0.11481000  1.0
  C  C213  1  0.35049000  0.75053000  0.38519000  1.0
  C  C214  1  0.14954000  0.24945000  0.88520000  1.0
  C  C215  1  0.35046000  0.74945000  0.61480000  1.0
  C  C216  1  0.75814000  0.58690000  0.85517000  1.0
  C  C217  1  0.74186000  0.08689000  0.64483000  1.0
  C  C218  1  0.75816000  0.91308000  0.14485000  1.0
  C  C219  1  0.74184000  0.41308000  0.35515000  1.0
  C  C220  1  0.24184000  0.41308000  0.14485000  1.0
  C  C221  1  0.25815000  0.91308000  0.35515000  1.0
  C  C222  1  0.24186000  0.08689000  0.85517000  1.0
  C  C223  1  0.25814000  0.58689000  0.64483000  1.0
  Br  Br224  1  0.78870000  0.81342000  0.58924000  1.0
  Br  Br225  1  0.71128000  0.31342000  0.91076000  1.0
  Br  Br226  1  0.78870000  0.68657000  0.41075000  1.0
  Br  Br227  1  0.71130000  0.18657000  0.08925000  1.0
  Br  Br228  1  0.21130000  0.18657000  0.41075000  1.0
  Br  Br229  1  0.28870000  0.68657000  0.08925000  1.0
  Br  Br230  1  0.21130000  0.31342000  0.58924000  1.0
  Br  Br231  1  0.28870000  0.81342000  0.91076000  1.0
  Br  Br232  1  0.84288000  0.39803000  0.51155000  1.0
  Br  Br233  1  0.65712000  0.89804000  0.98845000  1.0
  Br  Br234  1  0.84287000  0.10194000  0.48845000  1.0
  Br  Br235  1  0.65714000  0.60194000  0.01156000  1.0
  Br  Br236  1  0.15713000  0.60194000  0.48845000  1.0
  Br  Br237  1  0.34285000  0.10193000  0.01155000  1.0
  Br  Br238  1  0.15712000  0.89804000  0.51155000  1.0
  Br  Br239  1  0.34289000  0.39804000  0.98845000  1.0
  N  N240  1  0.00203000  0.55692000  0.75539000  1.0
  N  N241  1  0.49796000  0.05692000  0.74461000  1.0
  N  N242  1  0.00201000  0.94311000  0.24460000  1.0
  N  N243  1  0.49799000  0.44311000  0.25540000  1.0
  N  N244  1  0.99799000  0.44311000  0.24460000  1.0
  N  N245  1  0.50201000  0.94311000  0.25540000  1.0
  N  N246  1  0.99797000  0.05692000  0.75539000  1.0
  N  N247  1  0.50204000  0.55692000  0.74461000  1.0
  N  N248  1  0.87564000  0.65356000  0.85390000  1.0
  N  N249  1  0.62436000  0.15356000  0.64610000  1.0
  N  N250  1  0.87565000  0.84642000  0.14611000  1.0
  N  N251  1  0.62435000  0.34642000  0.35389000  1.0
  N  N252  1  0.12435000  0.34642000  0.14611000  1.0
  N  N253  1  0.37565000  0.84642000  0.35389000  1.0
  N  N254  1  0.12436000  0.15356000  0.85390000  1.0
  N  N255  1  0.37564000  0.65356000  0.64610000  1.0
  N  N256  1  0.75228000  0.78587000  0.77467000  1.0
  N  N257  1  0.74773000  0.28587000  0.72532000  1.0
  N  N258  1  0.75224000  0.71417000  0.22531000  1.0
  N  N259  1  0.74776000  0.21417000  0.27469000  1.0
  N  N260  1  0.24776000  0.21417000  0.22531000  1.0
  N  N261  1  0.25224000  0.71417000  0.27469000  1.0
  N  N262  1  0.24773000  0.28587000  0.77467000  1.0
  N  N263  1  0.25228000  0.78587000  0.72533000  1.0
  N  N264  1  0.66682000  0.78651000  0.74149000  1.0
  N  N265  1  0.83318000  0.28651000  0.75851000  1.0
  N  N266  1  0.66677000  0.71349000  0.25850000  1.0
  N  N267  1  0.83322000  0.21349000  0.24150000  1.0
  N  N268  1  0.33323000  0.21349000  0.25850000  1.0
  N  N269  1  0.16678000  0.71350000  0.24150000  1.0
  N  N270  1  0.33318000  0.28651000  0.74149000  1.0
  N  N271  1  0.16683000  0.78651000  0.75851000  1.0
  N  N272  1  0.57950000  0.78981000  0.71021000  1.0
  N  N273  1  0.92050000  0.28981000  0.78979000  1.0
  N  N274  1  0.57944000  0.71017000  0.28976000  1.0
  N  N275  1  0.92057000  0.21017000  0.21024000  1.0
  N  N276  1  0.42056000  0.21017000  0.28976000  1.0
  N  N277  1  0.07944000  0.71017000  0.21024000  1.0
  N  N278  1  0.42049000  0.28981000  0.71021000  1.0
  N  N279  1  0.07951000  0.78981000  0.78979000  1.0
  O  O280  1  0.90888000  0.71856000  0.69050000  1.0
  O  O281  1  0.59112000  0.21856000  0.80950000  1.0
  O  O282  1  0.90890000  0.78144000  0.30949000  1.0
  O  O283  1  0.59110000  0.28144000  0.19051000  1.0
  O  O284  1  0.09110000  0.28144000  0.30949000  1.0
  O  O285  1  0.40891000  0.78144000  0.19051000  1.0
  O  O286  1  0.09113000  0.21856000  0.69050000  1.0
  O  O287  1  0.40888000  0.71856000  0.80950000  1.0
