# generated using pymatgen
data_ZnH13C12S(NO2)3
_symmetry_space_group_name_H-M   'P 1'
_cell_length_a   6.65826000
_cell_length_b   10.28190000
_cell_length_c   21.79500000
_cell_angle_alpha   93.93680000
_cell_angle_beta   90.00000000
_cell_angle_gamma   90.00000000
_symmetry_Int_Tables_number   1
_chemical_formula_structural   ZnH13C12S(NO2)3
_chemical_formula_sum   'Zn4 H52 C48 S4 N12 O24'
_cell_volume   1488.55546565
_cell_formula_units_Z   4
loop_
 _symmetry_equiv_pos_site_id
 _symmetry_equiv_pos_as_xyz
  1  'x, y, z'
loop_
 _atom_site_type_symbol
 _atom_site_label
 _atom_site_symmetry_multiplicity
 _atom_site_fract_x
 _atom_site_fract_y
 _atom_site_fract_z
 _atom_site_occupancy
  Zn  Zn0  1  0.80106000  0.42663000  0.84645000  1.0
  Zn  Zn1  1  0.30106000  0.07337000  0.65356000  1.0
  Zn  Zn2  1  0.19894000  0.57337000  0.15355000  1.0
  Zn  Zn3  1  0.69894000  0.92663000  0.34645000  1.0
  H  H4  1  0.72308000  0.53936000  0.01980000  1.0
  H  H5  1  0.22307000  0.96064000  0.48020000  1.0
  H  H6  1  0.27693000  0.46064000  0.98020000  1.0
  H  H7  1  0.77693000  0.03936000  0.51980000  1.0
  H  H8  1  0.01501000  0.24918000  0.79806000  1.0
  H  H9  1  0.51501000  0.25082000  0.70194000  1.0
  H  H10  1  0.98499000  0.75082000  0.20194000  1.0
  H  H11  1  0.48499000  0.74918000  0.29806000  1.0
  H  H12  1  0.84475000  0.26469000  0.74459000  1.0
  H  H13  1  0.34475000  0.23531000  0.75541000  1.0
  H  H14  1  0.15525000  0.73531000  0.25541000  1.0
  H  H15  1  0.65525000  0.76469000  0.24459000  1.0
  H  H16  1  0.80552000  0.45762000  0.71687000  1.0
  H  H17  1  0.30551000  0.04238000  0.78313000  1.0
  H  H18  1  0.19448000  0.54238000  0.28313000  1.0
  H  H19  1  0.69448000  0.95762000  0.21687000  1.0
  H  H20  1  0.79893000  0.62151000  0.63959000  1.0
  H  H21  1  0.29893000  0.87849000  0.86041000  1.0
  H  H22  1  0.20107000  0.37849000  0.36041000  1.0
  H  H23  1  0.70107000  0.12151000  0.13959000  1.0
  H  H24  1  0.79397000  0.86200000  0.67676000  1.0
  H  H25  1  0.29397000  0.63801000  0.82324000  1.0
  H  H26  1  0.20603000  0.13801000  0.32324000  1.0
  H  H27  1  0.70603000  0.36199000  0.17676000  1.0
  H  H28  1  0.79816000  0.02525000  0.75942000  1.0
  H  H29  1  0.29817000  0.47475000  0.74058000  1.0
  H  H30  1  0.20183000  0.97475000  0.24058000  1.0
  H  H31  1  0.70183000  0.52525000  0.25942000  1.0
  H  H32  1  0.78687000  0.09113000  0.87192000  1.0
  H  H33  1  0.28687000  0.40887000  0.62808000  1.0
  H  H34  1  0.21313000  0.90887000  0.12808000  1.0
  H  H35  1  0.71313000  0.59113000  0.37192000  1.0
  H  H36  1  0.77378000  0.91936000  0.94641000  1.0
  H  H37  1  0.27378000  0.58064000  0.55359000  1.0
  H  H38  1  0.22622000  0.08064000  0.05359000  1.0
  H  H39  1  0.72622000  0.41936000  0.44641000  1.0
  H  H40  1  0.76114000  0.72525000  0.97644000  1.0
  H  H41  1  0.26114000  0.77475000  0.52356000  1.0
  H  H42  1  0.23886000  0.27475000  0.02356000  1.0
  H  H43  1  0.73886000  0.22525000  0.47644000  1.0
  H  H44  1  0.71630000  0.34724000  0.07026000  1.0
  H  H45  1  0.21631000  0.15276000  0.42974000  1.0
  H  H46  1  0.28369000  0.65276000  0.92974000  1.0
  H  H47  1  0.78369000  0.84724000  0.57026000  1.0
  H  H48  1  0.85748000  0.21369000  0.03530000  1.0
  H  H49  1  0.35749000  0.28631000  0.46470000  1.0
  H  H50  1  0.14252000  0.78631000  0.96470000  1.0
  H  H51  1  0.64252000  0.71369000  0.53530000  1.0
  H  H52  1  0.59608000  0.22233000  0.02124000  1.0
  H  H53  1  0.09609000  0.27767000  0.47876000  1.0
  H  H54  1  0.40392000  0.77767000  0.97876000  1.0
  H  H55  1  0.90392000  0.72233000  0.52124000  1.0
  C  C56  1  0.80141000  0.56073000  0.73220000  1.0
  C  C57  1  0.30141000  0.93927000  0.76780000  1.0
  C  C58  1  0.19859000  0.43927000  0.26780000  1.0
  C  C59  1  0.69859000  0.06073000  0.23220000  1.0
  C  C60  1  0.79835000  0.65408000  0.68817000  1.0
  C  C61  1  0.29835000  0.84592000  0.81183000  1.0
  C  C62  1  0.20165000  0.34592000  0.31183000  1.0
  C  C63  1  0.70165000  0.15408000  0.18817000  1.0
  C  C64  1  0.79677000  0.78383000  0.70815000  1.0
  C  C65  1  0.29677000  0.71617000  0.79185000  1.0
  C  C66  1  0.20323000  0.21617000  0.29185000  1.0
  C  C67  1  0.70323000  0.28383000  0.20815000  1.0
  C  C68  1  0.79492000  0.81904000  0.77214000  1.0
  C  C69  1  0.29492000  0.68096000  0.72786000  1.0
  C  C70  1  0.20508000  0.18096000  0.22786000  1.0
  C  C71  1  0.70507000  0.31904000  0.27214000  1.0
  C  C72  1  0.79318000  0.95245000  0.79335000  1.0
  C  C73  1  0.29318000  0.54755000  0.70666000  1.0
  C  C74  1  0.20682000  0.04755000  0.20665000  1.0
  C  C75  1  0.70682000  0.45245000  0.29334000  1.0
  C  C76  1  0.78754000  0.98864000  0.85540000  1.0
  C  C77  1  0.28754000  0.51136000  0.64460000  1.0
  C  C78  1  0.21246000  0.01136000  0.14460000  1.0
  C  C79  1  0.71246000  0.48864000  0.35540000  1.0
  C  C80  1  0.78162000  0.89093000  0.89723000  1.0
  C  C81  1  0.28162000  0.60906000  0.60277000  1.0
  C  C82  1  0.21838000  0.10906000  0.10277000  1.0
  C  C83  1  0.71838000  0.39093000  0.39723000  1.0
  C  C84  1  0.78414000  0.75734000  0.87941000  1.0
  C  C85  1  0.28414000  0.74266000  0.62059000  1.0
  C  C86  1  0.21586000  0.24266000  0.12059000  1.0
  C  C87  1  0.71586000  0.25734000  0.37941000  1.0
  C  C88  1  0.79349000  0.71834000  0.81459000  1.0
  C  C89  1  0.29349000  0.78166000  0.68541000  1.0
  C  C90  1  0.20651000  0.28166000  0.18541000  1.0
  C  C91  1  0.70651000  0.21834000  0.31459000  1.0
  C  C92  1  0.77280000  0.67466000  0.93053000  1.0
  C  C93  1  0.27280000  0.82534000  0.56947000  1.0
  C  C94  1  0.22720000  0.32534000  0.06947000  1.0
  C  C95  1  0.72720000  0.17466000  0.43053000  1.0
  C  C96  1  0.76918000  0.35187000  0.97221000  1.0
  C  C97  1  0.26918000  0.14813000  0.52779000  1.0
  C  C98  1  0.23082000  0.64813000  0.02779000  1.0
  C  C99  1  0.73082000  0.85187000  0.47221000  1.0
  C  C100  1  0.73263000  0.28112000  0.02895000  1.0
  C  C101  1  0.23264000  0.21889000  0.47105000  1.0
  C  C102  1  0.26736000  0.71889000  0.97105000  1.0
  C  C103  1  0.76736000  0.78111000  0.52895000  1.0
  S  S104  1  0.30465000  0.36389000  0.86306000  1.0
  S  S105  1  0.80464000  0.13611000  0.63694000  1.0
  S  S106  1  0.69536000  0.63611000  0.13694000  1.0
  S  S107  1  0.19535000  0.86389000  0.36306000  1.0
  N  N108  1  0.79946000  0.59012000  0.79279000  1.0
  N  N109  1  0.29947000  0.90988000  0.70721000  1.0
  N  N110  1  0.20054000  0.40988000  0.20721000  1.0
  N  N111  1  0.70053000  0.09012000  0.29279000  1.0
  N  N112  1  0.77424000  0.54851000  0.92623000  1.0
  N  N113  1  0.27424000  0.95149000  0.57377000  1.0
  N  N114  1  0.22576000  0.45149000  0.07377000  1.0
  N  N115  1  0.72576000  0.04851000  0.42623000  1.0
  N  N116  1  0.75654000  0.48444000  0.97841000  1.0
  N  N117  1  0.25654000  0.01556000  0.52159000  1.0
  N  N118  1  0.24346000  0.51556000  0.02159000  1.0
  N  N119  1  0.74346000  0.98444000  0.47841000  1.0
  O  O120  1  0.80842000  0.29297000  0.92164000  1.0
  O  O121  1  0.30842000  0.20703000  0.57836000  1.0
  O  O122  1  0.19159000  0.70703000  0.07836000  1.0
  O  O123  1  0.69159000  0.79297000  0.42164000  1.0
  O  O124  1  0.48669000  0.41833000  0.83385000  1.0
  O  O125  1  0.98669000  0.08166000  0.66615000  1.0
  O  O126  1  0.51331000  0.58167000  0.16615000  1.0
  O  O127  1  0.01331000  0.91833000  0.33385000  1.0
  O  O128  1  0.34331000  0.33911000  0.92827000  1.0
  O  O129  1  0.84332000  0.16089000  0.57174000  1.0
  O  O130  1  0.65669000  0.66089000  0.07173000  1.0
  O  O131  1  0.15669000  0.83911000  0.42827000  1.0
  O  O132  1  0.24846000  0.23891000  0.82697000  1.0
  O  O133  1  0.74846000  0.26109000  0.67303000  1.0
  O  O134  1  0.75154000  0.76109000  0.17303000  1.0
  O  O135  1  0.25154000  0.73891000  0.32697000  1.0
  O  O136  1  0.13885000  0.46074000  0.85908000  1.0
  O  O137  1  0.63885000  0.03925000  0.64092000  1.0
  O  O138  1  0.86115000  0.53925000  0.14092000  1.0
  O  O139  1  0.36115000  0.96074000  0.35908000  1.0
  O  O140  1  0.87086000  0.26935000  0.78986000  1.0
  O  O141  1  0.37086000  0.23064000  0.71014000  1.0
  O  O142  1  0.12914000  0.73065000  0.21014000  1.0
  O  O143  1  0.62914000  0.76935000  0.28986000  1.0
