# generated using pymatgen
data_GdH15(C3O4)3
_symmetry_space_group_name_H-M   'P 1'
_cell_length_a   7.11298000
_cell_length_b   10.01740000
_cell_length_c   10.50920155
_cell_angle_alpha   115.00826561
_cell_angle_beta   105.21159941
_cell_angle_gamma   99.14920000
_symmetry_Int_Tables_number   1
_chemical_formula_structural   GdH15(C3O4)3
_chemical_formula_sum   'Gd2 H30 C18 O24'
_cell_volume   622.86182176
_cell_formula_units_Z   2
loop_
 _symmetry_equiv_pos_site_id
 _symmetry_equiv_pos_as_xyz
  1  'x, y, z'
loop_
 _atom_site_type_symbol
 _atom_site_label
 _atom_site_symmetry_multiplicity
 _atom_site_fract_x
 _atom_site_fract_y
 _atom_site_fract_z
 _atom_site_occupancy
  Gd  Gd0  1  0.50353000  0.00764000  0.66418000  1.0
  Gd  Gd1  1  0.33935000  0.34343000  0.33575000  1.0
  H  H2  1  0.81999000  0.84837000  0.73273000  1.0
  H  H3  1  0.58725000  0.11570000  0.26720000  1.0
  H  H4  1  0.71912000  0.42629000  0.98317000  1.0
  H  H5  1  0.23653000  0.44310000  0.01691000  1.0
  H  H6  1  0.51341000  0.65933000  0.73784000  1.0
  H  H7  1  0.27559000  0.92138000  0.26208000  1.0
  H  H8  1  0.76016000  0.90721000  0.22340000  1.0
  H  H9  1  0.03619000  0.68344000  0.77656000  1.0
  H  H10  1  0.04819000  0.82093000  0.54574000  1.0
  H  H11  1  0.00236000  0.27527000  0.45421000  1.0
  H  H12  1  0.85320000  0.12312000  0.58608000  1.0
  H  H13  1  0.76728000  0.53709000  0.41406000  1.0
  H  H14  1  0.10319000  0.95931000  0.44136000  1.0
  H  H15  1  0.16200000  0.51783000  0.55876000  1.0
  H  H16  1  0.20792000  0.12967000  0.48026000  1.0
  H  H17  1  0.22763000  0.64940000  0.51996000  1.0
  H  H18  1  0.39153000  0.21014000  0.93987000  1.0
  H  H19  1  0.95171000  0.27023000  0.06013000  1.0
  H  H20  1  0.93524000  0.21410000  0.82869000  1.0
  H  H21  1  0.60689000  0.38571000  0.17148000  1.0
  H  H22  1  0.25570000  0.21516000  0.79447000  1.0
  H  H23  1  0.96161000  0.42092000  0.20552000  1.0
  H  H24  1  0.76037000  0.94385000  0.46604000  1.0
  H  H25  1  0.79433000  0.47770000  0.53399000  1.0
  H  H26  1  0.14903000  0.88050000  0.72355000  1.0
  H  H27  1  0.92540000  0.15714000  0.27636000  1.0
  H  H28  1  0.94546000  0.08259000  0.87661000  1.0
  H  H29  1  0.56908000  0.20623000  0.12338000  1.0
  H  H30  1  0.67096000  0.71297000  0.57209000  1.0
  H  H31  1  0.59885000  0.14096000  0.42789000  1.0
  C  C32  1  0.82518000  0.67286000  0.26912000  1.0
  C  C33  1  0.05594000  0.40358000  0.73089000  1.0
  C  C34  1  0.61331000  0.52828000  0.84627000  1.0
  C  C35  1  0.26729000  0.68195000  0.15373000  1.0
  C  C36  1  0.55266000  0.37822000  0.70120000  1.0
  C  C37  1  0.35175000  0.67710000  0.29886000  1.0
  C  C38  1  0.63700000  0.80018000  0.98112000  1.0
  C  C39  1  0.15571000  0.81887000  0.01882000  1.0
  C  C40  1  0.60802000  0.94665000  0.98415000  1.0
  C  C41  1  0.12368000  0.96229000  0.01578000  1.0
  C  C42  1  0.74726000  0.66756000  0.12038000  1.0
  C  C43  1  0.12689000  0.54701000  0.87964000  1.0
  C  C44  1  0.69665000  0.53168000  0.98432000  1.0
  C  C45  1  0.21262000  0.54725000  0.01571000  1.0
  C  C46  1  0.58158000  0.66237000  0.84505000  1.0
  C  C47  1  0.23660000  0.81721000  0.15488000  1.0
  C  C48  1  0.71906000  0.80126000  0.11759000  1.0
  C  C49  1  0.10121000  0.68342000  0.88238000  1.0
  O  O50  1  0.70302000  0.82393000  0.64259000  1.0
  O  O51  1  0.56026000  0.18132000  0.35731000  1.0
  O  O52  1  0.86095000  0.15198000  0.86341000  1.0
  O  O53  1  0.49785000  0.28887000  0.13667000  1.0
  O  O54  1  0.72119000  0.03679000  0.51899000  1.0
  O  O55  1  0.70225000  0.51773000  0.48106000  1.0
  O  O56  1  0.61727000  0.26982000  0.70901000  1.0
  O  O57  1  0.40866000  0.56095000  0.29118000  1.0
  O  O58  1  0.43800000  0.36903000  0.58058000  1.0
  O  O59  1  0.35763000  0.78860000  0.41943000  1.0
  O  O60  1  0.88463000  0.80361000  0.38908000  1.0
  O  O61  1  0.99544000  0.41437000  0.61093000  1.0
  O  O62  1  0.82753000  0.54693000  0.27241000  1.0
  O  O63  1  0.05488000  0.27434000  0.72757000  1.0
  O  O64  1  0.66336000  0.06753000  0.11431000  1.0
  O  O65  1  0.04883000  0.95294000  0.88557000  1.0
  O  O66  1  0.53118000  0.94524000  0.86100000  1.0
  O  O67  1  0.17016000  0.08409000  0.13890000  1.0
  O  O68  1  0.35568000  0.16855000  0.82973000  1.0
  O  O69  1  0.02638000  0.33907000  0.17019000  1.0
  O  O70  1  0.23110000  0.04664000  0.50294000  1.0
  O  O71  1  0.22813000  0.54364000  0.49708000  1.0
  O  O72  1  0.17412000  0.83750000  0.62824000  1.0
  O  O73  1  0.04577000  0.20938000  0.37162000  1.0
