# generated using pymatgen
data_AlZnH3C2N3F5
_symmetry_space_group_name_H-M   'P 1'
_cell_length_a   7.21848000
_cell_length_b   7.37968000
_cell_length_c   7.37968000
_cell_angle_alpha   74.41040000
_cell_angle_beta   60.71890000
_cell_angle_gamma   60.71890000
_symmetry_Int_Tables_number   1
_chemical_formula_structural   AlZnH3C2N3F5
_chemical_formula_sum   'Al2 Zn2 H6 C4 N6 F10'
_cell_volume   298.85193973
_cell_formula_units_Z   2
loop_
 _symmetry_equiv_pos_site_id
 _symmetry_equiv_pos_as_xyz
  1  'x, y, z'
loop_
 _atom_site_type_symbol
 _atom_site_label
 _atom_site_symmetry_multiplicity
 _atom_site_fract_x
 _atom_site_fract_y
 _atom_site_fract_z
 _atom_site_occupancy
  Al  Al0  1  0.50000000  0.00000000  0.00000000  1.0
  Al  Al1  1  0.00000000  0.00000000  0.00000000  1.0
  Zn  Zn2  1  0.00000000  0.50000000  0.00000000  1.0
  Zn  Zn3  1  0.00000000  0.00000000  0.50000000  1.0
  H  H4  1  0.66511000  0.82080000  0.34895000  1.0
  H  H5  1  0.33489000  0.65105000  0.17920000  1.0
  H  H6  1  0.33489000  0.17920000  0.65105000  1.0
  H  H7  1  0.66511000  0.34895000  0.82080000  1.0
  H  H8  1  0.50460000  0.74538000  0.74538000  1.0
  H  H9  1  0.49540000  0.25462000  0.25462000  1.0
  C  C10  1  0.70237000  0.66895000  0.42627000  1.0
  C  C11  1  0.29764000  0.57373000  0.33105000  1.0
  C  C12  1  0.29763000  0.33105000  0.57373000  1.0
  C  C13  1  0.70237000  0.42627000  0.66895000  1.0
  N  N14  1  0.83853000  0.48919000  0.33372000  1.0
  N  N15  1  0.16147000  0.66628000  0.51081000  1.0
  N  N16  1  0.16147000  0.51081000  0.66629000  1.0
  N  N17  1  0.83853000  0.33372000  0.48919000  1.0
  N  N18  1  0.61518000  0.63479000  0.63480000  1.0
  N  N19  1  0.38482000  0.36521000  0.36520000  1.0
  F  F20  1  0.69153000  0.05849000  0.05849000  1.0
  F  F21  1  0.30847000  0.94151000  0.94151000  1.0
  F  F22  1  0.32349000  0.27550000  0.99085000  1.0
  F  F23  1  0.67651000  0.00915000  0.72450000  1.0
  F  F24  1  0.08982000  0.72448000  0.00915000  1.0
  F  F25  1  0.91017000  0.99085000  0.27552000  1.0
  F  F26  1  0.67651000  0.72450000  0.00915000  1.0
  F  F27  1  0.32349000  0.99085000  0.27550000  1.0
  F  F28  1  0.91017000  0.27552000  0.99085000  1.0
  F  F29  1  0.08983000  0.00915000  0.72448000  1.0
