# generated using pymatgen
data_H10PbC20Br4(N2O3)2
_symmetry_space_group_name_H-M   'P 1'
_cell_length_a   8.93432000
_cell_length_b   8.93426000
_cell_length_c   14.92550000
_cell_angle_alpha   78.49010000
_cell_angle_beta   78.49030000
_cell_angle_gamma   80.06590000
_symmetry_Int_Tables_number   1
_chemical_formula_structural   H10PbC20Br4(N2O3)2
_chemical_formula_sum   'H20 Pb2 C40 Br8 N8 O12'
_cell_volume   1132.96496276
_cell_formula_units_Z   2
loop_
 _symmetry_equiv_pos_site_id
 _symmetry_equiv_pos_as_xyz
  1  'x, y, z'
loop_
 _atom_site_type_symbol
 _atom_site_label
 _atom_site_symmetry_multiplicity
 _atom_site_fract_x
 _atom_site_fract_y
 _atom_site_fract_z
 _atom_site_occupancy
  H  H0  1  0.45406000  0.16997000  0.97953000  1.0
  H  H1  1  0.83004000  0.54594000  0.52047000  1.0
  H  H2  1  0.54593000  0.83003000  0.02047000  1.0
  H  H3  1  0.16998000  0.45407000  0.47953000  1.0
  H  H4  1  0.02972000  0.50983000  0.24197000  1.0
  H  H5  1  0.49017000  0.97028000  0.25803000  1.0
  H  H6  1  0.97028000  0.49018000  0.75803000  1.0
  H  H7  1  0.50982000  0.02971000  0.74197000  1.0
  H  H8  1  0.89682000  0.29107000  0.23495000  1.0
  H  H9  1  0.70893000  0.10318000  0.26504000  1.0
  H  H10  1  0.10318000  0.70893000  0.76505000  1.0
  H  H11  1  0.29107000  0.89682000  0.73496000  1.0
  H  H12  1  0.05752000  0.05965000  0.16990000  1.0
  H  H13  1  0.94035000  0.94248000  0.33010000  1.0
  H  H14  1  0.94248000  0.94035000  0.83012000  1.0
  H  H15  1  0.05965000  0.05752000  0.66989000  1.0
  H  H16  1  0.45137000  0.30237000  0.12087000  1.0
  H  H17  1  0.69763000  0.54863000  0.37913000  1.0
  H  H18  1  0.54863000  0.69763000  0.87913000  1.0
  H  H19  1  0.30237000  0.45137000  0.62087000  1.0
  Pb  Pb20  1  0.40012000  0.59988000  0.25000000  1.0
  Pb  Pb21  1  0.59986000  0.40014000  0.75000000  1.0
  C  C22  1  0.43816000  0.30521000  0.38857000  1.0
  C  C23  1  0.69479000  0.56183000  0.11142000  1.0
  C  C24  1  0.56183000  0.69479000  0.61142000  1.0
  C  C25  1  0.30522000  0.43816000  0.88858000  1.0
  C  C26  1  0.46742000  0.14954000  0.44964000  1.0
  C  C27  1  0.85047000  0.53257000  0.05035000  1.0
  C  C28  1  0.53257000  0.85047000  0.55034000  1.0
  C  C29  1  0.14954000  0.46741000  0.94965000  1.0
  C  C30  1  0.36412000  0.04270000  0.46330000  1.0
  C  C31  1  0.95731000  0.63587000  0.03669000  1.0
  C  C32  1  0.63588000  0.95730000  0.53668000  1.0
  C  C33  1  0.04271000  0.36410000  0.96331000  1.0
  C  C34  1  0.39638000  0.89420000  0.51326000  1.0
  C  C35  1  0.10580000  0.60360000  0.98674000  1.0
  C  C36  1  0.60362000  0.10579000  0.48673000  1.0
  C  C37  1  0.89421000  0.39637000  0.01327000  1.0
  C  C38  1  0.09425000  0.40940000  0.21384000  1.0
  C  C39  1  0.59061000  0.90575000  0.28616000  1.0
  C  C40  1  0.90575000  0.59061000  0.78616000  1.0
  C  C41  1  0.40939000  0.09425000  0.71384000  1.0
  C  C42  1  0.02069000  0.28526000  0.21057000  1.0
  C  C43  1  0.71474000  0.97931000  0.28944000  1.0
  C  C44  1  0.97930000  0.71474000  0.78944000  1.0
  C  C45  1  0.28526000  0.02070000  0.71056000  1.0
  C  C46  1  0.10823000  0.16033000  0.17367000  1.0
  C  C47  1  0.83967000  0.89177000  0.32633000  1.0
  C  C48  1  0.89177000  0.83967000  0.82634000  1.0
  C  C49  1  0.16033000  0.10823000  0.67367000  1.0
  C  C50  1  0.26510000  0.16581000  0.13845000  1.0
  C  C51  1  0.83419000  0.73490000  0.36155000  1.0
  C  C52  1  0.73490000  0.83420000  0.86156000  1.0
  C  C53  1  0.16581000  0.26510000  0.63844000  1.0
  C  C54  1  0.32905000  0.29472000  0.14508000  1.0
  C  C55  1  0.70528000  0.67095000  0.35493000  1.0
  C  C56  1  0.67095000  0.70528000  0.85493000  1.0
  C  C57  1  0.29472000  0.32905000  0.64508000  1.0
  C  C58  1  0.35794000  0.02964000  0.10091000  1.0
  C  C59  1  0.97036000  0.64205000  0.39910000  1.0
  C  C60  1  0.64204000  0.97036000  0.89910000  1.0
  C  C61  1  0.02965000  0.35796000  0.60090000  1.0
  Br  Br62  1  0.18031000  0.10318000  0.41206000  1.0
  Br  Br63  1  0.89683000  0.81969000  0.08794000  1.0
  Br  Br64  1  0.81970000  0.89682000  0.58793000  1.0
  Br  Br65  1  0.10318000  0.18030000  0.91206000  1.0
  Br  Br66  1  0.25489000  0.75112000  0.53273000  1.0
  Br  Br67  1  0.24888000  0.74510000  0.96727000  1.0
  Br  Br68  1  0.74512000  0.24887000  0.46727000  1.0
  Br  Br69  1  0.75113000  0.25487000  0.03273000  1.0
  N  N70  1  0.24560000  0.41337000  0.18323000  1.0
  N  N71  1  0.58663000  0.75440000  0.31678000  1.0
  N  N72  1  0.75440000  0.58663000  0.81678000  1.0
  N  N73  1  0.41337000  0.24560000  0.68323000  1.0
  N  N74  1  0.45796000  0.06056000  0.02048000  1.0
  N  N75  1  0.93944000  0.54204000  0.47952000  1.0
  N  N76  1  0.54203000  0.93943000  0.97953000  1.0
  N  N77  1  0.06057000  0.45797000  0.52047000  1.0
  O  O78  1  0.36608000  0.41977000  0.42503000  1.0
  O  O79  1  0.58024000  0.63392000  0.07496000  1.0
  O  O80  1  0.63392000  0.58024000  0.57496000  1.0
  O  O81  1  0.41977000  0.36608000  0.92504000  1.0
  O  O82  1  0.49039000  0.30928000  0.30313000  1.0
  O  O83  1  0.69073000  0.50962000  0.19686000  1.0
  O  O84  1  0.50961000  0.69074000  0.69686000  1.0
  O  O85  1  0.30928000  0.49039000  0.80314000  1.0
  O  O86  1  0.34306000  0.89557000  0.14196000  1.0
  O  O87  1  0.10443000  0.65694000  0.35804000  1.0
  O  O88  1  0.65692000  0.10443000  0.85805000  1.0
  O  O89  1  0.89557000  0.34308000  0.64196000  1.0
