# generated using pymatgen
data_CdH8(C3N2)4
_symmetry_space_group_name_H-M   'P 1'
_cell_length_a   6.77924000
_cell_length_b   10.27440000
_cell_length_c   10.90610000
_cell_angle_alpha   61.91600000
_cell_angle_beta   75.85700000
_cell_angle_gamma   89.97870000
_symmetry_Int_Tables_number   1
_chemical_formula_structural   CdH8(C3N2)4
_chemical_formula_sum   'Cd2 H16 C24 N16'
_cell_volume   644.02013403
_cell_formula_units_Z   2
loop_
 _symmetry_equiv_pos_site_id
 _symmetry_equiv_pos_as_xyz
  1  'x, y, z'
loop_
 _atom_site_type_symbol
 _atom_site_label
 _atom_site_symmetry_multiplicity
 _atom_site_fract_x
 _atom_site_fract_y
 _atom_site_fract_z
 _atom_site_occupancy
  Cd  Cd0  1  0.25004000  0.41948000  0.99985000  1.0
  Cd  Cd1  1  0.74996000  0.58051000  0.00016000  1.0
  H  H2  1  0.96807000  0.16483000  0.32598000  1.0
  H  H3  1  0.53212000  0.49058000  0.67377000  1.0
  H  H4  1  0.03193000  0.83517000  0.67402000  1.0
  H  H5  1  0.46788000  0.50942000  0.32623000  1.0
  H  H6  1  0.86113000  0.88913000  0.47046000  1.0
  H  H7  1  0.63913000  0.35927000  0.52929000  1.0
  H  H8  1  0.13887000  0.11086000  0.52953000  1.0
  H  H9  1  0.36087000  0.64074000  0.47070000  1.0
  H  H10  1  0.97708000  0.73135000  0.35378000  1.0
  H  H11  1  0.52297000  0.08488000  0.64603000  1.0
  H  H12  1  0.02292000  0.26865000  0.64622000  1.0
  H  H13  1  0.47703000  0.91512000  0.35397000  1.0
  H  H14  1  0.15032000  0.72089000  0.12832000  1.0
  H  H15  1  0.34976000  0.84922000  0.87143000  1.0
  H  H16  1  0.84968000  0.27911000  0.87168000  1.0
  H  H17  1  0.65024000  0.15078000  0.12857000  1.0
  C  C18  1  0.01701000  0.09308000  0.27884000  1.0
  C  C19  1  0.48314000  0.37173000  0.72092000  1.0
  C  C20  1  0.98299000  0.90692000  0.72116000  1.0
  C  C21  1  0.51686000  0.62828000  0.27908000  1.0
  C  C22  1  0.95820000  0.93822000  0.35964000  1.0
  C  C23  1  0.54197000  0.29762000  0.64007000  1.0
  C  C24  1  0.04180000  0.06177000  0.64036000  1.0
  C  C25  1  0.45803000  0.70238000  0.35993000  1.0
  C  C26  1  0.01824000  0.85217000  0.29416000  1.0
  C  C27  1  0.48198000  0.14616000  0.70562000  1.0
  C  C28  1  0.98175000  0.14782000  0.70584000  1.0
  C  C29  1  0.51802000  0.85384000  0.29439000  1.0
  C  C30  1  0.13414000  0.92180000  0.14744000  1.0
  C  C31  1  0.36611000  0.06921000  0.85235000  1.0
  C  C32  1  0.86586000  0.07820000  0.85256000  1.0
  C  C33  1  0.63389000  0.93079000  0.14765000  1.0
  C  C34  1  0.18963000  0.07878000  0.07478000  1.0
  C  C35  1  0.31038000  0.15360000  0.92500000  1.0
  C  C36  1  0.81038000  0.92122000  0.92521000  1.0
  C  C37  1  0.68962000  0.84640000  0.07499000  1.0
  C  C38  1  0.19484000  0.84084000  0.07092000  1.0
  C  C39  1  0.30540000  0.91179000  0.92886000  1.0
  C  C40  1  0.80517000  0.15916000  0.92908000  1.0
  C  C41  1  0.69460000  0.08821000  0.07113000  1.0
  N  N42  1  0.98596000  0.47256000  0.14364000  1.0
  N  N43  1  0.51435000  0.61606000  0.85626000  1.0
  N  N44  1  0.01404000  0.52744000  0.85637000  1.0
  N  N45  1  0.48565000  0.38394000  0.14374000  1.0
  N  N46  1  0.98552000  0.46319000  0.25827000  1.0
  N  N47  1  0.51496000  0.72139000  0.74165000  1.0
  N  N48  1  0.01447000  0.53681000  0.74174000  1.0
  N  N49  1  0.48504000  0.27862000  0.25834000  1.0
  N  N50  1  0.98508000  0.45573000  0.36858000  1.0
  N  N51  1  0.51558000  0.82428000  0.63139000  1.0
  N  N52  1  0.01491000  0.54428000  0.63142000  1.0
  N  N53  1  0.48442000  0.17572000  0.36861000  1.0
  N  N54  1  0.13122000  0.16075000  0.14181000  1.0
  N  N55  1  0.36890000  0.30253000  0.85793000  1.0
  N  N56  1  0.86878000  0.83925000  0.85819000  1.0
  N  N57  1  0.63110000  0.69747000  0.14207000  1.0
