# generated using pymatgen
data_H22PbC16(N2O5)2
_symmetry_space_group_name_H-M   'P 1'
_cell_length_a   9.40990000
_cell_length_b   9.41011000
_cell_length_c   11.16150000
_cell_angle_alpha   83.88190000
_cell_angle_beta   83.88080000
_cell_angle_gamma   89.75500000
_symmetry_Int_Tables_number   1
_chemical_formula_structural   H22PbC16(N2O5)2
_chemical_formula_sum   'H44 Pb2 C32 N8 O20'
_cell_volume   977.07720900
_cell_formula_units_Z   2
loop_
 _symmetry_equiv_pos_site_id
 _symmetry_equiv_pos_as_xyz
  1  'x, y, z'
loop_
 _atom_site_type_symbol
 _atom_site_label
 _atom_site_symmetry_multiplicity
 _atom_site_fract_x
 _atom_site_fract_y
 _atom_site_fract_z
 _atom_site_occupancy
  H  H0  1  0.70382000  0.84721000  0.70150000  1.0
  H  H1  1  0.15278000  0.29618000  0.79851000  1.0
  H  H2  1  0.29618000  0.15279000  0.29849000  1.0
  H  H3  1  0.84722000  0.70382000  0.20150000  1.0
  H  H4  1  0.53888000  0.17713000  0.93386000  1.0
  H  H5  1  0.82287000  0.46113000  0.56613000  1.0
  H  H6  1  0.46115000  0.82289000  0.06612000  1.0
  H  H7  1  0.17711000  0.53885000  0.43388000  1.0
  H  H8  1  0.15173000  0.05569000  0.47869000  1.0
  H  H9  1  0.94431000  0.84828000  0.02131000  1.0
  H  H10  1  0.84828000  0.94429000  0.52132000  1.0
  H  H11  1  0.05570000  0.15172000  0.97869000  1.0
  H  H12  1  0.12544000  0.89607000  0.46389000  1.0
  H  H13  1  0.10393000  0.87457000  0.03611000  1.0
  H  H14  1  0.87456000  0.10392000  0.53610000  1.0
  H  H15  1  0.89607000  0.12545000  0.96390000  1.0
  H  H16  1  0.35547000  0.69353000  0.61643000  1.0
  H  H17  1  0.30647000  0.64452000  0.88357000  1.0
  H  H18  1  0.64452000  0.30647000  0.38358000  1.0
  H  H19  1  0.69354000  0.35548000  0.11642000  1.0
  H  H20  1  0.53274000  0.63727000  0.63712000  1.0
  H  H21  1  0.36273000  0.46726000  0.86288000  1.0
  H  H22  1  0.46725000  0.36272000  0.36288000  1.0
  H  H23  1  0.63727000  0.53274000  0.13712000  1.0
  H  H24  1  0.44357000  0.87037000  0.44774000  1.0
  H  H25  1  0.12963000  0.55644000  0.05226000  1.0
  H  H26  1  0.55641000  0.12962000  0.55226000  1.0
  H  H27  1  0.87037000  0.44358000  0.94773000  1.0
  H  H28  1  0.62376000  0.83613000  0.47325000  1.0
  H  H29  1  0.16385000  0.37625000  0.02675000  1.0
  H  H30  1  0.37623000  0.16386000  0.52674000  1.0
  H  H31  1  0.83614000  0.62376000  0.97325000  1.0
  H  H32  1  0.60205000  0.58581000  0.42242000  1.0
  H  H33  1  0.41418000  0.39795000  0.07758000  1.0
  H  H34  1  0.39794000  0.41417000  0.57758000  1.0
  H  H35  1  0.58581000  0.60206000  0.92243000  1.0
  H  H36  1  0.55663000  0.70802000  0.30052000  1.0
  H  H37  1  0.29198000  0.44337000  0.19949000  1.0
  H  H38  1  0.44334000  0.29197000  0.69948000  1.0
  H  H39  1  0.70801000  0.55664000  0.80051000  1.0
  H  H40  1  0.41976000  0.61497000  0.39771000  1.0
  H  H41  1  0.38504000  0.58023000  0.10229000  1.0
  H  H42  1  0.58022000  0.38502000  0.60229000  1.0
  H  H43  1  0.61496000  0.41977000  0.89771000  1.0
  Pb  Pb44  1  0.08459000  0.91540000  0.75000000  1.0
  Pb  Pb45  1  0.91542000  0.08459000  0.25000000  1.0
  C  C46  1  0.33754000  0.11383000  0.87381000  1.0
  C  C47  1  0.88616000  0.66245000  0.62619000  1.0
  C  C48  1  0.66248000  0.88617000  0.12619000  1.0
  C  C49  1  0.11383000  0.33754000  0.37381000  1.0
  C  C50  1  0.42703000  0.00819000  0.81205000  1.0
  C  C51  1  0.99181000  0.57297000  0.68796000  1.0
  C  C52  1  0.57299000  0.99181000  0.18795000  1.0
  C  C53  1  0.00818000  0.42703000  0.31205000  1.0
  C  C54  1  0.57511000  0.98937000  0.80398000  1.0
  C  C55  1  0.01062000  0.42490000  0.69602000  1.0
  C  C56  1  0.42491000  0.01063000  0.19601000  1.0
  C  C57  1  0.98937000  0.57511000  0.30399000  1.0
  C  C58  1  0.68937000  0.05303000  0.86154000  1.0
  C  C59  1  0.94697000  0.31063000  0.63845000  1.0
  C  C60  1  0.31064000  0.94698000  0.13844000  1.0
  C  C61  1  0.05303000  0.68937000  0.36155000  1.0
  C  C62  1  0.47698000  0.83896000  0.69507000  1.0
  C  C63  1  0.16104000  0.52302000  0.80494000  1.0
  C  C64  1  0.52302000  0.16104000  0.30493000  1.0
  C  C65  1  0.83896000  0.47699000  0.19506000  1.0
  C  C66  1  0.46709000  0.72963000  0.60974000  1.0
  C  C67  1  0.27038000  0.53291000  0.89026000  1.0
  C  C68  1  0.53290000  0.27037000  0.39027000  1.0
  C  C69  1  0.72963000  0.46710000  0.10973000  1.0
  C  C70  1  0.51763000  0.78638000  0.47744000  1.0
  C  C71  1  0.21361000  0.48237000  0.02257000  1.0
  C  C72  1  0.48236000  0.21361000  0.52256000  1.0
  C  C73  1  0.78638000  0.51764000  0.97743000  1.0
  C  C74  1  0.52434000  0.66685000  0.39505000  1.0
  C  C75  1  0.33314000  0.47566000  0.10494000  1.0
  C  C76  1  0.47564000  0.33314000  0.60494000  1.0
  C  C77  1  0.66686000  0.52435000  0.89506000  1.0
  N  N78  1  0.36866000  0.91330000  0.74513000  1.0
  N  N79  1  0.08669000  0.63134000  0.75487000  1.0
  N  N80  1  0.63136000  0.08670000  0.25487000  1.0
  N  N81  1  0.91330000  0.36866000  0.24513000  1.0
  N  N82  1  0.60246000  0.88257000  0.73007000  1.0
  N  N83  1  0.11743000  0.39754000  0.76993000  1.0
  N  N84  1  0.39754000  0.11743000  0.26991000  1.0
  N  N85  1  0.88257000  0.60246000  0.23008000  1.0
  O  O86  1  0.20494000  0.11960000  0.85875000  1.0
  O  O87  1  0.88039000  0.79505000  0.64126000  1.0
  O  O88  1  0.79507000  0.88039000  0.14126000  1.0
  O  O89  1  0.11961000  0.20494000  0.35874000  1.0
  O  O90  1  0.39598000  0.19783000  0.93696000  1.0
  O  O91  1  0.80216000  0.60401000  0.56305000  1.0
  O  O92  1  0.60403000  0.80218000  0.06304000  1.0
  O  O93  1  0.19783000  0.39598000  0.43696000  1.0
  O  O94  1  0.65367000  0.15665000  0.92889000  1.0
  O  O95  1  0.84335000  0.34633000  0.57110000  1.0
  O  O96  1  0.34634000  0.84337000  0.07109000  1.0
  O  O97  1  0.15663000  0.65366000  0.42891000  1.0
  O  O98  1  0.81457000  0.00896000  0.85002000  1.0
  O  O99  1  0.99103000  0.18543000  0.64998000  1.0
  O  O100  1  0.18544000  0.99103000  0.14998000  1.0
  O  O101  1  0.00898000  0.81457000  0.35002000  1.0
  O  O102  1  0.17171000  0.95811000  0.51447000  1.0
  O  O103  1  0.04189000  0.82830000  0.98553000  1.0
  O  O104  1  0.82830000  0.04187000  0.48553000  1.0
  O  O105  1  0.95813000  0.17171000  0.01447000  1.0
