# generated using pymatgen
data_ZnH20C13S2N4O9
_symmetry_space_group_name_H-M   'P 1'
_cell_length_a   7.71548000
_cell_length_b   8.83451000
_cell_length_c   14.30020000
_cell_angle_alpha   90.00040000
_cell_angle_beta   90.00010000
_cell_angle_gamma   97.45850000
_symmetry_Int_Tables_number   1
_chemical_formula_structural   ZnH20C13S2N4O9
_chemical_formula_sum   'Zn2 H40 C26 S4 N8 O18'
_cell_volume   966.49005916
_cell_formula_units_Z   2
loop_
 _symmetry_equiv_pos_site_id
 _symmetry_equiv_pos_as_xyz
  1  'x, y, z'
loop_
 _atom_site_type_symbol
 _atom_site_label
 _atom_site_symmetry_multiplicity
 _atom_site_fract_x
 _atom_site_fract_y
 _atom_site_fract_z
 _atom_site_occupancy
  Zn  Zn0  1  0.29060000  0.38475000  0.75000000  1.0
  Zn  Zn1  1  0.70940000  0.61525000  0.25000000  1.0
  H  H2  1  0.37366000  0.18814000  0.09705000  1.0
  H  H3  1  0.62634000  0.81186000  0.59705000  1.0
  H  H4  1  0.62634000  0.81186000  0.90295000  1.0
  H  H5  1  0.37366000  0.18814000  0.40295000  1.0
  H  H6  1  0.45698000  0.38634000  0.09108000  1.0
  H  H7  1  0.54301000  0.61367000  0.59108000  1.0
  H  H8  1  0.54301000  0.61366000  0.90892000  1.0
  H  H9  1  0.45699000  0.38634000  0.40892000  1.0
  H  H10  1  0.03046000  0.13354000  0.12540000  1.0
  H  H11  1  0.96954000  0.86645000  0.62540000  1.0
  H  H12  1  0.96954000  0.86645000  0.87460000  1.0
  H  H13  1  0.03046000  0.13354000  0.37460000  1.0
  H  H14  1  0.10585000  0.12340000  0.00907000  1.0
  H  H15  1  0.89415000  0.87660000  0.50907000  1.0
  H  H16  1  0.89415000  0.87660000  0.99093000  1.0
  H  H17  1  0.10585000  0.12340000  0.49093000  1.0
  H  H18  1  0.01417000  0.43948000  0.16290000  1.0
  H  H19  1  0.98583000  0.56051000  0.66290000  1.0
  H  H20  1  0.98584000  0.56052000  0.83710000  1.0
  H  H21  1  0.01417000  0.43949000  0.33710000  1.0
  H  H22  1  0.23032000  0.53556000  0.15504000  1.0
  H  H23  1  0.76968000  0.46444000  0.65504000  1.0
  H  H24  1  0.76968000  0.46444000  0.84496000  1.0
  H  H25  1  0.23032000  0.53556000  0.34496000  1.0
  H  H26  1  0.13844000  0.22302000  0.25000000  1.0
  H  H27  1  0.86156000  0.77698000  0.75000000  1.0
  H  H28  1  0.34545000  0.33679000  0.25000000  1.0
  H  H29  1  0.65455000  0.66321000  0.75000000  1.0
  H  H30  1  0.16316000  0.41228000  0.01937000  1.0
  H  H31  1  0.83683000  0.58772000  0.51937000  1.0
  H  H32  1  0.83683000  0.58772000  0.98063000  1.0
  H  H33  1  0.16316000  0.41228000  0.48063000  1.0
  H  H34  1  0.53493000  0.24221000  0.69276000  1.0
  H  H35  1  0.46507000  0.75779000  0.19276000  1.0
  H  H36  1  0.46507000  0.75779000  0.30724000  1.0
  H  H37  1  0.53493000  0.24221000  0.80724000  1.0
  H  H38  1  0.65386000  0.14742000  0.97689000  1.0
  H  H39  1  0.34614000  0.85258000  0.47689000  1.0
  H  H40  1  0.34613000  0.85258000  0.02311000  1.0
  H  H41  1  0.65387000  0.14742000  0.52311000  1.0
  C  C42  1  0.36183000  0.29590000  0.06107000  1.0
  C  C43  1  0.63817000  0.70410000  0.56106000  1.0
  C  C44  1  0.63817000  0.70410000  0.93893000  1.0
  C  C45  1  0.36183000  0.29590000  0.43894000  1.0
  C  C46  1  0.39427000  0.28593000  0.95541000  1.0
  C  C47  1  0.60574000  0.71407000  0.45541000  1.0
  C  C48  1  0.60574000  0.71406000  0.04459000  1.0
  C  C49  1  0.39426000  0.28593000  0.54459000  1.0
  C  C50  1  0.05074000  0.19758000  0.05957000  1.0
  C  C51  1  0.94926000  0.80242000  0.55957000  1.0
  C  C52  1  0.94926000  0.80242000  0.94043000  1.0
  C  C53  1  0.05074000  0.19758000  0.44042000  1.0
  C  C54  1  0.87895000  0.23773000  0.02232000  1.0
  C  C55  1  0.12105000  0.76227000  0.52232000  1.0
  C  C56  1  0.12105000  0.76227000  0.97768000  1.0
  C  C57  1  0.87895000  0.23773000  0.47768000  1.0
  C  C58  1  0.15271000  0.42326000  0.16289000  1.0
  C  C59  1  0.84729000  0.57675000  0.66289000  1.0
  C  C60  1  0.84729000  0.57675000  0.83711000  1.0
  C  C61  1  0.15271000  0.42325000  0.33710000  1.0
  C  C62  1  0.20364000  0.34127000  0.25000000  1.0
  C  C63  1  0.79636000  0.65873000  0.75000000  1.0
  C  C64  1  0.29734000  0.73715000  0.75000000  1.0
  C  C65  1  0.70266000  0.26286000  0.25000000  1.0
  C  C66  1  0.93946000  0.17035000  0.75000000  1.0
  C  C67  1  0.06054000  0.82965000  0.25000000  1.0
  S  S68  1  0.77009000  0.04282000  0.75000000  1.0
  S  S69  1  0.22992000  0.95718000  0.25000000  1.0
  S  S70  1  0.27099000  0.91434000  0.75000000  1.0
  S  S71  1  0.72901000  0.08567000  0.25000000  1.0
  N  N72  1  0.18052000  0.33693000  0.07418000  1.0
  N  N73  1  0.81948000  0.66307000  0.57418000  1.0
  N  N74  1  0.81948000  0.66307000  0.92582000  1.0
  N  N75  1  0.18052000  0.33693000  0.42582000  1.0
  N  N76  1  0.06184000  0.26671000  0.75000000  1.0
  N  N77  1  0.93817000  0.73328000  0.25000000  1.0
  N  N78  1  0.31903000  0.60596000  0.75000000  1.0
  N  N79  1  0.68098000  0.39404000  0.25000000  1.0
  O  O80  1  0.52393000  0.30496000  0.75000000  1.0
  O  O81  1  0.47607000  0.69504000  0.25000000  1.0
  O  O82  1  0.30535000  0.36478000  0.90521000  1.0
  O  O83  1  0.69464000  0.63522000  0.40521000  1.0
  O  O84  1  0.69464000  0.63522000  0.09479000  1.0
  O  O85  1  0.30535000  0.36478000  0.59479000  1.0
  O  O86  1  0.50662000  0.20410000  0.92612000  1.0
  O  O87  1  0.49337000  0.79591000  0.42612000  1.0
  O  O88  1  0.49337000  0.79590000  0.07389000  1.0
  O  O89  1  0.50662000  0.20410000  0.57389000  1.0
  O  O90  1  0.85110000  0.37018000  0.00989000  1.0
  O  O91  1  0.14891000  0.62981000  0.50989000  1.0
  O  O92  1  0.14890000  0.62982000  0.99011000  1.0
  O  O93  1  0.85110000  0.37019000  0.49011000  1.0
  O  O94  1  0.76841000  0.11440000  0.00449000  1.0
  O  O95  1  0.23159000  0.88560000  0.50449000  1.0
  O  O96  1  0.23160000  0.88560000  0.99551000  1.0
  O  O97  1  0.76841000  0.11440000  0.49551000  1.0
