# generated using pymatgen
data_Co3H44C52S(N4O9)2
_symmetry_space_group_name_H-M   'P 1'
_cell_length_a   10.30120000
_cell_length_b   17.52670000
_cell_length_c   17.52670000
_cell_angle_alpha   64.00770000
_cell_angle_beta   84.26440000
_cell_angle_gamma   84.26430000
_symmetry_Int_Tables_number   1
_chemical_formula_structural   Co3H44C52S(N4O9)2
_chemical_formula_sum   'Co6 H88 C104 S2 N16 O36'
_cell_volume   2824.48792460
_cell_formula_units_Z   2
loop_
 _symmetry_equiv_pos_site_id
 _symmetry_equiv_pos_as_xyz
  1  'x, y, z'
loop_
 _atom_site_type_symbol
 _atom_site_label
 _atom_site_symmetry_multiplicity
 _atom_site_fract_x
 _atom_site_fract_y
 _atom_site_fract_z
 _atom_site_occupancy
  Co  Co0  1  0.48804000  0.04306000  0.78812000  1.0
  Co  Co1  1  0.01196000  0.21188000  0.95694000  1.0
  Co  Co2  1  0.51196000  0.95694000  0.21188000  1.0
  Co  Co3  1  0.98804000  0.78812000  0.04306000  1.0
  Co  Co4  1  0.25000000  0.23560000  0.76440000  1.0
  Co  Co5  1  0.75000000  0.76440000  0.23560000  1.0
  H  H6  1  0.70459000  0.02436000  0.84479000  1.0
  H  H7  1  0.79541000  0.15520000  0.97564000  1.0
  H  H8  1  0.29541000  0.97564000  0.15520000  1.0
  H  H9  1  0.20459000  0.84480000  0.02436000  1.0
  H  H10  1  0.62410000  0.04062000  0.91561000  1.0
  H  H11  1  0.87590000  0.08439000  0.95938000  1.0
  H  H12  1  0.37590000  0.95939000  0.08439000  1.0
  H  H13  1  0.12411000  0.91561000  0.04061000  1.0
  H  H14  1  0.52733000  0.92055000  0.94671000  1.0
  H  H15  1  0.97267000  0.05329000  0.07945000  1.0
  H  H16  1  0.47267000  0.07945000  0.05329000  1.0
  H  H17  1  0.02733000  0.94671000  0.92054000  1.0
  H  H18  1  0.40964000  0.88707000  0.91669000  1.0
  H  H19  1  0.09036000  0.08331000  0.11293000  1.0
  H  H20  1  0.59036000  0.11294000  0.08331000  1.0
  H  H21  1  0.90964000  0.91669000  0.88706000  1.0
  H  H22  1  0.15119000  0.47832000  0.63290000  1.0
  H  H23  1  0.34880000  0.36710000  0.52168000  1.0
  H  H24  1  0.84881000  0.52168000  0.36710000  1.0
  H  H25  1  0.65120000  0.63290000  0.47832000  1.0
  H  H26  1  0.11127000  0.63737000  0.56908000  1.0
  H  H27  1  0.38873000  0.43092000  0.36263000  1.0
  H  H28  1  0.88873000  0.36263000  0.43092000  1.0
  H  H29  1  0.61128000  0.56908000  0.63737000  1.0
  H  H30  1  0.81932000  0.61176000  0.77197000  1.0
  H  H31  1  0.68067000  0.22803000  0.38825000  1.0
  H  H32  1  0.18068000  0.38824000  0.22803000  1.0
  H  H33  1  0.31932000  0.77197000  0.61176000  1.0
  H  H34  1  0.86357000  0.45538000  0.83559000  1.0
  H  H35  1  0.63642000  0.16441000  0.54463000  1.0
  H  H36  1  0.13643000  0.54462000  0.16441000  1.0
  H  H37  1  0.36357000  0.83559000  0.45538000  1.0
  H  H38  1  0.02236000  0.71642000  0.76547000  1.0
  H  H39  1  0.47763000  0.23453000  0.28359000  1.0
  H  H40  1  0.97764000  0.28358000  0.23453000  1.0
  H  H41  1  0.52237000  0.76546000  0.71642000  1.0
  H  H42  1  0.93334000  0.81436000  0.82918000  1.0
  H  H43  1  0.56666000  0.17082000  0.18564000  1.0
  H  H44  1  0.06667000  0.18564000  0.17082000  1.0
  H  H45  1  0.43335000  0.82918000  0.81437000  1.0
  H  H46  1  0.65064000  0.92480000  0.63915000  1.0
  H  H47  1  0.84936000  0.36085000  0.07520000  1.0
  H  H48  1  0.34937000  0.07520000  0.36085000  1.0
  H  H49  1  0.15063000  0.63916000  0.92479000  1.0
  H  H50  1  0.73886000  0.82549000  0.57520000  1.0
  H  H51  1  0.76114000  0.42480000  0.17452000  1.0
  H  H52  1  0.26115000  0.17451000  0.42480000  1.0
  H  H53  1  0.23885000  0.57520000  0.82548000  1.0
  H  H54  1  0.49894000  0.04894000  0.61861000  1.0
  H  H55  1  0.00106000  0.38139000  0.95107000  1.0
  H  H56  1  0.50106000  0.95106000  0.38139000  1.0
  H  H57  1  0.99893000  0.61861000  0.04893000  1.0
  H  H58  1  0.37265000  0.00373000  0.53173000  1.0
  H  H59  1  0.12735000  0.46827000  0.99627000  1.0
  H  H60  1  0.62735000  0.99627000  0.46827000  1.0
  H  H61  1  0.87264000  0.53173000  0.00373000  1.0
  H  H62  1  0.07030000  0.93441000  0.73544000  1.0
  H  H63  1  0.42970000  0.26456000  0.06559000  1.0
  H  H64  1  0.92971000  0.06558000  0.26456000  1.0
  H  H65  1  0.57029000  0.73545000  0.93441000  1.0
  H  H66  1  0.20931000  0.98083000  0.81404000  1.0
  H  H67  1  0.29069000  0.18596000  0.01917000  1.0
  H  H68  1  0.79069000  0.01917000  0.18596000  1.0
  H  H69  1  0.70931000  0.81404000  0.98083000  1.0
  H  H70  1  0.03453000  0.91688000  0.60635000  1.0
  H  H71  1  0.46547000  0.39365000  0.08312000  1.0
  H  H72  1  0.96547000  0.08312000  0.39366000  1.0
  H  H73  1  0.53452000  0.60635000  0.91688000  1.0
  H  H74  1  0.22874000  0.91901000  0.37612000  1.0
  H  H75  1  0.27126000  0.62388000  0.08099000  1.0
  H  H76  1  0.77126000  0.08098000  0.62389000  1.0
  H  H77  1  0.72873000  0.37612000  0.91902000  1.0
  H  H78  1  0.17910000  0.88222000  0.25774000  1.0
  H  H79  1  0.32091000  0.74226000  0.11778000  1.0
  H  H80  1  0.82091000  0.11778000  0.74226000  1.0
  H  H81  1  0.67909000  0.25774000  0.88222000  1.0
  H  H82  1  0.89891000  0.83137000  0.47178000  1.0
  H  H83  1  0.60109000  0.52822000  0.16863000  1.0
  H  H84  1  0.10109000  0.16863000  0.52822000  1.0
  H  H85  1  0.39891000  0.47178000  0.83138000  1.0
  H  H86  1  0.75241000  0.78345000  0.39899000  1.0
  H  H87  1  0.74759000  0.60101000  0.21655000  1.0
  H  H88  1  0.24759000  0.21655000  0.60101000  1.0
  H  H89  1  0.25241000  0.39899000  0.78346000  1.0
  H  H90  1  0.02119000  0.83423000  0.19246000  1.0
  H  H91  1  0.47881000  0.80755000  0.16577000  1.0
  H  H92  1  0.97881000  0.16578000  0.80754000  1.0
  H  H93  1  0.52119000  0.19246000  0.83422000  1.0
  C  C94  1  0.03519000  0.36234000  0.77715000  1.0
  C  C95  1  0.46480000  0.22285000  0.63766000  1.0
  C  C96  1  0.96481000  0.63766000  0.22285000  1.0
  C  C97  1  0.53520000  0.77715000  0.36234000  1.0
  C  C98  1  0.00842000  0.45659000  0.73782000  1.0
  C  C99  1  0.49157000  0.26218000  0.54341000  1.0
  C  C100  1  0.99158000  0.54341000  0.26218000  1.0
  C  C101  1  0.50843000  0.73782000  0.45659000  1.0
  C  C102  1  0.07876000  0.50826000  0.66262000  1.0
  C  C103  1  0.42123000  0.33738000  0.49174000  1.0
  C  C104  1  0.92124000  0.49174000  0.33738000  1.0
  C  C105  1  0.57877000  0.66263000  0.50826000  1.0
  C  C106  1  0.05712000  0.59619000  0.62705000  1.0
  C  C107  1  0.44287000  0.37295000  0.40381000  1.0
  C  C108  1  0.94287000  0.40381000  0.37295000  1.0
  C  C109  1  0.55714000  0.62705000  0.59619000  1.0
  C  C110  1  0.89257000  0.58287000  0.74165000  1.0
  C  C111  1  0.60743000  0.25835000  0.41713000  1.0
  C  C112  1  0.10743000  0.41712000  0.25835000  1.0
  C  C113  1  0.39257000  0.74165000  0.58287000  1.0
  C  C114  1  0.91686000  0.49506000  0.77690000  1.0
  C  C115  1  0.58314000  0.22310000  0.50495000  1.0
  C  C116  1  0.08314000  0.50494000  0.22309000  1.0
  C  C117  1  0.41686000  0.77691000  0.49506000  1.0
  C  C118  1  0.96284000  0.63287000  0.66629000  1.0
  C  C119  1  0.53715000  0.33370000  0.36713000  1.0
  C  C120  1  0.03715000  0.36712000  0.33371000  1.0
  C  C121  1  0.46285000  0.66629000  0.63287000  1.0
  C  C122  1  0.88545000  0.76625000  0.66655000  1.0
  C  C123  1  0.61455000  0.33345000  0.23375000  1.0
  C  C124  1  0.11456000  0.23375000  0.33345000  1.0
  C  C125  1  0.38545000  0.66655000  0.76625000  1.0
  C  C126  1  0.94006000  0.76165000  0.73858000  1.0
  C  C127  1  0.55994000  0.26142000  0.23835000  1.0
  C  C128  1  0.05994000  0.23835000  0.26142000  1.0
  C  C129  1  0.44007000  0.73858000  0.76165000  1.0
  C  C130  1  0.89026000  0.81694000  0.77369000  1.0
  C  C131  1  0.60975000  0.22631000  0.18307000  1.0
  C  C132  1  0.10975000  0.18306000  0.22631000  1.0
  C  C133  1  0.39026000  0.77369000  0.81694000  1.0
  C  C134  1  0.78624000  0.87643000  0.73751000  1.0
  C  C135  1  0.71377000  0.26249000  0.12357000  1.0
  C  C136  1  0.21377000  0.12357000  0.26249000  1.0
  C  C137  1  0.28624000  0.73751000  0.87644000  1.0
  C  C138  1  0.73154000  0.87866000  0.66632000  1.0
  C  C139  1  0.76846000  0.33369000  0.12134000  1.0
  C  C140  1  0.26847000  0.12134000  0.33369000  1.0
  C  C141  1  0.23153000  0.66631000  0.87866000  1.0
  C  C142  1  0.78031000  0.82391000  0.63072000  1.0
  C  C143  1  0.71969000  0.36928000  0.17609000  1.0
  C  C144  1  0.21969000  0.17609000  0.36928000  1.0
  C  C145  1  0.28031000  0.63072000  0.82391000  1.0
  C  C146  1  0.73293000  0.93915000  0.77083000  1.0
  C  C147  1  0.76707000  0.22917000  0.06085000  1.0
  C  C148  1  0.26707000  0.06085000  0.22917000  1.0
  C  C149  1  0.23294000  0.77083000  0.93915000  1.0
  C  C150  1  0.40393000  0.02260000  0.64185000  1.0
  C  C151  1  0.09607000  0.35814000  0.97740000  1.0
  C  C152  1  0.59607000  0.97741000  0.35814000  1.0
  C  C153  1  0.90393000  0.64185000  0.02259000  1.0
  C  C154  1  0.33402000  0.99770000  0.59414000  1.0
  C  C155  1  0.16597000  0.40586000  0.00230000  1.0
  C  C156  1  0.66597000  0.00230000  0.40586000  1.0
  C  C157  1  0.83401000  0.59414000  0.99770000  1.0
  C  C158  1  0.21128000  0.96430000  0.62690000  1.0
  C  C159  1  0.28872000  0.37309000  0.03570000  1.0
  C  C160  1  0.78873000  0.03569000  0.37310000  1.0
  C  C161  1  0.71126000  0.62690000  0.96431000  1.0
  C  C162  1  0.16524000  0.95898000  0.70719000  1.0
  C  C163  1  0.33476000  0.29281000  0.04102000  1.0
  C  C164  1  0.83476000  0.04102000  0.29281000  1.0
  C  C165  1  0.66523000  0.70719000  0.95898000  1.0
  C  C166  1  0.24205000  0.98481000  0.75140000  1.0
  C  C167  1  0.25795000  0.24860000  0.01519000  1.0
  C  C168  1  0.75796000  0.01519000  0.24860000  1.0
  C  C169  1  0.74204000  0.75140000  0.98481000  1.0
  C  C170  1  0.13359000  0.93629000  0.58044000  1.0
  C  C171  1  0.36641000  0.41956000  0.06371000  1.0
  C  C172  1  0.86641000  0.06371000  0.41957000  1.0
  C  C173  1  0.63358000  0.58043000  0.93629000  1.0
  C  C174  1  0.13287000  0.89766000  0.40785000  1.0
  C  C175  1  0.36713000  0.59216000  0.10234000  1.0
  C  C176  1  0.86713000  0.10234000  0.59216000  1.0
  C  C177  1  0.63287000  0.40784000  0.89766000  1.0
  C  C178  1  0.04881000  0.86455000  0.36913000  1.0
  C  C179  1  0.45120000  0.63087000  0.13545000  1.0
  C  C180  1  0.95120000  0.13545000  0.63087000  1.0
  C  C181  1  0.54880000  0.36913000  0.86455000  1.0
  C  C182  1  0.08415000  0.86281000  0.29047000  1.0
  C  C183  1  0.41586000  0.70954000  0.13718000  1.0
  C  C184  1  0.91586000  0.13718000  0.70953000  1.0
  C  C185  1  0.58414000  0.29046000  0.86282000  1.0
  C  C186  1  0.92749000  0.83396000  0.40937000  1.0
  C  C187  1  0.57251000  0.59063000  0.16604000  1.0
  C  C188  1  0.07251000  0.16604000  0.59063000  1.0
  C  C189  1  0.42748000  0.40937000  0.83396000  1.0
  C  C190  1  0.84628000  0.80766000  0.36875000  1.0
  C  C191  1  0.65373000  0.63125000  0.19234000  1.0
  C  C192  1  0.15372000  0.19234000  0.63124000  1.0
  C  C193  1  0.34627000  0.36875000  0.80767000  1.0
  C  C194  1  0.99588000  0.83577000  0.25366000  1.0
  C  C195  1  0.50412000  0.74634000  0.16422000  1.0
  C  C196  1  0.00412000  0.16423000  0.74633000  1.0
  C  C197  1  0.49588000  0.25366000  0.83577000  1.0
  S  S198  1  0.25000000  0.08232000  0.91768000  1.0
  S  S199  1  0.75000000  0.91768000  0.08232000  1.0
  N  N200  1  0.36031000  0.01570000  0.72003000  1.0
  N  N201  1  0.13968000  0.27997000  0.98430000  1.0
  N  N202  1  0.63969000  0.98431000  0.27997000  1.0
  N  N203  1  0.86031000  0.72003000  0.01569000  1.0
  N  N204  1  0.18039000  0.93252000  0.51039000  1.0
  N  N205  1  0.31961000  0.48961000  0.06748000  1.0
  N  N206  1  0.81961000  0.06747000  0.48962000  1.0
  N  N207  1  0.68038000  0.51038000  0.93253000  1.0
  N  N208  1  0.09137000  0.90214000  0.47828000  1.0
  N  N209  1  0.40864000  0.52172000  0.09786000  1.0
  N  N210  1  0.90863000  0.09786000  0.52173000  1.0
  N  N211  1  0.59136000  0.47828000  0.90214000  1.0
  N  N212  1  0.87708000  0.81014000  0.29096000  1.0
  N  N213  1  0.62292000  0.70904000  0.18986000  1.0
  N  N214  1  0.12292000  0.18986000  0.70903000  1.0
  N  N215  1  0.37708000  0.29096000  0.81014000  1.0
  O  O216  1  0.63053000  0.98408000  0.73757000  1.0
  O  O217  1  0.86947000  0.26243000  0.01592000  1.0
  O  O218  1  0.36948000  0.01592000  0.26243000  1.0
  O  O219  1  0.13053000  0.73757000  0.98408000  1.0
  O  O220  1  0.79047000  0.94789000  0.82735000  1.0
  O  O221  1  0.70953000  0.17265000  0.05211000  1.0
  O  O222  1  0.20953000  0.05211000  0.17264000  1.0
  O  O223  1  0.29047000  0.82735000  0.94789000  1.0
  O  O224  1  0.93874000  0.71965000  0.62358000  1.0
  O  O225  1  0.56126000  0.37642000  0.28035000  1.0
  O  O226  1  0.06125000  0.28035000  0.37642000  1.0
  O  O227  1  0.43875000  0.62358000  0.71965000  1.0
  O  O228  1  0.63630000  0.06600000  0.85321000  1.0
  O  O229  1  0.86370000  0.14679000  0.93401000  1.0
  O  O230  1  0.36370000  0.93401000  0.14678000  1.0
  O  O231  1  0.13630000  0.85322000  0.06599000  1.0
  O  O232  1  0.48300000  0.92630000  0.89745000  1.0
  O  O233  1  0.01699000  0.10256000  0.07370000  1.0
  O  O234  1  0.51699000  0.07371000  0.10255000  1.0
  O  O235  1  0.98302000  0.89745000  0.92629000  1.0
  O  O236  1  0.32778000  0.10200000  0.83326000  1.0
  O  O237  1  0.17221000  0.16674000  0.89800000  1.0
  O  O238  1  0.67222000  0.89800000  0.16674000  1.0
  O  O239  1  0.82778000  0.83326000  0.10199000  1.0
  O  O240  1  0.16087000  0.01476000  0.93757000  1.0
  O  O241  1  0.33913000  0.06243000  0.98524000  1.0
  O  O242  1  0.83913000  0.98525000  0.06242000  1.0
  O  O243  1  0.66086000  0.93757000  0.01475000  1.0
  O  O244  1  0.12179000  0.33345000  0.73730000  1.0
  O  O245  1  0.37820000  0.26271000  0.66655000  1.0
  O  O246  1  0.87821000  0.66655000  0.26270000  1.0
  O  O247  1  0.62179000  0.73730000  0.33345000  1.0
  O  O248  1  0.97307000  0.31761000  0.84673000  1.0
  O  O249  1  0.52692000  0.15328000  0.68239000  1.0
  O  O250  1  0.02692000  0.68239000  0.15327000  1.0
  O  O251  1  0.47308000  0.84673000  0.31761000  1.0
