# generated using pymatgen
data_PrAgH6C12(NO2)4
_symmetry_space_group_name_H-M   'P 1'
_cell_length_a   8.07926000
_cell_length_b   10.16200000
_cell_length_c   18.97230000
_cell_angle_alpha   90.00010000
_cell_angle_beta   90.00000000
_cell_angle_gamma   95.61020000
_symmetry_Int_Tables_number   1
_chemical_formula_structural   PrAgH6C12(NO2)4
_chemical_formula_sum   'Pr4 Ag4 H24 C48 N16 O32'
_cell_volume   1550.19201272
_cell_formula_units_Z   4
loop_
 _symmetry_equiv_pos_site_id
 _symmetry_equiv_pos_as_xyz
  1  'x, y, z'
loop_
 _atom_site_type_symbol
 _atom_site_label
 _atom_site_symmetry_multiplicity
 _atom_site_fract_x
 _atom_site_fract_y
 _atom_site_fract_z
 _atom_site_occupancy
  Pr  Pr0  1  0.25978000  0.65294000  0.10548000  1.0
  Pr  Pr1  1  0.24022000  0.34706000  0.60548000  1.0
  Pr  Pr2  1  0.74022000  0.34706000  0.89452000  1.0
  Pr  Pr3  1  0.75978000  0.65294000  0.39452000  1.0
  Ag  Ag4  1  0.39643000  0.83977000  0.92223000  1.0
  Ag  Ag5  1  0.10357000  0.16023000  0.42223000  1.0
  Ag  Ag6  1  0.60357000  0.16023000  0.07777000  1.0
  Ag  Ag7  1  0.89643000  0.83977000  0.57777000  1.0
  H  H8  1  0.29956000  0.30248000  0.15220000  1.0
  H  H9  1  0.20044000  0.69752000  0.65221000  1.0
  H  H10  1  0.70043000  0.69752000  0.84779000  1.0
  H  H11  1  0.79956000  0.30248000  0.34779000  1.0
  H  H12  1  0.81746000  0.68857000  0.08781000  1.0
  H  H13  1  0.68254000  0.31143000  0.58781000  1.0
  H  H14  1  0.18254000  0.31143000  0.91219000  1.0
  H  H15  1  0.31746000  0.68857000  0.41219000  1.0
  H  H16  1  0.12166000  0.45747000  0.37938000  1.0
  H  H17  1  0.37834000  0.54253000  0.87938000  1.0
  H  H18  1  0.87834000  0.54253000  0.62062000  1.0
  H  H19  1  0.62166000  0.45747000  0.12062000  1.0
  H  H20  1  0.26241000  0.14836000  0.25686000  1.0
  H  H21  1  0.23759000  0.85164000  0.75686000  1.0
  H  H22  1  0.73759000  0.85164000  0.74314000  1.0
  H  H23  1  0.76241000  0.14836000  0.24314000  1.0
  H  H24  1  0.01399000  0.15683000  0.08417000  1.0
  H  H25  1  0.48601000  0.84317000  0.58417000  1.0
  H  H26  1  0.98601000  0.84317000  0.91583000  1.0
  H  H27  1  0.51399000  0.15683000  0.41583000  1.0
  H  H28  1  0.61684000  0.86328000  0.07745000  1.0
  H  H29  1  0.88316000  0.13672000  0.57745000  1.0
  H  H30  1  0.38316000  0.13672000  0.92255000  1.0
  H  H31  1  0.11684000  0.86328000  0.42255000  1.0
  C  C32  1  0.16753000  0.50392000  0.26991000  1.0
  C  C33  1  0.33247000  0.49608000  0.76991000  1.0
  C  C34  1  0.83247000  0.49608000  0.73009000  1.0
  C  C35  1  0.66753000  0.50392000  0.23009000  1.0
  C  C36  1  0.25863000  0.33672000  0.20320000  1.0
  C  C37  1  0.24137000  0.66328000  0.70320000  1.0
  C  C38  1  0.74137000  0.66328000  0.79680000  1.0
  C  C39  1  0.75863000  0.33672000  0.29680000  1.0
  C  C40  1  0.07995000  0.95505000  0.09055000  1.0
  C  C41  1  0.42005000  0.04495000  0.59055000  1.0
  C  C42  1  0.92005000  0.04495000  0.90945000  1.0
  C  C43  1  0.57995000  0.95505000  0.40945000  1.0
  C  C44  1  0.86131000  0.79326000  0.08694000  1.0
  C  C45  1  0.63869000  0.20674000  0.58694000  1.0
  C  C46  1  0.13869000  0.20674000  0.91306000  1.0
  C  C47  1  0.36131000  0.79326000  0.41306000  1.0
  C  C48  1  0.10766000  0.64050000  0.27295000  1.0
  C  C49  1  0.39234000  0.35950000  0.77296000  1.0
  C  C50  1  0.89234000  0.35950000  0.72704000  1.0
  C  C51  1  0.60766000  0.64050000  0.22704000  1.0
  C  C52  1  0.26631000  0.98805000  0.09190000  1.0
  C  C53  1  0.23369000  0.01195000  0.59190000  1.0
  C  C54  1  0.73369000  0.01195000  0.90810000  1.0
  C  C55  1  0.76631000  0.98805000  0.40810000  1.0
  C  C56  1  0.95687000  0.46227000  0.03206000  1.0
  C  C57  1  0.54313000  0.53774000  0.53206000  1.0
  C  C58  1  0.04313000  0.53774000  0.96795000  1.0
  C  C59  1  0.45687000  0.46227000  0.46794000  1.0
  C  C60  1  0.45653000  0.43244000  0.01315000  1.0
  C  C61  1  0.04347000  0.56756000  0.51315000  1.0
  C  C62  1  0.54347000  0.56756000  0.98685000  1.0
  C  C63  1  0.95653000  0.43244000  0.48685000  1.0
  C  C64  1  0.15848000  0.42097000  0.32859000  1.0
  C  C65  1  0.34152000  0.57903000  0.82859000  1.0
  C  C66  1  0.84152000  0.57903000  0.67141000  1.0
  C  C67  1  0.65848000  0.42097000  0.17141000  1.0
  C  C68  1  0.23896000  0.25204000  0.26127000  1.0
  C  C69  1  0.26104000  0.74796000  0.76127000  1.0
  C  C70  1  0.76104000  0.74796000  0.73873000  1.0
  C  C71  1  0.73896000  0.25204000  0.23873000  1.0
  C  C72  1  0.96924000  0.05207000  0.08554000  1.0
  C  C73  1  0.53076000  0.94794000  0.58554000  1.0
  C  C74  1  0.03076000  0.94794000  0.91446000  1.0
  C  C75  1  0.46924000  0.05206000  0.41446000  1.0
  C  C76  1  0.75020000  0.88940000  0.08132000  1.0
  C  C77  1  0.74980000  0.11060000  0.58132000  1.0
  C  C78  1  0.24980000  0.11060000  0.91868000  1.0
  C  C79  1  0.25020000  0.88940000  0.41868000  1.0
  N  N80  1  0.22352000  0.46282000  0.20782000  1.0
  N  N81  1  0.27648000  0.53717000  0.70782000  1.0
  N  N82  1  0.77648000  0.53717000  0.79218000  1.0
  N  N83  1  0.72352000  0.46282000  0.29218000  1.0
  N  N84  1  0.02518000  0.82564000  0.09100000  1.0
  N  N85  1  0.47482000  0.17436000  0.59100000  1.0
  N  N86  1  0.97482000  0.17436000  0.90900000  1.0
  N  N87  1  0.52518000  0.82564000  0.40900000  1.0
  N  N88  1  0.19184000  0.29480000  0.32440000  1.0
  N  N89  1  0.30816000  0.70520000  0.82440000  1.0
  N  N90  1  0.80816000  0.70520000  0.67560000  1.0
  N  N91  1  0.69184000  0.29480000  0.17560000  1.0
  N  N92  1  0.80435000  0.01870000  0.08031000  1.0
  N  N93  1  0.69565000  0.98130000  0.58031000  1.0
  N  N94  1  0.19565000  0.98130000  0.91969000  1.0
  N  N95  1  0.30435000  0.01870000  0.41969000  1.0
  O  O96  1  0.14434000  0.71651000  0.22131000  1.0
  O  O97  1  0.35566000  0.28349000  0.72131000  1.0
  O  O98  1  0.85566000  0.28349000  0.77869000  1.0
  O  O99  1  0.64434000  0.71651000  0.27869000  1.0
  O  O100  1  0.35363000  0.89021000  0.08945000  1.0
  O  O101  1  0.14637000  0.10979000  0.58945000  1.0
  O  O102  1  0.64637000  0.10979000  0.91055000  1.0
  O  O103  1  0.85363000  0.89021000  0.41055000  1.0
  O  O104  1  0.99394000  0.50710000  0.09298000  1.0
  O  O105  1  0.50605000  0.49290000  0.59299000  1.0
  O  O106  1  0.00605000  0.49290000  0.90701000  1.0
  O  O107  1  0.49394000  0.50710000  0.40702000  1.0
  O  O108  1  0.34154000  0.43690000  0.05798000  1.0
  O  O109  1  0.15847000  0.56310000  0.55798000  1.0
  O  O110  1  0.65847000  0.56310000  0.94202000  1.0
  O  O111  1  0.84154000  0.43690000  0.44202000  1.0
  O  O112  1  0.50985000  0.32887000  0.98782000  1.0
  O  O113  1  0.99015000  0.67113000  0.48783000  1.0
  O  O114  1  0.49015000  0.67113000  0.01217000  1.0
  O  O115  1  0.00986000  0.32887000  0.51217000  1.0
  O  O116  1  0.85543000  0.36287000  0.01781000  1.0
  O  O117  1  0.64456000  0.63712000  0.51781000  1.0
  O  O118  1  0.14455000  0.63712000  0.98219000  1.0
  O  O119  1  0.35543000  0.36288000  0.48220000  1.0
  O  O120  1  0.02280000  0.66616000  0.32658000  1.0
  O  O121  1  0.47720000  0.33384000  0.82658000  1.0
  O  O122  1  0.97720000  0.33384000  0.67342000  1.0
  O  O123  1  0.52280000  0.66616000  0.17342000  1.0
  O  O124  1  0.32010000  0.10873000  0.09346000  1.0
  O  O125  1  0.17990000  0.89127000  0.59346000  1.0
  O  O126  1  0.67990000  0.89127000  0.90654000  1.0
  O  O127  1  0.82010000  0.10873000  0.40654000  1.0
