# generated using pymatgen
data_Zn2H13C40N14O32F9
_symmetry_space_group_name_H-M   'P 1'
_cell_length_a   14.65240000
_cell_length_b   15.93200000
_cell_length_c   17.15490000
_cell_angle_alpha   92.26500000
_cell_angle_beta   97.51710000
_cell_angle_gamma   90.62600000
_symmetry_Int_Tables_number   1
_chemical_formula_structural   Zn2H13C40N14O32F9
_chemical_formula_sum   'Zn2 H13 C40 N14 O32 F9'
_cell_volume   3966.63250232
_cell_formula_units_Z   1
loop_
 _symmetry_equiv_pos_site_id
 _symmetry_equiv_pos_as_xyz
  1  'x, y, z'
loop_
 _atom_site_type_symbol
 _atom_site_label
 _atom_site_symmetry_multiplicity
 _atom_site_fract_x
 _atom_site_fract_y
 _atom_site_fract_z
 _atom_site_occupancy
  Zn  Zn0  1  0.39991000  0.49637000  0.49454000  1.0
  Zn  Zn1  1  0.59135000  0.49475000  0.49619000  1.0
  H  H2  1  0.59893000  0.43402000  0.25332000  1.0
  H  H3  1  0.32824000  0.53761000  0.24537000  1.0
  H  H4  1  0.42109000  0.49402000  0.97315000  1.0
  H  H5  1  0.59925000  0.46296000  0.11143000  1.0
  H  H6  1  0.47058000  0.07361000  0.60945000  1.0
  H  H7  1  0.61665000  0.06072000  0.58010000  1.0
  H  H8  1  0.63950000  0.91995000  0.55604000  1.0
  H  H9  1  0.37408000  0.94553000  0.42310000  1.0
  H  H10  1  0.37393000  0.05947000  0.53649000  1.0
  H  H11  1  0.91717000  0.54616000  0.62223000  1.0
  H  H12  1  0.93982000  0.43720000  0.62139000  1.0
  H  H13  1  0.92738000  0.62246000  0.49897000  1.0
  H  H14  1  0.07951000  0.39607000  0.42564000  1.0
  C  C15  1  0.49467000  0.33663000  0.51300000  1.0
  C  C16  1  0.46801000  0.47526000  0.34523000  1.0
  C  C17  1  0.50325000  0.65512000  0.47809000  1.0
  C  C18  1  0.52231000  0.53172000  0.64471000  1.0
  C  C19  1  0.46405000  0.48418000  0.25834000  1.0
  C  C20  1  0.53978000  0.46259000  0.21992000  1.0
  C  C21  1  0.54009000  0.47924000  0.14111000  1.0
  C  C22  1  0.46529000  0.51876000  0.09860000  1.0
  C  C23  1  0.38889000  0.53680000  0.13760000  1.0
  C  C24  1  0.38748000  0.52030000  0.21646000  1.0
  C  C25  1  0.46163000  0.61168000  0.84374000  1.0
  C  C26  1  0.46012000  0.59898000  0.76285000  1.0
  C  C27  1  0.60094000  0.52333000  0.78421000  1.0
  C  C28  1  0.60091000  0.53479000  0.86531000  1.0
  C  C29  1  0.53125000  0.57841000  0.89689000  1.0
  C  C30  1  0.46750000  0.53342000  0.01477000  1.0
  C  C31  1  0.52684000  0.58226000  0.98249000  1.0
  C  C32  1  0.52976000  0.55412000  0.73153000  1.0
  C  C33  1  0.44638000  0.04354000  0.55176000  1.0
  C  C34  1  0.60334000  0.04595000  0.51646000  1.0
  C  C35  1  0.60511000  0.94919000  0.50368000  1.0
  C  C36  1  0.50576000  0.74587000  0.47797000  1.0
  C  C37  1  0.50466000  0.07978000  0.49011000  1.0
  C  C38  1  0.45649000  0.94859000  0.55675000  1.0
  C  C39  1  0.50466000  0.91253000  0.48556000  1.0
  C  C40  1  0.44601000  0.95044000  0.41208000  1.0
  C  C41  1  0.46360000  0.04449000  0.40624000  1.0
  C  C42  1  0.50458000  0.82184000  0.48068000  1.0
  C  C43  1  0.50285000  0.17042000  0.49798000  1.0
  C  C44  1  0.49741000  0.24569000  0.50893000  1.0
  C  C45  1  0.94662000  0.40710000  0.46601000  1.0
  C  C46  1  0.95075000  0.49556000  0.59203000  1.0
  C  C47  1  0.05311000  0.51696000  0.59745000  1.0
  C  C48  1  0.90852000  0.48673000  0.50417000  1.0
  C  C49  1  0.05318000  0.40748000  0.48189000  1.0
  C  C50  1  0.08912000  0.49538000  0.51762000  1.0
  C  C51  1  0.04395000  0.56083000  0.45681000  1.0
  C  C52  1  0.93924000  0.56621000  0.46249000  1.0
  C  C53  1  0.18835000  0.50128000  0.51864000  1.0
  C  C54  1  0.80872000  0.48524000  0.49743000  1.0
  N  N55  1  0.26404000  0.50504000  0.50668000  1.0
  N  N56  1  0.72960000  0.49019000  0.49259000  1.0
  N  N57  1  0.51327000  0.92301000  0.63611000  1.0
  N  N58  1  0.66378000  0.92280000  0.44024000  1.0
  N  N59  1  0.36695000  0.08868000  0.38212000  1.0
  N  N60  1  0.51925000  0.07336000  0.33991000  1.0
  N  N61  1  0.38418000  0.63532000  0.71018000  1.0
  N  N62  1  0.36026000  0.90898000  0.56301000  1.0
  N  N63  1  0.44009000  0.89778000  0.33384000  1.0
  N  N64  1  0.09377000  0.33746000  0.53434000  1.0
  N  N65  1  0.90329000  0.32304000  0.49252000  1.0
  N  N66  1  0.10912000  0.47411000  0.66907000  1.0
  N  N67  1  0.59083000  0.64242000  0.02957000  1.0
  N  N68  1  0.30853000  0.57703000  0.09506000  1.0
  O  O69  1  0.41563000  0.36873000  0.49814000  1.0
  O  O70  1  0.57208000  0.37449000  0.52942000  1.0
  O  O71  1  0.39465000  0.48985000  0.37546000  1.0
  O  O72  1  0.54579000  0.45682000  0.38247000  1.0
  O  O73  1  0.42754000  0.62278000  0.49131000  1.0
  O  O74  1  0.57654000  0.61757000  0.46600000  1.0
  O  O75  1  0.44280000  0.50670000  0.61384000  1.0
  O  O76  1  0.59427000  0.53834000  0.61178000  1.0
  O  O77  1  0.51050000  0.84800000  0.64906000  1.0
  O  O78  1  0.55748000  0.97874000  0.67716000  1.0
  O  O79  1  0.64764000  0.95592000  0.37643000  1.0
  O  O80  1  0.72344000  0.87077000  0.45883000  1.0
  O  O81  1  0.30158000  0.06135000  0.41258000  1.0
  O  O82  1  0.36644000  0.14750000  0.33862000  1.0
  O  O83  1  0.50325000  0.03393000  0.27666000  1.0
  O  O84  1  0.56898000  0.13562000  0.35550000  1.0
  O  O85  1  0.30497000  0.61324000  0.71861000  1.0
  O  O86  1  0.40591000  0.68588000  0.66283000  1.0
  O  O87  1  0.32175000  0.86567000  0.50734000  1.0
  O  O88  1  0.32992000  0.92888000  0.62459000  1.0
  O  O89  1  0.50310000  0.85087000  0.32265000  1.0
  O  O90  1  0.36685000  0.90605000  0.29078000  1.0
  O  O91  1  0.16166000  0.30313000  0.51424000  1.0
  O  O92  1  0.05590000  0.32406000  0.59314000  1.0
  O  O93  1  0.92742000  0.25973000  0.45852000  1.0
  O  O94  1  0.84847000  0.32921000  0.54064000  1.0
  O  O95  1  0.18756000  0.45206000  0.66093000  1.0
  O  O96  1  0.06985000  0.47098000  0.72767000  1.0
  O  O97  1  0.64961000  0.67599000  0.99439000  1.0
  O  O98  1  0.58194000  0.65619000  0.09971000  1.0
  O  O99  1  0.31199000  0.59227000  0.02469000  1.0
  O  O100  1  0.24212000  0.59289000  0.13047000  1.0
  F  F101  1  0.66811000  0.49970000  0.91408000  1.0
  F  F102  1  0.67296000  0.08510000  0.48356000  1.0
  F  F103  1  0.06938000  0.60136000  0.61642000  1.0
  F  F104  1  0.89062000  0.57343000  0.38901000  1.0
  F  F105  1  0.66844000  0.47700000  0.75857000  1.0
  F  F106  1  0.05853000  0.53350000  0.38301000  1.0
  F  F107  1  0.92081000  0.40431000  0.38611000  1.0
  F  F108  1  0.08538000  0.63752000  0.47103000  1.0
  F  F109  1  0.39560000  0.65738000  0.87215000  1.0
