# generated using pymatgen
data_ZnH6C8(NCl)4
_symmetry_space_group_name_H-M   'P 1'
_cell_length_a   3.59980000
_cell_length_b   9.76030000
_cell_length_c   16.59270000
_cell_angle_alpha   90.00000000
_cell_angle_beta   94.28100000
_cell_angle_gamma   89.99990000
_symmetry_Int_Tables_number   1
_chemical_formula_structural   ZnH6C8(NCl)4
_chemical_formula_sum   'Zn2 H12 C16 N8 Cl8'
_cell_volume   581.36007118
_cell_formula_units_Z   2
loop_
 _symmetry_equiv_pos_site_id
 _symmetry_equiv_pos_as_xyz
  1  'x, y, z'
loop_
 _atom_site_type_symbol
 _atom_site_label
 _atom_site_symmetry_multiplicity
 _atom_site_fract_x
 _atom_site_fract_y
 _atom_site_fract_z
 _atom_site_occupancy
  Zn  Zn0  1  0.50000000  0.50000000  0.50000000  1.0
  Zn  Zn1  1  0.00000000  0.00000000  0.00000000  1.0
  H  H2  1  0.68348000  0.19215000  0.48953000  1.0
  H  H3  1  0.81652000  0.69216000  0.01047000  1.0
  H  H4  1  0.31652000  0.80784000  0.51047000  1.0
  H  H5  1  0.18348000  0.30785000  0.98953000  1.0
  H  H6  1  0.26948000  0.46721000  0.31315000  1.0
  H  H7  1  0.23052000  0.96722000  0.18685000  1.0
  H  H8  1  0.73052000  0.53278000  0.68685000  1.0
  H  H9  1  0.76948000  0.03278000  0.81315000  1.0
  H  H10  1  0.24353000  0.27586000  0.20932000  1.0
  H  H11  1  0.25647000  0.77586000  0.29068000  1.0
  H  H12  1  0.75647000  0.72414000  0.79068000  1.0
  H  H13  1  0.74353000  0.22414000  0.70932000  1.0
  C  C14  1  0.57589000  0.10836000  0.36773000  1.0
  C  C15  1  0.92412000  0.60836000  0.13227000  1.0
  C  C16  1  0.42411000  0.89164000  0.63227000  1.0
  C  C17  1  0.07589000  0.39164000  0.86773000  1.0
  C  C18  1  0.58615000  0.21080000  0.42684000  1.0
  C  C19  1  0.91385000  0.71080000  0.07316000  1.0
  C  C20  1  0.41384000  0.78920000  0.57316000  1.0
  C  C21  1  0.08615000  0.28920000  0.92684000  1.0
  C  C22  1  0.35781000  0.36322000  0.32910000  1.0
  C  C23  1  0.14219000  0.86322000  0.17090000  1.0
  C  C24  1  0.64219000  0.63678000  0.67090000  1.0
  C  C25  1  0.85782000  0.13678000  0.82910000  1.0
  C  C26  1  0.34395000  0.25787000  0.27208000  1.0
  C  C27  1  0.15606000  0.75787000  0.22792000  1.0
  C  C28  1  0.65606000  0.74213000  0.72792000  1.0
  C  C29  1  0.84395000  0.24213000  0.77208000  1.0
  N  N30  1  0.45392000  0.12989000  0.29142000  1.0
  N  N31  1  0.04608000  0.62989000  0.20858000  1.0
  N  N32  1  0.54608000  0.87011000  0.70857000  1.0
  N  N33  1  0.95391000  0.37011000  0.79142000  1.0
  N  N34  1  0.47681000  0.33804000  0.40645000  1.0
  N  N35  1  0.02319000  0.83804000  0.09355000  1.0
  N  N36  1  0.52320000  0.66195000  0.59355000  1.0
  N  N37  1  0.97681000  0.16196000  0.90646000  1.0
  Cl  Cl38  1  0.03670000  0.37883000  0.57444000  1.0
  Cl  Cl39  1  0.46329000  0.87883000  0.92556000  1.0
  Cl  Cl40  1  0.96329000  0.62117000  0.42556000  1.0
  Cl  Cl41  1  0.53671000  0.12117000  0.07444000  1.0
  Cl  Cl42  1  0.72833000  0.94508000  0.39396000  1.0
  Cl  Cl43  1  0.77168000  0.44508000  0.10605000  1.0
  Cl  Cl44  1  0.27167000  0.05492000  0.60604000  1.0
  Cl  Cl45  1  0.22832000  0.55492000  0.89396000  1.0
