# generated using pymatgen
data_Cd2H42C60(N3O)3
_symmetry_space_group_name_H-M   'P 1'
_cell_length_a   12.15010000
_cell_length_b   18.26070000
_cell_length_c   18.26647051
_cell_angle_alpha   115.17954966
_cell_angle_beta   102.86968898
_cell_angle_gamma   102.79200000
_symmetry_Int_Tables_number   1
_chemical_formula_structural   Cd2H42C60(N3O)3
_chemical_formula_sum   'Cd4 H84 C120 N18 O6'
_cell_volume   3338.03866519
_cell_formula_units_Z   2
loop_
 _symmetry_equiv_pos_site_id
 _symmetry_equiv_pos_as_xyz
  1  'x, y, z'
loop_
 _atom_site_type_symbol
 _atom_site_label
 _atom_site_symmetry_multiplicity
 _atom_site_fract_x
 _atom_site_fract_y
 _atom_site_fract_z
 _atom_site_occupancy
  Cd  Cd0  1  0.49999000  0.50002000  0.50000000  1.0
  Cd  Cd1  1  0.00001000  0.99999000  0.00000000  1.0
  Cd  Cd2  1  0.99998000  0.99998000  0.49999000  1.0
  Cd  Cd3  1  0.00000000  0.50002000  0.00002000  1.0
  H  H4  1  0.12924000  0.26993000  0.51031000  1.0
  H  H5  1  0.12481000  0.38118000  0.87910000  1.0
  H  H6  1  0.79769000  0.06631000  0.08331000  1.0
  H  H7  1  0.67773000  0.67381000  0.60860000  1.0
  H  H8  1  0.12676000  0.59097000  0.38616000  1.0
  H  H9  1  0.45651000  0.22232000  0.09677000  1.0
  H  H10  1  0.40382000  0.13427000  0.78024000  1.0
  H  H11  1  0.36021000  0.90400000  0.12632000  1.0
  H  H12  1  0.87549000  0.08507000  0.70907000  1.0
  H  H13  1  0.00010000  0.24663000  0.91506000  1.0
  H  H14  1  0.81987000  0.22932000  0.34920000  1.0
  H  H15  1  0.24693000  0.33146000  0.24732000  1.0
  H  H16  1  0.07705000  0.16195000  0.97530000  1.0
  H  H17  1  0.78962000  0.62417000  0.91424000  1.0
  H  H18  1  0.91419000  0.91465000  0.66833000  1.0
  H  H19  1  0.16596000  0.29047000  0.37533000  1.0
  H  H20  1  0.02102000  0.16513000  0.76636000  1.0
  H  H21  1  0.10226000  0.02508000  0.18681000  1.0
  H  H22  1  0.46998000  0.65084000  0.87919000  1.0
  H  H23  1  0.53006000  0.34918000  0.12081000  1.0
  H  H24  1  0.12451000  0.91488000  0.29091000  1.0
  H  H25  1  0.75310000  0.66854000  0.75268000  1.0
  H  H26  1  0.16479000  0.36801000  0.66397000  1.0
  H  H27  1  0.40973000  0.87986000  0.22920000  1.0
  H  H28  1  0.75563000  0.87960000  0.49844000  1.0
  H  H29  1  0.46365000  0.20514000  0.59098000  1.0
  H  H30  1  0.85788000  0.36791000  0.04812000  1.0
  H  H31  1  0.61807000  0.48909000  0.75863000  1.0
  H  H32  1  0.74103000  0.61406000  0.20581000  1.0
  H  H33  1  0.08528000  0.18676000  0.16247000  1.0
  H  H34  1  0.59615000  0.86569000  0.21974000  1.0
  H  H35  1  0.18013000  0.77064000  0.65077000  1.0
  H  H36  1  0.25429000  0.23335000  0.39847000  1.0
  H  H37  1  0.85486000  0.60110000  0.83411000  1.0
  H  H38  1  0.00401000  0.93461000  0.32664000  1.0
  H  H39  1  0.49008000  0.67980000  0.63252000  1.0
  H  H40  1  0.18966000  0.04721000  0.67954000  1.0
  H  H41  1  0.32228000  0.32620000  0.39140000  1.0
  H  H42  1  0.21042000  0.37589000  0.08580000  1.0
  H  H43  1  0.38195000  0.51095000  0.24140000  1.0
  H  H44  1  0.76624000  0.12606000  0.22215000  1.0
  H  H45  1  0.71427000  0.91643000  0.98278000  1.0
  H  H46  1  0.20293000  0.70333000  0.36815000  1.0
  H  H47  1  0.83523000  0.63204000  0.33604000  1.0
  H  H48  1  0.89770000  0.97484000  0.81318000  1.0
  H  H49  1  0.06998000  0.39183000  0.06595000  1.0
  H  H50  1  0.83404000  0.70954000  0.62466000  1.0
  H  H51  1  0.92294000  0.83800000  0.02467000  1.0
  H  H52  1  0.14068000  0.75924000  0.27025000  1.0
  H  H53  1  0.87323000  0.40906000  0.61381000  1.0
  H  H54  1  0.74573000  0.76667000  0.60156000  1.0
  H  H55  1  0.26878000  0.98316000  0.06656000  1.0
  H  H56  1  0.87529000  0.61893000  0.12100000  1.0
  H  H57  1  0.62359000  0.21961000  0.35379000  1.0
  H  H58  1  0.99990000  0.75337000  0.08496000  1.0
  H  H59  1  0.97898000  0.83483000  0.23362000  1.0
  H  H60  1  0.54351000  0.77769000  0.90324000  1.0
  H  H61  1  0.74324000  0.49845000  0.61828000  1.0
  H  H62  1  0.25676000  0.50157000  0.38167000  1.0
  H  H63  1  0.91479000  0.81323000  0.83759000  1.0
  H  H64  1  0.73120000  0.01680000  0.93340000  1.0
  H  H65  1  0.20228000  0.93359000  0.91665000  1.0
  H  H66  1  0.81033000  0.95271000  0.32042000  1.0
  H  H67  1  0.73092000  0.35408000  0.13512000  1.0
  H  H68  1  0.24435000  0.12031000  0.50151000  1.0
  H  H69  1  0.87079000  0.73010000  0.48970000  1.0
  H  H70  1  0.14517000  0.39893000  0.16592000  1.0
  H  H71  1  0.63978000  0.09598000  0.87367000  1.0
  H  H72  1  0.26908000  0.64598000  0.86491000  1.0
  H  H73  1  0.28579000  0.08357000  0.01728000  1.0
  H  H74  1  0.50000000  0.33536000  0.70299000  1.0
  H  H75  1  0.25898000  0.38601000  0.79423000  1.0
  H  H76  1  0.79709000  0.29667000  0.63185000  1.0
  H  H77  1  0.50001000  0.66468000  0.29702000  1.0
  H  H78  1  0.93006000  0.60822000  0.93409000  1.0
  H  H79  1  0.23374000  0.87387000  0.77781000  1.0
  H  H80  1  0.37636000  0.78039000  0.64619000  1.0
  H  H81  1  0.59028000  0.12014000  0.77080000  1.0
  H  H82  1  0.14221000  0.63218000  0.95196000  1.0
  H  H83  1  0.50990000  0.32020000  0.36745000  1.0
  H  H84  1  0.85933000  0.24076000  0.72975000  1.0
  H  H85  1  0.53631000  0.79482000  0.40899000  1.0
  H  H86  1  0.08580000  0.08530000  0.33165000  1.0
  H  H87  1  0.99598000  0.06535000  0.67332000  1.0
  C  C88  1  0.67155000  0.53608000  0.31570000  1.0
  C  C89  1  0.04249000  0.88490000  0.29918000  1.0
  C  C90  1  0.51207000  0.56151000  0.68508000  1.0
  C  C91  1  0.24063000  0.77294000  0.14928000  1.0
  C  C92  1  0.85940000  0.07063000  0.13975000  1.0
  C  C93  1  0.13499000  0.77892000  0.46401000  1.0
  C  C94  1  0.15624000  0.89407000  0.78131000  1.0
  C  C95  1  0.34261000  0.54922000  0.21903000  1.0
  C  C96  1  0.92269000  0.15838000  0.51707000  1.0
  C  C97  1  0.41955000  0.77315000  0.24608000  1.0
  C  C98  1  0.26248000  0.88719000  0.10594000  1.0
  C  C99  1  0.04886000  0.87576000  0.56145000  1.0
  C  C100  1  0.83036000  0.80271000  0.84978000  1.0
  C  C101  1  0.93709000  0.19658000  0.91811000  1.0
  C  C102  1  0.92475000  0.11308000  0.29267000  1.0
  C  C103  1  0.25634000  0.29888000  0.41372000  1.0
  C  C104  1  0.17306000  0.75393000  0.52734000  1.0
  C  C105  1  0.64353000  0.31517000  0.77891000  1.0
  C  C106  1  0.84171000  0.58587000  0.88440000  1.0
  C  C107  1  0.14057000  0.92928000  0.86021000  1.0
  C  C108  1  0.15712000  0.74973000  0.38543000  1.0
  C  C109  1  0.98041000  0.91780000  0.72146000  1.0
  C  C110  1  0.73752000  0.11278000  0.89404000  1.0
  C  C111  1  0.79200000  0.38546000  0.55806000  1.0
  C  C112  1  0.75952000  0.30516000  0.48273000  1.0
  C  C113  1  0.01962000  0.85024000  0.04751000  1.0
  C  C114  1  0.53216000  0.62380000  0.77240000  1.0
  C  C115  1  0.40603000  0.17293000  0.61449000  1.0
  C  C116  1  0.06290000  0.80340000  0.08189000  1.0
  C  C117  1  0.92872000  0.15426000  0.64479000  1.0
  C  C118  1  0.59090000  0.33696000  0.42055000  1.0
  C  C119  1  0.40510000  0.48292000  0.64061000  1.0
  C  C120  1  0.54602000  0.82214000  0.30520000  1.0
  C  C121  1  0.36096000  0.81237000  0.20831000  1.0
  C  C122  1  0.63131000  0.70739000  0.81964000  1.0
  C  C123  1  0.17352000  0.68542000  0.12397000  1.0
  C  C124  1  0.45395000  0.17784000  0.69479000  1.0
  C  C125  1  0.90926000  0.14946000  0.37626000  1.0
  C  C126  1  0.25376000  0.08366000  0.66284000  1.0
  C  C127  1  0.78853000  0.06902000  0.92922000  1.0
  C  C128  1  0.18873000  0.82027000  0.11296000  1.0
  C  C129  1  0.74622000  0.91627000  0.33712000  1.0
  C  C130  1  0.54877000  0.39580000  0.18826000  1.0
  C  C131  1  0.20800000  0.61456000  0.44190000  1.0
  C  C132  1  0.28353000  0.35506000  0.50882000  1.0
  C  C133  1  0.35645000  0.68485000  0.22112000  1.0
  C  C134  1  0.86499000  0.22107000  0.53598000  1.0
  C  C135  1  0.82693000  0.24606000  0.47265000  1.0
  C  C136  1  0.34465000  0.71806000  0.58687000  1.0
  C  C137  1  0.15832000  0.41417000  0.11564000  1.0
  C  C138  1  0.23342000  0.44167000  0.82644000  1.0
  C  C139  1  0.09071000  0.85050000  0.62372000  1.0
  C  C140  1  0.84374000  0.10586000  0.21866000  1.0
  C  C141  1  0.98037000  0.14973000  0.95247000  1.0
  C  C142  1  0.37554000  0.21874000  0.11346000  1.0
  C  C143  1  0.46783000  0.37623000  0.22759000  1.0
  C  C144  1  0.58043000  0.22687000  0.75394000  1.0
  C  C145  1  0.87660000  0.21864000  0.66929000  1.0
  C  C146  1  0.35354000  0.52728000  0.77253000  1.0
  C  C147  1  0.07727000  0.84158000  0.48290000  1.0
  C  C148  1  0.84785000  0.20840000  0.39578000  1.0
  C  C149  1  0.27852000  0.56367000  0.43942000  1.0
  C  C150  1  0.77216000  0.61476000  0.36514000  1.0
  C  C151  1  0.72386000  0.48298000  0.17852000  1.0
  C  C152  1  0.72149000  0.43636000  0.56054000  1.0
  C  C153  1  0.62684000  0.86862000  0.28204000  1.0
  C  C154  1  0.71530000  0.87541000  0.43640000  1.0
  C  C155  1  0.32843000  0.46398000  0.68429000  1.0
  C  C156  1  0.40909000  0.66306000  0.57942000  1.0
  C  C157  1  0.12340000  0.78134000  0.33070000  1.0
  C  C158  1  0.25982000  0.27839000  0.19723000  1.0
  C  C159  1  0.83948000  0.56103000  0.12520000  1.0
  C  C160  1  0.79315000  0.66954000  0.45138000  1.0
  C  C161  1  0.07127000  0.84572000  0.35520000  1.0
  C  C162  1  0.16998000  0.57906000  0.91557000  1.0
  C  C163  1  0.74367000  0.70114000  0.58628000  1.0
  C  C164  1  0.36872000  0.29263000  0.18037000  1.0
  C  C165  1  0.20686000  0.33050000  0.54862000  1.0
  C  C166  1  0.74021000  0.72161000  0.80278000  1.0
  C  C167  1  0.65741000  0.45081000  0.78100000  1.0
  C  C168  1  0.07523000  0.88687000  0.70731000  1.0
  C  C169  1  0.62449000  0.78127000  0.88656000  1.0
  C  C170  1  0.27615000  0.51707000  0.82150000  1.0
  C  C171  1  0.95108000  0.12419000  0.43852000  1.0
  C  C172  1  0.02830000  0.04771000  0.19734000  1.0
  C  C173  1  0.65534000  0.28194000  0.41310000  1.0
  C  C174  1  0.24047000  0.69485000  0.51724000  1.0
  C  C175  1  0.76661000  0.55840000  0.17361000  1.0
  C  C176  1  0.59487000  0.51714000  0.35937000  1.0
  C  C177  1  0.15212000  0.79156000  0.60419000  1.0
  C  C178  1  0.84288000  0.25025000  0.61456000  1.0
  C  C179  1  0.71647000  0.64499000  0.49118000  1.0
  C  C180  1  0.37313000  0.13133000  0.71793000  1.0
  C  C181  1  0.22783000  0.38530000  0.63486000  1.0
  C  C182  1  0.64645000  0.47277000  0.22747000  1.0
  C  C183  1  0.71935000  0.86010000  0.93051000  1.0
  C  C184  1  0.97167000  0.95220000  0.80264000  1.0
  C  C185  1  0.95751000  0.11507000  0.70080000  1.0
  C  C186  1  0.82646000  0.31460000  0.87607000  1.0
  C  C187  1  0.48791000  0.43855000  0.31491000  1.0
  C  C188  1  0.45123000  0.60424000  0.81174000  1.0
  C  C189  1  0.59220000  0.36454000  0.74952000  1.0
  C  C190  1  0.16969000  0.19728000  0.15026000  1.0
  C  C191  1  0.21146000  0.93095000  0.07075000  1.0
  C  C192  1  0.59394000  0.82702000  0.38548000  1.0
  C  C193  1  0.63903000  0.18764000  0.79170000  1.0
  C  C194  1  0.40781000  0.63550000  0.25051000  1.0
  C  C195  1  0.22612000  0.50928000  0.15452000  1.0
  C  C196  1  0.81126000  0.17971000  0.88703000  1.0
  C  C197  1  0.01956000  0.08214000  0.27852000  1.0
  C  C198  1  0.23609000  0.64101000  0.15828000  1.0
  C  C199  1  0.76389000  0.35901000  0.84176000  1.0
  C  C200  1  0.16059000  0.43906000  0.87488000  1.0
  C  C201  1  0.75843000  0.41345000  0.13214000  1.0
  C  C202  1  0.83010000  0.42102000  0.08450000  1.0
  C  C203  1  0.28070000  0.13990000  0.06954000  1.0
  C  C204  1  0.77389000  0.49075000  0.84552000  1.0
  C  C205  1  0.75936000  0.22707000  0.85074000  1.0
  C  C206  1  0.24160000  0.58661000  0.86790000  1.0
  C  C207  1  0.28468000  0.12450000  0.56355000  1.0
  N  N208  1  0.17785000  0.12729000  0.08692000  1.0
  N  N209  1  0.94965000  0.04063000  0.12721000  1.0
  N  N210  1  0.82221000  0.87270000  0.91313000  1.0
  N  N211  1  0.82421000  0.44553000  0.87439000  1.0
  N  N212  1  0.05032000  0.95929000  0.87277000  1.0
  N  N213  1  0.12913000  0.50635000  0.91908000  1.0
  N  N214  1  0.04960000  0.87432000  0.42909000  1.0
  N  N215  1  0.20923000  0.08026000  0.58669000  1.0
  N  N216  1  0.79075000  0.91964000  0.41325000  1.0
  N  N217  1  0.87097000  0.49376000  0.08102000  1.0
  N  N218  1  0.09114000  0.91340000  0.04061000  1.0
  N  N219  1  0.95036000  0.12564000  0.57089000  1.0
  N  N220  1  0.37905000  0.42902000  0.55415000  1.0
  N  N221  1  0.62261000  0.41310000  0.49321000  1.0
  N  N222  1  0.90885000  0.08655000  0.95935000  1.0
  N  N223  1  0.62092000  0.57102000  0.44583000  1.0
  N  N224  1  0.17577000  0.55449000  0.12565000  1.0
  N  N225  1  0.37738000  0.58692000  0.50675000  1.0
  O  O226  1  0.41582000  0.42403000  0.35402000  1.0
  O  O227  1  0.06244000  0.64610000  0.06994000  1.0
  O  O228  1  0.93753000  0.35392000  0.93011000  1.0
  O  O229  1  0.58417000  0.57605000  0.64598000  1.0
  O  O230  1  0.99167000  0.92968000  0.57597000  1.0
  O  O231  1  0.00824000  0.07026000  0.42399000  1.0
