# generated using pymatgen
data_CdH13C20N3O7
_symmetry_space_group_name_H-M   'P 1'
_cell_length_a   7.28827000
_cell_length_b   10.43550000
_cell_length_c   12.21520000
_cell_angle_alpha   85.16990000
_cell_angle_beta   80.19240000
_cell_angle_gamma   81.52990000
_symmetry_Int_Tables_number   1
_chemical_formula_structural   CdH13C20N3O7
_chemical_formula_sum   'Cd2 H26 C40 N6 O14'
_cell_volume   903.81850610
_cell_formula_units_Z   2
loop_
 _symmetry_equiv_pos_site_id
 _symmetry_equiv_pos_as_xyz
  1  'x, y, z'
loop_
 _atom_site_type_symbol
 _atom_site_label
 _atom_site_symmetry_multiplicity
 _atom_site_fract_x
 _atom_site_fract_y
 _atom_site_fract_z
 _atom_site_occupancy
  Cd  Cd0  1  0.70049000  0.16049000  0.12010000  1.0
  Cd  Cd1  1  0.29951000  0.83951000  0.87990000  1.0
  H  H2  1  0.44024000  0.71569000  0.28038000  1.0
  H  H3  1  0.55976000  0.28431000  0.71962000  1.0
  H  H4  1  0.85187000  0.88054000  0.36469000  1.0
  H  H5  1  0.14813000  0.11946000  0.63530000  1.0
  H  H6  1  0.49155000  0.87820000  0.45555000  1.0
  H  H7  1  0.50845000  0.12179000  0.54445000  1.0
  H  H8  1  0.59841000  0.80152000  0.09572000  1.0
  H  H9  1  0.40159000  0.19848000  0.90428000  1.0
  H  H10  1  0.28410000  0.72118000  0.55690000  1.0
  H  H11  1  0.71590000  0.27881000  0.44310000  1.0
  H  H12  1  0.46014000  0.30043000  0.33898000  1.0
  H  H13  1  0.53986000  0.69957000  0.66102000  1.0
  H  H14  1  0.95560000  0.60261000  0.77412000  1.0
  H  H15  1  0.04440000  0.39740000  0.22588000  1.0
  H  H16  1  0.05583000  0.37075000  0.72549000  1.0
  H  H17  1  0.94417000  0.62926000  0.27451000  1.0
  H  H18  1  0.78505000  0.75784000  0.90989000  1.0
  H  H19  1  0.21495000  0.24216000  0.09011000  1.0
  H  H20  1  0.35654000  0.52248000  0.40759000  1.0
  H  H21  1  0.64346000  0.47752000  0.59241000  1.0
  H  H22  1  0.95384000  0.19287000  0.86259000  1.0
  H  H23  1  0.04616000  0.80713000  0.13741000  1.0
  H  H24  1  0.87235000  0.00247000  0.93439000  1.0
  H  H25  1  0.12765000  0.99753000  0.06561000  1.0
  H  H26  1  0.66399000  0.00121000  0.92431000  1.0
  H  H27  1  0.33601000  0.99879000  0.07569000  1.0
  C  C28  1  0.48354000  0.61691000  0.25435000  1.0
  C  C29  1  0.51646000  0.38309000  0.74565000  1.0
  C  C30  1  0.75142000  0.44190000  0.00824000  1.0
  C  C31  1  0.24858000  0.55810000  0.99176000  1.0
  C  C32  1  0.29164000  0.96383000  0.34973000  1.0
  C  C33  1  0.70836000  0.03617000  0.65027000  1.0
  C  C34  1  0.64128000  0.46679000  0.11635000  1.0
  C  C35  1  0.35872000  0.53321000  0.88365000  1.0
  C  C36  1  0.06216000  0.78896000  0.46188000  1.0
  C  C37  1  0.93784000  0.21104000  0.53812000  1.0
  C  C38  1  0.43239000  0.04315000  0.28213000  1.0
  C  C39  1  0.56762000  0.95685000  0.71787000  1.0
  C  C40  1  0.99336000  0.87886000  0.38272000  1.0
  C  C41  1  0.00664000  0.12114000  0.61728000  1.0
  C  C42  1  0.35264000  0.87703000  0.43450000  1.0
  C  C43  1  0.64736000  0.12297000  0.56550000  1.0
  C  C44  1  0.58679000  0.59720000  0.14699000  1.0
  C  C45  1  0.41321000  0.40280000  0.85301000  1.0
  C  C46  1  0.10759000  0.96783000  0.32676000  1.0
  C  C47  1  0.89241000  0.03217000  0.67324000  1.0
  C  C48  1  0.01905000  0.07055000  0.25026000  1.0
  C  C49  1  0.98095000  0.92945000  0.74974000  1.0
  C  C50  1  0.63911000  0.70213000  0.07045000  1.0
  C  C51  1  0.36089000  0.29787000  0.92955000  1.0
  C  C52  1  0.23887000  0.78883000  0.49110000  1.0
  C  C53  1  0.76113000  0.21117000  0.50890000  1.0
  C  C54  1  0.49535000  0.38623000  0.28706000  1.0
  C  C55  1  0.50465000  0.61377000  0.71294000  1.0
  C  C56  1  0.91383000  0.52203000  0.83111000  1.0
  C  C57  1  0.08617000  0.47797000  0.16889000  1.0
  C  C58  1  0.96862000  0.39440000  0.80475000  1.0
  C  C59  1  0.03138000  0.60560000  0.19525000  1.0
  C  C60  1  0.74286000  0.67868000  0.96825000  1.0
  C  C61  1  0.25714000  0.32132000  0.03175000  1.0
  C  C62  1  0.43818000  0.51157000  0.32474000  1.0
  C  C63  1  0.56182000  0.48843000  0.67527000  1.0
  C  C64  1  0.80214000  0.54878000  0.93514000  1.0
  C  C65  1  0.19786000  0.45122000  0.06486000  1.0
  C  C66  1  0.91135000  0.29439000  0.88157000  1.0
  C  C67  1  0.08865000  0.70561000  0.11843000  1.0
  N  N68  1  0.59431000  0.36497000  0.18651000  1.0
  N  N69  1  0.40569000  0.63503000  0.81349000  1.0
  N  N70  1  0.80599000  0.31733000  0.98026000  1.0
  N  N71  1  0.19401000  0.68267000  0.01974000  1.0
  N  N72  1  0.94622000  0.69020000  0.51431000  1.0
  N  N73  1  0.05378000  0.30980000  0.48569000  1.0
  O  O74  1  0.43360000  0.05731000  0.17567000  1.0
  O  O75  1  0.56640000  0.94269000  0.82433000  1.0
  O  O76  1  0.94167000  0.02584000  0.17522000  1.0
  O  O77  1  0.05833000  0.97416000  0.82478000  1.0
  O  O78  1  0.74501000  0.01417000  0.97932000  1.0
  O  O79  1  0.25499000  0.98583000  0.02068000  1.0
  O  O80  1  0.54852000  0.08647000  0.32912000  1.0
  O  O81  1  0.45148000  0.91353000  0.67088000  1.0
  O  O82  1  0.78221000  0.69998000  0.49480000  1.0
  O  O83  1  0.21779000  0.30002000  0.50520000  1.0
  O  O84  1  0.01855000  0.60058000  0.57290000  1.0
  O  O85  1  0.98145000  0.39942000  0.42710000  1.0
  O  O86  1  0.01741000  0.18694000  0.26547000  1.0
  O  O87  1  0.98259000  0.81306000  0.73453000  1.0
