# generated using pymatgen
data_CoPH12C6NClO3
_symmetry_space_group_name_H-M   'P 1'
_cell_length_a   9.51267000
_cell_length_b   10.14650000
_cell_length_c   10.15610000
_cell_angle_alpha   90.43080000
_cell_angle_beta   90.00010000
_cell_angle_gamma   89.99970000
_symmetry_Int_Tables_number   1
_chemical_formula_structural   CoPH12C6NClO3
_chemical_formula_sum   'Co4 P4 H48 C24 N4 Cl4 O12'
_cell_volume   980.24217240
_cell_formula_units_Z   4
loop_
 _symmetry_equiv_pos_site_id
 _symmetry_equiv_pos_as_xyz
  1  'x, y, z'
loop_
 _atom_site_type_symbol
 _atom_site_label
 _atom_site_symmetry_multiplicity
 _atom_site_fract_x
 _atom_site_fract_y
 _atom_site_fract_z
 _atom_site_occupancy
  Co  Co0  1  0.89153000  0.11497000  0.63509000  1.0
  Co  Co1  1  0.39154000  0.88503000  0.86491000  1.0
  Co  Co2  1  0.10847000  0.88503000  0.36491000  1.0
  Co  Co3  1  0.60846000  0.11497000  0.13509000  1.0
  P  P4  1  0.70579000  0.98733000  0.86309000  1.0
  P  P5  1  0.20580000  0.01266000  0.63693000  1.0
  P  P6  1  0.29421000  0.01266000  0.13691000  1.0
  P  P7  1  0.79421000  0.98734000  0.36308000  1.0
  H  H8  1  0.73122000  0.74898000  0.86738000  1.0
  H  H9  1  0.23122000  0.25102000  0.63262000  1.0
  H  H10  1  0.26878000  0.25102000  0.13262000  1.0
  H  H11  1  0.76878000  0.74898000  0.36738000  1.0
  H  H12  1  0.76927000  0.81730000  0.71029000  1.0
  H  H13  1  0.26928000  0.18270000  0.78971000  1.0
  H  H14  1  0.23072000  0.18270000  0.28970000  1.0
  H  H15  1  0.73072000  0.81730000  0.21029000  1.0
  H  H16  1  0.02394000  0.49919000  0.76354000  1.0
  H  H17  1  0.52393000  0.50080000  0.73645000  1.0
  H  H18  1  0.97606000  0.50081000  0.23646000  1.0
  H  H19  1  0.47606000  0.49920000  0.26355000  1.0
  H  H20  1  0.85848000  0.55310000  0.81658000  1.0
  H  H21  1  0.35848000  0.44690000  0.68342000  1.0
  H  H22  1  0.14152000  0.44690000  0.18342000  1.0
  H  H23  1  0.64152000  0.55311000  0.31658000  1.0
  H  H24  1  0.13314000  0.58039000  0.97309000  1.0
  H  H25  1  0.63314000  0.41961000  0.52691000  1.0
  H  H26  1  0.86686000  0.41961000  0.02691000  1.0
  H  H27  1  0.36686000  0.58039000  0.47309000  1.0
  H  H28  1  0.98742000  0.90469000  0.79851000  1.0
  H  H29  1  0.48742000  0.09531000  0.70149000  1.0
  H  H30  1  0.01258000  0.09531000  0.20149000  1.0
  H  H31  1  0.51258000  0.90469000  0.29851000  1.0
  H  H32  1  0.83532000  0.66620000  0.05091000  1.0
  H  H33  1  0.33531000  0.33380000  0.44909000  1.0
  H  H34  1  0.16469000  0.33380000  0.94909000  1.0
  H  H35  1  0.66468000  0.66620000  0.55091000  1.0
  H  H36  1  0.98887000  0.68804000  0.14660000  1.0
  H  H37  1  0.48886000  0.31196000  0.35340000  1.0
  H  H38  1  0.01114000  0.31196000  0.85340000  1.0
  H  H39  1  0.51114000  0.68804000  0.64660000  1.0
  H  H40  1  0.12120000  0.72483000  0.76854000  1.0
  H  H41  1  0.62120000  0.27517000  0.73146000  1.0
  H  H42  1  0.87880000  0.27517000  0.23146000  1.0
  H  H43  1  0.37880000  0.72483000  0.26854000  1.0
  H  H44  1  0.97405000  0.71432000  0.66233000  1.0
  H  H45  1  0.47405000  0.28567000  0.83767000  1.0
  H  H46  1  0.02595000  0.28567000  0.33767000  1.0
  H  H47  1  0.52595000  0.71433000  0.16233000  1.0
  H  H48  1  0.92803000  0.89511000  0.03411000  1.0
  H  H49  1  0.42803000  0.10490000  0.46589000  1.0
  H  H50  1  0.07197000  0.10490000  0.96589000  1.0
  H  H51  1  0.57197000  0.89511000  0.53411000  1.0
  H  H52  1  0.09581000  0.83394000  0.98595000  1.0
  H  H53  1  0.59581000  0.16606000  0.51405000  1.0
  H  H54  1  0.90419000  0.16606000  0.01404000  1.0
  H  H55  1  0.40419000  0.83394000  0.48595000  1.0
  C  C56  1  0.78626000  0.82892000  0.81666000  1.0
  C  C57  1  0.28626000  0.17108000  0.68334000  1.0
  C  C58  1  0.21374000  0.17108000  0.18334000  1.0
  C  C59  1  0.71374000  0.82892000  0.31666000  1.0
  C  C60  1  0.97193000  0.57416000  0.82484000  1.0
  C  C61  1  0.47192000  0.42584000  0.67515000  1.0
  C  C62  1  0.02807000  0.42584000  0.17516000  1.0
  C  C63  1  0.52808000  0.57416000  0.32485000  1.0
  C  C64  1  0.01775000  0.56686000  0.96930000  1.0
  C  C65  1  0.51775000  0.43314000  0.53070000  1.0
  C  C66  1  0.98225000  0.43314000  0.03070000  1.0
  C  C67  1  0.48225000  0.56686000  0.46930000  1.0
  C  C68  1  0.94996000  0.68212000  0.04487000  1.0
  C  C69  1  0.44996000  0.31788000  0.45513000  1.0
  C  C70  1  0.05004000  0.31788000  0.95513000  1.0
  C  C71  1  0.55004000  0.68212000  0.54487000  1.0
  C  C72  1  0.00738000  0.70640000  0.76533000  1.0
  C  C73  1  0.50738000  0.29359000  0.73467000  1.0
  C  C74  1  0.99262000  0.29359000  0.23467000  1.0
  C  C75  1  0.49262000  0.70641000  0.26533000  1.0
  C  C76  1  0.98250000  0.81455000  0.98294000  1.0
  C  C77  1  0.48250000  0.18546000  0.51706000  1.0
  C  C78  1  0.01750000  0.18545000  0.01706000  1.0
  C  C79  1  0.51750000  0.81455000  0.48294000  1.0
  N  N80  1  0.94119000  0.81983000  0.83997000  1.0
  N  N81  1  0.44119000  0.18017000  0.66003000  1.0
  N  N82  1  0.05881000  0.18017000  0.16003000  1.0
  N  N83  1  0.55881000  0.81983000  0.33997000  1.0
  Cl  Cl84  1  0.92695000  0.32032000  0.57690000  1.0
  Cl  Cl85  1  0.42695000  0.67968000  0.92310000  1.0
  Cl  Cl86  1  0.07305000  0.67968000  0.42310000  1.0
  Cl  Cl87  1  0.57305000  0.32032000  0.07690000  1.0
  O  O88  1  0.79114000  0.09952000  0.80349000  1.0
  O  O89  1  0.29114000  0.90048000  0.69651000  1.0
  O  O90  1  0.20885000  0.90048000  0.19651000  1.0
  O  O91  1  0.70886000  0.09951000  0.30349000  1.0
  O  O92  1  0.70280000  0.99323000  0.01418000  1.0
  O  O93  1  0.20280000  0.00676000  0.48582000  1.0
  O  O94  1  0.29720000  0.00676000  0.98582000  1.0
  O  O95  1  0.79721000  0.99324000  0.51418000  1.0
  O  O96  1  0.55838000  0.97833000  0.79902000  1.0
  O  O97  1  0.05838000  0.02167000  0.70099000  1.0
  O  O98  1  0.44162000  0.02167000  0.20098000  1.0
  O  O99  1  0.94162000  0.97833000  0.29902000  1.0
