# generated using pymatgen
data_ZnH20C20N2O7
_symmetry_space_group_name_H-M   'P 1'
_cell_length_a   5.48137000
_cell_length_b   8.21587000
_cell_length_c   22.66440000
_cell_angle_alpha   85.43470000
_cell_angle_beta   83.06130000
_cell_angle_gamma   70.54050000
_symmetry_Int_Tables_number   1
_chemical_formula_structural   ZnH20C20N2O7
_chemical_formula_sum   'Zn2 H40 C40 N4 O14'
_cell_volume   954.47687564
_cell_formula_units_Z   2
loop_
 _symmetry_equiv_pos_site_id
 _symmetry_equiv_pos_as_xyz
  1  'x, y, z'
loop_
 _atom_site_type_symbol
 _atom_site_label
 _atom_site_symmetry_multiplicity
 _atom_site_fract_x
 _atom_site_fract_y
 _atom_site_fract_z
 _atom_site_occupancy
  Zn  Zn0  1  0.96269000  0.74917000  0.25000000  1.0
  Zn  Zn1  1  0.03725000  0.25092000  0.75000000  1.0
  H  H2  1  0.19304000  0.04574000  0.24842000  1.0
  H  H3  1  0.48796000  0.45273000  0.25175000  1.0
  H  H4  1  0.80701000  0.95428000  0.75156000  1.0
  H  H5  1  0.51195000  0.54736000  0.74822000  1.0
  H  H6  1  0.12573000  0.33801000  0.19671000  1.0
  H  H7  1  0.66037000  0.16043000  0.30351000  1.0
  H  H8  1  0.87432000  0.66201000  0.80327000  1.0
  H  H9  1  0.33956000  0.83966000  0.69646000  1.0
  H  H10  1  0.80652000  0.43819000  0.12168000  1.0
  H  H11  1  0.36591000  0.06048000  0.37847000  1.0
  H  H12  1  0.19350000  0.56185000  0.87830000  1.0
  H  H13  1  0.63406000  0.93957000  0.62151000  1.0
  H  H14  1  0.56977000  0.23614000  0.09792000  1.0
  H  H15  1  0.90387000  0.26279000  0.40219000  1.0
  H  H16  1  0.43024000  0.76390000  0.90206000  1.0
  H  H17  1  0.09608000  0.73724000  0.59778000  1.0
  H  H18  1  0.65615000  0.95205000  0.15312000  1.0
  H  H19  1  0.76196000  0.54684000  0.34694000  1.0
  H  H20  1  0.34386000  0.04800000  0.84687000  1.0
  H  H21  1  0.23796000  0.45322000  0.65305000  1.0
  H  H22  1  0.87487000  0.99858000  0.43603000  1.0
  H  H23  1  0.30969000  0.50096000  0.06389000  1.0
  H  H24  1  0.12515000  0.00142000  0.56398000  1.0
  H  H25  1  0.69032000  0.49894000  0.93613000  1.0
  H  H26  1  0.86748000  0.78455000  0.44544000  1.0
  H  H27  1  0.09743000  0.71495000  0.05464000  1.0
  H  H28  1  0.13252000  0.21545000  0.55457000  1.0
  H  H29  1  0.90263000  0.28496000  0.94536000  1.0
  H  H30  1  0.14463000  0.53025000  0.43703000  1.0
  H  H31  1  0.11161000  0.96946000  0.06274000  1.0
  H  H32  1  0.85536000  0.46972000  0.56298000  1.0
  H  H33  1  0.88848000  0.03041000  0.93729000  1.0
  H  H34  1  0.57552000  0.75908000  0.53215000  1.0
  H  H35  1  0.86667000  0.74095000  0.96792000  1.0
  H  H36  1  0.42448000  0.24088000  0.46785000  1.0
  H  H37  1  0.13342000  0.25891000  0.03211000  1.0
  H  H38  1  0.52550000  0.73776000  0.21224000  1.0
  H  H39  1  0.47625000  0.76080000  0.28768000  1.0
  H  H40  1  0.47447000  0.26226000  0.78778000  1.0
  H  H41  1  0.52371000  0.23928000  0.71233000  1.0
  C  C42  1  0.05588000  0.09410000  0.21495000  1.0
  C  C43  1  0.36549000  0.40442000  0.28520000  1.0
  C  C44  1  0.94415000  0.90594000  0.78504000  1.0
  C  C45  1  0.63445000  0.59565000  0.71479000  1.0
  C  C46  1  0.01898000  0.25537000  0.18622000  1.0
  C  C47  1  0.46065000  0.24314000  0.31394000  1.0
  C  C48  1  0.98106000  0.74465000  0.81376000  1.0
  C  C49  1  0.53928000  0.75693000  0.68604000  1.0
  C  C50  1  0.84079000  0.31079000  0.14378000  1.0
  C  C51  1  0.29524000  0.18792000  0.35638000  1.0
  C  C52  1  0.15924000  0.68924000  0.85621000  1.0
  C  C53  1  0.70472000  0.81214000  0.64360000  1.0
  C  C54  1  0.70804000  0.20120000  0.13124000  1.0
  C  C55  1  0.04056000  0.29763000  0.36887000  1.0
  C  C56  1  0.29199000  0.79883000  0.86875000  1.0
  C  C57  1  0.95939000  0.70242000  0.63111000  1.0
  C  C58  1  0.75562000  0.04148000  0.16183000  1.0
  C  C59  1  0.95934000  0.45729000  0.33825000  1.0
  C  C60  1  0.24438000  0.95857000  0.83816000  1.0
  C  C61  1  0.04060000  0.54276000  0.66174000  1.0
  C  C62  1  0.09623000  0.83150000  0.36574000  1.0
  C  C63  1  0.29443000  0.66788000  0.13418000  1.0
  C  C64  1  0.90380000  0.16849000  0.63426000  1.0
  C  C65  1  0.70556000  0.33203000  0.86583000  1.0
  C  C66  1  0.99487000  0.86276000  0.43121000  1.0
  C  C67  1  0.28900000  0.63679000  0.06873000  1.0
  C  C68  1  0.00514000  0.13723000  0.56879000  1.0
  C  C69  1  0.71104000  0.36311000  0.93129000  1.0
  C  C70  1  0.34136000  0.66587000  0.48269000  1.0
  C  C71  1  0.48979000  0.83400000  0.01724000  1.0
  C  C72  1  0.65864000  0.33411000  0.51732000  1.0
  C  C73  1  0.51029000  0.16587000  0.98279000  1.0
  C  C74  1  0.29889000  0.51936000  0.46463000  1.0
  C  C75  1  0.28273000  0.98041000  0.03524000  1.0
  C  C76  1  0.70111000  0.48062000  0.53538000  1.0
  C  C77  1  0.71736000  0.01945000  0.96479000  1.0
  C  C78  1  0.54325000  0.64475000  0.51798000  1.0
  C  C79  1  0.70598000  0.85525000  0.98207000  1.0
  C  C80  1  0.45674000  0.35522000  0.48203000  1.0
  C  C81  1  0.29412000  0.14461000  0.01797000  1.0
  N  N82  1  0.92541000  0.98928000  0.20335000  1.0
  N  N83  1  0.11875000  0.50930000  0.29674000  1.0
  N  N84  1  0.07461000  0.01076000  0.79664000  1.0
  N  N85  1  0.88118000  0.49077000  0.70324000  1.0
  O  O86  1  0.60033000  0.74790000  0.25003000  1.0
  O  O87  1  0.39955000  0.25234000  0.74997000  1.0
  O  O88  1  0.91867000  0.86957000  0.33034000  1.0
  O  O89  1  0.12071000  0.62883000  0.16971000  1.0
  O  O90  1  0.08137000  0.13048000  0.66966000  1.0
  O  O91  1  0.87914000  0.37121000  0.83030000  1.0
  O  O92  1  0.33781000  0.77263000  0.35208000  1.0
  O  O93  1  0.46271000  0.72768000  0.14775000  1.0
  O  O94  1  0.66221000  0.22734000  0.64793000  1.0
  O  O95  1  0.53737000  0.27214000  0.85227000  1.0
  O  O96  1  0.19348000  0.83387000  0.46975000  1.0
  O  O97  1  0.49680000  0.66596000  0.03009000  1.0
  O  O98  1  0.80652000  0.16610000  0.53026000  1.0
  O  O99  1  0.50328000  0.33391000  0.96994000  1.0
