# generated using pymatgen
data_ZnH10C6SN2O7
_symmetry_space_group_name_H-M   'P 1'
_cell_length_a   6.65758000
_cell_length_b   8.28242000
_cell_length_c   9.86772000
_cell_angle_alpha   92.08090000
_cell_angle_beta   89.99980000
_cell_angle_gamma   90.00000000
_symmetry_Int_Tables_number   1
_chemical_formula_structural   ZnH10C6SN2O7
_chemical_formula_sum   'Zn2 H20 C12 S2 N4 O14'
_cell_volume   543.75588824
_cell_formula_units_Z   2
loop_
 _symmetry_equiv_pos_site_id
 _symmetry_equiv_pos_as_xyz
  1  'x, y, z'
loop_
 _atom_site_type_symbol
 _atom_site_label
 _atom_site_symmetry_multiplicity
 _atom_site_fract_x
 _atom_site_fract_y
 _atom_site_fract_z
 _atom_site_occupancy
  Zn  Zn0  1  0.59908000  0.71736000  0.79546000  1.0
  Zn  Zn1  1  0.09909000  0.28264000  0.20454000  1.0
  H  H2  1  0.59898000  0.31636000  0.83184000  1.0
  H  H3  1  0.09898000  0.68364000  0.16817000  1.0
  H  H4  1  0.60377000  0.53368000  0.00128000  1.0
  H  H5  1  0.10377000  0.46633000  0.99873000  1.0
  H  H6  1  0.41390000  0.65066000  0.00884000  1.0
  H  H7  1  0.91391000  0.34935000  0.99117000  1.0
  H  H8  1  0.59917000  0.00062000  0.93849000  1.0
  H  H9  1  0.09917000  0.99938000  0.06150000  1.0
  H  H10  1  0.80581000  0.95607000  0.87084000  1.0
  H  H11  1  0.30581000  0.04394000  0.12916000  1.0
  H  H12  1  0.63200000  0.01440000  0.62059000  1.0
  H  H13  1  0.13201000  0.98560000  0.37941000  1.0
  H  H14  1  0.64679000  0.06618000  0.37059000  1.0
  H  H15  1  0.14678000  0.93382000  0.62941000  1.0
  H  H16  1  0.62395000  0.83009000  0.20490000  1.0
  H  H17  1  0.12394000  0.16990000  0.79510000  1.0
  H  H18  1  0.59105000  0.55126000  0.29496000  1.0
  H  H19  1  0.09105000  0.44874000  0.70504000  1.0
  H  H20  1  0.58737000  0.37127000  0.49018000  1.0
  H  H21  1  0.08738000  0.62872000  0.50982000  1.0
  C  C22  1  0.62575000  0.91599000  0.54424000  1.0
  C  C23  1  0.12575000  0.08401000  0.45576000  1.0
  C  C24  1  0.63122000  0.94367000  0.40564000  1.0
  C  C25  1  0.13122000  0.05634000  0.59436000  1.0
  C  C26  1  0.61972000  0.81235000  0.31367000  1.0
  C  C27  1  0.11971000  0.18765000  0.68633000  1.0
  C  C28  1  0.60298000  0.65730000  0.36289000  1.0
  C  C29  1  0.10297000  0.34270000  0.63711000  1.0
  C  C30  1  0.60121000  0.63809000  0.50291000  1.0
  C  C31  1  0.10121000  0.36190000  0.49709000  1.0
  C  C32  1  0.59094000  0.47778000  0.55910000  1.0
  C  C33  1  0.09094000  0.52221000  0.44090000  1.0
  S  S34  1  0.09759000  0.74465000  0.87429000  1.0
  S  S35  1  0.59759000  0.25536000  0.12571000  1.0
  N  N36  1  0.61235000  0.76669000  0.59171000  1.0
  N  N37  1  0.11235000  0.23331000  0.40829000  1.0
  N  N38  1  0.59089000  0.46548000  0.68901000  1.0
  N  N39  1  0.09089000  0.53451000  0.31100000  1.0
  O  O40  1  0.58465000  0.30972000  0.73060000  1.0
  O  O41  1  0.08464000  0.69028000  0.26940000  1.0
  O  O42  1  0.26755000  0.73626000  0.77727000  1.0
  O  O43  1  0.76754000  0.26373000  0.22273000  1.0
  O  O44  1  0.16227000  0.66435000  0.00360000  1.0
  O  O45  1  0.66227000  0.33566000  0.99639000  1.0
  O  O46  1  0.04369000  0.91580000  0.90905000  1.0
  O  O47  1  0.54369000  0.08421000  0.09095000  1.0
  O  O48  1  0.92265000  0.65657000  0.81563000  1.0
  O  O49  1  0.42265000  0.34343000  0.18437000  1.0
  O  O50  1  0.56165000  0.64826000  0.99136000  1.0
  O  O51  1  0.06165000  0.35175000  0.00865000  1.0
  O  O52  1  0.65852000  0.95802000  0.85165000  1.0
  O  O53  1  0.15852000  0.04198000  0.14835000  1.0
