# generated using pymatgen
data_CdH13C13S2N3O2
_symmetry_space_group_name_H-M   'P 1'
_cell_length_a   8.44045000
_cell_length_b   9.08811000
_cell_length_c   10.53040000
_cell_angle_alpha   82.24050000
_cell_angle_beta   73.02360000
_cell_angle_gamma   79.87410000
_symmetry_Int_Tables_number   1
_chemical_formula_structural   CdH13C13S2N3O2
_chemical_formula_sum   'Cd2 H26 C26 S4 N6 O4'
_cell_volume   757.52148576
_cell_formula_units_Z   2
loop_
 _symmetry_equiv_pos_site_id
 _symmetry_equiv_pos_as_xyz
  1  'x, y, z'
loop_
 _atom_site_type_symbol
 _atom_site_label
 _atom_site_symmetry_multiplicity
 _atom_site_fract_x
 _atom_site_fract_y
 _atom_site_fract_z
 _atom_site_occupancy
  Cd  Cd0  1  0.42378000  0.38285000  0.27819000  1.0
  Cd  Cd1  1  0.57622000  0.61715000  0.72182000  1.0
  H  H2  1  0.83017000  0.21655000  0.41613000  1.0
  H  H3  1  0.16983000  0.78345000  0.58386000  1.0
  H  H4  1  0.80912000  0.96453000  0.36650000  1.0
  H  H5  1  0.19088000  0.03547000  0.63350000  1.0
  H  H6  1  0.06818000  0.79815000  0.25310000  1.0
  H  H7  1  0.93183000  0.20185000  0.74690000  1.0
  H  H8  1  0.36172000  0.75633000  0.14813000  1.0
  H  H9  1  0.63827000  0.24367000  0.85187000  1.0
  H  H10  1  0.65358000  0.74398000  0.00091000  1.0
  H  H11  1  0.34642000  0.25602000  0.99909000  1.0
  H  H12  1  0.83149000  0.98243000  0.07224000  1.0
  H  H13  1  0.16852000  0.01757000  0.92776000  1.0
  H  H14  1  0.92656000  0.85305000  0.94202000  1.0
  H  H15  1  0.07344000  0.14695000  0.05798000  1.0
  H  H16  1  0.77931000  0.76286000  0.24701000  1.0
  H  H17  1  0.22069000  0.23714000  0.75299000  1.0
  H  H18  1  0.87208000  0.63137000  0.11711000  1.0
  H  H19  1  0.12792000  0.36863000  0.88289000  1.0
  H  H20  1  0.93377000  0.45117000  0.27340000  1.0
  H  H21  1  0.06623000  0.54883000  0.72660000  1.0
  H  H22  1  0.02793000  0.55915000  0.35474000  1.0
  H  H23  1  0.97207000  0.44085000  0.64526000  1.0
  H  H24  1  0.87602000  0.44346000  0.45211000  1.0
  H  H25  1  0.12398000  0.55654000  0.54789000  1.0
  H  H26  1  0.53167000  0.00329000  0.17306000  1.0
  H  H27  1  0.46834000  0.99671000  0.82694000  1.0
  C  C28  1  0.23328000  0.95775000  0.24552000  1.0
  C  C29  1  0.76672000  0.04225000  0.75448000  1.0
  C  C30  1  0.24840000  0.10359000  0.27501000  1.0
  C  C31  1  0.75160000  0.89642000  0.72499000  1.0
  C  C32  1  0.09727000  0.19587000  0.33675000  1.0
  C  C33  1  0.90273000  0.80413000  0.66325000  1.0
  C  C34  1  0.94392000  0.14522000  0.36803000  1.0
  C  C35  1  0.05608000  0.85478000  0.63197000  1.0
  C  C36  1  0.93183000  0.00106000  0.33943000  1.0
  C  C37  1  0.06817000  0.99894000  0.66057000  1.0
  C  C38  1  0.07443000  0.90897000  0.27857000  1.0
  C  C39  1  0.92557000  0.09104000  0.72143000  1.0
  C  C40  1  0.37641000  0.86353000  0.17610000  1.0
  C  C41  1  0.62360000  0.13647000  0.82390000  1.0
  C  C42  1  0.67582000  0.80986000  0.07141000  1.0
  C  C43  1  0.32418000  0.19014000  0.92859000  1.0
  C  C44  1  0.83764000  0.87279000  0.03840000  1.0
  C  C45  1  0.16236000  0.12721000  0.96159000  1.0
  C  C46  1  0.80783000  0.74273000  0.14247000  1.0
  C  C47  1  0.19217000  0.25727000  0.85753000  1.0
  C  C48  1  0.97889000  0.45392000  0.36076000  1.0
  C  C49  1  0.02111000  0.54608000  0.63924000  1.0
  C  C50  1  0.54583000  0.32931000  0.56984000  1.0
  C  C51  1  0.45417000  0.67069000  0.43016000  1.0
  C  C52  1  0.70854000  0.42516000  0.98984000  1.0
  C  C53  1  0.29146000  0.57485000  0.01017000  1.0
  S  S54  1  0.47922000  0.20971000  0.50322000  1.0
  S  S55  1  0.52079000  0.79028000  0.49679000  1.0
  S  S56  1  0.74145000  0.33632000  0.12752000  1.0
  S  S57  1  0.25854000  0.66368000  0.87248000  1.0
  N  N58  1  0.52802000  0.89929000  0.14294000  1.0
  N  N59  1  0.47198000  0.10070000  0.85706000  1.0
  N  N60  1  0.60118000  0.41152000  0.61861000  1.0
  N  N61  1  0.39882000  0.58849000  0.38140000  1.0
  N  N62  1  0.68754000  0.48688000  0.88848000  1.0
  N  N63  1  0.31245000  0.51312000  0.11153000  1.0
  O  O64  1  0.39414000  0.15082000  0.24192000  1.0
  O  O65  1  0.60587000  0.84919000  0.75809000  1.0
  O  O66  1  0.11732000  0.33583000  0.36125000  1.0
  O  O67  1  0.88268000  0.66417000  0.63875000  1.0
