# generated using pymatgen
data_Zn4H46C69N16O
_symmetry_space_group_name_H-M   'P 1'
_cell_length_a   16.93620000
_cell_length_b   17.09770000
_cell_length_c   18.72330000
_cell_angle_alpha   106.79100000
_cell_angle_beta   115.24300000
_cell_angle_gamma   101.69500000
_symmetry_Int_Tables_number   1
_chemical_formula_structural   Zn4H46C69N16O
_chemical_formula_sum   'Zn4 H46 C69 N16 O1'
_cell_volume   4349.71243830
_cell_formula_units_Z   1
loop_
 _symmetry_equiv_pos_site_id
 _symmetry_equiv_pos_as_xyz
  1  'x, y, z'
loop_
 _atom_site_type_symbol
 _atom_site_label
 _atom_site_symmetry_multiplicity
 _atom_site_fract_x
 _atom_site_fract_y
 _atom_site_fract_z
 _atom_site_occupancy
  Zn  Zn0  1  0.60445000  0.09477000  0.99817000  1.0
  Zn  Zn1  1  0.39154000  0.88913000  0.00556000  1.0
  Zn  Zn2  1  0.61942000  0.98563000  0.11696000  1.0
  Zn  Zn3  1  0.37436000  0.99762000  0.88499000  1.0
  H  H4  1  0.65710000  0.98049000  0.86762000  1.0
  H  H5  1  0.33994000  0.01700000  0.13131000  1.0
  H  H6  1  0.83315000  0.11744000  0.29185000  1.0
  H  H7  1  0.14103000  0.95568000  0.79121000  1.0
  H  H8  1  0.17044000  0.81985000  0.95783000  1.0
  H  H9  1  0.81721000  0.26607000  0.13767000  1.0
  H  H10  1  0.32271000  0.15343000  0.98045000  1.0
  H  H11  1  0.64461000  0.14570000  0.27921000  1.0
  H  H12  1  0.33999000  0.07169000  0.46901000  1.0
  H  H13  1  0.34087000  0.04503000  0.59096000  1.0
  H  H14  1  0.60698000  0.26350000  0.77042000  1.0
  H  H15  1  0.39083000  0.71187000  0.88377000  1.0
  H  H16  1  0.60625000  0.29020000  0.64792000  1.0
  H  H17  1  0.63092000  0.23061000  0.53845000  1.0
  H  H18  1  0.63851000  0.19818000  0.40603000  1.0
  H  H19  1  0.33579000  0.10770000  0.25157000  1.0
  H  H20  1  0.32865000  0.14135000  0.38456000  1.0
  H  H21  1  0.23564000  0.44440000  0.62906000  1.0
  H  H22  1  0.34200000  0.58171000  0.76143000  1.0
  H  H23  1  0.30325000  0.72839000  0.60479000  1.0
  H  H24  1  0.19548000  0.59140000  0.47313000  1.0
  H  H25  1  0.14616000  0.45596000  0.36682000  1.0
  H  H26  1  0.67397000  0.83605000  0.19279000  1.0
  H  H27  1  0.00032000  0.33509000  0.24116000  1.0
  H  H28  1  0.93319000  0.26216000  0.41618000  1.0
  H  H29  1  0.07865000  0.38248000  0.54146000  1.0
  H  H30  1  0.38351000  0.59347000  0.08552000  1.0
  H  H31  1  0.68425000  0.70513000  0.19673000  1.0
  H  H32  1  0.30786000  0.43850000  0.05776000  1.0
  H  H33  1  0.69667000  0.56623000  0.20317000  1.0
  H  H34  1  0.31789000  0.29380000  0.04350000  1.0
  H  H35  1  0.61875000  0.40800000  0.15702000  1.0
  H  H36  1  0.02859000  0.80137000  0.93138000  1.0
  H  H37  1  0.32925000  0.04933000  0.71498000  1.0
  H  H38  1  0.91338000  0.76212000  0.97562000  1.0
  H  H39  1  0.82121000  0.91098000  0.73842000  1.0
  H  H40  1  0.78292000  0.78791000  0.99190000  1.0
  H  H41  1  0.72390000  0.90044000  0.80497000  1.0
  H  H42  1  0.36988000  0.70880000  0.04345000  1.0
  H  H43  1  0.63317000  0.17665000  0.86331000  1.0
  H  H44  1  0.37556000  0.85922000  0.72777000  1.0
  H  H45  1  0.67259000  0.83087000  0.02155000  1.0
  H  H46  1  0.62799000  0.27234000  0.13377000  1.0
  H  H47  1  0.90861000  0.00386000  0.71343000  1.0
  H  H48  1  0.85271000  0.89347000  0.62904000  1.0
  H  H49  1  0.95729000  0.96886000  0.64713000  1.0
  C  C50  1  0.65351000  0.95072000  0.91067000  1.0
  C  C51  1  0.37103000  0.74950000  0.77248000  1.0
  C  C52  1  0.52510000  0.73826000  0.12611000  1.0
  C  C53  1  0.47952000  0.12627000  0.75996000  1.0
  C  C54  1  0.55385000  0.23044000  0.09029000  1.0
  C  C55  1  0.41517000  0.04070000  0.15633000  1.0
  C  C56  1  0.81429000  0.14347000  0.24300000  1.0
  C  C57  1  0.16383000  0.92583000  0.83627000  1.0
  C  C58  1  0.17833000  0.85640000  0.92098000  1.0
  C  C59  1  0.80690000  0.21845000  0.16389000  1.0
  C  C60  1  0.39829000  0.16971000  0.01262000  1.0
  C  C61  1  0.39125000  0.76009000  0.85668000  1.0
  C  C62  1  0.57055000  0.10578000  0.23199000  1.0
  C  C63  1  0.47325000  0.25145000  0.07258000  1.0
  C  C64  1  0.49061000  0.10473000  0.23873000  1.0
  C  C65  1  0.86520000  0.22139000  0.24587000  1.0
  C  C66  1  0.11128000  0.87828000  0.86212000  1.0
  C  C67  1  0.39789000  0.11560000  0.53520000  1.0
  C  C68  1  0.39856000  0.10024000  0.60427000  1.0
  C  C69  1  0.47528000  0.15052000  0.69011000  1.0
  C  C70  1  0.54844000  0.22063000  0.70408000  1.0
  C  C71  1  0.54784000  0.23581000  0.63472000  1.0
  C  C72  1  0.59818000  0.81668000  0.15352000  1.0
  C  C73  1  0.47394000  0.18179000  0.54815000  1.0
  C  C74  1  0.56573000  0.20508000  0.47579000  1.0
  C  C75  1  0.56991000  0.18623000  0.40039000  1.0
  C  C76  1  0.48740000  0.14531000  0.31727000  1.0
  C  C77  1  0.40119000  0.13452000  0.31430000  1.0
  C  C78  1  0.39705000  0.15326000  0.38970000  1.0
  C  C79  1  0.47884000  0.18412000  0.47194000  1.0
  C  C80  1  0.24951000  0.50682000  0.62341000  1.0
  C  C81  1  0.31025000  0.58464000  0.69836000  1.0
  C  C82  1  0.32763000  0.66697000  0.69443000  1.0
  C  C83  1  0.40443000  0.07552000  0.76172000  1.0
  C  C84  1  0.28965000  0.66627000  0.61098000  1.0
  C  C85  1  0.22890000  0.58845000  0.53609000  1.0
  C  C86  1  0.20348000  0.50735000  0.54083000  1.0
  C  C87  1  0.09944000  0.41393000  0.37822000  1.0
  C  C88  1  0.01694000  0.34578000  0.30715000  1.0
  C  C89  1  0.95493000  0.28988000  0.31896000  1.0
  C  C90  1  0.98081000  0.30329000  0.40490000  1.0
  C  C91  1  0.06322000  0.37110000  0.47570000  1.0
  C  C92  1  0.12381000  0.42919000  0.46428000  1.0
  C  C93  1  0.53193000  0.65875000  0.13830000  1.0
  C  C94  1  0.44338000  0.75227000  0.07813000  1.0
  C  C95  1  0.46950000  0.33937000  0.09694000  1.0
  C  C96  1  0.37604000  0.43173000  0.07953000  1.0
  C  C97  1  0.38188000  0.35079000  0.07160000  1.0
  C  C98  1  0.55035000  0.41398000  0.13635000  1.0
  C  C99  1  0.54664000  0.49761000  0.14445000  1.0
  C  C100  1  0.45718000  0.50693000  0.11276000  1.0
  C  C101  1  0.45246000  0.58812000  0.11136000  1.0
  C  C102  1  0.62092000  0.64989000  0.17387000  1.0
  C  C103  1  0.62810000  0.57229000  0.17739000  1.0
  C  C104  1  0.01481000  0.86203000  0.84342000  1.0
  C  C105  1  0.55914000  0.14153000  0.83794000  1.0
  C  C106  1  0.74626000  0.85026000  0.90221000  1.0
  C  C107  1  0.87173000  0.79250000  0.93832000  1.0
  C  C108  1  0.79849000  0.80667000  0.94700000  1.0
  C  C109  1  0.76456000  0.86953000  0.84222000  1.0
  C  C110  1  0.84065000  0.85768000  0.83340000  1.0
  C  C111  1  0.89832000  0.82189000  0.88534000  1.0
  C  C112  1  0.98334000  0.82472000  0.88787000  1.0
  C  C113  1  0.95147000  0.88965000  0.78523000  1.0
  C  C114  1  0.86712000  0.88697000  0.78035000  1.0
  C  C115  1  0.38319000  0.83515000  0.77710000  1.0
  C  C116  1  0.66234000  0.87499000  0.98970000  1.0
  C  C117  1  0.68581000  0.88487000  0.92826000  1.0
  C  C118  1  0.92088000  0.94802000  0.67869000  1.0
  N  N119  1  0.61589000  0.97808000  0.95893000  1.0
  N  N120  1  0.44861000  0.00602000  0.10644000  1.0
  N  N121  1  0.73301000  0.09810000  0.16584000  1.0
  N  N122  1  0.25380000  0.93175000  0.87678000  1.0
  N  N123  1  0.26254000  0.88826000  0.92937000  1.0
  N  N124  1  0.72798000  0.14490000  0.11659000  1.0
  N  N125  1  0.43248000  0.10657000  0.99524000  1.0
  N  N126  1  0.54399000  0.04592000  0.15287000  1.0
  N  N127  1  0.41149000  0.84461000  0.90571000  1.0
  N  N128  1  0.56262000  0.87229000  0.12443000  1.0
  N  N129  1  0.43675000  0.06201000  0.83451000  1.0
  N  N130  1  0.46613000  0.83199000  0.07746000  1.0
  N  N131  1  0.53323000  0.10287000  0.88200000  1.0
  N  N132  1  0.40649000  0.89074000  0.85684000  1.0
  N  N133  1  0.62118000  0.93155000  0.00754000  1.0
  N  N134  1  0.52816000  0.14402000  0.04294000  1.0
  O  O135  1  0.98171000  0.92036000  0.73764000  1.0
