# generated using pymatgen
data_FeH8Pd(C3N2)4
_symmetry_space_group_name_H-M   'P 1'
_cell_length_a   7.02096000
_cell_length_b   7.23258000
_cell_length_c   7.27575000
_cell_angle_alpha   97.49350000
_cell_angle_beta   89.99990000
_cell_angle_gamma   90.00130000
_symmetry_Int_Tables_number   1
_chemical_formula_structural   FeH8Pd(C3N2)4
_chemical_formula_sum   'Fe1 H8 Pd1 C12 N8'
_cell_volume   366.30476023
_cell_formula_units_Z   1
loop_
 _symmetry_equiv_pos_site_id
 _symmetry_equiv_pos_as_xyz
  1  'x, y, z'
loop_
 _atom_site_type_symbol
 _atom_site_label
 _atom_site_symmetry_multiplicity
 _atom_site_fract_x
 _atom_site_fract_y
 _atom_site_fract_z
 _atom_site_occupancy
  Fe  Fe0  1  0.50000000  0.52297000  0.00157000  1.0
  H  H1  1  0.79602000  0.81387000  0.01144000  1.0
  H  H2  1  0.79498000  0.16032000  0.98974000  1.0
  H  H3  1  0.20503000  0.16031000  0.98974000  1.0
  H  H4  1  0.20399000  0.81385000  0.01145000  1.0
  H  H5  1  0.79494000  0.85442000  0.57352000  1.0
  H  H6  1  0.79499000  0.15236000  0.42580000  1.0
  H  H7  1  0.20498000  0.15235000  0.42580000  1.0
  H  H8  1  0.20503000  0.85441000  0.57352000  1.0
  Pd  Pd9  1  1.00000000  0.50207000  0.49916000  1.0
  C  C10  1  0.66433000  0.89208000  0.00663000  1.0
  C  C11  1  0.66280000  0.08189000  0.99365000  1.0
  C  C12  1  0.33722000  0.08188000  0.99365000  1.0
  C  C13  1  0.33569000  0.89207000  0.00663000  1.0
  C  C14  1  0.80435000  0.49589000  0.69407000  1.0
  C  C15  1  0.80429000  0.51550000  0.30560000  1.0
  C  C16  1  0.19573000  0.51551000  0.30561000  1.0
  C  C17  1  0.19566000  0.49588000  0.69408000  1.0
  C  C18  1  0.66169000  0.92162000  0.54101000  1.0
  C  C19  1  0.66168000  0.08525000  0.45838000  1.0
  C  C20  1  0.33830000  0.08525000  0.45838000  1.0
  C  C21  1  0.33828000  0.92162000  0.54101000  1.0
  N  N22  1  0.50001000  0.79418000  0.01047000  1.0
  N  N23  1  0.50001000  0.17655000  0.98599000  1.0
  N  N24  1  0.69212000  0.50048000  0.81352000  1.0
  N  N25  1  0.69223000  0.52480000  0.18801000  1.0
  N  N26  1  0.30778000  0.52480000  0.18801000  1.0
  N  N27  1  0.30788000  0.50047000  0.81352000  1.0
  N  N28  1  0.49999000  0.83901000  0.58302000  1.0
  N  N29  1  0.49999000  0.16833000  0.41702000  1.0
