# generated using pymatgen
data_DyH7(C3O4)2
_symmetry_space_group_name_H-M   'P 1'
_cell_length_a   6.09240000
_cell_length_b   10.06361009
_cell_length_c   15.34050000
_cell_angle_alpha   77.25223573
_cell_angle_beta   89.99650000
_cell_angle_gamma   72.40801422
_symmetry_Int_Tables_number   1
_chemical_formula_structural   DyH7(C3O4)2
_chemical_formula_sum   'Dy4 H28 C24 O32'
_cell_volume   872.21497707
_cell_formula_units_Z   4
loop_
 _symmetry_equiv_pos_site_id
 _symmetry_equiv_pos_as_xyz
  1  'x, y, z'
loop_
 _atom_site_type_symbol
 _atom_site_label
 _atom_site_symmetry_multiplicity
 _atom_site_fract_x
 _atom_site_fract_y
 _atom_site_fract_z
 _atom_site_occupancy
  Dy  Dy0  1  0.96706000  0.18459000  0.29491000  1.0
  Dy  Dy1  1  0.15194000  0.81520000  0.20503000  1.0
  Dy  Dy2  1  0.03294000  0.81541000  0.70509000  1.0
  Dy  Dy3  1  0.84806000  0.18480000  0.79497000  1.0
  H  H4  1  0.48700000  0.42349000  0.06572000  1.0
  H  H5  1  0.91012000  0.57625000  0.43437000  1.0
  H  H6  1  0.51300000  0.57651000  0.93428000  1.0
  H  H7  1  0.08989000  0.42375000  0.56562000  1.0
  H  H8  1  0.12341000  0.28858000  0.00682000  1.0
  H  H9  1  0.41173000  0.71112000  0.49305000  1.0
  H  H10  1  0.87659000  0.71142000  0.99318000  1.0
  H  H11  1  0.58827000  0.28888000  0.50695000  1.0
  H  H12  1  0.41784000  0.19884000  0.03659000  1.0
  H  H13  1  0.61658000  0.80088000  0.46338000  1.0
  H  H14  1  0.58216000  0.80116000  0.96341000  1.0
  H  H15  1  0.38342000  0.19912000  0.53662000  1.0
  H  H16  1  0.73521000  0.04916000  0.45316000  1.0
  H  H17  1  0.78459000  0.95087000  0.04689000  1.0
  H  H18  1  0.26479000  0.95084000  0.54684000  1.0
  H  H19  1  0.21541000  0.04913000  0.95311000  1.0
  H  H20  1  0.20545000  0.49903000  0.01366000  1.0
  H  H21  1  0.70382000  0.50070000  0.48631000  1.0
  H  H22  1  0.79455000  0.50097000  0.98634000  1.0
  H  H23  1  0.29618000  0.49930000  0.51369000  1.0
  H  H24  1  0.56299000  0.12441000  0.36093000  1.0
  H  H25  1  0.68763000  0.87548000  0.13911000  1.0
  H  H26  1  0.43700000  0.87559000  0.63907000  1.0
  H  H27  1  0.31237000  0.12452000  0.86089000  1.0
  H  H28  1  0.01278000  0.45381000  0.18385000  1.0
  H  H29  1  0.46651000  0.54599000  0.31597000  1.0
  H  H30  1  0.98722000  0.54619000  0.81615000  1.0
  H  H31  1  0.53348000  0.45402000  0.68403000  1.0
  C  C32  1  0.24784000  0.22658000  0.06433000  1.0
  C  C33  1  0.47431000  0.77318000  0.43559000  1.0
  C  C34  1  0.75216000  0.77342000  0.93567000  1.0
  C  C35  1  0.52568000  0.22683000  0.56441000  1.0
  C  C36  1  0.30437000  0.45582000  0.07930000  1.0
  C  C37  1  0.75981000  0.54393000  0.42070000  1.0
  C  C38  1  0.69563000  0.54418000  0.92070000  1.0
  C  C39  1  0.24019000  0.45607000  0.57930000  1.0
  C  C40  1  0.25894000  0.57668000  0.12733000  1.0
  C  C41  1  0.83536000  0.42306000  0.37265000  1.0
  C  C42  1  0.74105000  0.42332000  0.87267000  1.0
  C  C43  1  0.16464000  0.57694000  0.62735000  1.0
  C  C44  1  0.42648000  0.23943000  0.20978000  1.0
  C  C45  1  0.66615000  0.76035000  0.29020000  1.0
  C  C46  1  0.57351000  0.76058000  0.79022000  1.0
  C  C47  1  0.33385000  0.23965000  0.70980000  1.0
  C  C48  1  0.18765000  0.09065000  0.10124000  1.0
  C  C49  1  0.27837000  0.90915000  0.39872000  1.0
  C  C50  1  0.81234000  0.90935000  0.89875000  1.0
  C  C51  1  0.72163000  0.09085000  0.60128000  1.0
  C  C52  1  0.24535000  0.32283000  0.12969000  1.0
  C  C53  1  0.56815000  0.67691000  0.37024000  1.0
  C  C54  1  0.75464000  0.67717000  0.87030000  1.0
  C  C55  1  0.43185000  0.32309000  0.62976000  1.0
  O  O56  1  0.01944000  0.36330000  0.16393000  1.0
  O  O57  1  0.38273000  0.63644000  0.33595000  1.0
  O  O58  1  0.98056000  0.63670000  0.83607000  1.0
  O  O59  1  0.61727000  0.36356000  0.66406000  1.0
  O  O60  1  0.24074000  0.98817000  0.06177000  1.0
  O  O61  1  0.22909000  0.01152000  0.43826000  1.0
  O  O62  1  0.75926000  0.01183000  0.93823000  1.0
  O  O63  1  0.77092000  0.98848000  0.56174000  1.0
  O  O64  1  0.34920000  0.18416000  0.28174000  1.0
  O  O65  1  0.53351000  0.81595000  0.21830000  1.0
  O  O66  1  0.65080000  0.81584000  0.71826000  1.0
  O  O67  1  0.46649000  0.18405000  0.78171000  1.0
  O  O68  1  0.12343000  0.57986000  0.19222000  1.0
  O  O69  1  0.70337000  0.41988000  0.30766000  1.0
  O  O70  1  0.87657000  0.42013000  0.80778000  1.0
  O  O71  1  0.29663000  0.58012000  0.69234000  1.0
  O  O72  1  0.63539000  0.22914000  0.19978000  1.0
  O  O73  1  0.86490000  0.77043000  0.30019000  1.0
  O  O74  1  0.36461000  0.77086000  0.80022000  1.0
  O  O75  1  0.13510000  0.22957000  0.69981000  1.0
  O  O76  1  0.72198000  0.10176000  0.38896000  1.0
  O  O77  1  0.82406000  0.89797000  0.11102000  1.0
  O  O78  1  0.27802000  0.89824000  0.61104000  1.0
  O  O79  1  0.17594000  0.10203000  0.88898000  1.0
  O  O80  1  0.08400000  0.07654000  0.17365000  1.0
  O  O81  1  0.16072000  0.92334000  0.32628000  1.0
  O  O82  1  0.91600000  0.92346000  0.82635000  1.0
  O  O83  1  0.83929000  0.07666000  0.67372000  1.0
  O  O84  1  0.34758000  0.67621000  0.10225000  1.0
  O  O85  1  0.02333000  0.32350000  0.39783000  1.0
  O  O86  1  0.65243000  0.32378000  0.89776000  1.0
  O  O87  1  0.97666000  0.67650000  0.60217000  1.0
