# generated using pymatgen
data_Zr3H23C44Cl5O16
_symmetry_space_group_name_H-M   'P 1'
_cell_length_a   19.05509125
_cell_length_b   19.23216892
_cell_length_c   19.23250000
_cell_angle_alpha   89.62020991
_cell_angle_beta   60.30640599
_cell_angle_gamma   119.69281691
_symmetry_Int_Tables_number   1
_chemical_formula_structural   Zr3H23C44Cl5O16
_chemical_formula_sum   'Zr6 H46 C88 Cl10 O32'
_cell_volume   5013.35257623
_cell_formula_units_Z   2
loop_
 _symmetry_equiv_pos_site_id
 _symmetry_equiv_pos_as_xyz
  1  'x, y, z'
loop_
 _atom_site_type_symbol
 _atom_site_label
 _atom_site_symmetry_multiplicity
 _atom_site_fract_x
 _atom_site_fract_y
 _atom_site_fract_z
 _atom_site_occupancy
  Zr  Zr0  1  0.31577000  0.90818000  0.09188000  1.0
  Zr  Zr1  1  0.68513000  0.09188000  0.90820000  1.0
  Zr  Zr2  1  0.49871000  0.09150000  0.90848000  1.0
  Zr  Zr3  1  0.50219000  0.90851000  0.09149000  1.0
  Zr  Zr4  1  0.50040000  0.90857000  0.90856000  1.0
  Zr  Zr5  1  0.50038000  0.09148000  0.09146000  1.0
  H  H6  1  0.35384000  0.92779000  0.92837000  1.0
  H  H7  1  0.64709000  0.92842000  0.92781000  1.0
  H  H8  1  0.64450000  0.21648000  0.92780000  1.0
  H  H9  1  0.35634000  0.92780000  0.21648000  1.0
  H  H10  1  0.93111000  0.31769000  0.89025000  1.0
  H  H11  1  0.06976000  0.67945000  0.11282000  1.0
  H  H12  1  0.29052000  0.67779000  0.88997000  1.0
  H  H13  1  0.16173000  0.55397000  0.89087000  1.0
  H  H14  1  0.71024000  0.31993000  0.11242000  1.0
  H  H15  1  0.83889000  0.44779000  0.10755000  1.0
  H  H16  1  0.93093000  0.11293000  0.67908000  1.0
  H  H17  1  0.06948000  0.89027000  0.31738000  1.0
  H  H18  1  0.29023000  0.11250000  0.31968000  1.0
  H  H19  1  0.16151000  0.10776000  0.44733000  1.0
  H  H20  1  0.70997000  0.89012000  0.67757000  1.0
  H  H21  1  0.83867000  0.89109000  0.55354000  1.0
  H  H22  1  0.49670000  0.31622000  0.11336000  1.0
  H  H23  1  0.49703000  0.68044000  0.88995000  1.0
  H  H24  1  0.49740000  0.67625000  0.11240000  1.0
  H  H25  1  0.50070000  0.55200000  0.10810000  1.0
  H  H26  1  0.49727000  0.32072000  0.89043000  1.0
  H  H27  1  0.50142000  0.44865000  0.89100000  1.0
  H  H28  1  0.50311000  0.88981000  0.68066000  1.0
  H  H29  1  0.50353000  0.11330000  0.31643000  1.0
  H  H30  1  0.50294000  0.89036000  0.32103000  1.0
  H  H31  1  0.49831000  0.89073000  0.44917000  1.0
  H  H32  1  0.50270000  0.11224000  0.67661000  1.0
  H  H33  1  0.49908000  0.10784000  0.55252000  1.0
  H  H34  1  0.71235000  0.87927000  0.09967000  1.0
  H  H35  1  0.93303000  0.12329000  0.90297000  1.0
  H  H36  1  0.28873000  0.09956000  0.87926000  1.0
  H  H37  1  0.06811000  0.90311000  0.12340000  1.0
  H  H38  1  0.84974000  0.81414000  0.07664000  1.0
  H  H39  1  0.76056000  0.81878000  0.16668000  1.0
  H  H40  1  0.11320000  0.18638000  0.92255000  1.0
  H  H41  1  0.10876000  0.18089000  0.83289000  1.0
  H  H42  1  0.15149000  0.07660000  0.81406000  1.0
  H  H43  1  0.24058000  0.16662000  0.81883000  1.0
  H  H44  1  0.88791000  0.92252000  0.18654000  1.0
  H  H45  1  0.89244000  0.83289000  0.18089000  1.0
  H  H46  1  0.70639000  0.31747000  0.67938000  1.0
  H  H47  1  0.29414000  0.67924000  0.31759000  1.0
  H  H48  1  0.06709000  0.67716000  0.32019000  1.0
  H  H49  1  0.94398000  0.55351000  0.44749000  1.0
  H  H50  1  0.93371000  0.32033000  0.67703000  1.0
  H  H51  1  0.05662000  0.44760000  0.55342000  1.0
  C  C52  1  0.26648000  0.76443000  0.00271000  1.0
  C  C53  1  0.73423000  0.00273000  0.76434000  1.0
  C  C54  1  0.73446000  0.23098000  0.00202000  1.0
  C  C55  1  0.26620000  0.00193000  0.23092000  1.0
  C  C56  1  0.26410000  0.00195000  0.00196000  1.0
  C  C57  1  0.26790000  0.76441000  0.23117000  1.0
  C  C58  1  0.73693000  0.00191000  0.00190000  1.0
  C  C59  1  0.73290000  0.23117000  0.76443000  1.0
  C  C60  1  0.50406000  0.00159000  0.76476000  1.0
  C  C61  1  0.49444000  0.23052000  0.00314000  1.0
  C  C62  1  0.50625000  0.00322000  0.23056000  1.0
  C  C63  1  0.49648000  0.76467000  0.00164000  1.0
  C  C64  1  0.81169000  0.30910000  0.00153000  1.0
  C  C65  1  0.18915000  0.68742000  0.00213000  1.0
  C  C66  1  0.91113000  0.34672000  0.93849000  1.0
  C  C67  1  0.98562000  0.42045000  0.93527000  1.0
  C  C68  1  0.08969000  0.65108000  0.06392000  1.0
  C  C69  1  0.01510000  0.57978000  0.06473000  1.0
  C  C70  1  0.21340000  0.65069000  0.93954000  1.0
  C  C71  1  0.13903000  0.57985000  0.94080000  1.0
  C  C72  1  0.78736000  0.34749000  0.06244000  1.0
  C  C73  1  0.86165000  0.42059000  0.05895000  1.0
  C  C74  1  0.96415000  0.46170000  0.99700000  1.0
  C  C75  1  0.03655000  0.53935000  0.00217000  1.0
  C  C76  1  0.81145000  0.00222000  0.68717000  1.0
  C  C77  1  0.18886000  0.00155000  0.30886000  1.0
  C  C78  1  0.91093000  0.06405000  0.65070000  1.0
  C  C79  1  0.98545000  0.06489000  0.57931000  1.0
  C  C80  1  0.08943000  0.93856000  0.34637000  1.0
  C  C81  1  0.01487000  0.93541000  0.41999000  1.0
  C  C82  1  0.21312000  0.06254000  0.34719000  1.0
  C  C83  1  0.13878000  0.05910000  0.42018000  1.0
  C  C84  1  0.78711000  0.93969000  0.65039000  1.0
  C  C85  1  0.86144000  0.94100000  0.57943000  1.0
  C  C86  1  0.96394000  0.00236000  0.53886000  1.0
  C  C87  1  0.03632000  0.99718000  0.46121000  1.0
  C  C88  1  0.49593000  0.30870000  0.00253000  1.0
  C  C89  1  0.49666000  0.68731000  0.00134000  1.0
  C  C90  1  0.49735000  0.34563000  0.06430000  1.0
  C  C91  1  0.49984000  0.41938000  0.06500000  1.0
  C  C92  1  0.49763000  0.65160000  0.93837000  1.0
  C  C93  1  0.49972000  0.58011000  0.93535000  1.0
  C  C94  1  0.49787000  0.64959000  0.06249000  1.0
  C  C95  1  0.49974000  0.57860000  0.05924000  1.0
  C  C96  1  0.49770000  0.34785000  0.93988000  1.0
  C  C97  1  0.50002000  0.42092000  0.94102000  1.0
  C  C98  1  0.50053000  0.46125000  0.00240000  1.0
  C  C99  1  0.50045000  0.53891000  0.99723000  1.0
  C  C100  1  0.50353000  0.00121000  0.68757000  1.0
  C  C101  1  0.50443000  0.00253000  0.30890000  1.0
  C  C102  1  0.50244000  0.93821000  0.65188000  1.0
  C  C103  1  0.50017000  0.93514000  0.58048000  1.0
  C  C104  1  0.50283000  0.06422000  0.34589000  1.0
  C  C105  1  0.50010000  0.06483000  0.41975000  1.0
  C  C106  1  0.50246000  0.93979000  0.34816000  1.0
  C  C107  1  0.49987000  0.94083000  0.42135000  1.0
  C  C108  1  0.50217000  0.06232000  0.64996000  1.0
  C  C109  1  0.50011000  0.05901000  0.57905000  1.0
  C  C110  1  0.49938000  0.99701000  0.53934000  1.0
  C  C111  1  0.49933000  0.00220000  0.46167000  1.0
  C  C112  1  0.83866000  0.85645000  0.11274000  1.0
  C  C113  1  0.09542000  0.14361000  0.88695000  1.0
  C  C114  1  0.16248000  0.11268000  0.85642000  1.0
  C  C115  1  0.90572000  0.88698000  0.14369000  1.0
  C  C116  1  0.78982000  0.93213000  0.05658000  1.0
  C  C117  1  0.86234000  0.93054000  0.05608000  1.0
  C  C118  1  0.91445000  0.06985000  0.94540000  1.0
  C  C119  1  0.98818000  0.07001000  0.94429000  1.0
  C  C120  1  0.21125000  0.05654000  0.93215000  1.0
  C  C121  1  0.13874000  0.05602000  0.93054000  1.0
  C  C122  1  0.08665000  0.94548000  0.06995000  1.0
  C  C123  1  0.01293000  0.94434000  0.07009000  1.0
  C  C124  1  0.81511000  0.00141000  0.00145000  1.0
  C  C125  1  0.96215000  0.00001000  0.99993000  1.0
  C  C126  1  0.18595000  0.00148000  0.00146000  1.0
  C  C127  1  0.03895000  0.99990000  0.00004000  1.0
  C  C128  1  0.81035000  0.30899000  0.68733000  1.0
  C  C129  1  0.19031000  0.68730000  0.30899000  1.0
  C  C130  1  0.78424000  0.34637000  0.65109000  1.0
  C  C131  1  0.85484000  0.41993000  0.57979000  1.0
  C  C132  1  0.21630000  0.65099000  0.34644000  1.0
  C  C133  1  0.14562000  0.57971000  0.41999000  1.0
  C  C134  1  0.09008000  0.65021000  0.34753000  1.0
  C  C135  1  0.02037000  0.57940000  0.42038000  1.0
  C  C136  1  0.91059000  0.34759000  0.65017000  1.0
  C  C137  1  0.98022000  0.42045000  0.57936000  1.0
  C  C138  1  0.95875000  0.46136000  0.53903000  1.0
  C  C139  1  0.04173000  0.53901000  0.46137000  1.0
  Cl  Cl140  1  0.10184000  0.45132000  0.84799000  1.0
  Cl  Cl141  1  0.89887000  0.55115000  0.14974000  1.0
  Cl  Cl142  1  0.10172000  0.14996000  0.55060000  1.0
  Cl  Cl143  1  0.89868000  0.84825000  0.45076000  1.0
  Cl  Cl144  1  0.50231000  0.44954000  0.15003000  1.0
  Cl  Cl145  1  0.50172000  0.55216000  0.84812000  1.0
  Cl  Cl146  1  0.49806000  0.84785000  0.55259000  1.0
  Cl  Cl147  1  0.49743000  0.14976000  0.45000000  1.0
  Cl  Cl148  1  0.79763000  0.45080000  0.55125000  1.0
  Cl  Cl149  1  0.20284000  0.55118000  0.45090000  1.0
  O  O150  1  0.23745000  0.79477000  0.06150000  1.0
  O  O151  1  0.76334000  0.06145000  0.79473000  1.0
  O  O152  1  0.76360000  0.20111000  0.94278000  1.0
  O  O153  1  0.23711000  0.94255000  0.20118000  1.0
  O  O154  1  0.35415000  0.06022000  0.94228000  1.0
  O  O155  1  0.35791000  0.79519000  0.20123000  1.0
  O  O156  1  0.64687000  0.94228000  0.06020000  1.0
  O  O157  1  0.64286000  0.20114000  0.79522000  1.0
  O  O158  1  0.50325000  0.94207000  0.79585000  1.0
  O  O159  1  0.49550000  0.20033000  0.06173000  1.0
  O  O160  1  0.50524000  0.06182000  0.20032000  1.0
  O  O161  1  0.49744000  0.79588000  0.94207000  1.0
  O  O162  1  0.49399000  0.20051000  0.94419000  1.0
  O  O163  1  0.50693000  0.94437000  0.20049000  1.0
  O  O164  1  0.49710000  0.79470000  0.06052000  1.0
  O  O165  1  0.50361000  0.06053000  0.79476000  1.0
  O  O166  1  0.23644000  0.94342000  0.06113000  1.0
  O  O167  1  0.76259000  0.20130000  0.79469000  1.0
  O  O168  1  0.76460000  0.06109000  0.94335000  1.0
  O  O169  1  0.23828000  0.79470000  0.20124000  1.0
  O  O170  1  0.35586000  0.06092000  0.20066000  1.0
  O  O171  1  0.35613000  0.79509000  0.94329000  1.0
  O  O172  1  0.64457000  0.94330000  0.79508000  1.0
  O  O173  1  0.64478000  0.20069000  0.06098000  1.0
  O  O174  1  0.39733000  0.94827000  0.15493000  1.0
  O  O175  1  0.60354000  0.15494000  0.94827000  1.0
  O  O176  1  0.60522000  0.94859000  0.94807000  1.0
  O  O177  1  0.39568000  0.94807000  0.94858000  1.0
  O  O178  1  0.57643000  0.03831000  0.88598000  1.0
  O  O179  1  0.42451000  0.88601000  0.03829000  1.0
  O  O180  1  0.57772000  0.03815000  0.03788000  1.0
  O  O181  1  0.42312000  0.03789000  0.03814000  1.0
