# generated using pymatgen
data_ZnH10C11(N3O)2
_symmetry_space_group_name_H-M   'P 1'
_cell_length_a   9.23534000
_cell_length_b   9.92899000
_cell_length_c   13.97950000
_cell_angle_alpha   90.00000000
_cell_angle_beta   90.00010000
_cell_angle_gamma   89.99990000
_symmetry_Int_Tables_number   1
_chemical_formula_structural   ZnH10C11(N3O)2
_chemical_formula_sum   'Zn4 H40 C44 N24 O8'
_cell_volume   1281.88657832
_cell_formula_units_Z   4
loop_
 _symmetry_equiv_pos_site_id
 _symmetry_equiv_pos_as_xyz
  1  'x, y, z'
loop_
 _atom_site_type_symbol
 _atom_site_label
 _atom_site_symmetry_multiplicity
 _atom_site_fract_x
 _atom_site_fract_y
 _atom_site_fract_z
 _atom_site_occupancy
  Zn  Zn0  1  0.12764000  0.57795000  0.85136000  1.0
  Zn  Zn1  1  0.37236000  0.42205000  0.35136000  1.0
  Zn  Zn2  1  0.87236000  0.07795000  0.64864000  1.0
  Zn  Zn3  1  0.62765000  0.92205000  0.14864000  1.0
  H  H4  1  0.31698000  0.48778000  0.65005000  1.0
  H  H5  1  0.18301000  0.51223000  0.15005000  1.0
  H  H6  1  0.68302000  0.98778000  0.84995000  1.0
  H  H7  1  0.81699000  0.01223000  0.34995000  1.0
  H  H8  1  0.81556000  0.56175000  0.78827000  1.0
  H  H9  1  0.68443000  0.43824000  0.28827000  1.0
  H  H10  1  0.18444000  0.06175000  0.71173000  1.0
  H  H11  1  0.31557000  0.93825000  0.21173000  1.0
  H  H12  1  0.78057000  0.47978000  0.61860000  1.0
  H  H13  1  0.71942000  0.52022000  0.11860000  1.0
  H  H14  1  0.21943000  0.97979000  0.88140000  1.0
  H  H15  1  0.28058000  0.02021000  0.38139000  1.0
  H  H16  1  0.37909000  0.64386000  0.99223000  1.0
  H  H17  1  0.12091000  0.35614000  0.49223000  1.0
  H  H18  1  0.62091000  0.14386000  0.50777000  1.0
  H  H19  1  0.87909000  0.85614000  0.00776000  1.0
  H  H20  1  0.84600000  0.34279000  0.91161000  1.0
  H  H21  1  0.65400000  0.65721000  0.41161000  1.0
  H  H22  1  0.15400000  0.84279000  0.58839000  1.0
  H  H23  1  0.34600000  0.15721000  0.08839000  1.0
  H  H24  1  0.84574000  0.17406000  0.86944000  1.0
  H  H25  1  0.65426000  0.82594000  0.36944000  1.0
  H  H26  1  0.15426000  0.67406000  0.63056000  1.0
  H  H27  1  0.34574000  0.32595000  0.13056000  1.0
  H  H28  1  0.10090000  0.31187000  0.97356000  1.0
  H  H29  1  0.39910000  0.68813000  0.47356000  1.0
  H  H30  1  0.89910000  0.81187000  0.52644000  1.0
  H  H31  1  0.60090000  0.18813000  0.02643000  1.0
  H  H32  1  0.10037000  0.14327000  0.93062000  1.0
  H  H33  1  0.39963000  0.85673000  0.43063000  1.0
  H  H34  1  0.89963000  0.64327000  0.56938000  1.0
  H  H35  1  0.60037000  0.35673000  0.06937000  1.0
  H  H36  1  0.98004000  0.19220000  0.02353000  1.0
  H  H37  1  0.51996000  0.80779000  0.52353000  1.0
  H  H38  1  0.01996000  0.69221000  0.47647000  1.0
  H  H39  1  0.48004000  0.30780000  0.97647000  1.0
  H  H40  1  0.65013000  0.62124000  0.95308000  1.0
  H  H41  1  0.84987000  0.37875000  0.45308000  1.0
  H  H42  1  0.34987000  0.12125000  0.54692000  1.0
  H  H43  1  0.15013000  0.87875000  0.04692000  1.0
  C  C44  1  0.54852000  0.48001000  0.62580000  1.0
  C  C45  1  0.95147000  0.51999000  0.12580000  1.0
  C  C46  1  0.45148000  0.98002000  0.87420000  1.0
  C  C47  1  0.04853000  0.01999000  0.37420000  1.0
  C  C48  1  0.53613000  0.44073000  0.52249000  1.0
  C  C49  1  0.96385000  0.55927000  0.02249000  1.0
  C  C50  1  0.46387000  0.94073000  0.97751000  1.0
  C  C51  1  0.03614000  0.05927000  0.47751000  1.0
  C  C52  1  0.42414000  0.50325000  0.68064000  1.0
  C  C53  1  0.07585000  0.49676000  0.18064000  1.0
  C  C54  1  0.57586000  0.00325000  0.81936000  1.0
  C  C55  1  0.92415000  0.99675000  0.31936000  1.0
  C  C56  1  0.44364000  0.54623000  0.77494000  1.0
  C  C57  1  0.05635000  0.45377000  0.27494000  1.0
  C  C58  1  0.55636000  0.04623000  0.72506000  1.0
  C  C59  1  0.94365000  0.95377000  0.22506000  1.0
  C  C60  1  0.58474000  0.56559000  0.81231000  1.0
  C  C61  1  0.91525000  0.43441000  0.31230000  1.0
  C  C62  1  0.41526000  0.06558000  0.68769000  1.0
  C  C63  1  0.08475000  0.93440000  0.18769000  1.0
  C  C64  1  0.70906000  0.54397000  0.75785000  1.0
  C  C65  1  0.79094000  0.45603000  0.25785000  1.0
  C  C66  1  0.29094000  0.04397000  0.74215000  1.0
  C  C67  1  0.20906000  0.95602000  0.24215000  1.0
  C  C68  1  0.68820000  0.49983000  0.66468000  1.0
  C  C69  1  0.81179000  0.50017000  0.16468000  1.0
  C  C70  1  0.31180000  0.99983000  0.83532000  1.0
  C  C71  1  0.18820000  0.00017000  0.33531000  1.0
  C  C72  1  0.42249000  0.61323000  0.92354000  1.0
  C  C73  1  0.07750000  0.38677000  0.42354000  1.0
  C  C74  1  0.57751000  0.11323000  0.57646000  1.0
  C  C75  1  0.92250000  0.88676000  0.07646000  1.0
  C  C76  1  0.97343000  0.30896000  0.78961000  1.0
  C  C77  1  0.52657000  0.69104000  0.28961000  1.0
  C  C78  1  0.02657000  0.80896000  0.71039000  1.0
  C  C79  1  0.47343000  0.19104000  0.21039000  1.0
  C  C80  1  0.91501000  0.26171000  0.88311000  1.0
  C  C81  1  0.58499000  0.73829000  0.38311000  1.0
  C  C82  1  0.08499000  0.76171000  0.61689000  1.0
  C  C83  1  0.41501000  0.23829000  0.11689000  1.0
  C  C84  1  0.03167000  0.22527000  0.95682000  1.0
  C  C85  1  0.46833000  0.77473000  0.45682000  1.0
  C  C86  1  0.96833000  0.72527000  0.54318000  1.0
  C  C87  1  0.53167000  0.27473000  0.04318000  1.0
  N  N88  1  0.34456000  0.57775000  0.84720000  1.0
  N  N89  1  0.15544000  0.42226000  0.34720000  1.0
  N  N90  1  0.65544000  0.07774000  0.65280000  1.0
  N  N91  1  0.84457000  0.92225000  0.15280000  1.0
  N  N92  1  0.56627000  0.60743000  0.90571000  1.0
  N  N93  1  0.93373000  0.39257000  0.40571000  1.0
  N  N94  1  0.43373000  0.10743000  0.59429000  1.0
  N  N95  1  0.06627000  0.89256000  0.09429000  1.0
  N  N96  1  0.04867000  0.42329000  0.77506000  1.0
  N  N97  1  0.45132000  0.57672000  0.27506000  1.0
  N  N98  1  0.95133000  0.92329000  0.72494000  1.0
  N  N99  1  0.54868000  0.07672000  0.22494000  1.0
  N  N100  1  0.07265000  0.43384000  0.67953000  1.0
  N  N101  1  0.42735000  0.56616000  0.17952000  1.0
  N  N102  1  0.92735000  0.93384000  0.82048000  1.0
  N  N103  1  0.57265000  0.06616000  0.32048000  1.0
  N  N104  1  0.01610000  0.33032000  0.63715000  1.0
  N  N105  1  0.48390000  0.66969000  0.13715000  1.0
  N  N106  1  0.98390000  0.83032000  0.86285000  1.0
  N  N107  1  0.51610000  0.16969000  0.36285000  1.0
  N  N108  1  0.95410000  0.24969000  0.70388000  1.0
  N  N109  1  0.54591000  0.75031000  0.20388000  1.0
  N  N110  1  0.04590000  0.74969000  0.79612000  1.0
  N  N111  1  0.45410000  0.25031000  0.29612000  1.0
  O  O112  1  0.40476000  0.43339000  0.48938000  1.0
  O  O113  1  0.09523000  0.56662000  0.98938000  1.0
  O  O114  1  0.59524000  0.93339000  0.01062000  1.0
  O  O115  1  0.90477000  0.06661000  0.51062000  1.0
  O  O116  1  0.64766000  0.42134000  0.47286000  1.0
  O  O117  1  0.85234000  0.57866000  0.97286000  1.0
  O  O118  1  0.35235000  0.92134000  0.02715000  1.0
  O  O119  1  0.14766000  0.07866000  0.52714000  1.0
