# generated using pymatgen
data_AgH19C23S(NO2)2
_symmetry_space_group_name_H-M   'P 1'
_cell_length_a   7.25598000
_cell_length_b   10.87770000
_cell_length_c   13.19080000
_cell_angle_alpha   103.13300000
_cell_angle_beta   104.60600000
_cell_angle_gamma   93.70580000
_symmetry_Int_Tables_number   1
_chemical_formula_structural   AgH19C23S(NO2)2
_chemical_formula_sum   'Ag2 H38 C46 S2 N4 O8'
_cell_volume   972.88452665
_cell_formula_units_Z   2
loop_
 _symmetry_equiv_pos_site_id
 _symmetry_equiv_pos_as_xyz
  1  'x, y, z'
loop_
 _atom_site_type_symbol
 _atom_site_label
 _atom_site_symmetry_multiplicity
 _atom_site_fract_x
 _atom_site_fract_y
 _atom_site_fract_z
 _atom_site_occupancy
  Ag  Ag0  1  0.32294000  0.04573000  0.51976000  1.0
  Ag  Ag1  1  0.67704000  0.95428000  0.48023000  1.0
  H  H2  1  0.99599000  0.77895000  0.13831000  1.0
  H  H3  1  0.00402000  0.22106000  0.86170000  1.0
  H  H4  1  0.81722000  0.81994000  0.20356000  1.0
  H  H5  1  0.18278000  0.18006000  0.79644000  1.0
  H  H6  1  0.72084000  0.83866000  0.01353000  1.0
  H  H7  1  0.27917000  0.16133000  0.98647000  1.0
  H  H8  1  0.56157000  0.71968000  0.03017000  1.0
  H  H9  1  0.43844000  0.28032000  0.96984000  1.0
  H  H10  1  0.65423000  0.64731000  0.86096000  1.0
  H  H11  1  0.34577000  0.35269000  0.13904000  1.0
  H  H12  1  0.89960000  0.67618000  0.93219000  1.0
  H  H13  1  0.10041000  0.32382000  0.06781000  1.0
  H  H14  1  0.08412000  0.83960000  0.32682000  1.0
  H  H15  1  0.91586000  0.16040000  0.67318000  1.0
  H  H16  1  0.15794000  0.90227000  0.65597000  1.0
  H  H17  1  0.84205000  0.09774000  0.34403000  1.0
  H  H18  1  0.95380000  0.69781000  0.63348000  1.0
  H  H19  1  0.04620000  0.30219000  0.36652000  1.0
  H  H20  1  0.82808000  0.55134000  0.44568000  1.0
  H  H21  1  0.17192000  0.44866000  0.55432000  1.0
  H  H22  1  0.83644000  0.49710000  0.26254000  1.0
  H  H23  1  0.16355000  0.50290000  0.73746000  1.0
  H  H24  1  0.52538000  0.18802000  0.74215000  1.0
  H  H25  1  0.47460000  0.81199000  0.25785000  1.0
  H  H26  1  0.48621000  0.27865000  0.44914000  1.0
  H  H27  1  0.51378000  0.72135000  0.55086000  1.0
  H  H28  1  0.66818000  0.49518000  0.54394000  1.0
  H  H29  1  0.33180000  0.50482000  0.45606000  1.0
  H  H30  1  0.77456000  0.56211000  0.74442000  1.0
  H  H31  1  0.22542000  0.43789000  0.25559000  1.0
  H  H32  1  0.69727000  0.31854000  0.90885000  1.0
  H  H33  1  0.30273000  0.68145000  0.09114000  1.0
  H  H34  1  0.98100000  0.13065000  0.20413000  1.0
  H  H35  1  0.01900000  0.86936000  0.79586000  1.0
  H  H36  1  0.47861000  0.92119000  0.08739000  1.0
  H  H37  1  0.52140000  0.07882000  0.91260000  1.0
  H  H38  1  0.34603000  0.83416000  0.88735000  1.0
  H  H39  1  0.65398000  0.16585000  0.11264000  1.0
  C  C40  1  0.78434000  0.50194000  0.07108000  1.0
  C  C41  1  0.21568000  0.49805000  0.92892000  1.0
  C  C42  1  0.83712000  0.61929000  0.16297000  1.0
  C  C43  1  0.16289000  0.38071000  0.83704000  1.0
  C  C44  1  0.84831000  0.74766000  0.13893000  1.0
  C  C45  1  0.15170000  0.25234000  0.86107000  1.0
  C  C46  1  0.71071000  0.74423000  0.02950000  1.0
  C  C47  1  0.28930000  0.25577000  0.97050000  1.0
  C  C48  1  0.75484000  0.64697000  0.93858000  1.0
  C  C49  1  0.24517000  0.35303000  0.06142000  1.0
  C  C50  1  0.74675000  0.51597000  0.95735000  1.0
  C  C51  1  0.25326000  0.48403000  0.04265000  1.0
  C  C52  1  0.93752000  0.68400000  0.36932000  1.0
  C  C53  1  0.06248000  0.31600000  0.63068000  1.0
  C  C54  1  0.04799000  0.80270000  0.39045000  1.0
  C  C55  1  0.95200000  0.19731000  0.60955000  1.0
  C  C56  1  0.09079000  0.83898000  0.57645000  1.0
  C  C57  1  0.90920000  0.16102000  0.42355000  1.0
  C  C58  1  0.98110000  0.72342000  0.56295000  1.0
  C  C59  1  0.01889000  0.27659000  0.43705000  1.0
  C  C60  1  0.90885000  0.64451000  0.45942000  1.0
  C  C61  1  0.09115000  0.35549000  0.54059000  1.0
  C  C62  1  0.86743000  0.59706000  0.26275000  1.0
  C  C63  1  0.13257000  0.40293000  0.73725000  1.0
  C  C64  1  0.65315000  0.38208000  0.76238000  1.0
  C  C65  1  0.34683000  0.61792000  0.23762000  1.0
  C  C66  1  0.55640000  0.26096000  0.70183000  1.0
  C  C67  1  0.44358000  0.73904000  0.29817000  1.0
  C  C68  1  0.53605000  0.31040000  0.53747000  1.0
  C  C69  1  0.46393000  0.68960000  0.46253000  1.0
  C  C70  1  0.63622000  0.43069000  0.59104000  1.0
  C  C71  1  0.36376000  0.56932000  0.40896000  1.0
  C  C72  1  0.69487000  0.46829000  0.70361000  1.0
  C  C73  1  0.30511000  0.53171000  0.29639000  1.0
  C  C74  1  0.70256000  0.40455000  0.87924000  1.0
  C  C75  1  0.29743000  0.59545000  0.12076000  1.0
  C  C76  1  0.92277000  0.09393000  0.11711000  1.0
  C  C77  1  0.07723000  0.90607000  0.88288000  1.0
  C  C78  1  0.03792000  0.02518000  0.05773000  1.0
  C  C79  1  0.96209000  0.97482000  0.94227000  1.0
  C  C80  1  0.22770000  0.00299000  0.10758000  1.0
  C  C81  1  0.77231000  0.99701000  0.89242000  1.0
  C  C82  1  0.33403000  0.93467000  0.04687000  1.0
  C  C83  1  0.66597000  0.06533000  0.95312000  1.0
  C  C84  1  0.25906000  0.88657000  0.93398000  1.0
  C  C85  1  0.74095000  0.11343000  0.06601000  1.0
  S  S86  1  0.33901000  0.06547000  0.25011000  1.0
  S  S87  1  0.66101000  0.93452000  0.74988000  1.0
  N  N88  1  0.12587000  0.87602000  0.49141000  1.0
  N  N89  1  0.87412000  0.12398000  0.50859000  1.0
  N  N90  1  0.49703000  0.22664000  0.59318000  1.0
  N  N91  1  0.50295000  0.77336000  0.40682000  1.0
  O  O92  1  0.77593000  0.39469000  0.08907000  1.0
  O  O93  1  0.22411000  0.60531000  0.91093000  1.0
  O  O94  1  0.21203000  0.00973000  0.30458000  1.0
  O  O95  1  0.78798000  0.99027000  0.69542000  1.0
  O  O96  1  0.34873000  0.20478000  0.27218000  1.0
  O  O97  1  0.65130000  0.79521000  0.72782000  1.0
  O  O98  1  0.52852000  0.02035000  0.26975000  1.0
  O  O99  1  0.47149000  0.97963000  0.73024000  1.0
