# generated using pymatgen
data_Ag2H13C12N5O4
_symmetry_space_group_name_H-M   'P 1'
_cell_length_a   8.89875000
_cell_length_b   11.47620000
_cell_length_c   13.91870000
_cell_angle_alpha   90.00000000
_cell_angle_beta   90.00010000
_cell_angle_gamma   103.91900000
_symmetry_Int_Tables_number   1
_chemical_formula_structural   Ag2H13C12N5O4
_chemical_formula_sum   'Ag8 H52 C48 N20 O16'
_cell_volume   1379.69320650
_cell_formula_units_Z   4
loop_
 _symmetry_equiv_pos_site_id
 _symmetry_equiv_pos_as_xyz
  1  'x, y, z'
loop_
 _atom_site_type_symbol
 _atom_site_label
 _atom_site_symmetry_multiplicity
 _atom_site_fract_x
 _atom_site_fract_y
 _atom_site_fract_z
 _atom_site_occupancy
  Ag  Ag0  1  0.59800000  0.48405000  0.90877000  1.0
  Ag  Ag1  1  0.40200000  0.01595000  0.40877000  1.0
  Ag  Ag2  1  0.40200000  0.51595000  0.09123000  1.0
  Ag  Ag3  1  0.59800000  0.98405000  0.59122000  1.0
  Ag  Ag4  1  0.13463000  0.51414000  0.20932000  1.0
  Ag  Ag5  1  0.86537000  0.98587000  0.70932000  1.0
  Ag  Ag6  1  0.86537000  0.48587000  0.79068000  1.0
  Ag  Ag7  1  0.13463000  0.01413000  0.29068000  1.0
  H  H8  1  0.87072000  0.11660000  0.04040000  1.0
  H  H9  1  0.12928000  0.38340000  0.54040000  1.0
  H  H10  1  0.12928000  0.88340000  0.95960000  1.0
  H  H11  1  0.87072000  0.61660000  0.45960000  1.0
  H  H12  1  0.27466000  0.53846000  0.38125000  1.0
  H  H13  1  0.72534000  0.96154000  0.88125000  1.0
  H  H14  1  0.72534000  0.46154000  0.61875000  1.0
  H  H15  1  0.27466000  0.03846000  0.11875000  1.0
  H  H16  1  0.23838000  0.66587000  0.33853000  1.0
  H  H17  1  0.76162000  0.83413000  0.83853000  1.0
  H  H18  1  0.76162000  0.33413000  0.66147000  1.0
  H  H19  1  0.23838000  0.16587000  0.16147000  1.0
  H  H20  1  0.40246000  0.39161000  0.25838000  1.0
  H  H21  1  0.59754000  0.10839000  0.75838000  1.0
  H  H22  1  0.59754000  0.60839000  0.74162000  1.0
  H  H23  1  0.40246000  0.89161000  0.24162000  1.0
  H  H24  1  0.57407000  0.41400000  0.21062000  1.0
  H  H25  1  0.42593000  0.08600000  0.71062000  1.0
  H  H26  1  0.42593000  0.58600000  0.78938000  1.0
  H  H27  1  0.57407000  0.91400000  0.28938000  1.0
  H  H28  1  0.57033000  0.76532000  0.00533000  1.0
  H  H29  1  0.42967000  0.73468000  0.50534000  1.0
  H  H30  1  0.42967000  0.23468000  0.99466000  1.0
  H  H31  1  0.57033000  0.26531000  0.49467000  1.0
  H  H32  1  0.75000000  0.93216000  0.09356000  1.0
  H  H33  1  0.25000000  0.56784000  0.59356000  1.0
  H  H34  1  0.25000000  0.06784000  0.90644000  1.0
  H  H35  1  0.75000000  0.43216000  0.40644000  1.0
  H  H36  1  0.97251000  0.88498000  0.18420000  1.0
  H  H37  1  0.02748000  0.61502000  0.68420000  1.0
  H  H38  1  0.02749000  0.11503000  0.81579000  1.0
  H  H39  1  0.97251000  0.38497000  0.31580000  1.0
  H  H40  1  0.01167000  0.67804000  0.17836000  1.0
  H  H41  1  0.98833000  0.82196000  0.67836000  1.0
  H  H42  1  0.98834000  0.32196000  0.82164000  1.0
  H  H43  1  0.01167000  0.17804000  0.32164000  1.0
  H  H44  1  0.50953000  0.71022000  0.35996000  1.0
  H  H45  1  0.49047000  0.78978000  0.85996000  1.0
  H  H46  1  0.49047000  0.28978000  0.64004000  1.0
  H  H47  1  0.50953000  0.21022000  0.14004000  1.0
  H  H48  1  0.46620000  0.69356000  0.23475000  1.0
  H  H49  1  0.53380000  0.80644000  0.73475000  1.0
  H  H50  1  0.53380000  0.30644000  0.76525000  1.0
  H  H51  1  0.46620000  0.19356000  0.26525000  1.0
  H  H52  1  0.66859000  0.59349000  0.28329000  1.0
  H  H53  1  0.33141000  0.90651000  0.78329000  1.0
  H  H54  1  0.33141000  0.40651000  0.71671000  1.0
  H  H55  1  0.66859000  0.09349000  0.21671000  1.0
  H  H56  1  0.54478000  0.50674000  0.37101000  1.0
  H  H57  1  0.45523000  0.99326000  0.87101000  1.0
  H  H58  1  0.45523000  0.49326000  0.62899000  1.0
  H  H59  1  0.54477000  0.00674000  0.12899000  1.0
  C  C60  1  0.67049000  0.74997000  0.04366000  1.0
  C  C61  1  0.32951000  0.75003000  0.54366000  1.0
  C  C62  1  0.32951000  0.25003000  0.95634000  1.0
  C  C63  1  0.67049000  0.24997000  0.45634000  1.0
  C  C64  1  0.76879000  0.84205000  0.09426000  1.0
  C  C65  1  0.23121000  0.65795000  0.59427000  1.0
  C  C66  1  0.23121000  0.15795000  0.90573000  1.0
  C  C67  1  0.76879000  0.34204000  0.40574000  1.0
  C  C68  1  0.89190000  0.81512000  0.14407000  1.0
  C  C69  1  0.10810000  0.68489000  0.64407000  1.0
  C  C70  1  0.10810000  0.18489000  0.85593000  1.0
  C  C71  1  0.89190000  0.31511000  0.35593000  1.0
  C  C72  1  0.91402000  0.69935000  0.14070000  1.0
  C  C73  1  0.08598000  0.80065000  0.64071000  1.0
  C  C74  1  0.08598000  0.30065000  0.85929000  1.0
  C  C75  1  0.91402000  0.19935000  0.35930000  1.0
  C  C76  1  0.81210000  0.61216000  0.08622000  1.0
  C  C77  1  0.18790000  0.88784000  0.58623000  1.0
  C  C78  1  0.18790000  0.38784000  0.91377000  1.0
  C  C79  1  0.81210000  0.11216000  0.41377000  1.0
  C  C80  1  0.83129000  0.48980000  0.07331000  1.0
  C  C81  1  0.16871000  0.01020000  0.57331000  1.0
  C  C82  1  0.16871000  0.51020000  0.92669000  1.0
  C  C83  1  0.83129000  0.98980000  0.42669000  1.0
  C  C84  1  0.91166000  0.32592000  0.08440000  1.0
  C  C85  1  0.08834000  0.17408000  0.58440000  1.0
  C  C86  1  0.08834000  0.67408000  0.91560000  1.0
  C  C87  1  0.91166000  0.82592000  0.41561000  1.0
  C  C88  1  0.79126000  0.30813000  0.01583000  1.0
  C  C89  1  0.20874000  0.19187000  0.51583000  1.0
  C  C90  1  0.20874000  0.69187000  0.98417000  1.0
  C  C91  1  0.79127000  0.80813000  0.48417000  1.0
  C  C92  1  0.00876000  0.24641000  0.11756000  1.0
  C  C93  1  0.99124000  0.25360000  0.61756000  1.0
  C  C94  1  0.99124000  0.75360000  0.88244000  1.0
  C  C95  1  0.00877000  0.74640000  0.38244000  1.0
  C  C96  1  0.72931000  0.20376000  0.95079000  1.0
  C  C97  1  0.27069000  0.29624000  0.45079000  1.0
  C  C98  1  0.27069000  0.79624000  0.04921000  1.0
  C  C99  1  0.72931000  0.70376000  0.54921000  1.0
  C  C100  1  0.45634000  0.64550000  0.30359000  1.0
  C  C101  1  0.54366000  0.85450000  0.80359000  1.0
  C  C102  1  0.54366000  0.35450000  0.69642000  1.0
  C  C103  1  0.45634000  0.14550000  0.19641000  1.0
  C  C104  1  0.54756000  0.54961000  0.30001000  1.0
  C  C105  1  0.45243000  0.95039000  0.80001000  1.0
  C  C106  1  0.45243000  0.45039000  0.69999000  1.0
  C  C107  1  0.54756000  0.04961000  0.19999000  1.0
  N  N108  1  0.69035000  0.63798000  0.03954000  1.0
  N  N109  1  0.30965000  0.86202000  0.53955000  1.0
  N  N110  1  0.30966000  0.36202000  0.96045000  1.0
  N  N111  1  0.69035000  0.13797000  0.46046000  1.0
  N  N112  1  0.74293000  0.41225000  0.01016000  1.0
  N  N113  1  0.25707000  0.08775000  0.51016000  1.0
  N  N114  1  0.25707000  0.58775000  0.98984000  1.0
  N  N115  1  0.74293000  0.91225000  0.48984000  1.0
  N  N116  1  0.93651000  0.44122000  0.11863000  1.0
  N  N117  1  0.06349000  0.05878000  0.61864000  1.0
  N  N118  1  0.06349000  0.55878000  0.88136000  1.0
  N  N119  1  0.93651000  0.94122000  0.38137000  1.0
  N  N120  1  0.29020000  0.59647000  0.32350000  1.0
  N  N121  1  0.70980000  0.90353000  0.82350000  1.0
  N  N122  1  0.70980000  0.40353000  0.67650000  1.0
  N  N123  1  0.29020000  0.09647000  0.17650000  1.0
  N  N124  1  0.48847000  0.45642000  0.22642000  1.0
  N  N125  1  0.51153000  0.04358000  0.72642000  1.0
  N  N126  1  0.51153000  0.54359000  0.77358000  1.0
  N  N127  1  0.48847000  0.95642000  0.27358000  1.0
  O  O128  1  0.76031000  0.10221000  0.97402000  1.0
  O  O129  1  0.23969000  0.39779000  0.47402000  1.0
  O  O130  1  0.23969000  0.89779000  0.02598000  1.0
  O  O131  1  0.76031000  0.60221000  0.52598000  1.0
  O  O132  1  0.65315000  0.21811000  0.87810000  1.0
  O  O133  1  0.34686000  0.28189000  0.37810000  1.0
  O  O134  1  0.34686000  0.78189000  0.12190000  1.0
  O  O135  1  0.65315000  0.71811000  0.62190000  1.0
  O  O136  1  0.12591000  0.28598000  0.16829000  1.0
  O  O137  1  0.87409000  0.21403000  0.66829000  1.0
  O  O138  1  0.87409000  0.71403000  0.83171000  1.0
  O  O139  1  0.12591000  0.78597000  0.33171000  1.0
  O  O140  1  0.96802000  0.13274000  0.09273000  1.0
  O  O141  1  0.03199000  0.36726000  0.59273000  1.0
  O  O142  1  0.03199000  0.86726000  0.90727000  1.0
  O  O143  1  0.96802000  0.63274000  0.40727000  1.0
