# generated using pymatgen
data_MnH3(CO)4
_symmetry_space_group_name_H-M   'P 1'
_cell_length_a   6.26689000
_cell_length_b   7.53145000
_cell_length_c   9.30979000
_cell_angle_alpha   89.99980000
_cell_angle_beta   90.00000000
_cell_angle_gamma   92.98520000
_symmetry_Int_Tables_number   1
_chemical_formula_structural   MnH3(CO)4
_chemical_formula_sum   'Mn4 H12 C16 O16'
_cell_volume   438.81435345
_cell_formula_units_Z   4
loop_
 _symmetry_equiv_pos_site_id
 _symmetry_equiv_pos_as_xyz
  1  'x, y, z'
loop_
 _atom_site_type_symbol
 _atom_site_label
 _atom_site_symmetry_multiplicity
 _atom_site_fract_x
 _atom_site_fract_y
 _atom_site_fract_z
 _atom_site_occupancy
  Mn  Mn0  1  0.46017000  0.37979000  0.65416000  1.0
  Mn  Mn1  1  0.03983000  0.62021000  0.15416000  1.0
  Mn  Mn2  1  0.53983000  0.62021000  0.34584000  1.0
  Mn  Mn3  1  0.96017000  0.37979000  0.84584000  1.0
  H  H4  1  0.01138000  0.04771000  0.23786000  1.0
  H  H5  1  0.48862000  0.95229000  0.73787000  1.0
  H  H6  1  0.98863000  0.95229000  0.76214000  1.0
  H  H7  1  0.51137000  0.04772000  0.26214000  1.0
  H  H8  1  0.61290000  0.24145000  0.40458000  1.0
  H  H9  1  0.88710000  0.75855000  0.90458000  1.0
  H  H10  1  0.38711000  0.75855000  0.59542000  1.0
  H  H11  1  0.11289000  0.24145000  0.09542000  1.0
  H  H12  1  0.69297000  0.11672000  0.52926000  1.0
  H  H13  1  0.80704000  0.88328000  0.02926000  1.0
  H  H14  1  0.30704000  0.88328000  0.47074000  1.0
  H  H15  1  0.19296000  0.11672000  0.97074000  1.0
  C  C16  1  0.08540000  0.16496000  0.44444000  1.0
  C  C17  1  0.41460000  0.83504000  0.94444000  1.0
  C  C18  1  0.91460000  0.83504000  0.55556000  1.0
  C  C19  1  0.58540000  0.16496000  0.05556000  1.0
  C  C20  1  0.07833000  0.13738000  0.59645000  1.0
  C  C21  1  0.42167000  0.86262000  0.09646000  1.0
  C  C22  1  0.92168000  0.86262000  0.40355000  1.0
  C  C23  1  0.57833000  0.13738000  0.90355000  1.0
  C  C24  1  0.00768000  0.02738000  0.35357000  1.0
  C  C25  1  0.49232000  0.97262000  0.85358000  1.0
  C  C26  1  0.99233000  0.97262000  0.64642000  1.0
  C  C27  1  0.50767000  0.02738000  0.14642000  1.0
  C  C28  1  0.16758000  0.33539000  0.37864000  1.0
  C  C29  1  0.33242000  0.66461000  0.87865000  1.0
  C  C30  1  0.83242000  0.66461000  0.62136000  1.0
  C  C31  1  0.66758000  0.33539000  0.12136000  1.0
  O  O32  1  0.11924000  0.36791000  0.24800000  1.0
  O  O33  1  0.38076000  0.63209000  0.74800000  1.0
  O  O34  1  0.88075000  0.63209000  0.75200000  1.0
  O  O35  1  0.61924000  0.36791000  0.25200000  1.0
  O  O36  1  0.28485000  0.44694000  0.45220000  1.0
  O  O37  1  0.21515000  0.55306000  0.95220000  1.0
  O  O38  1  0.71515000  0.55306000  0.54780000  1.0
  O  O39  1  0.78485000  0.44694000  0.04780000  1.0
  O  O40  1  0.14978000  0.26105000  0.69134000  1.0
  O  O41  1  0.35022000  0.73895000  0.19134000  1.0
  O  O42  1  0.85022000  0.73895000  0.30866000  1.0
  O  O43  1  0.64978000  0.26105000  0.80866000  1.0
  O  O44  1  0.57396000  0.18600000  0.49861000  1.0
  O  O45  1  0.92605000  0.81400000  0.99861000  1.0
  O  O46  1  0.42605000  0.81400000  0.50139000  1.0
  O  O47  1  0.07395000  0.18600000  0.00139000  1.0
