# generated using pymatgen
data_ZnH18C24(NO3)2
_symmetry_space_group_name_H-M   'P 1'
_cell_length_a   9.69610000
_cell_length_b   10.95880000
_cell_length_c   14.63250000
_cell_angle_alpha   104.36100000
_cell_angle_beta   95.67700000
_cell_angle_gamma   112.87900000
_symmetry_Int_Tables_number   1
_chemical_formula_structural   ZnH18C24(NO3)2
_chemical_formula_sum   'Zn2 H36 C48 N4 O12'
_cell_volume   1354.08457922
_cell_formula_units_Z   2
loop_
 _symmetry_equiv_pos_site_id
 _symmetry_equiv_pos_as_xyz
  1  'x, y, z'
loop_
 _atom_site_type_symbol
 _atom_site_label
 _atom_site_symmetry_multiplicity
 _atom_site_fract_x
 _atom_site_fract_y
 _atom_site_fract_z
 _atom_site_occupancy
  Zn  Zn0  1  0.25526000  0.68181000  0.94497000  1.0
  Zn  Zn1  1  0.74474000  0.31819000  0.05504000  1.0
  H  H2  1  0.99086000  0.64604000  0.87963000  1.0
  H  H3  1  0.00914000  0.35396000  0.12038000  1.0
  H  H4  1  0.92862000  0.50944000  0.91645000  1.0
  H  H5  1  0.07139000  0.49057000  0.08356000  1.0
  H  H6  1  0.03375000  0.37454000  0.84430000  1.0
  H  H7  1  0.96625000  0.62546000  0.15570000  1.0
  H  H8  1  0.05290000  0.15183000  0.76734000  1.0
  H  H9  1  0.94710000  0.84817000  0.23266000  1.0
  H  H10  1  0.31631000  0.15914000  0.77035000  1.0
  H  H11  1  0.68368000  0.84085000  0.22965000  1.0
  H  H12  1  0.54550000  0.38457000  0.84753000  1.0
  H  H13  1  0.45450000  0.61543000  0.15246000  1.0
  H  H14  1  0.72463000  0.58014000  0.90481000  1.0
  H  H15  1  0.27536000  0.41986000  0.09519000  1.0
  H  H16  1  0.92642000  0.82054000  0.97864000  1.0
  H  H17  1  0.07358000  0.17945000  0.02136000  1.0
  H  H18  1  0.84856000  0.01608000  0.04334000  1.0
  H  H19  1  0.15144000  0.98391000  0.95666000  1.0
  H  H20  1  0.57002000  0.95488000  0.03385000  1.0
  H  H21  1  0.42998000  0.04512000  0.96616000  1.0
  H  H22  1  0.28928000  0.02868000  0.20024000  1.0
  H  H23  1  0.71072000  0.97132000  0.79976000  1.0
  H  H24  1  0.28814000  0.15302000  0.36941000  1.0
  H  H25  1  0.71186000  0.84698000  0.63059000  1.0
  H  H26  1  0.22086000  0.78375000  0.44885000  1.0
  H  H27  1  0.77914000  0.21625000  0.55115000  1.0
  H  H28  1  0.22767000  0.66370000  0.28178000  1.0
  H  H29  1  0.77233000  0.33629000  0.71822000  1.0
  H  H30  1  0.98276000  0.92831000  0.54717000  1.0
  H  H31  1  0.01724000  0.07169000  0.45283000  1.0
  H  H32  1  0.93548000  0.81468000  0.67827000  1.0
  H  H33  1  0.06452000  0.18532000  0.32173000  1.0
  H  H34  1  0.41185000  0.90621000  0.74897000  1.0
  H  H35  1  0.58815000  0.09379000  0.25103000  1.0
  H  H36  1  0.46220000  0.02329000  0.62003000  1.0
  H  H37  1  0.53780000  0.97671000  0.37998000  1.0
  C  C38  1  0.14439000  0.37197000  0.84190000  1.0
  C  C39  1  0.85561000  0.62803000  0.15810000  1.0
  C  C40  1  0.15610000  0.24883000  0.79968000  1.0
  C  C41  1  0.84390000  0.75117000  0.20032000  1.0
  C  C42  1  0.30217000  0.25355000  0.80134000  1.0
  C  C43  1  0.69782000  0.74645000  0.19865000  1.0
  C  C44  1  0.43071000  0.38025000  0.84374000  1.0
  C  C45  1  0.56929000  0.61974000  0.15626000  1.0
  C  C46  1  0.40996000  0.50043000  0.88316000  1.0
  C  C47  1  0.59003000  0.49957000  0.11684000  1.0
  C  C48  1  0.53940000  0.64038000  0.92786000  1.0
  C  C49  1  0.46060000  0.35962000  0.07214000  1.0
  C  C50  1  0.69308000  0.66507000  0.93252000  1.0
  C  C51  1  0.30692000  0.33492000  0.06747000  1.0
  C  C52  1  0.80654000  0.80092000  0.97445000  1.0
  C  C53  1  0.19346000  0.19908000  0.02555000  1.0
  C  C54  1  0.76418000  0.90834000  0.01051000  1.0
  C  C55  1  0.23582000  0.09166000  0.98950000  1.0
  C  C56  1  0.60871000  0.87519000  0.00462000  1.0
  C  C57  1  0.39129000  0.12481000  0.99538000  1.0
  C  C58  1  0.26224000  0.76578000  0.13137000  1.0
  C  C59  1  0.73776000  0.23422000  0.86863000  1.0
  C  C60  1  0.25985000  0.83905000  0.23110000  1.0
  C  C61  1  0.74014000  0.16095000  0.76891000  1.0
  C  C62  1  0.27579000  0.97691000  0.25568000  1.0
  C  C63  1  0.72421000  0.02309000  0.74432000  1.0
  C  C64  1  0.27428000  0.04561000  0.34877000  1.0
  C  C65  1  0.72572000  0.95439000  0.65123000  1.0
  C  C66  1  0.25424000  0.97559000  0.41813000  1.0
  C  C67  1  0.74576000  0.02441000  0.58187000  1.0
  C  C68  1  0.23657000  0.83759000  0.39473000  1.0
  C  C69  1  0.76342000  0.16241000  0.60527000  1.0
  C  C70  1  0.24033000  0.77079000  0.30137000  1.0
  C  C71  1  0.75967000  0.22921000  0.69863000  1.0
  C  C72  1  0.22493000  0.98157000  0.57787000  1.0
  C  C73  1  0.77508000  0.01843000  0.42213000  1.0
  C  C74  1  0.07606000  0.92400000  0.59220000  1.0
  C  C75  1  0.92394000  0.07600000  0.40780000  1.0
  C  C76  1  0.04972000  0.86059000  0.66421000  1.0
  C  C77  1  0.95028000  0.13942000  0.33579000  1.0
  C  C78  1  0.17039000  0.85359000  0.72026000  1.0
  C  C79  1  0.82961000  0.14641000  0.27974000  1.0
  C  C80  1  0.31909000  0.91184000  0.70441000  1.0
  C  C81  1  0.68091000  0.08816000  0.29559000  1.0
  C  C82  1  0.34729000  0.97654000  0.63301000  1.0
  C  C83  1  0.65271000  0.02346000  0.36699000  1.0
  C  C84  1  0.13806000  0.78212000  0.79602000  1.0
  C  C85  1  0.86194000  0.21788000  0.20398000  1.0
  N  N86  1  0.26766000  0.49423000  0.88219000  1.0
  N  N87  1  0.73234000  0.50577000  0.11780000  1.0
  N  N88  1  0.49975000  0.74486000  0.96423000  1.0
  N  N89  1  0.50024000  0.25514000  0.03577000  1.0
  O  O90  1  0.24243000  0.63898000  0.10934000  1.0
  O  O91  1  0.75757000  0.36103000  0.89066000  1.0
  O  O92  1  0.28411000  0.83382000  0.07049000  1.0
  O  O93  1  0.71590000  0.16618000  0.92951000  1.0
  O  O94  1  0.25172000  0.05014000  0.50815000  1.0
  O  O95  1  0.74828000  0.94986000  0.49186000  1.0
  O  O96  1  0.25376000  0.77771000  0.84349000  1.0
  O  O97  1  0.74624000  0.22229000  0.15651000  1.0
  O  O98  1  0.00169000  0.73264000  0.80768000  1.0
  O  O99  1  0.99830000  0.26736000  0.19232000  1.0
  O  O100  1  0.01274000  0.60395000  0.93091000  1.0
  O  O101  1  0.98727000  0.39606000  0.06910000  1.0
