# generated using pymatgen
data_CuH9C4IN
_symmetry_space_group_name_H-M   'P 1'
_cell_length_a   7.37634000
_cell_length_b   7.79746000
_cell_length_c   12.55090000
_cell_angle_alpha   90.00110000
_cell_angle_beta   90.00350000
_cell_angle_gamma   76.87900000
_symmetry_Int_Tables_number   1
_chemical_formula_structural   CuH9C4IN
_chemical_formula_sum   'Cu4 H36 C16 I4 N4'
_cell_volume   703.04013567
_cell_formula_units_Z   4
loop_
 _symmetry_equiv_pos_site_id
 _symmetry_equiv_pos_as_xyz
  1  'x, y, z'
loop_
 _atom_site_type_symbol
 _atom_site_label
 _atom_site_symmetry_multiplicity
 _atom_site_fract_x
 _atom_site_fract_y
 _atom_site_fract_z
 _atom_site_occupancy
  Cu  Cu0  1  0.53372000  0.84665000  0.48006000  1.0
  Cu  Cu1  1  0.46628000  0.65335000  0.98008000  1.0
  Cu  Cu2  1  0.46629000  0.15333000  0.51992000  1.0
  Cu  Cu3  1  0.53371000  0.34668000  0.01992000  1.0
  H  H4  1  0.76900000  0.54473000  0.59855000  1.0
  H  H5  1  0.23099000  0.95528000  0.09855000  1.0
  H  H6  1  0.23098000  0.45527000  0.40145000  1.0
  H  H7  1  0.76899000  0.04474000  0.90145000  1.0
  H  H8  1  0.74598000  0.34671000  0.53274000  1.0
  H  H9  1  0.25402000  0.15330000  0.03273000  1.0
  H  H10  1  0.25402000  0.65328000  0.46727000  1.0
  H  H11  1  0.74597000  0.84673000  0.96727000  1.0
  H  H12  1  0.56549000  0.37339000  0.36443000  1.0
  H  H13  1  0.43448000  0.12658000  0.86442000  1.0
  H  H14  1  0.43450000  0.62657000  0.63558000  1.0
  H  H15  1  0.56552000  0.87342000  0.13558000  1.0
  H  H16  1  0.46434000  0.58749000  0.31349000  1.0
  H  H17  1  0.53561000  0.91250000  0.81350000  1.0
  H  H18  1  0.53565000  0.41249000  0.68650000  1.0
  H  H19  1  0.46437000  0.08754000  0.18651000  1.0
  H  H20  1  0.87479000  0.42986000  0.37483000  1.0
  H  H21  1  0.12521000  0.07011000  0.87479000  1.0
  H  H22  1  0.12521000  0.57009000  0.62519000  1.0
  H  H23  1  0.87481000  0.92994000  0.12518000  1.0
  H  H24  1  0.90604000  0.61863000  0.44616000  1.0
  H  H25  1  0.09393000  0.88135000  0.94614000  1.0
  H  H26  1  0.09395000  0.38133000  0.55385000  1.0
  H  H27  1  0.90603000  0.11870000  0.05383000  1.0
  H  H28  1  0.71449000  0.62665000  0.22724000  1.0
  H  H29  1  0.28555000  0.87328000  0.72722000  1.0
  H  H30  1  0.28552000  0.37333000  0.77278000  1.0
  H  H31  1  0.71449000  0.12675000  0.27275000  1.0
  H  H32  1  0.93202000  0.67563000  0.25702000  1.0
  H  H33  1  0.06798000  0.82428000  0.75700000  1.0
  H  H34  1  0.06797000  0.32429000  0.74299000  1.0
  H  H35  1  0.93200000  0.17575000  0.24298000  1.0
  H  H36  1  0.72332000  0.81562000  0.30578000  1.0
  H  H37  1  0.27672000  0.68429000  0.80580000  1.0
  H  H38  1  0.27673000  0.18431000  0.69422000  1.0
  H  H39  1  0.72330000  0.31570000  0.19420000  1.0
  C  C40  1  0.67526000  0.48472000  0.55051000  1.0
  C  C41  1  0.32472000  0.01526000  0.05047000  1.0
  C  C42  1  0.32471000  0.51525000  0.44953000  1.0
  C  C43  1  0.67524000  0.98474000  0.94950000  1.0
  C  C44  1  0.50081000  0.51090000  0.38685000  1.0
  C  C45  1  0.49915000  0.98909000  0.88683000  1.0
  C  C46  1  0.49915000  0.48908000  0.61317000  1.0
  C  C47  1  0.50082000  0.01093000  0.11315000  1.0
  C  C48  1  0.81315000  0.57043000  0.39099000  1.0
  C  C49  1  0.18689000  0.92955000  0.89101000  1.0
  C  C50  1  0.18688000  0.42954000  0.60899000  1.0
  C  C51  1  0.81315000  0.07050000  0.10902000  1.0
  C  C52  1  0.79313000  0.67783000  0.28925000  1.0
  C  C53  1  0.20687000  0.82212000  0.78926000  1.0
  C  C54  1  0.20688000  0.32213000  0.71075000  1.0
  C  C55  1  0.79313000  0.17794000  0.21074000  1.0
  I  I56  1  0.75650000  0.96343000  0.60651000  1.0
  I  I57  1  0.24353000  0.53659000  0.10652000  1.0
  I  I58  1  0.24351000  0.03657000  0.39348000  1.0
  I  I59  1  0.75652000  0.46343000  0.89352000  1.0
  N  N60  1  0.63507000  0.58526000  0.44963000  1.0
  N  N61  1  0.36495000  0.91476000  0.94961000  1.0
  N  N62  1  0.36495000  0.41474000  0.55039000  1.0
  N  N63  1  0.63507000  0.08529000  0.05037000  1.0
