# generated using pymatgen
data_H32RhC34N5
_symmetry_space_group_name_H-M   'P 1'
_cell_length_a   10.93060000
_cell_length_b   13.64169452
_cell_length_c   13.64178398
_cell_angle_alpha   64.38012524
_cell_angle_beta   66.43176581
_cell_angle_gamma   66.43268574
_symmetry_Int_Tables_number   1
_chemical_formula_structural   H32RhC34N5
_chemical_formula_sum   'H64 Rh2 C68 N10'
_cell_volume   1616.54355642
_cell_formula_units_Z   2
loop_
 _symmetry_equiv_pos_site_id
 _symmetry_equiv_pos_as_xyz
  1  'x, y, z'
loop_
 _atom_site_type_symbol
 _atom_site_label
 _atom_site_symmetry_multiplicity
 _atom_site_fract_x
 _atom_site_fract_y
 _atom_site_fract_z
 _atom_site_occupancy
  H  H0  1  0.62334000  0.13236000  0.12942000  1.0
  H  H1  1  0.11487000  0.12971000  0.13235000  1.0
  H  H2  1  0.37667000  0.87057000  0.86764000  1.0
  H  H3  1  0.88514000  0.86765000  0.87028000  1.0
  H  H4  1  0.71352000  0.30302000  0.10136000  1.0
  H  H5  1  0.88282000  0.10181000  0.30311000  1.0
  H  H6  1  0.28650000  0.89864000  0.69697000  1.0
  H  H7  1  0.11719000  0.69689000  0.89818000  1.0
  H  H8  1  0.58847000  0.50689000  0.03774000  1.0
  H  H9  1  0.86758000  0.03789000  0.50704000  1.0
  H  H10  1  0.41153000  0.96227000  0.49310000  1.0
  H  H11  1  0.13243000  0.49296000  0.96212000  1.0
  H  H12  1  0.59909000  0.47379000  0.73505000  1.0
  H  H13  1  0.19188000  0.73515000  0.47390000  1.0
  H  H14  1  0.40092000  0.26496000  0.52619000  1.0
  H  H15  1  0.80810000  0.52611000  0.26485000  1.0
  H  H16  1  0.72152000  0.26995000  0.79963000  1.0
  H  H17  1  0.20883000  0.79997000  0.26998000  1.0
  H  H18  1  0.27850000  0.20037000  0.73004000  1.0
  H  H19  1  0.79115000  0.73004000  0.20001000  1.0
  H  H20  1  0.50514000  0.65902000  0.75603000  1.0
  H  H21  1  0.07924000  0.75554000  0.65942000  1.0
  H  H22  1  0.49487000  0.24398000  0.34095000  1.0
  H  H23  1  0.92078000  0.34058000  0.24445000  1.0
  H  H24  1  0.54702000  0.68203000  0.85637000  1.0
  H  H25  1  0.91387000  0.85532000  0.68209000  1.0
  H  H26  1  0.45299000  0.14363000  0.31796000  1.0
  H  H27  1  0.08615000  0.31791000  0.14467000  1.0
  H  H28  1  0.39527000  0.64138000  0.89651000  1.0
  H  H29  1  0.06536000  0.89605000  0.64274000  1.0
  H  H30  1  0.60474000  0.10350000  0.35860000  1.0
  H  H31  1  0.93466000  0.35727000  0.10394000  1.0
  H  H32  1  0.33010000  0.14065000  0.95665000  1.0
  H  H33  1  0.57275000  0.95639000  0.14065000  1.0
  H  H34  1  0.66991000  0.04335000  0.85935000  1.0
  H  H35  1  0.42724000  0.85936000  0.04361000  1.0
  H  H36  1  0.44086000  0.29770000  0.83917000  1.0
  H  H37  1  0.42234000  0.83914000  0.29792000  1.0
  H  H38  1  0.55914000  0.16083000  0.70231000  1.0
  H  H39  1  0.57764000  0.70209000  0.16088000  1.0
  H  H40  1  0.05361000  0.51756000  0.76624000  1.0
  H  H41  1  0.66254000  0.76717000  0.51776000  1.0
  H  H42  1  0.94638000  0.23378000  0.48244000  1.0
  H  H43  1  0.33743000  0.48225000  0.23284000  1.0
  H  H44  1  0.94203000  0.36227000  0.88829000  1.0
  H  H45  1  0.80750000  0.88887000  0.36222000  1.0
  H  H46  1  0.05799000  0.11173000  0.63771000  1.0
  H  H47  1  0.19248000  0.63779000  0.11113000  1.0
  H  H48  1  0.25482000  0.58332000  0.66719000  1.0
  H  H49  1  0.49479000  0.66764000  0.58366000  1.0
  H  H50  1  0.74517000  0.33283000  0.41669000  1.0
  H  H51  1  0.50517000  0.41635000  0.33238000  1.0
  H  H52  1  0.42135000  0.48391000  0.65616000  1.0
  H  H53  1  0.43893000  0.65620000  0.48423000  1.0
  H  H54  1  0.57865000  0.34384000  0.51610000  1.0
  H  H55  1  0.56103000  0.51578000  0.34381000  1.0
  H  H56  1  0.34794000  0.54466000  0.76513000  1.0
  H  H57  1  0.34255000  0.76535000  0.54474000  1.0
  H  H58  1  0.65205000  0.23489000  0.45534000  1.0
  H  H59  1  0.65741000  0.45526000  0.23468000  1.0
  H  H60  1  0.19736000  0.58579000  0.41308000  1.0
  H  H61  1  0.80418000  0.41273000  0.58530000  1.0
  H  H62  1  0.80261000  0.58691000  0.41423000  1.0
  H  H63  1  0.19581000  0.41473000  0.58726000  1.0
  Rh  Rh64  1  0.00001000  0.09065000  0.90934000  1.0
  Rh  Rh65  1  0.00000000  0.90941000  0.09058000  1.0
  C  C66  1  0.73308000  0.09434000  0.09170000  1.0
  C  C67  1  0.08076000  0.09193000  0.09437000  1.0
  C  C68  1  0.26693000  0.90829000  0.90565000  1.0
  C  C69  1  0.91925000  0.90563000  0.90806000  1.0
  C  C70  1  0.72475000  0.27234000  0.95539000  1.0
  C  C71  1  0.04767000  0.95572000  0.27237000  1.0
  C  C72  1  0.27526000  0.04460000  0.72766000  1.0
  C  C73  1  0.95234000  0.72763000  0.04427000  1.0
  C  C74  1  0.68616000  0.34075000  0.02159000  1.0
  C  C75  1  0.95205000  0.02197000  0.34082000  1.0
  C  C76  1  0.31386000  0.97841000  0.65923000  1.0
  C  C77  1  0.04797000  0.65918000  0.97802000  1.0
  C  C78  1  0.61714000  0.45537000  0.98510000  1.0
  C  C79  1  0.94291000  0.98528000  0.45551000  1.0
  C  C80  1  0.38287000  0.01490000  0.54462000  1.0
  C  C81  1  0.05709000  0.54450000  0.01472000  1.0
  C  C82  1  0.58377000  0.50563000  0.88176000  1.0
  C  C83  1  0.02885000  0.88173000  0.50588000  1.0
  C  C84  1  0.41624000  0.11824000  0.49436000  1.0
  C  C85  1  0.97116000  0.49412000  0.11826000  1.0
  C  C86  1  0.62382000  0.43685000  0.81586000  1.0
  C  C87  1  0.12344000  0.81602000  0.43696000  1.0
  C  C88  1  0.37620000  0.18413000  0.56315000  1.0
  C  C89  1  0.87655000  0.56304000  0.18397000  1.0
  C  C90  1  0.69273000  0.32223000  0.85149000  1.0
  C  C91  1  0.13360000  0.85179000  0.32227000  1.0
  C  C92  1  0.30730000  0.14850000  0.67776000  1.0
  C  C93  1  0.86641000  0.67773000  0.14818000  1.0
  C  C94  1  0.50427000  0.62822000  0.84514000  1.0
  C  C95  1  0.02165000  0.84458000  0.62876000  1.0
  C  C96  1  0.49573000  0.15488000  0.37176000  1.0
  C  C97  1  0.97836000  0.37124000  0.15542000  1.0
  C  C98  1  0.12921000  0.24036000  0.92875000  1.0
  C  C99  1  0.70183000  0.92882000  0.24030000  1.0
  C  C100  1  0.87082000  0.07124000  0.75963000  1.0
  C  C101  1  0.29815000  0.75970000  0.07118000  1.0
  C  C102  1  0.26925000  0.22431000  0.91622000  1.0
  C  C103  1  0.59032000  0.91615000  0.22435000  1.0
  C  C104  1  0.73076000  0.08378000  0.77569000  1.0
  C  C105  1  0.40967000  0.77565000  0.08385000  1.0
  C  C106  1  0.33158000  0.31221000  0.84872000  1.0
  C  C107  1  0.50760000  0.84879000  0.31235000  1.0
  C  C108  1  0.66844000  0.15128000  0.68778000  1.0
  C  C109  1  0.49238000  0.68765000  0.15122000  1.0
  C  C110  1  0.25624000  0.41812000  0.79128000  1.0
  C  C111  1  0.53449000  0.79158000  0.41828000  1.0
  C  C112  1  0.74376000  0.20873000  0.58188000  1.0
  C  C113  1  0.46549000  0.58172000  0.20843000  1.0
  C  C114  1  0.11528000  0.43460000  0.80736000  1.0
  C  C115  1  0.64283000  0.80791000  0.43471000  1.0
  C  C116  1  0.88471000  0.19265000  0.56541000  1.0
  C  C117  1  0.35714000  0.56529000  0.19210000  1.0
  C  C118  1  0.05189000  0.34787000  0.87572000  1.0
  C  C119  1  0.72462000  0.87613000  0.34786000  1.0
  C  C120  1  0.94812000  0.12429000  0.65213000  1.0
  C  C121  1  0.27537000  0.65214000  0.12387000  1.0
  C  C122  1  0.32324000  0.51229000  0.71608000  1.0
  C  C123  1  0.44864000  0.71635000  0.51252000  1.0
  C  C124  1  0.67677000  0.28392000  0.48771000  1.0
  C  C125  1  0.55132000  0.48749000  0.28367000  1.0
  C  C126  1  0.99998000  0.77178000  0.22822000  1.0
  C  C127  1  0.00002000  0.22830000  0.77170000  1.0
  C  C128  1  0.99998000  0.59599000  0.40402000  1.0
  C  C129  1  0.99999000  0.40408000  0.59593000  1.0
  C  C130  1  0.88849000  0.54777000  0.45220000  1.0
  C  C131  1  0.11127000  0.45252000  0.54796000  1.0
  C  C132  1  0.11149000  0.54781000  0.45223000  1.0
  C  C133  1  0.88873000  0.45203000  0.54749000  1.0
  N  N134  1  0.79581000  0.15611000  0.99234000  1.0
  N  N135  1  0.05562000  0.99259000  0.15616000  1.0
  N  N136  1  0.20421000  0.00766000  0.84388000  1.0
  N  N137  1  0.94437000  0.84385000  0.00740000  1.0
  N  N138  1  0.06816000  0.14974000  0.99036000  1.0
  N  N139  1  0.79178000  0.99041000  0.14955000  1.0
  N  N140  1  0.93186000  0.00963000  0.85025000  1.0
  N  N141  1  0.20822000  0.85045000  0.00958000  1.0
  N  N142  1  0.99999000  0.69009000  0.30991000  1.0
  N  N143  1  0.00001000  0.30998000  0.69002000  1.0
