# generated using pymatgen
data_CoH10(C3O4)2
_symmetry_space_group_name_H-M   'P 1'
_cell_length_a   6.44001000
_cell_length_b   10.72770000
_cell_length_c   10.72760000
_cell_angle_alpha   75.11590000
_cell_angle_beta   73.20570000
_cell_angle_gamma   73.20440000
_symmetry_Int_Tables_number   1
_chemical_formula_structural   CoH10(C3O4)2
_chemical_formula_sum   'Co3 H30 C18 O24'
_cell_volume   666.99061359
_cell_formula_units_Z   3
loop_
 _symmetry_equiv_pos_site_id
 _symmetry_equiv_pos_as_xyz
  1  'x, y, z'
loop_
 _atom_site_type_symbol
 _atom_site_label
 _atom_site_symmetry_multiplicity
 _atom_site_fract_x
 _atom_site_fract_y
 _atom_site_fract_z
 _atom_site_occupancy
  Co  Co0  1  0.23295000  0.23276000  0.24847000  1.0
  Co  Co1  1  0.76706000  0.75154000  0.76724000  1.0
  Co  Co2  1  0.00000000  0.20377000  0.79623000  1.0
  H  H3  1  0.50002000  0.86356000  0.13645000  1.0
  H  H4  1  0.29919000  0.71248000  0.55318000  1.0
  H  H5  1  0.70079000  0.44681000  0.28751000  1.0
  H  H6  1  0.20083000  0.75501000  0.98054000  1.0
  H  H7  1  0.79919000  0.01946000  0.24500000  1.0
  H  H8  1  0.00000000  0.60201000  0.39798000  1.0
  H  H9  1  0.03580000  0.10778000  0.46003000  1.0
  H  H10  1  0.96418000  0.53996000  0.89223000  1.0
  H  H11  1  0.86000000  0.25844000  0.44991000  1.0
  H  H12  1  0.13999000  0.55008000  0.74156000  1.0
  H  H13  1  0.55442000  0.09704000  0.39297000  1.0
  H  H14  1  0.44557000  0.60703000  0.90297000  1.0
  H  H15  1  0.54133000  0.25216000  0.36912000  1.0
  H  H16  1  0.45861000  0.63093000  0.74785000  1.0
  H  H17  1  0.59033000  0.20812000  0.04307000  1.0
  H  H18  1  0.40969000  0.95694000  0.79188000  1.0
  H  H19  1  0.42743000  0.35688000  0.04080000  1.0
  H  H20  1  0.57257000  0.95920000  0.64312000  1.0
  H  H21  1  0.93285000  0.22135000  0.11885000  1.0
  H  H22  1  0.06717000  0.88114000  0.77865000  1.0
  H  H23  1  0.91666000  0.37355000  0.11786000  1.0
  H  H24  1  0.08335000  0.88214000  0.62646000  1.0
  H  H25  1  0.66744000  0.41295000  0.74315000  1.0
  H  H26  1  0.33255000  0.25682000  0.58705000  1.0
  H  H27  1  0.85681000  0.45862000  0.78294000  1.0
  H  H28  1  0.14318000  0.21705000  0.54139000  1.0
  H  H29  1  0.29958000  0.25066000  0.92978000  1.0
  H  H30  1  0.70042000  0.07021000  0.74934000  1.0
  H  H31  1  0.31853000  0.33498000  0.78488000  1.0
  H  H32  1  0.68147000  0.21511000  0.66501000  1.0
  C  C33  1  0.38605000  0.80278000  0.34662000  1.0
  C  C34  1  0.61396000  0.65338000  0.19722000  1.0
  C  C35  1  0.50002000  0.78052000  0.21949000  1.0
  C  C36  1  0.50000000  0.56745000  0.43254000  1.0
  C  C37  1  0.38764000  0.69616000  0.45367000  1.0
  C  C38  1  0.61236000  0.54633000  0.30384000  1.0
  C  C39  1  0.26479000  0.94162000  0.36149000  1.0
  C  C40  1  0.73523000  0.63851000  0.05838000  1.0
  C  C41  1  0.49998000  0.45350000  0.54649000  1.0
  C  C42  1  0.11210000  0.66273000  0.18664000  1.0
  C  C43  1  0.88791000  0.81336000  0.33727000  1.0
  C  C44  1  0.11342000  0.77008000  0.08053000  1.0
  C  C45  1  0.88659000  0.91948000  0.22992000  1.0
  C  C46  1  0.00000000  0.89796000  0.10204000  1.0
  C  C47  1  0.00000000  0.68516000  0.31484000  1.0
  C  C48  1  0.22459000  0.52493000  0.16174000  1.0
  C  C49  1  0.77541000  0.83825000  0.47507000  1.0
  C  C50  1  0.00002000  0.01040000  0.98960000  1.0
  O  O51  1  0.29703000  0.03178000  0.25954000  1.0
  O  O52  1  0.70301000  0.74047000  0.96823000  1.0
  O  O53  1  0.13356000  0.96339000  0.47306000  1.0
  O  O54  1  0.86642000  0.52694000  0.03661000  1.0
  O  O55  1  0.56978000  0.33443000  0.52396000  1.0
  O  O56  1  0.43021000  0.47600000  0.66555000  1.0
  O  O57  1  0.17816000  0.42989000  0.25578000  1.0
  O  O58  1  0.82184000  0.74422000  0.57011000  1.0
  O  O59  1  0.35690000  0.50911000  0.04901000  1.0
  O  O60  1  0.64309000  0.95099000  0.49089000  1.0
  O  O61  1  0.10760000  0.99426000  0.87123000  1.0
  O  O62  1  0.89241000  0.12878000  0.00575000  1.0
  O  O63  1  0.01800000  0.21047000  0.43675000  1.0
  O  O64  1  0.98199000  0.56325000  0.78953000  1.0
  O  O65  1  0.50973000  0.18505000  0.33509000  1.0
  O  O66  1  0.49027000  0.66493000  0.81497000  1.0
  O  O67  1  0.43308000  0.25772000  0.05405000  1.0
  O  O68  1  0.56693000  0.94596000  0.74227000  1.0
  O  O69  1  0.95149000  0.28080000  0.16910000  1.0
  O  O70  1  0.04854000  0.83089000  0.71920000  1.0
  O  O71  1  0.78838000  0.38253000  0.79074000  1.0
  O  O72  1  0.21162000  0.20922000  0.61748000  1.0
  O  O73  1  0.24060000  0.26977000  0.84930000  1.0
  O  O74  1  0.75940000  0.15070000  0.73023000  1.0
