# generated using pymatgen
data_CdH8C10Br2(NCl)2
_symmetry_space_group_name_H-M   'P 1'
_cell_length_a   3.89275000
_cell_length_b   11.66560000
_cell_length_c   14.39670000
_cell_angle_alpha   90.00040000
_cell_angle_beta   90.00060000
_cell_angle_gamma   88.85660000
_symmetry_Int_Tables_number   1
_chemical_formula_structural   CdH8C10Br2(NCl)2
_chemical_formula_sum   'Cd2 H16 C20 Br4 N4 Cl4'
_cell_volume   653.64217344
_cell_formula_units_Z   2
loop_
 _symmetry_equiv_pos_site_id
 _symmetry_equiv_pos_as_xyz
  1  'x, y, z'
loop_
 _atom_site_type_symbol
 _atom_site_label
 _atom_site_symmetry_multiplicity
 _atom_site_fract_x
 _atom_site_fract_y
 _atom_site_fract_z
 _atom_site_occupancy
  Cd  Cd0  1  0.00000000  0.00000000  0.00000000  1.0
  Cd  Cd1  1  0.99999000  0.50000000  0.50000000  1.0
  H  H2  1  0.73937000  0.89630000  0.80519000  1.0
  H  H3  1  0.73935000  0.39630000  0.69481000  1.0
  H  H4  1  0.26063000  0.10370000  0.19481000  1.0
  H  H5  1  0.26064000  0.60370000  0.30519000  1.0
  H  H6  1  0.97926000  0.12288000  0.57651000  1.0
  H  H7  1  0.97927000  0.62287000  0.92350000  1.0
  H  H8  1  0.02074000  0.87712000  0.42349000  1.0
  H  H9  1  0.02074000  0.37712000  0.07651000  1.0
  H  H10  1  0.23950000  0.25421000  0.69220000  1.0
  H  H11  1  0.23952000  0.75420000  0.80781000  1.0
  H  H12  1  0.76049000  0.74580000  0.30780000  1.0
  H  H13  1  0.76049000  0.24579000  0.19220000  1.0
  H  H14  1  0.24050000  0.19796000  0.86169000  1.0
  H  H15  1  0.24052000  0.69796000  0.63832000  1.0
  H  H16  1  0.75948000  0.80204000  0.13831000  1.0
  H  H17  1  0.75949000  0.30204000  0.36169000  1.0
  C  C18  1  0.85066000  0.97398000  0.77700000  1.0
  C  C19  1  0.85063000  0.47398000  0.72300000  1.0
  C  C20  1  0.14933000  0.02602000  0.22300000  1.0
  C  C21  1  0.14937000  0.52602000  0.27700000  1.0
  C  C22  1  0.84666000  0.99882000  0.68231000  1.0
  C  C23  1  0.84663000  0.49882000  0.81769000  1.0
  C  C24  1  0.15334000  0.00118000  0.31769000  1.0
  C  C25  1  0.15337000  0.50119000  0.18231000  1.0
  C  C26  1  0.98202000  0.10119000  0.65011000  1.0
  C  C27  1  0.98199000  0.60118000  0.84989000  1.0
  C  C28  1  0.01798000  0.89882000  0.34988000  1.0
  C  C29  1  0.01803000  0.39882000  0.15011000  1.0
  C  C30  1  0.12537000  0.17459000  0.71519000  1.0
  C  C31  1  0.12538000  0.67458000  0.78482000  1.0
  C  C32  1  0.87464000  0.82541000  0.28481000  1.0
  C  C33  1  0.87464000  0.32542000  0.21518000  1.0
  C  C34  1  0.12609000  0.14414000  0.80869000  1.0
  C  C35  1  0.12607000  0.64414000  0.69131000  1.0
  C  C36  1  0.87388000  0.85587000  0.19131000  1.0
  C  C37  1  0.87392000  0.35586000  0.30869000  1.0
  Br  Br38  1  0.66598000  0.88972000  0.59852000  1.0
  Br  Br39  1  0.66600000  0.38972000  0.90148000  1.0
  Br  Br40  1  0.33401000  0.11028000  0.40148000  1.0
  Br  Br41  1  0.33401000  0.61028000  0.09852000  1.0
  N  N42  1  0.98911000  0.04595000  0.83877000  1.0
  N  N43  1  0.98910000  0.54595000  0.66123000  1.0
  N  N44  1  0.01088000  0.95405000  0.16122000  1.0
  N  N45  1  0.01089000  0.45405000  0.33877000  1.0
  Cl  Cl46  1  0.48693000  0.15411000  0.02966000  1.0
  Cl  Cl47  1  0.48693000  0.65411000  0.47034000  1.0
  Cl  Cl48  1  0.51307000  0.84589000  0.97034000  1.0
  Cl  Cl49  1  0.51306000  0.34590000  0.52966000  1.0
