# generated using pymatgen
data_CdNiH14(C5N4)2
_symmetry_space_group_name_H-M   'P 1'
_cell_length_a   8.55246000
_cell_length_b   8.59187000
_cell_length_c   11.36290000
_cell_angle_alpha   75.06980000
_cell_angle_beta   75.04800000
_cell_angle_gamma   70.36010000
_symmetry_Int_Tables_number   1
_chemical_formula_structural   CdNiH14(C5N4)2
_chemical_formula_sum   'Cd2 Ni2 H28 C20 N16'
_cell_volume   746.23963593
_cell_formula_units_Z   2
loop_
 _symmetry_equiv_pos_site_id
 _symmetry_equiv_pos_as_xyz
  1  'x, y, z'
loop_
 _atom_site_type_symbol
 _atom_site_label
 _atom_site_symmetry_multiplicity
 _atom_site_fract_x
 _atom_site_fract_y
 _atom_site_fract_z
 _atom_site_occupancy
  Cd  Cd0  1  0.16683000  0.34541000  0.72796000  1.0
  Cd  Cd1  1  0.83318000  0.65459000  0.27204000  1.0
  Ni  Ni2  1  0.00000000  0.00000000  0.50000000  1.0
  Ni  Ni3  1  0.50000000  0.50000000  0.00000000  1.0
  H  H4  1  0.21263000  0.51035000  0.47663000  1.0
  H  H5  1  0.78737000  0.48966000  0.52337000  1.0
  H  H6  1  0.40109000  0.37588000  0.49811000  1.0
  H  H7  1  0.59891000  0.62412000  0.50189000  1.0
  H  H8  1  0.33338000  0.56246000  0.54199000  1.0
  H  H9  1  0.66666667  0.43754000  0.45801000  1.0
  H  H10  1  0.32710000  0.98764000  0.76181000  1.0
  H  H11  1  0.67290000  0.01236000  0.23819000  1.0
  H  H12  1  0.42512000  0.06543000  0.62558000  1.0
  H  H13  1  0.57488000  0.93457000  0.37442000  1.0
  H  H14  1  0.94152000  0.20656000  0.93988000  1.0
  H  H15  1  0.05848000  0.79344000  0.06012000  1.0
  H  H16  1  0.05471000  0.29341000  0.98540000  1.0
  H  H17  1  0.94529000  0.70659000  0.01460000  1.0
  H  H18  1  0.13915000  0.10158000  0.95430000  1.0
  H  H19  1  0.86085000  0.89842000  0.04570000  1.0
  H  H20  1  0.85320000  0.99011000  0.80168000  1.0
  H  H21  1  0.14680000  0.00989000  0.19832000  1.0
  H  H22  1  0.48271000  0.06854000  0.86996000  1.0
  H  H23  1  0.51729000  0.93146000  0.13004000  1.0
  H  H24  1  0.58165000  0.16465000  0.72779000  1.0
  H  H25  1  0.41835000  0.83535000  0.27221000  1.0
  H  H26  1  0.52761000  0.75564000  0.72137000  1.0
  H  H27  1  0.47239000  0.24437000  0.27863000  1.0
  H  H28  1  0.08546000  0.72060000  0.78557000  1.0
  H  H29  1  0.91454000  0.27939000  0.21443000  1.0
  H  H30  1  0.76751000  0.49377000  0.72067000  1.0
  H  H31  1  0.23249000  0.50623000  0.27933000  1.0
  C  C32  1  0.21968000  0.88865000  0.52327000  1.0
  C  C33  1  0.78032000  0.11134000  0.47673000  1.0
  C  C34  1  0.38437000  0.46953000  0.89640000  1.0
  C  C35  1  0.61564000  0.53047000  0.10360000  1.0
  C  C36  1  0.00115000  0.16836000  0.57108000  1.0
  C  C37  1  0.99885000  0.83163000  0.42892000  1.0
  C  C38  1  0.82942000  0.88325000  0.78215000  1.0
  C  C39  1  0.17058000  0.11675000  0.21786000  1.0
  C  C40  1  0.52921000  0.05853000  0.77159000  1.0
  C  C41  1  0.47079000  0.94147000  0.22841000  1.0
  C  C42  1  0.64728000  0.75427000  0.73931000  1.0
  C  C43  1  0.35272000  0.24573000  0.26069000  1.0
  C  C44  1  0.95842000  0.73348000  0.77456000  1.0
  C  C45  1  0.04158000  0.26652000  0.22544000  1.0
  C  C46  1  0.66929000  0.89620000  0.76372000  1.0
  C  C47  1  0.33071000  0.10380000  0.23628000  1.0
  C  C48  1  0.78191000  0.60779000  0.73651000  1.0
  C  C49  1  0.21809000  0.39221000  0.26350000  1.0
  C  C50  1  0.36955000  0.72061000  0.99379000  1.0
  C  C51  1  0.63045000  0.27938000  0.00620000  1.0
  N  N52  1  0.29713000  0.46330000  0.53541000  1.0
  N  N53  1  0.70287000  0.53670000  0.46459000  1.0
  N  N54  1  0.38463000  0.07909000  0.71635000  1.0
  N  N55  1  0.61537000  0.92091000  0.28365000  1.0
  N  N56  1  0.00100000  0.27364000  0.61981000  1.0
  N  N57  1  0.99900000  0.72635000  0.38020000  1.0
  N  N58  1  0.06029000  0.21905000  0.92652000  1.0
  N  N59  1  0.93972000  0.78096000  0.07348000  1.0
  N  N60  1  0.31266000  0.44908000  0.82910000  1.0
  N  N61  1  0.68735000  0.55092000  0.17090000  1.0
  N  N62  1  0.35956000  0.81697000  0.53692000  1.0
  N  N63  1  0.64043000  0.18303000  0.46308000  1.0
  N  N64  1  0.28613000  0.86153000  0.98916000  1.0
  N  N65  1  0.71387000  0.13846000  0.01083000  1.0
  N  N66  1  0.93570000  0.59673000  0.75255000  1.0
  N  N67  1  0.06430000  0.40327000  0.24745000  1.0
