# generated using pymatgen
data_LaH19C15(NO2)4
_symmetry_space_group_name_H-M   'P 1'
_cell_length_a   9.31584000
_cell_length_b   10.78510000
_cell_length_c   11.26390000
_cell_angle_alpha   75.02520000
_cell_angle_beta   66.49550000
_cell_angle_gamma   67.41400000
_symmetry_Int_Tables_number   1
_chemical_formula_structural   LaH19C15(NO2)4
_chemical_formula_sum   'La2 H38 C30 N8 O16'
_cell_volume   950.78673492
_cell_formula_units_Z   2
loop_
 _symmetry_equiv_pos_site_id
 _symmetry_equiv_pos_as_xyz
  1  'x, y, z'
loop_
 _atom_site_type_symbol
 _atom_site_label
 _atom_site_symmetry_multiplicity
 _atom_site_fract_x
 _atom_site_fract_y
 _atom_site_fract_z
 _atom_site_occupancy
  La  La0  1  0.69221000  0.32670000  0.31627000  1.0
  La  La1  1  0.30779000  0.67330000  0.68373000  1.0
  H  H2  1  0.75623000  0.02712000  0.51184000  1.0
  H  H3  1  0.24377000  0.97288000  0.48816000  1.0
  H  H4  1  0.60303000  0.94239000  0.78597000  1.0
  H  H5  1  0.39696000  0.05761000  0.21403000  1.0
  H  H6  1  0.79575000  0.85541000  0.67618000  1.0
  H  H7  1  0.20424000  0.14459000  0.32382000  1.0
  H  H8  1  0.61129000  0.83139000  0.68827000  1.0
  H  H9  1  0.38871000  0.16861000  0.31173000  1.0
  H  H10  1  0.35902000  0.01260000  0.72512000  1.0
  H  H11  1  0.64097000  0.98740000  0.27488000  1.0
  H  H12  1  0.22202000  0.30058000  0.62464000  1.0
  H  H13  1  0.77797000  0.69942000  0.37536000  1.0
  H  H14  1  0.11189000  0.19557000  0.74655000  1.0
  H  H15  1  0.88810000  0.80443000  0.25345000  1.0
  H  H16  1  0.17519000  0.17864000  0.57832000  1.0
  H  H17  1  0.82481000  0.82136000  0.42168000  1.0
  H  H18  1  0.91773000  0.73174000  0.99707000  1.0
  H  H19  1  0.08227000  0.26826000  0.00293000  1.0
  H  H20  1  0.64237000  0.64490000  0.06128000  1.0
  H  H21  1  0.35763000  0.35510000  0.93872000  1.0
  H  H22  1  0.64984000  0.81396000  0.00826000  1.0
  H  H23  1  0.35016000  0.18604000  0.99174000  1.0
  H  H24  1  0.58776000  0.75362000  0.17787000  1.0
  H  H25  1  0.41224000  0.24638000  0.82213000  1.0
  H  H26  1  0.14521000  0.57964000  0.05881000  1.0
  H  H27  1  0.85479000  0.42036000  0.94118000  1.0
  H  H28  1  0.06324000  0.42724000  0.32047000  1.0
  H  H29  1  0.93676000  0.57276000  0.67953000  1.0
  H  H30  1  0.26147000  0.41636000  0.20100000  1.0
  H  H31  1  0.73853000  0.58364000  0.79900000  1.0
  H  H32  1  0.14089000  0.32573000  0.19277000  1.0
  H  H33  1  0.85911000  0.67427000  0.80724000  1.0
  H  H34  1  0.11593000  0.87035000  0.40844000  1.0
  H  H35  1  0.88407000  0.12965000  0.59156000  1.0
  H  H36  1  0.13336000  0.00227000  0.00849000  1.0
  H  H37  1  0.86665000  0.99773000  0.99151000  1.0
  H  H38  1  0.38669000  0.58837000  0.12576000  1.0
  H  H39  1  0.61331000  0.41163000  0.87424000  1.0
  C  C40  1  0.26282000  0.71963000  0.27625000  1.0
  C  C41  1  0.73718000  0.28037000  0.72375000  1.0
  C  C42  1  0.15954000  0.84902000  0.30829000  1.0
  C  C43  1  0.84046000  0.15098000  0.69171000  1.0
  C  C44  1  0.11349000  0.95095000  0.21201000  1.0
  C  C45  1  0.88650000  0.04904000  0.78799000  1.0
  C  C46  1  0.16964000  0.92305000  0.08334000  1.0
  C  C47  1  0.83036000  0.07695000  0.91666000  1.0
  C  C48  1  0.26303000  0.79122000  0.05305000  1.0
  C  C49  1  0.73697000  0.20878000  0.94695000  1.0
  C  C50  1  0.30998000  0.69031000  0.14963000  1.0
  C  C51  1  0.69003000  0.30969000  0.85036000  1.0
  C  C52  1  0.32689000  0.61360000  0.37562000  1.0
  C  C53  1  0.67311000  0.38640000  0.62438000  1.0
  C  C54  1  0.99650000  0.08646000  0.24930000  1.0
  C  C55  1  0.00350000  0.91354000  0.75070000  1.0
  C  C56  1  0.30381000  0.75326000  0.92196000  1.0
  C  C57  1  0.69618000  0.24674000  0.07804000  1.0
  C  C58  1  0.50955000  0.10899000  0.57371000  1.0
  C  C59  1  0.49045000  0.89101000  0.42629000  1.0
  C  C60  1  0.66459000  0.90573000  0.68960000  1.0
  C  C61  1  0.33541000  0.09427000  0.31041000  1.0
  C  C62  1  0.20999000  0.19898000  0.65219000  1.0
  C  C63  1  0.79001000  0.80103000  0.34780000  1.0
  C  C64  1  0.90527000  0.57308000  0.14735000  1.0
  C  C65  1  0.09473000  0.42692000  0.85265000  1.0
  C  C66  1  0.67175000  0.72544000  0.08083000  1.0
  C  C67  1  0.32825000  0.27456000  0.91917000  1.0
  C  C68  1  0.13611000  0.42010000  0.21665000  1.0
  C  C69  1  0.86389000  0.57990000  0.78335000  1.0
  N  N70  1  0.65146000  0.01628000  0.58555000  1.0
  N  N71  1  0.34853000  0.98373000  0.41445000  1.0
  N  N72  1  0.36395000  0.10043000  0.66370000  1.0
  N  N73  1  0.63605000  0.89957000  0.33630000  1.0
  N  N74  1  0.84264000  0.68396000  0.07227000  1.0
  N  N75  1  0.15736000  0.31604000  0.92773000  1.0
  N  N76  1  0.06563000  0.53694000  0.13572000  1.0
  N  N77  1  0.93437000  0.46306000  0.86428000  1.0
  O  O78  1  0.42938000  0.50113000  0.33781000  1.0
  O  O79  1  0.57063000  0.49887000  0.66219000  1.0
  O  O80  1  0.27807000  0.64292000  0.49031000  1.0
  O  O81  1  0.72193000  0.35708000  0.50969000  1.0
  O  O82  1  0.90513000  0.09639000  0.36876000  1.0
  O  O83  1  0.09487000  0.90361000  0.63124000  1.0
  O  O84  1  0.98521000  0.18960000  0.16268000  1.0
  O  O85  1  0.01479000  0.81041000  0.83732000  1.0
  O  O86  1  0.31366000  0.63185000  0.91863000  1.0
  O  O87  1  0.68635000  0.36815000  0.08136000  1.0
  O  O88  1  0.32182000  0.83851000  0.81966000  1.0
  O  O89  1  0.67818000  0.16149000  0.18034000  1.0
  O  O90  1  0.51341000  0.20510000  0.47968000  1.0
  O  O91  1  0.48659000  0.79490000  0.52033000  1.0
  O  O92  1  0.81311000  0.50614000  0.23101000  1.0
  O  O93  1  0.18689000  0.49386000  0.76899000  1.0
