# generated using pymatgen
data_ZnH19C19NO8
_symmetry_space_group_name_H-M   'P 1'
_cell_length_a   10.74500000
_cell_length_b   10.87530000
_cell_length_c   10.86130000
_cell_angle_alpha   84.66390000
_cell_angle_beta   83.94970000
_cell_angle_gamma   89.63430000
_symmetry_Int_Tables_number   1
_chemical_formula_structural   ZnH19C19NO8
_chemical_formula_sum   'Zn2 H38 C38 N2 O16'
_cell_volume   1256.65134590
_cell_formula_units_Z   2
loop_
 _symmetry_equiv_pos_site_id
 _symmetry_equiv_pos_as_xyz
  1  'x, y, z'
loop_
 _atom_site_type_symbol
 _atom_site_label
 _atom_site_symmetry_multiplicity
 _atom_site_fract_x
 _atom_site_fract_y
 _atom_site_fract_z
 _atom_site_occupancy
  Zn  Zn0  1  0.46066000  0.66513000  0.48229000  1.0
  Zn  Zn1  1  0.48082000  0.39584000  0.50901000  1.0
  H  H2  1  0.93259000  0.58520000  0.30675000  1.0
  H  H3  1  0.03376000  0.33037000  0.67987000  1.0
  H  H4  1  0.02213000  0.67520000  0.51565000  1.0
  H  H5  1  0.93840000  0.23948000  0.46312000  1.0
  H  H6  1  0.10036000  0.18066000  0.53897000  1.0
  H  H7  1  0.71362000  0.67609000  0.42162000  1.0
  H  H8  1  0.79696000  0.17158000  0.66975000  1.0
  H  H9  1  0.07514000  0.82946000  0.59129000  1.0
  H  H10  1  0.01144000  0.26512000  0.20845000  1.0
  H  H11  1  0.01164000  0.42039000  0.14131000  1.0
  H  H12  1  0.13777000  0.32116000  0.09940000  1.0
  H  H13  1  0.20347000  0.46436000  0.24791000  1.0
  H  H14  1  0.20330000  0.31160000  0.31518000  1.0
  H  H15  1  0.97731000  0.51769000  0.83042000  1.0
  H  H16  1  0.95054000  0.66871000  0.76075000  1.0
  H  H17  1  0.84294000  0.60199000  0.88322000  1.0
  H  H18  1  0.75949000  0.59608000  0.67601000  1.0
  H  H19  1  0.77641000  0.44631000  0.75048000  1.0
  H  H20  1  0.78728000  0.39192000  0.05247000  1.0
  H  H21  1  0.74227000  0.46434000  0.18990000  1.0
  H  H22  1  0.78043000  0.30442000  0.20008000  1.0
  H  H23  1  0.54995000  0.32813000  0.23156000  1.0
  H  H24  1  0.59239000  0.25860000  0.09509000  1.0
  H  H25  1  0.53482000  0.87432000  0.92959000  1.0
  H  H26  1  0.58983000  0.82564000  0.78242000  1.0
  H  H27  1  0.48129000  0.95057000  0.79430000  1.0
  H  H28  1  0.37442000  0.75109000  0.75576000  1.0
  H  H29  1  0.31513000  0.80896000  0.89531000  1.0
  H  H30  1  0.40393000  0.25444000  0.84047000  1.0
  H  H31  1  0.52169000  0.14111000  0.85921000  1.0
  H  H32  1  0.44463000  0.20513000  0.99157000  1.0
  H  H33  1  0.61325000  0.34671000  0.77990000  1.0
  H  H34  1  0.66468000  0.29485000  0.92385000  1.0
  H  H35  1  0.15986000  0.63063000  0.14567000  1.0
  H  H36  1  0.13606000  0.79238000  0.14296000  1.0
  H  H37  1  0.17223000  0.72227000  0.00180000  1.0
  H  H38  1  0.34322000  0.73931000  0.21062000  1.0
  H  H39  1  0.36035000  0.83334000  0.07139000  1.0
  C  C40  1  0.48863000  0.54799000  0.86293000  1.0
  C  C41  1  0.47053000  0.54656000  0.12244000  1.0
  C  C42  1  0.46835000  0.54963000  0.26099000  1.0
  C  C43  1  0.49416000  0.54630000  0.72421000  1.0
  C  C44  1  0.72471000  0.43896000  0.46632000  1.0
  C  C45  1  0.23861000  0.48237000  0.52491000  1.0
  C  C46  1  0.95567000  0.52848000  0.38988000  1.0
  C  C47  1  0.00916000  0.38498000  0.59579000  1.0
  C  C48  1  0.00431000  0.57788000  0.50655000  1.0
  C  C49  1  0.95993000  0.33509000  0.47797000  1.0
  C  C50  1  0.05576000  0.42224000  0.39158000  1.0
  C  C51  1  0.90984000  0.49163000  0.59418000  1.0
  C  C52  1  0.10367000  0.47359000  0.51105000  1.0
  C  C53  1  0.86063000  0.44027000  0.47434000  1.0
  C  C54  1  0.36542000  0.04921000  0.56769000  1.0
  C  C55  1  0.57272000  0.91391000  0.51905000  1.0
  C  C56  1  0.57871000  0.03470000  0.55441000  1.0
  C  C57  1  0.35770000  0.92998000  0.52879000  1.0
  C  C58  1  0.53039000  0.44683000  0.06470000  1.0
  C  C59  1  0.43272000  0.64914000  0.92080000  1.0
  C  C60  1  0.53321000  0.44419000  0.93468000  1.0
  C  C61  1  0.41502000  0.64412000  0.05200000  1.0
  C  C62  1  0.24804000  0.11929000  0.60628000  1.0
  C  C63  1  0.68668000  0.83139000  0.50660000  1.0
  C  C64  1  0.70601000  0.08923000  0.56219000  1.0
  C  C65  1  0.23504000  0.87321000  0.50663000  1.0
  C  C66  1  0.14116000  0.38589000  0.28268000  1.0
  C  C67  1  0.07149000  0.34592000  0.17723000  1.0
  C  C68  1  0.82905000  0.52802000  0.70587000  1.0
  C  C69  1  0.90446000  0.58178000  0.80026000  1.0
  C  C70  1  0.59723000  0.34554000  0.13780000  1.0
  C  C71  1  0.73474000  0.37833000  0.14532000  1.0
  C  C72  1  0.39803000  0.76781000  0.84822000  1.0
  C  C73  1  0.50743000  0.85999000  0.83725000  1.0
  C  C74  1  0.58234000  0.32826000  0.87886000  1.0
  C  C75  1  0.48213000  0.22621000  0.89376000  1.0
  C  C76  1  0.33175000  0.74016000  0.11206000  1.0
  C  C77  1  0.19227000  0.72039000  0.09910000  1.0
  N  N78  1  0.46187000  0.86364000  0.50422000  1.0
  N  N79  1  0.47586000  0.10210000  0.57816000  1.0
  O  O80  1  0.48688000  0.65385000  0.30263000  1.0
  O  O81  1  0.47326000  0.44370000  0.68342000  1.0
  O  O82  1  0.51775000  0.64644000  0.65260000  1.0
  O  O83  1  0.44847000  0.44956000  0.33034000  1.0
  O  O84  1  0.67317000  0.54316000  0.44329000  1.0
  O  O85  1  0.29534000  0.37885000  0.53492000  1.0
  O  O86  1  0.28715000  0.58991000  0.52226000  1.0
  O  O87  1  0.65931000  0.33936000  0.49005000  1.0
  O  O88  1  0.22452000  0.15335000  0.70940000  1.0
  O  O89  1  0.17440000  0.13210000  0.51274000  1.0
  O  O90  1  0.76335000  0.82605000  0.58250000  1.0
  O  O91  1  0.68343000  0.76710000  0.40946000  1.0
  O  O92  1  0.78961000  0.08772000  0.47741000  1.0
  O  O93  1  0.71425000  0.13327000  0.67259000  1.0
  O  O94  1  0.21543000  0.84232000  0.40583000  1.0
  O  O95  1  0.15432000  0.86385000  0.61099000  1.0
