# generated using pymatgen
data_Zn2H10C16BrN3O5
_symmetry_space_group_name_H-M   'P 1'
_cell_length_a   12.09550000
_cell_length_b   12.09540000
_cell_length_c   14.98970000
_cell_angle_alpha   66.70370000
_cell_angle_beta   66.70360000
_cell_angle_gamma   68.51790000
_symmetry_Int_Tables_number   1
_chemical_formula_structural   Zn2H10C16BrN3O5
_chemical_formula_sum   'Zn8 H40 C64 Br4 N12 O20'
_cell_volume   1791.86064948
_cell_formula_units_Z   4
loop_
 _symmetry_equiv_pos_site_id
 _symmetry_equiv_pos_as_xyz
  1  'x, y, z'
loop_
 _atom_site_type_symbol
 _atom_site_label
 _atom_site_symmetry_multiplicity
 _atom_site_fract_x
 _atom_site_fract_y
 _atom_site_fract_z
 _atom_site_occupancy
  Zn  Zn0  1  0.32743000  0.05264000  0.15670000  1.0
  Zn  Zn1  1  0.94736000  0.67257000  0.34330000  1.0
  Zn  Zn2  1  0.67257000  0.94736000  0.84330000  1.0
  Zn  Zn3  1  0.05264000  0.32743000  0.65670000  1.0
  Zn  Zn4  1  0.06475000  0.69864000  0.49725000  1.0
  Zn  Zn5  1  0.30136000  0.93525000  0.00275000  1.0
  Zn  Zn6  1  0.93525000  0.30136000  0.50275000  1.0
  Zn  Zn7  1  0.69864000  0.06475000  0.99725000  1.0
  H  H8  1  0.46241000  0.83470000  0.24004000  1.0
  H  H9  1  0.16530000  0.53759000  0.25996000  1.0
  H  H10  1  0.53759000  0.16530000  0.75996000  1.0
  H  H11  1  0.83470000  0.46241000  0.74004000  1.0
  H  H12  1  0.61701000  0.63091000  0.26292000  1.0
  H  H13  1  0.36909000  0.38299000  0.23708000  1.0
  H  H14  1  0.38299000  0.36909000  0.73708000  1.0
  H  H15  1  0.63091000  0.61701000  0.76293000  1.0
  H  H16  1  0.54646000  0.44053000  0.39056000  1.0
  H  H17  1  0.55947000  0.45354000  0.10944000  1.0
  H  H18  1  0.45354000  0.55947000  0.60944000  1.0
  H  H19  1  0.44053000  0.54646000  0.89056000  1.0
  H  H20  1  0.32117000  0.46720000  0.49366000  1.0
  H  H21  1  0.53280000  0.67883000  0.00634000  1.0
  H  H22  1  0.67883000  0.53280000  0.50634000  1.0
  H  H23  1  0.46719000  0.32117000  0.99366000  1.0
  H  H24  1  0.49496000  0.92038000  0.04532000  1.0
  H  H25  1  0.07961000  0.50505000  0.45468000  1.0
  H  H26  1  0.50505000  0.07961000  0.95469000  1.0
  H  H27  1  0.92038000  0.49496000  0.54532000  1.0
  H  H28  1  0.70306000  0.10798000  0.26948000  1.0
  H  H29  1  0.89202000  0.29694000  0.23052000  1.0
  H  H30  1  0.29694000  0.89202000  0.73052000  1.0
  H  H31  1  0.10797000  0.70306000  0.76948000  1.0
  H  H32  1  0.42669000  0.21294000  0.53197000  1.0
  H  H33  1  0.78706000  0.57331000  0.96804000  1.0
  H  H34  1  0.57331000  0.78706000  0.46803000  1.0
  H  H35  1  0.21294000  0.42669000  0.03196000  1.0
  H  H36  1  0.31463000  0.14640000  0.32308000  1.0
  H  H37  1  0.85360000  0.68537000  0.17692000  1.0
  H  H38  1  0.68537000  0.85360000  0.67692000  1.0
  H  H39  1  0.14640000  0.31463000  0.82308000  1.0
  H  H40  1  0.92101000  0.00644000  0.42915000  1.0
  H  H41  1  0.99356000  0.07899000  0.07084000  1.0
  H  H42  1  0.07899000  0.99356000  0.57085000  1.0
  H  H43  1  0.00644000  0.92101000  0.92916000  1.0
  H  H44  1  0.07083000  0.16114000  0.28081000  1.0
  H  H45  1  0.83886000  0.92917000  0.21918000  1.0
  H  H46  1  0.92917000  0.83886000  0.71919000  1.0
  H  H47  1  0.16114000  0.07083000  0.78081000  1.0
  C  C48  1  0.30915000  0.75840000  0.35402000  1.0
  C  C49  1  0.24160000  0.69085000  0.14598000  1.0
  C  C50  1  0.69085000  0.24160000  0.64598000  1.0
  C  C51  1  0.75840000  0.30915000  0.85402000  1.0
  C  C52  1  0.43366000  0.75189000  0.29546000  1.0
  C  C53  1  0.24811000  0.56634000  0.20454000  1.0
  C  C54  1  0.56634000  0.24811000  0.70454000  1.0
  C  C55  1  0.75189000  0.43366000  0.79546000  1.0
  C  C56  1  0.52003000  0.63740000  0.30822000  1.0
  C  C57  1  0.36261000  0.47997000  0.19178000  1.0
  C  C58  1  0.47997000  0.36260000  0.69178000  1.0
  C  C59  1  0.63740000  0.52003000  0.80822000  1.0
  C  C60  1  0.48141000  0.53168000  0.37898000  1.0
  C  C61  1  0.46832000  0.51859000  0.12102000  1.0
  C  C62  1  0.51859000  0.46832000  0.62102000  1.0
  C  C63  1  0.53168000  0.48141000  0.87898000  1.0
  C  C64  1  0.35667000  0.54592000  0.43601000  1.0
  C  C65  1  0.45408000  0.64333000  0.06399000  1.0
  C  C66  1  0.64333000  0.45408000  0.56399000  1.0
  C  C67  1  0.54592000  0.35667000  0.93601000  1.0
  C  C68  1  0.54629000  0.09695000  0.18799000  1.0
  C  C69  1  0.90305000  0.45371000  0.31201000  1.0
  C  C70  1  0.45371000  0.90305000  0.81201000  1.0
  C  C71  1  0.09695000  0.54629000  0.68799000  1.0
  C  C72  1  0.51297000  0.12073000  0.28729000  1.0
  C  C73  1  0.87927000  0.48703000  0.21271000  1.0
  C  C74  1  0.48703000  0.87927000  0.71271000  1.0
  C  C75  1  0.12073000  0.51297000  0.78729000  1.0
  C  C76  1  0.60709000  0.12619000  0.31668000  1.0
  C  C77  1  0.87380000  0.39291000  0.18332000  1.0
  C  C78  1  0.39291000  0.87380000  0.68332000  1.0
  C  C79  1  0.12620000  0.60709000  0.81668000  1.0
  C  C80  1  0.57457000  0.15997000  0.40404000  1.0
  C  C81  1  0.84003000  0.42543000  0.09596000  1.0
  C  C82  1  0.42543000  0.84003000  0.59596000  1.0
  C  C83  1  0.15997000  0.57457000  0.90404000  1.0
  C  C84  1  0.45171000  0.18608000  0.46386000  1.0
  C  C85  1  0.81392000  0.54829000  0.03615000  1.0
  C  C86  1  0.54829000  0.81392000  0.53615000  1.0
  C  C87  1  0.18608000  0.45171000  0.96385000  1.0
  C  C88  1  0.35803000  0.18086000  0.43401000  1.0
  C  C89  1  0.81914000  0.64197000  0.06599000  1.0
  C  C90  1  0.64197000  0.81914000  0.56599000  1.0
  C  C91  1  0.18086000  0.35803000  0.93401000  1.0
  C  C92  1  0.38872000  0.14804000  0.34601000  1.0
  C  C93  1  0.85196000  0.61128000  0.15399000  1.0
  C  C94  1  0.61128000  0.85196000  0.65399000  1.0
  C  C95  1  0.14804000  0.38872000  0.84601000  1.0
  C  C96  1  0.22418000  0.22077000  0.49322000  1.0
  C  C97  1  0.77922000  0.77582000  0.00678000  1.0
  C  C98  1  0.77582000  0.77923000  0.50678000  1.0
  C  C99  1  0.22078000  0.22418000  0.99322000  1.0
  C  C100  1  0.01927000  0.98478000  0.38960000  1.0
  C  C101  1  0.01522000  0.98073000  0.11040000  1.0
  C  C102  1  0.98073000  0.01522000  0.61040000  1.0
  C  C103  1  0.98478000  0.01927000  0.88960000  1.0
  C  C104  1  0.09360000  0.06140000  0.31529000  1.0
  C  C105  1  0.93860000  0.90641000  0.18471000  1.0
  C  C106  1  0.90641000  0.93860000  0.68471000  1.0
  C  C107  1  0.06140000  0.09359000  0.81529000  1.0
  C  C108  1  0.20843000  0.87121000  0.34801000  1.0
  C  C109  1  0.12879000  0.79157000  0.15198000  1.0
  C  C110  1  0.79157000  0.12879000  0.65199000  1.0
  C  C111  1  0.87121000  0.20842000  0.84802000  1.0
  Br  Br112  1  0.69958000  0.17985000  0.43934000  1.0
  Br  Br113  1  0.82015000  0.30042000  0.06066000  1.0
  Br  Br114  1  0.30042000  0.82015000  0.56066000  1.0
  Br  Br115  1  0.17985000  0.69958000  0.93934000  1.0
  N  N116  1  0.27316000  0.65580000  0.42462000  1.0
  N  N117  1  0.34420000  0.72684000  0.07538000  1.0
  N  N118  1  0.72684000  0.34420000  0.57538000  1.0
  N  N119  1  0.65580000  0.27316000  0.92462000  1.0
  N  N120  1  0.09192000  0.86633000  0.40956000  1.0
  N  N121  1  0.13367000  0.90808000  0.09044000  1.0
  N  N122  1  0.90808000  0.13367000  0.59044000  1.0
  N  N123  1  0.86633000  0.09192000  0.90957000  1.0
  N  N124  1  0.21294000  0.98930000  0.28876000  1.0
  N  N125  1  0.01070000  0.78706000  0.21124000  1.0
  N  N126  1  0.78706000  0.01070000  0.71124000  1.0
  N  N127  1  0.98930000  0.21294000  0.78877000  1.0
  O  O128  1  0.66106000  0.06531000  0.14083000  1.0
  O  O129  1  0.93469000  0.33894000  0.35917000  1.0
  O  O130  1  0.33894000  0.93469000  0.85917000  1.0
  O  O131  1  0.06531000  0.66106000  0.64083000  1.0
  O  O132  1  0.45999000  0.11630000  0.15105000  1.0
  O  O133  1  0.88370000  0.54001000  0.34895000  1.0
  O  O134  1  0.54001000  0.88370000  0.84895000  1.0
  O  O135  1  0.11630000  0.45999000  0.65105000  1.0
  O  O136  1  0.20823000  0.23667000  0.57782000  1.0
  O  O137  1  0.76332000  0.79177000  0.92219000  1.0
  O  O138  1  0.79177000  0.76333000  0.42218000  1.0
  O  O139  1  0.23668000  0.20823000  0.07781000  1.0
  O  O140  1  0.14095000  0.23852000  0.45485000  1.0
  O  O141  1  0.76148000  0.85905000  0.04515000  1.0
  O  O142  1  0.85905000  0.76148000  0.54515000  1.0
  O  O143  1  0.23852000  0.14095000  0.95485000  1.0
  O  O144  1  0.40520000  0.93990000  0.07457000  1.0
  O  O145  1  0.06010000  0.59480000  0.42543000  1.0
  O  O146  1  0.59480000  0.06011000  0.92542000  1.0
  O  O147  1  0.93990000  0.40520000  0.57457000  1.0
