# generated using pymatgen
data_Zn4H14C22O17
_symmetry_space_group_name_H-M   'P 1'
_cell_length_a   15.95340000
_cell_length_b   15.96350000
_cell_length_c   17.11280000
_cell_angle_alpha   117.57200000
_cell_angle_beta   117.67200000
_cell_angle_gamma   90.00300000
_symmetry_Int_Tables_number   1
_chemical_formula_structural   Zn4H14C22O17
_chemical_formula_sum   'Zn8 H28 C44 O34'
_cell_volume   3290.50465339
_cell_formula_units_Z   2
loop_
 _symmetry_equiv_pos_site_id
 _symmetry_equiv_pos_as_xyz
  1  'x, y, z'
loop_
 _atom_site_type_symbol
 _atom_site_label
 _atom_site_symmetry_multiplicity
 _atom_site_fract_x
 _atom_site_fract_y
 _atom_site_fract_z
 _atom_site_occupancy
  Zn  Zn0  1  0.30731000  0.70833000  0.41260000  1.0
  Zn  Zn1  1  0.70572000  0.30681000  0.41258000  1.0
  Zn  Zn2  1  0.10559000  0.70416000  0.40735000  1.0
  Zn  Zn3  1  0.89441000  0.29585000  0.59265000  1.0
  Zn  Zn4  1  0.29428000  0.69319000  0.58742000  1.0
  Zn  Zn5  1  0.69269000  0.29168000  0.58740000  1.0
  Zn  Zn6  1  0.29546000  0.89474000  0.59264000  1.0
  Zn  Zn7  1  0.70454000  0.10527000  0.40737000  1.0
  H  H8  1  0.02863000  0.58543000  0.92276000  1.0
  H  H9  1  0.18382000  0.42587000  0.92591000  1.0
  H  H10  1  0.29660000  0.52322000  0.02015000  1.0
  H  H11  1  0.81617000  0.57415000  0.07407000  1.0
  H  H12  1  0.81258000  0.45501000  0.05840000  1.0
  H  H13  1  0.70340000  0.47678000  0.97984000  1.0
  H  H14  1  0.74358000  0.07740000  0.03782000  1.0
  H  H15  1  0.68652000  0.17440000  0.03841000  1.0
  H  H16  1  0.71887000  0.10920000  0.94289000  1.0
  H  H17  1  0.31348000  0.82560000  0.96159000  1.0
  H  H18  1  0.25642000  0.92260000  0.96218000  1.0
  H  H19  1  0.97137000  0.41458000  0.07724000  1.0
  H  H20  1  0.28113000  0.89080000  0.05711000  1.0
  H  H21  1  0.18744000  0.54503000  0.94162000  1.0
  H  H22  1  0.66218000  0.97061000  0.07579000  1.0
  H  H23  1  0.07863000  0.29543000  0.04018000  1.0
  H  H24  1  0.17555000  0.35266000  0.04029000  1.0
  H  H25  1  0.11034000  0.22523000  0.94546000  1.0
  H  H26  1  0.82445000  0.64735000  0.95971000  1.0
  H  H27  1  0.92137000  0.70458000  0.95982000  1.0
  H  H28  1  0.88966000  0.77478000  0.05454000  1.0
  H  H29  1  0.39692000  0.18750000  0.94200000  1.0
  H  H30  1  0.33782000  0.02939000  0.92421000  1.0
  H  H31  1  0.49998000  0.18375000  0.92539000  1.0
  H  H32  1  0.49686000  0.29640000  0.02004000  1.0
  H  H33  1  0.50002000  0.81625000  0.07461000  1.0
  H  H34  1  0.60308000  0.81250000  0.05800000  1.0
  H  H35  1  0.50314000  0.70360000  0.97996000  1.0
  C  C36  1  0.39181000  0.88515000  0.78006000  1.0
  C  C37  1  0.97398000  0.02772000  0.50165000  1.0
  C  C38  1  0.47077000  0.52436000  0.49662000  1.0
  C  C39  1  0.52923000  0.47565000  0.50338000  1.0
  C  C40  1  0.02602000  0.97228000  0.49835000  1.0
  C  C41  1  0.02627000  0.52801000  0.50054000  1.0
  C  C42  1  0.97373000  0.47198000  0.49945000  1.0
  C  C43  1  0.60819000  0.11485000  0.21994000  1.0
  C  C44  1  0.40267000  0.58427000  0.49213000  1.0
  C  C45  1  0.59733000  0.41573000  0.50787000  1.0
  C  C46  1  0.09017000  0.90805000  0.49705000  1.0
  C  C47  1  0.90983000  0.09196000  0.50295000  1.0
  C  C48  1  0.08982000  0.59398000  0.50172000  1.0
  C  C49  1  0.11483000  0.61268000  0.21991000  1.0
  C  C50  1  0.91019000  0.40602000  0.49828000  1.0
  C  C51  1  0.41517000  0.91290000  0.50966000  1.0
  C  C52  1  0.58484000  0.08710000  0.49035000  1.0
  C  C53  1  0.47542000  0.97576000  0.50469000  1.0
  C  C54  1  0.52459000  0.02424000  0.49531000  1.0
  C  C55  1  0.88517000  0.38733000  0.78009000  1.0
  C  C56  1  0.09748000  0.51657000  0.02906000  1.0
  C  C57  1  0.90252000  0.48343000  0.97094000  1.0
  C  C58  1  0.55124000  0.01937000  0.96239000  1.0
  C  C59  1  0.44876000  0.98063000  0.03761000  1.0
  C  C60  1  0.01734000  0.54897000  0.95901000  1.0
  C  C61  1  0.98266000  0.45103000  0.04099000  1.0
  C  C62  1  0.58968000  0.98226000  0.04019000  1.0
  C  C63  1  0.41032000  0.01774000  0.95981000  1.0
  C  C64  1  0.94098000  0.44629000  0.89483000  1.0
  C  C65  1  0.05902000  0.55372000  0.10518000  1.0
  C  C66  1  0.55174000  0.05900000  0.10520000  1.0
  C  C67  1  0.44826000  0.94100000  0.89480000  1.0
  C  C68  1  0.01985000  0.41158000  0.96334000  1.0
  C  C69  1  0.98016000  0.58843000  0.03666000  1.0
  C  C70  1  0.51253000  0.09735000  0.02894000  1.0
  C  C71  1  0.48747000  0.90265000  0.97106000  1.0
  C  C72  1  0.21631000  0.50533000  0.98248000  1.0
  C  C73  1  0.78369000  0.49469000  0.01751000  1.0
  C  C74  1  0.69193000  0.10255000  0.98869000  1.0
  C  C75  1  0.30807000  0.89745000  0.01131000  1.0
  C  C76  1  0.10366000  0.29779000  0.99085000  1.0
  C  C77  1  0.89635000  0.70222000  0.00915000  1.0
  C  C78  1  0.47725000  0.21622000  0.98238000  1.0
  C  C79  1  0.52275000  0.78378000  0.01762000  1.0
  O  O80  1  0.24969000  0.75072000  0.49998000  1.0
  O  O81  1  0.64307000  0.06412000  0.26160000  1.0
  O  O82  1  0.20677000  0.65112000  0.26692000  1.0
  O  O83  1  0.79323000  0.34889000  0.73308000  1.0
  O  O84  1  0.36786000  0.59873000  0.54943000  1.0
  O  O85  1  0.63214000  0.40127000  0.45056000  1.0
  O  O86  1  0.04817000  0.81662000  0.43109000  1.0
  O  O87  1  0.95183000  0.18338000  0.56890000  1.0
  O  O88  1  0.75031000  0.24928000  0.50002000  1.0
  O  O89  1  0.18116000  0.61868000  0.56871000  1.0
  O  O90  1  0.81883000  0.38132000  0.43128000  1.0
  O  O91  1  0.04765000  0.61989000  0.43590000  1.0
  O  O92  1  0.95235000  0.38012000  0.56409000  1.0
  O  O93  1  0.38295000  0.95529000  0.56968000  1.0
  O  O94  1  0.61705000  0.04471000  0.43032000  1.0
  O  O95  1  0.40082000  0.82122000  0.45238000  1.0
  O  O96  1  0.59919000  0.17878000  0.54762000  1.0
  O  O97  1  0.38518000  0.61615000  0.43177000  1.0
  O  O98  1  0.61482000  0.38385000  0.56822000  1.0
  O  O99  1  0.18155000  0.95035000  0.56235000  1.0
  O  O100  1  0.81844000  0.04965000  0.43764000  1.0
  O  O101  1  0.38298000  0.79322000  0.73299000  1.0
  O  O102  1  0.61702000  0.20678000  0.26701000  1.0
  O  O103  1  0.06401000  0.61989000  0.26159000  1.0
  O  O104  1  0.93599000  0.38012000  0.73841000  1.0
  O  O105  1  0.35693000  0.93588000  0.73840000  1.0
  O  O106  1  0.19626000  0.53639000  0.06396000  1.0
  O  O107  1  0.80374000  0.46362000  0.93604000  1.0
  O  O108  1  0.59700000  0.03175000  0.91566000  1.0
  O  O109  1  0.40300000  0.96825000  0.08434000  1.0
  O  O110  1  0.03253000  0.31944000  0.91731000  1.0
  O  O111  1  0.96747000  0.68056000  0.08269000  1.0
  O  O112  1  0.52774000  0.19602000  0.06377000  1.0
  O  O113  1  0.47226000  0.80398000  0.93623000  1.0
