# generated using pymatgen
data_Al6H16C67O29F4
_symmetry_space_group_name_H-M   'P 1'
_cell_length_a   12.13770000
_cell_length_b   12.18670000
_cell_length_c   27.05240000
_cell_angle_alpha   82.32880000
_cell_angle_beta   82.28410000
_cell_angle_gamma   63.75880000
_symmetry_Int_Tables_number   1
_chemical_formula_structural   Al6H16C67O29F4
_chemical_formula_sum   'Al6 H16 C67 O29 F4'
_cell_volume   3544.26745450
_cell_formula_units_Z   1
loop_
 _symmetry_equiv_pos_site_id
 _symmetry_equiv_pos_as_xyz
  1  'x, y, z'
loop_
 _atom_site_type_symbol
 _atom_site_label
 _atom_site_symmetry_multiplicity
 _atom_site_fract_x
 _atom_site_fract_y
 _atom_site_fract_z
 _atom_site_occupancy
  Al  Al0  1  0.40241000  0.40259000  0.51160000  1.0
  Al  Al1  1  0.65982000  0.42292000  0.49573000  1.0
  Al  Al2  1  0.42535000  0.65775000  0.49713000  1.0
  Al  Al3  1  0.92801000  0.93947000  0.97891000  1.0
  Al  Al4  1  0.91427000  0.67974000  0.99550000  1.0
  Al  Al5  1  0.67560000  0.90968000  0.99423000  1.0
  H  H6  1  0.11668000  0.88106000  0.20842000  1.0
  H  H7  1  0.21717000  0.46249000  0.28518000  1.0
  H  H8  1  0.44750000  0.22748000  0.22761000  1.0
  H  H9  1  0.58256000  0.04045000  0.30043000  1.0
  H  H10  1  0.53408000  0.38629000  0.26026000  1.0
  H  H11  1  0.97085000  0.07562000  0.22587000  1.0
  H  H12  1  0.74177000  0.29900000  0.18931000  1.0
  H  H13  1  0.78965000  0.95578000  0.22959000  1.0
  H  H14  1  0.67539000  0.84371000  0.69580000  1.0
  H  H15  1  0.67903000  0.47489000  0.79539000  1.0
  H  H16  1  0.85661000  0.47688000  0.71604000  1.0
  H  H17  1  0.86701000  0.67676000  0.75524000  1.0
  H  H18  1  0.33635000  0.72495000  0.25429000  1.0
  H  H19  1  0.35515000  0.52743000  0.20247000  1.0
  H  H20  1  0.30528000  0.28556000  0.55493000  1.0
  H  H21  1  0.04221000  0.03907000  0.99701000  1.0
  C  C22  1  0.61436000  0.28378000  0.43569000  1.0
  C  C23  1  0.14985000  0.67908000  0.19664000  1.0
  C  C24  1  0.19575000  0.55481000  0.26751000  1.0
  C  C25  1  0.61778000  0.61557000  0.41765000  1.0
  C  C26  1  0.18568000  0.66430000  0.29663000  1.0
  C  C27  1  0.27219000  0.59138000  0.22270000  1.0
  C  C28  1  0.26142000  0.70105000  0.25033000  1.0
  C  C29  1  0.12841000  0.68773000  0.14597000  1.0
  C  C30  1  0.20622000  0.65667000  0.34735000  1.0
  C  C31  1  0.61635000  0.09887000  0.27522000  1.0
  C  C32  1  0.54207000  0.20237000  0.23553000  1.0
  C  C33  1  0.66376000  0.66510000  0.26889000  1.0
  C  C34  1  0.67587000  0.10671000  0.10208000  1.0
  C  C35  1  0.64397000  0.23534000  0.38769000  1.0
  C  C36  1  0.73127000  0.05161000  0.23657000  1.0
  C  C37  1  0.27899000  0.61977000  0.43837000  1.0
  C  C38  1  0.65751000  0.15464000  0.19559000  1.0
  C  C39  1  0.77862000  0.13972000  0.25480000  1.0
  C  C40  1  0.66301000  0.18729000  0.29421000  1.0
  C  C41  1  0.70452000  0.24275000  0.21416000  1.0
  C  C42  1  0.58958000  0.29017000  0.25281000  1.0
  C  C43  1  0.66273000  0.13187000  0.14526000  1.0
  C  C44  1  0.65311000  0.65428000  0.31909000  1.0
  C  C45  1  0.65773000  0.20998000  0.34456000  1.0
  C  C46  1  0.67742000  0.76154000  0.71829000  1.0
  C  C47  1  0.57953000  0.75994000  0.76155000  1.0
  C  C48  1  0.70135000  0.68596000  0.88988000  1.0
  C  C49  1  0.61807000  0.27935000  0.57718000  1.0
  C  C50  1  0.64842000  0.63763000  0.60133000  1.0
  C  C51  1  0.78318000  0.66846000  0.75048000  1.0
  C  C52  1  0.68472000  0.66724000  0.79565000  1.0
  C  C53  1  0.77751000  0.55796000  0.72937000  1.0
  C  C54  1  0.67218000  0.65035000  0.69540000  1.0
  C  C55  1  0.64202000  0.64286000  0.36502000  1.0
  C  C56  1  0.67927000  0.55605000  0.77277000  1.0
  C  C57  1  0.57391000  0.64846000  0.74070000  1.0
  C  C58  1  0.69333000  0.67547000  0.84644000  1.0
  C  C59  1  0.66106000  0.64419000  0.64467000  1.0
  C  C60  1  0.10559000  0.69943000  0.86358000  1.0
  C  C61  1  0.62086000  0.61577000  0.55479000  1.0
  C  C62  1  0.13211000  0.68667000  0.81868000  1.0
  C  C63  1  0.15863000  0.67431000  0.76949000  1.0
  C  C64  1  0.18100000  0.66472000  0.72402000  1.0
  C  C65  1  0.20808000  0.65253000  0.67483000  1.0
  C  C66  1  0.06361000  0.75200000  0.27045000  1.0
  C  C67  1  0.23465000  0.64037000  0.62989000  1.0
  C  C68  1  0.69207000  0.10320000  0.86210000  1.0
  C  C69  1  0.68194000  0.12911000  0.81703000  1.0
  C  C70  1  0.67221000  0.15509000  0.76767000  1.0
  C  C71  1  0.66488000  0.17655000  0.72205000  1.0
  C  C72  1  0.65506000  0.20248000  0.67269000  1.0
  C  C73  1  0.28520000  0.61157000  0.57960000  1.0
  C  C74  1  0.64480000  0.22844000  0.62762000  1.0
  C  C75  1  0.05434000  0.72570000  0.05506000  1.0
  C  C76  1  0.72020000  0.71931000  0.07385000  1.0
  C  C77  1  0.13967000  0.78827000  0.22582000  1.0
  C  C78  1  0.70912000  0.05653000  0.05427000  1.0
  C  C79  1  0.05442000  0.72784000  0.91379000  1.0
  C  C80  1  0.72399000  0.71227000  0.93647000  1.0
  C  C81  1  0.71795000  0.05325000  0.91267000  1.0
  C  C82  1  0.69483000  0.69368000  0.12649000  1.0
  C  C83  1  0.68366000  0.68323000  0.17245000  1.0
  C  C84  1  0.67245000  0.67313000  0.22267000  1.0
  C  C85  1  0.90912000  0.10476000  0.26121000  1.0
  C  C86  1  0.10449000  0.69842000  0.10278000  1.0
  C  C87  1  0.22913000  0.64746000  0.39057000  1.0
  C  C88  1  0.07462000  0.64158000  0.24301000  1.0
  O  O89  1  0.29739000  0.51669000  0.46113000  1.0
  O  O90  1  0.64211000  0.81874000  0.05305000  1.0
  O  O91  1  0.62862000  0.03286000  0.03671000  1.0
  O  O92  1  0.50733000  0.30872000  0.45639000  1.0
  O  O93  1  0.81901000  0.03877000  0.92648000  1.0
  O  O94  1  0.02954000  0.83359000  0.92541000  1.0
  O  O95  1  0.03400000  0.64333000  0.94193000  1.0
  O  O96  1  0.82554000  0.63861000  0.95499000  1.0
  O  O97  1  0.64430000  0.81099000  0.95523000  1.0
  O  O98  1  0.63670000  0.02334000  0.93864000  1.0
  O  O99  1  0.83825000  0.84162000  0.98994000  1.0
  O  O100  1  0.69721000  0.51769000  0.53476000  1.0
  O  O101  1  0.69836000  0.30245000  0.45306000  1.0
  O  O102  1  0.69419000  0.51327000  0.43719000  1.0
  O  O103  1  0.51901000  0.69255000  0.43940000  1.0
  O  O104  1  0.30615000  0.70110000  0.45280000  1.0
  O  O105  1  0.30801000  0.50617000  0.56815000  1.0
  O  O106  1  0.51567000  0.29630000  0.56385000  1.0
  O  O107  1  0.69989000  0.30781000  0.55093000  1.0
  O  O108  1  0.95051000  0.10652000  0.29960000  1.0
  O  O109  1  0.51854000  0.69272000  0.53776000  1.0
  O  O110  1  0.30695000  0.69501000  0.55132000  1.0
  O  O111  1  0.49709000  0.49574000  0.50168000  1.0
  O  O112  1  0.81590000  0.03502000  0.03413000  1.0
  O  O113  1  0.03163000  0.83031000  0.03275000  1.0
  O  O114  1  0.03177000  0.64192000  0.04011000  1.0
  O  O115  1  0.82168000  0.64371000  0.05314000  1.0
  O  O116  1  0.31515000  0.31877000  0.52102000  1.0
  O  O117  1  0.00906000  0.02936000  0.96822000  1.0
  F  F118  1  0.48074000  0.86143000  0.77745000  1.0
  F  F119  1  0.46933000  0.63747000  0.73571000  1.0
  F  F120  1  0.95778000  0.83217000  0.29444000  1.0
  F  F121  1  0.97978000  0.61286000  0.23905000  1.0
