# generated using pymatgen
data_LaH17(C5O4)2
_symmetry_space_group_name_H-M   'P 1'
_cell_length_a   6.97679000
_cell_length_b   8.96856000
_cell_length_c   12.16788179
_cell_angle_alpha   68.69745240
_cell_angle_beta   77.72593623
_cell_angle_gamma   76.92000000
_symmetry_Int_Tables_number   1
_chemical_formula_structural   LaH17(C5O4)2
_chemical_formula_sum   'La2 H34 C20 O16'
_cell_volume   683.77460990
_cell_formula_units_Z   2
loop_
 _symmetry_equiv_pos_site_id
 _symmetry_equiv_pos_as_xyz
  1  'x, y, z'
loop_
 _atom_site_type_symbol
 _atom_site_label
 _atom_site_symmetry_multiplicity
 _atom_site_fract_x
 _atom_site_fract_y
 _atom_site_fract_z
 _atom_site_occupancy
  La  La0  1  0.23371000  0.65662000  0.41586000  1.0
  La  La1  1  0.76633000  0.34335000  0.58414000  1.0
  H  H2  1  0.20479000  0.05750000  0.04791000  1.0
  H  H3  1  0.79517000  0.94252000  0.95209000  1.0
  H  H4  1  0.06586000  0.34348000  0.01320000  1.0
  H  H5  1  0.93414000  0.65654000  0.98680000  1.0
  H  H6  1  0.91616000  0.22202000  0.13401000  1.0
  H  H7  1  0.08380000  0.77803000  0.86597000  1.0
  H  H8  1  0.07567000  0.26919000  0.27916000  1.0
  H  H9  1  0.92431000  0.73084000  0.72083000  1.0
  H  H10  1  0.97603000  0.45726000  0.18027000  1.0
  H  H11  1  0.02399000  0.54276000  0.81972000  1.0
  H  H12  1  0.30801000  0.49234000  0.06370000  1.0
  H  H13  1  0.69201000  0.50766000  0.93629000  1.0
  H  H14  1  0.46760000  0.17014000  0.24586000  1.0
  H  H15  1  0.53236000  0.82985000  0.75415000  1.0
  H  H16  1  0.60905000  0.29528000  0.12217000  1.0
  H  H17  1  0.39095000  0.70468000  0.87786000  1.0
  H  H18  1  0.54766000  0.05706000  0.08178000  1.0
  H  H19  1  0.45230000  0.94292000  0.91823000  1.0
  H  H20  1  0.44825000  0.24240000  0.98203000  1.0
  H  H21  1  0.55174000  0.75760000  0.01798000  1.0
  H  H22  1  0.70065000  0.69362000  0.16633000  1.0
  H  H23  1  0.29937000  0.30638000  0.83367000  1.0
  H  H24  1  0.93295000  0.74885000  0.17024000  1.0
  H  H25  1  0.06705000  0.25116000  0.82977000  1.0
  H  H26  1  0.69540000  0.85765000  0.21307000  1.0
  H  H27  1  0.30459000  0.14234000  0.78695000  1.0
  H  H28  1  0.43458000  0.71266000  0.60887000  1.0
  H  H29  1  0.56545000  0.28733000  0.39112000  1.0
  H  H30  1  0.20926000  0.80373000  0.62213000  1.0
  H  H31  1  0.79072000  0.19616000  0.37790000  1.0
  H  H32  1  0.87704000  0.88715000  0.44362000  1.0
  H  H33  1  0.12307000  0.11282000  0.55635000  1.0
  H  H34  1  0.80787000  0.74657000  0.56379000  1.0
  H  H35  1  0.19215000  0.25343000  0.43619000  1.0
  C  C36  1  0.20392000  0.97938000  0.23254000  1.0
  C  C37  1  0.79605000  0.02064000  0.76747000  1.0
  C  C38  1  0.22582000  0.11290000  0.11106000  1.0
  C  C39  1  0.77415000  0.88710000  0.88895000  1.0
  C  C40  1  0.06237000  0.26104000  0.10605000  1.0
  C  C41  1  0.93761000  0.73898000  0.89395000  1.0
  C  C42  1  0.09141000  0.34972000  0.18582000  1.0
  C  C43  1  0.90858000  0.65029000  0.81418000  1.0
  C  C44  1  0.29903000  0.40030000  0.15331000  1.0
  C  C45  1  0.70097000  0.59971000  0.84668000  1.0
  C  C46  1  0.46391000  0.25394000  0.15397000  1.0
  C  C47  1  0.53607000  0.74605000  0.84604000  1.0
  C  C48  1  0.43151000  0.16390000  0.07591000  1.0
  C  C49  1  0.56847000  0.83609000  0.92410000  1.0
  C  C50  1  0.32001000  0.48175000  0.23855000  1.0
  C  C51  1  0.68000000  0.51827000  0.76143000  1.0
  C  C52  1  0.77349000  0.62780000  0.34011000  1.0
  C  C53  1  0.22654000  0.37217000  0.65990000  1.0
  C  C54  1  0.78019000  0.73835000  0.21370000  1.0
  C  C55  1  0.21982000  0.26163000  0.78632000  1.0
  O  O56  1  0.35806000  0.90847000  0.28356000  1.0
  O  O57  1  0.64191000  0.09151000  0.71643000  1.0
  O  O58  1  0.03422000  0.93553000  0.27836000  1.0
  O  O59  1  0.96570000  0.06457000  0.72165000  1.0
  O  O60  1  0.91979000  0.80539000  0.51669000  1.0
  O  O61  1  0.08026000  0.19459000  0.48332000  1.0
  O  O62  1  0.31518000  0.76502000  0.56794000  1.0
  O  O63  1  0.68484000  0.23496000  0.43206000  1.0
  O  O64  1  0.60777000  0.59203000  0.40246000  1.0
  O  O65  1  0.39225000  0.40795000  0.59754000  1.0
  O  O66  1  0.93273000  0.56406000  0.38758000  1.0
  O  O67  1  0.06728000  0.43592000  0.61242000  1.0
  O  O68  1  0.34229000  0.39394000  0.34834000  1.0
  O  O69  1  0.65773000  0.60607000  0.65164000  1.0
  O  O70  1  0.30816000  0.63406000  0.20511000  1.0
  O  O71  1  0.69185000  0.36595000  0.79488000  1.0
