# generated using pymatgen
data_CdH8C8(SN4)2
_symmetry_space_group_name_H-M   'P 1'
_cell_length_a   5.78345000
_cell_length_b   6.55631000
_cell_length_c   8.95381000
_cell_angle_alpha   105.40100000
_cell_angle_beta   95.41010000
_cell_angle_gamma   96.90890000
_symmetry_Int_Tables_number   1
_chemical_formula_structural   CdH8C8(SN4)2
_chemical_formula_sum   'Cd1 H8 C8 S2 N8'
_cell_volume   322.10446193
_cell_formula_units_Z   1
loop_
 _symmetry_equiv_pos_site_id
 _symmetry_equiv_pos_as_xyz
  1  'x, y, z'
loop_
 _atom_site_type_symbol
 _atom_site_label
 _atom_site_symmetry_multiplicity
 _atom_site_fract_x
 _atom_site_fract_y
 _atom_site_fract_z
 _atom_site_occupancy
  Cd  Cd0  1  0.00002000  0.00000000  0.00000000  1.0
  H  H1  1  0.55963000  0.98190000  0.67475000  1.0
  H  H2  1  0.44034000  0.01808000  0.32525000  1.0
  H  H3  1  0.25167000  0.31557000  0.78167000  1.0
  H  H4  1  0.74830000  0.68444000  0.21832000  1.0
  H  H5  1  0.06502000  0.30655000  0.38011000  1.0
  H  H6  1  0.93496000  0.69345000  0.61989000  1.0
  H  H7  1  0.25351000  0.47139000  0.54996000  1.0
  H  H8  1  0.74646000  0.52861000  0.45003000  1.0
  C  C9  1  0.72194000  0.08132000  0.67064000  1.0
  C  C10  1  0.27809000  0.91871000  0.32935000  1.0
  C  C11  1  0.07309000  0.24840000  0.72732000  1.0
  C  C12  1  0.92691000  0.75160000  0.27269000  1.0
  C  C13  1  0.07024000  0.40812000  0.49990000  1.0
  C  C14  1  0.92974000  0.59188000  0.50009000  1.0
  C  C15  1  0.44905000  0.73968000  0.87567000  1.0
  C  C16  1  0.55100000  0.26032000  0.12433000  1.0
  S  S17  1  0.68645000  0.62860000  0.87410000  1.0
  S  S18  1  0.31360000  0.37138000  0.12589000  1.0
  N  N19  1  0.97290000  0.27927000  0.59489000  1.0
  N  N20  1  0.02707000  0.72072000  0.40511000  1.0
  N  N21  1  0.74821000  0.17351000  0.55664000  1.0
  N  N22  1  0.25177000  0.82647000  0.44337000  1.0
  N  N23  1  0.91820000  0.12280000  0.77810000  1.0
  N  N24  1  0.08177000  0.87719000  0.22191000  1.0
  N  N25  1  0.27441000  0.81676000  0.87178000  1.0
  N  N26  1  0.72567000  0.18326000  0.12824000  1.0
