# generated using pymatgen
data_TlH3C5SO3
_symmetry_space_group_name_H-M   'P 1'
_cell_length_a   6.18265000
_cell_length_b   9.91313000
_cell_length_c   10.99310000
_cell_angle_alpha   84.07200000
_cell_angle_beta   89.99910000
_cell_angle_gamma   89.99950000
_symmetry_Int_Tables_number   1
_chemical_formula_structural   TlH3C5SO3
_chemical_formula_sum   'Tl4 H12 C20 S4 O12'
_cell_volume   670.15768906
_cell_formula_units_Z   4
loop_
 _symmetry_equiv_pos_site_id
 _symmetry_equiv_pos_as_xyz
  1  'x, y, z'
loop_
 _atom_site_type_symbol
 _atom_site_label
 _atom_site_symmetry_multiplicity
 _atom_site_fract_x
 _atom_site_fract_y
 _atom_site_fract_z
 _atom_site_occupancy
  Tl  Tl0  1  0.02921000  0.33475000  0.90878000  1.0
  Tl  Tl1  1  0.52921000  0.16525000  0.09122000  1.0
  Tl  Tl2  1  0.97079000  0.66525000  0.09122000  1.0
  Tl  Tl3  1  0.47079000  0.83475000  0.90878000  1.0
  H  H4  1  0.11704000  0.35347000  0.30208000  1.0
  H  H5  1  0.61705000  0.14653000  0.69793000  1.0
  H  H6  1  0.88296000  0.64652000  0.69792000  1.0
  H  H7  1  0.38296000  0.85347000  0.30207000  1.0
  H  H8  1  0.01818000  0.29324000  0.52081000  1.0
  H  H9  1  0.51818000  0.20676000  0.47919000  1.0
  H  H10  1  0.98182000  0.70676000  0.47919000  1.0
  H  H11  1  0.48182000  0.79324000  0.52081000  1.0
  H  H12  1  0.24814000  0.36650000  0.68466000  1.0
  H  H13  1  0.74815000  0.13351000  0.31534000  1.0
  H  H14  1  0.75185000  0.63350000  0.31534000  1.0
  H  H15  1  0.25186000  0.86650000  0.68466000  1.0
  C  C16  1  0.39607000  0.46831000  0.34463000  1.0
  C  C17  1  0.89608000  0.03169000  0.65537000  1.0
  C  C18  1  0.60393000  0.53169000  0.65537000  1.0
  C  C19  1  0.10393000  0.96831000  0.34463000  1.0
  C  C20  1  0.21462000  0.39032000  0.37431000  1.0
  C  C21  1  0.71462000  0.10968000  0.62569000  1.0
  C  C22  1  0.78538000  0.60967000  0.62569000  1.0
  C  C23  1  0.28538000  0.89031000  0.37430000  1.0
  C  C24  1  0.16006000  0.35581000  0.49820000  1.0
  C  C25  1  0.66007000  0.14419000  0.50180000  1.0
  C  C26  1  0.83993000  0.64419000  0.50180000  1.0
  C  C27  1  0.33993000  0.85581000  0.49819000  1.0
  C  C28  1  0.28639000  0.39889000  0.58971000  1.0
  C  C29  1  0.78639000  0.10111000  0.41029000  1.0
  C  C30  1  0.71361000  0.60110000  0.41028000  1.0
  C  C31  1  0.21361000  0.89889000  0.58971000  1.0
  C  C32  1  0.47111000  0.48183000  0.56304000  1.0
  C  C33  1  0.97112000  0.01817000  0.43696000  1.0
  C  C34  1  0.52889000  0.51816000  0.43696000  1.0
  C  C35  1  0.02889000  0.98183000  0.56305000  1.0
  S  S36  1  0.46897000  0.49680000  0.18620000  1.0
  S  S37  1  0.96897000  0.00321000  0.81380000  1.0
  S  S38  1  0.53103000  0.50320000  0.81380000  1.0
  S  S39  1  0.03104000  0.99680000  0.18621000  1.0
  O  O40  1  0.47977000  0.64518000  0.15465000  1.0
  O  O41  1  0.97977000  0.85482000  0.84535000  1.0
  O  O42  1  0.52022000  0.35482000  0.84535000  1.0
  O  O43  1  0.02025000  0.14518000  0.15465000  1.0
  O  O44  1  0.68046000  0.42932000  0.17652000  1.0
  O  O45  1  0.18046000  0.07068000  0.82347000  1.0
  O  O46  1  0.31954000  0.57068000  0.82348000  1.0
  O  O47  1  0.81954000  0.92932000  0.17653000  1.0
  O  O48  1  0.29595000  0.43292000  0.11972000  1.0
  O  O49  1  0.79595000  0.06708000  0.88028000  1.0
  O  O50  1  0.70405000  0.56708000  0.88028000  1.0
  O  O51  1  0.20406000  0.93292000  0.11972000  1.0
