# generated using pymatgen
data_ZnH19C27NO4
_symmetry_space_group_name_H-M   'P 1'
_cell_length_a   13.82110000
_cell_length_b   15.31500000
_cell_length_c   17.33120000
_cell_angle_alpha   89.26960000
_cell_angle_beta   82.62360000
_cell_angle_gamma   89.47910000
_symmetry_Int_Tables_number   1
_chemical_formula_structural   ZnH19C27NO4
_chemical_formula_sum   'Zn2 H38 C54 N2 O8'
_cell_volume   3637.73922538
_cell_formula_units_Z   2
loop_
 _symmetry_equiv_pos_site_id
 _symmetry_equiv_pos_as_xyz
  1  'x, y, z'
loop_
 _atom_site_type_symbol
 _atom_site_label
 _atom_site_symmetry_multiplicity
 _atom_site_fract_x
 _atom_site_fract_y
 _atom_site_fract_z
 _atom_site_occupancy
  Zn  Zn0  1  0.39808000  0.49656000  0.50199000  1.0
  Zn  Zn1  1  0.59877000  0.49642000  0.49601000  1.0
  H  H2  1  0.23582000  0.39230000  0.57797000  1.0
  H  H3  1  0.76072000  0.60007000  0.42361000  1.0
  H  H4  1  0.25841000  0.59757000  0.41953000  1.0
  H  H5  1  0.73779000  0.39364000  0.58084000  1.0
  H  H6  1  0.10658000  0.66543000  0.37056000  1.0
  H  H7  1  0.88960000  0.32803000  0.63263000  1.0
  H  H8  1  0.92671000  0.66666667  0.37250000  1.0
  H  H9  1  0.06922000  0.32702000  0.63089000  1.0
  H  H10  1  0.63623000  0.61261000  0.25961000  1.0
  H  H11  1  0.33710000  0.45740000  0.75833000  1.0
  H  H12  1  0.58460000  0.61612000  0.99150000  1.0
  H  H13  1  0.38701000  0.52212000  0.01088000  1.0
  H  H14  1  0.32674000  0.47293000  0.90249000  1.0
  H  H15  1  0.63291000  0.65354000  0.12024000  1.0
  H  H16  1  0.42671000  0.44776000  0.10297000  1.0
  H  H17  1  0.56087000  0.65796000  0.86895000  1.0
  H  H18  1  0.34385000  0.21846000  0.52774000  1.0
  H  H19  1  0.65622000  0.77468000  0.46703000  1.0
  H  H20  1  0.65591000  0.21788000  0.47856000  1.0
  H  H21  1  0.34447000  0.77552000  0.51744000  1.0
  H  H22  1  0.74772000  0.07677000  0.45843000  1.0
  H  H23  1  0.25260000  0.91651000  0.53618000  1.0
  H  H24  1  0.74782000  0.91535000  0.45407000  1.0
  H  H25  1  0.25230000  0.07803000  0.54016000  1.0
  H  H26  1  0.75478000  0.75934000  0.65846000  1.0
  H  H27  1  0.64938000  0.81691000  0.63689000  1.0
  H  H28  1  0.71714000  0.85622000  0.70957000  1.0
  H  H29  1  0.56457000  0.78104000  0.77138000  1.0
  H  H30  1  0.67014000  0.72558000  0.79348000  1.0
  H  H31  1  0.65512000  0.61842000  0.68745000  1.0
  H  H32  1  0.55757000  0.67734000  0.65865000  1.0
  H  H33  1  0.36381000  0.24973000  0.35602000  1.0
  H  H34  1  0.36770000  0.20687000  0.26076000  1.0
  H  H35  1  0.45907000  0.17713000  0.31986000  1.0
  H  H36  1  0.52426000  0.28969000  0.21944000  1.0
  H  H37  1  0.52023000  0.33067000  0.31425000  1.0
  H  H38  1  0.36089000  0.40564000  0.30044000  1.0
  H  H39  1  0.36525000  0.36438000  0.20485000  1.0
  C  C40  1  0.50061000  0.66889000  0.49032000  1.0
  C  C41  1  0.49882000  0.32477000  0.50581000  1.0
  C  C42  1  0.41177000  0.18139000  0.51671000  1.0
  C  C43  1  0.58846000  0.81198000  0.47831000  1.0
  C  C44  1  0.49986000  0.22680000  0.50415000  1.0
  C  C45  1  0.50029000  0.76676000  0.49147000  1.0
  C  C46  1  0.58819000  0.18111000  0.48867000  1.0
  C  C47  1  0.41203000  0.81246000  0.50694000  1.0
  C  C48  1  0.59011000  0.08963000  0.48529000  1.0
  C  C49  1  0.41015000  0.90389000  0.50971000  1.0
  C  C50  1  0.50010000  0.04308000  0.49871000  1.0
  C  C51  1  0.50017000  0.95038000  0.49608000  1.0
  C  C52  1  0.40997000  0.09000000  0.51475000  1.0
  C  C53  1  0.59029000  0.90342000  0.48000000  1.0
  C  C54  1  0.67935000  0.04081000  0.46894000  1.0
  C  C55  1  0.32084000  0.95263000  0.52576000  1.0
  C  C56  1  0.67942000  0.95172000  0.46648000  1.0
  C  C57  1  0.32075000  0.04170000  0.52803000  1.0
  C  C58  1  0.19587000  0.43721000  0.54401000  1.0
  C  C59  1  0.80056000  0.55520000  0.45769000  1.0
  C  C60  1  0.20869000  0.55318000  0.45445000  1.0
  C  C61  1  0.78743000  0.43880000  0.54680000  1.0
  C  C62  1  0.46898000  0.51982000  0.64937000  1.0
  C  C63  1  0.52492000  0.49853000  0.34650000  1.0
  C  C64  1  0.10754000  0.55715000  0.45314000  1.0
  C  C65  1  0.88845000  0.43571000  0.54932000  1.0
  C  C66  1  0.04934000  0.49622000  0.50087000  1.0
  C  C67  1  0.94677000  0.49685000  0.50189000  1.0
  C  C68  1  0.09408000  0.43457000  0.54747000  1.0
  C  C69  1  0.90219000  0.55847000  0.45516000  1.0
  C  C70  1  0.06111000  0.61902000  0.40679000  1.0
  C  C71  1  0.93496000  0.37432000  0.59619000  1.0
  C  C72  1  0.96203000  0.61972000  0.40786000  1.0
  C  C73  1  0.03406000  0.37375000  0.59523000  1.0
  C  C74  1  0.45916000  0.54307000  0.73359000  1.0
  C  C75  1  0.52882000  0.51202000  0.26041000  1.0
  C  C76  1  0.52131000  0.60360000  0.76385000  1.0
  C  C77  1  0.46924000  0.46396000  0.21593000  1.0
  C  C78  1  0.51364000  0.61194000  0.84455000  1.0
  C  C79  1  0.46993000  0.48690000  0.13786000  1.0
  C  C80  1  0.44782000  0.56222000  0.89587000  1.0
  C  C81  1  0.52542000  0.55654000  0.10200000  1.0
  C  C82  1  0.38088000  0.50935000  0.86373000  1.0
  C  C83  1  0.58729000  0.60054000  0.14670000  1.0
  C  C84  1  0.38685000  0.50012000  0.78372000  1.0
  C  C85  1  0.58906000  0.57794000  0.22461000  1.0
  C  C86  1  0.44951000  0.55642000  0.97952000  1.0
  C  C87  1  0.52201000  0.57989000  0.02046000  1.0
  C  C88  1  0.59200000  0.65909000  0.71047000  1.0
  C  C89  1  0.62773000  0.74210000  0.74557000  1.0
  C  C90  1  0.69069000  0.79683000  0.68442000  1.0
  C  C91  1  0.41056000  0.38624000  0.24867000  1.0
  C  C92  1  0.47395000  0.30919000  0.27101000  1.0
  C  C93  1  0.41285000  0.23137000  0.30359000  1.0
  N  N94  1  0.25012000  0.49497000  0.49882000  1.0
  N  N95  1  0.74623000  0.49672000  0.50193000  1.0
  O  O96  1  0.41807000  0.63119000  0.49769000  1.0
  O  O97  1  0.58060000  0.36310000  0.50467000  1.0
  O  O98  1  0.58361000  0.63094000  0.48300000  1.0
  O  O99  1  0.41605000  0.36244000  0.50755000  1.0
  O  O100  1  0.39084000  0.50372000  0.62037000  1.0
  O  O101  1  0.60462000  0.49412000  0.37585000  1.0
  O  O102  1  0.55512000  0.51528000  0.61291000  1.0
  O  O103  1  0.43954000  0.49531000  0.38455000  1.0
