# generated using pymatgen
data_ZnH24C44(NF)6
_symmetry_space_group_name_H-M   'P 1'
_cell_length_a   9.17392000
_cell_length_b   19.43020000
_cell_length_c   19.43060000
_cell_angle_alpha   117.57000000
_cell_angle_beta   99.05180000
_cell_angle_gamma   99.05550000
_symmetry_Int_Tables_number   1
_chemical_formula_structural   ZnH24C44(NF)6
_chemical_formula_sum   'Zn3 H72 C132 N18 F18'
_cell_volume   2925.27820136
_cell_formula_units_Z   3
loop_
 _symmetry_equiv_pos_site_id
 _symmetry_equiv_pos_as_xyz
  1  'x, y, z'
loop_
 _atom_site_type_symbol
 _atom_site_label
 _atom_site_symmetry_multiplicity
 _atom_site_fract_x
 _atom_site_fract_y
 _atom_site_fract_z
 _atom_site_occupancy
  Zn  Zn0  1  0.00000000  0.50000000  0.00000000  1.0
  Zn  Zn1  1  0.50000000  0.50000000  0.50000000  1.0
  Zn  Zn2  1  0.00000000  0.00000000  0.50000000  1.0
  H  H3  1  0.68021000  0.34831000  0.11869000  1.0
  H  H4  1  0.33193000  0.77038000  0.65169000  1.0
  H  H5  1  0.56149000  0.88128000  0.22960000  1.0
  H  H6  1  0.31979000  0.65169000  0.88131000  1.0
  H  H7  1  0.66807000  0.22962000  0.34831000  1.0
  H  H8  1  0.43851000  0.11872000  0.77040000  1.0
  H  H9  1  0.96574000  0.40481000  0.21355000  1.0
  H  H10  1  0.56090000  0.80878000  0.59518000  1.0
  H  H11  1  0.75214000  0.78644000  0.19127000  1.0
  H  H12  1  0.03426000  0.59519000  0.78645000  1.0
  H  H13  1  0.43910000  0.19122000  0.40482000  1.0
  H  H14  1  0.24786000  0.21356000  0.80873000  1.0
  H  H15  1  0.49103000  0.58488000  0.23410000  1.0
  H  H16  1  0.90615000  0.64924000  0.41513000  1.0
  H  H17  1  0.25686000  0.76589000  0.35079000  1.0
  H  H18  1  0.50897000  0.41512000  0.76590000  1.0
  H  H19  1  0.09385000  0.35076000  0.58486000  1.0
  H  H20  1  0.74314000  0.23411000  0.64921000  1.0
  H  H21  1  0.58622000  0.65130000  0.14901000  1.0
  H  H22  1  0.93491000  0.49774000  0.34871000  1.0
  H  H23  1  0.43725000  0.85098000  0.50228000  1.0
  H  H24  1  0.41378000  0.34870000  0.85099000  1.0
  H  H25  1  0.06509000  0.50226000  0.65129000  1.0
  H  H26  1  0.56275000  0.14902000  0.49772000  1.0
  H  H27  1  0.37280000  0.40690000  0.18525000  1.0
  H  H28  1  0.96589000  0.77835000  0.59302000  1.0
  H  H29  1  0.18745000  0.81469000  0.22163000  1.0
  H  H30  1  0.62720000  0.59310000  0.81475000  1.0
  H  H31  1  0.03410000  0.22165000  0.40698000  1.0
  H  H32  1  0.81255000  0.18531000  0.77837000  1.0
  H  H33  1  0.25022000  0.57575000  0.43809000  1.0
  H  H34  1  0.67442000  0.86238000  0.42423000  1.0
  H  H35  1  0.81205000  0.56188000  0.13767000  1.0
  H  H36  1  0.74978000  0.42425000  0.56191000  1.0
  H  H37  1  0.32558000  0.13762000  0.57577000  1.0
  H  H38  1  0.18795000  0.43812000  0.86233000  1.0
  H  H39  1  0.47340000  0.40762000  0.31316000  1.0
  H  H40  1  0.06576000  0.90555000  0.59232000  1.0
  H  H41  1  0.16011000  0.68681000  0.09444000  1.0
  H  H42  1  0.52660000  0.59237000  0.68684000  1.0
  H  H43  1  0.93424000  0.09445000  0.40768000  1.0
  H  H44  1  0.83989000  0.31319000  0.90556000  1.0
  H  H45  1  0.13680000  0.58087000  0.31485000  1.0
  H  H46  1  0.55592000  0.73398000  0.41911000  1.0
  H  H47  1  0.82192000  0.68513000  0.26605000  1.0
  H  H48  1  0.86321000  0.41913000  0.68515000  1.0
  H  H49  1  0.44408000  0.26602000  0.58089000  1.0
  H  H50  1  0.17808000  0.31487000  0.73395000  1.0
  H  H51  1  0.58456000  0.23132000  0.95633000  1.0
  H  H52  1  0.35336000  0.72510000  0.76875000  1.0
  H  H53  1  0.62820000  0.04362000  0.27493000  1.0
  H  H54  1  0.41544000  0.76868000  0.04367000  1.0
  H  H55  1  0.64664000  0.27491000  0.23125000  1.0
  H  H56  1  0.37180000  0.95638000  0.72507000  1.0
  H  H57  1  0.33676000  0.14969000  0.94713000  1.0
  H  H58  1  0.18707000  0.79749000  0.85033000  1.0
  H  H59  1  0.38953000  0.05281000  0.20249000  1.0
  H  H60  1  0.66324000  0.85031000  0.05287000  1.0
  H  H61  1  0.81293000  0.20251000  0.14967000  1.0
  H  H62  1  0.61047000  0.94719000  0.79751000  1.0
  H  H63  1  0.14904000  0.35410000  0.00771000  1.0
  H  H64  1  0.79503000  0.65361000  0.64589000  1.0
  H  H65  1  0.14123000  0.99228000  0.34638000  1.0
  H  H66  1  0.85097000  0.64590000  0.99229000  1.0
  H  H67  1  0.20497000  0.34639000  0.35411000  1.0
  H  H68  1  0.85877000  0.00772000  0.65362000  1.0
  H  H69  1  0.39375000  0.43414000  0.01429000  1.0
  H  H70  1  0.95975000  0.58015000  0.56591000  1.0
  H  H71  1  0.37942000  0.98576000  0.41986000  1.0
  H  H72  1  0.60625000  0.56586000  0.98571000  1.0
  H  H73  1  0.04025000  0.41985000  0.43409000  1.0
  H  H74  1  0.62058000  0.01424000  0.58014000  1.0
  C  C75  1  0.78273000  0.40200000  0.05000000  1.0
  C  C76  1  0.38081000  0.64802000  0.59802000  1.0
  C  C77  1  0.73258000  0.94997000  0.35199000  1.0
  C  C78  1  0.21727000  0.59800000  0.95000000  1.0
  C  C79  1  0.61919000  0.35197000  0.40198000  1.0
  C  C80  1  0.26742000  0.05003000  0.64800000  1.0
  C  C81  1  0.78009000  0.38085000  0.11242000  1.0
  C  C82  1  0.39925000  0.73159000  0.61917000  1.0
  C  C83  1  0.66761000  0.88755000  0.26841000  1.0
  C  C84  1  0.21991000  0.61915000  0.88757000  1.0
  C  C85  1  0.60075000  0.26841000  0.38083000  1.0
  C  C86  1  0.33239000  0.11245000  0.73159000  1.0
  C  C87  1  0.92545000  0.41052000  0.16136000  1.0
  C  C88  1  0.51489000  0.75087000  0.58947000  1.0
  C  C89  1  0.76405000  0.83861000  0.24917000  1.0
  C  C90  1  0.07455000  0.58948000  0.83864000  1.0
  C  C91  1  0.48511000  0.24913000  0.41053000  1.0
  C  C92  1  0.23595000  0.16139000  0.75083000  1.0
  C  C93  1  0.01797000  0.45007000  0.12927000  1.0
  C  C94  1  0.56795000  0.67924000  0.54991000  1.0
  C  C95  1  0.88867000  0.87072000  0.32081000  1.0
  C  C96  1  0.98203000  0.54993000  0.87073000  1.0
  C  C97  1  0.43205000  0.32076000  0.45008000  1.0
  C  C98  1  0.11134000  0.12928000  0.67919000  1.0
  C  C99  1  0.17451000  0.49109000  0.16403000  1.0
  C  C100  1  0.68352000  0.67297000  0.50892000  1.0
  C  C101  1  0.01051000  0.83598000  0.32709000  1.0
  C  C102  1  0.82550000  0.50891000  0.83597000  1.0
  C  C103  1  0.31648000  0.32703000  0.49108000  1.0
  C  C104  1  0.98949000  0.16402000  0.67291000  1.0
  C  C105  1  0.26957000  0.53110000  0.13607000  1.0
  C  C106  1  0.73853000  0.60499000  0.46892000  1.0
  C  C107  1  0.13352000  0.86394000  0.39506000  1.0
  C  C108  1  0.73043000  0.46890000  0.86393000  1.0
  C  C109  1  0.26147000  0.39501000  0.53108000  1.0
  C  C110  1  0.86648000  0.13606000  0.60494000  1.0
  C  C111  1  0.42695000  0.57776000  0.17816000  1.0
  C  C112  1  0.84923000  0.60043000  0.42227000  1.0
  C  C113  1  0.24876000  0.82183000  0.39960000  1.0
  C  C114  1  0.57305000  0.42224000  0.82184000  1.0
  C  C115  1  0.15077000  0.39957000  0.57773000  1.0
  C  C116  1  0.75124000  0.17817000  0.60041000  1.0
  C  C117  1  0.47565000  0.61110000  0.13460000  1.0
  C  C118  1  0.86460000  0.52353000  0.38892000  1.0
  C  C119  1  0.34112000  0.86540000  0.47648000  1.0
  C  C120  1  0.52435000  0.38890000  0.86540000  1.0
  C  C121  1  0.13540000  0.47647000  0.61108000  1.0
  C  C122  1  0.65888000  0.13460000  0.52352000  1.0
  C  C123  1  0.34812000  0.58532000  0.06589000  1.0
  C  C124  1  0.76283000  0.48056000  0.41468000  1.0
  C  C125  1  0.28238000  0.93415000  0.51946000  1.0
  C  C126  1  0.65188000  0.41468000  0.93411000  1.0
  C  C127  1  0.23717000  0.51944000  0.58532000  1.0
  C  C128  1  0.71762000  0.06585000  0.48054000  1.0
  C  C129  1  0.65315000  0.38729000  0.99015000  1.0
  C  C130  1  0.26595000  0.60288000  0.61273000  1.0
  C  C131  1  0.66284000  0.00982000  0.39712000  1.0
  C  C132  1  0.34685000  0.61271000  0.00985000  1.0
  C  C133  1  0.73404000  0.39712000  0.38727000  1.0
  C  C134  1  0.33716000  0.99018000  0.60288000  1.0
  C  C135  1  0.24516000  0.49348000  0.23974000  1.0
  C  C136  1  0.75175000  0.74625000  0.50644000  1.0
  C  C137  1  0.00545000  0.76021000  0.25378000  1.0
  C  C138  1  0.75484000  0.50652000  0.76026000  1.0
  C  C139  1  0.24825000  0.25375000  0.49356000  1.0
  C  C140  1  0.99455000  0.23979000  0.74622000  1.0
  C  C141  1  0.34404000  0.44570000  0.24031000  1.0
  C  C142  1  0.89837000  0.79462000  0.55421000  1.0
  C  C143  1  0.10361000  0.75964000  0.20537000  1.0
  C  C144  1  0.65596000  0.55430000  0.75969000  1.0
  C  C145  1  0.10163000  0.20538000  0.44579000  1.0
  C  C146  1  0.89639000  0.24036000  0.79463000  1.0
  C  C147  1  0.27407000  0.53888000  0.38068000  1.0
  C  C148  1  0.73520000  0.84181000  0.46105000  1.0
  C  C149  1  0.89333000  0.61928000  0.15821000  1.0
  C  C150  1  0.72593000  0.46112000  0.61932000  1.0
  C  C151  1  0.26480000  0.15819000  0.53894000  1.0
  C  C152  1  0.10667000  0.38072000  0.84179000  1.0
  C  C153  1  0.39967000  0.44594000  0.31130000  1.0
  C  C154  1  0.95374000  0.86538000  0.55399000  1.0
  C  C155  1  0.08826000  0.68867000  0.13463000  1.0
  C  C156  1  0.60033000  0.55406000  0.68870000  1.0
  C  C157  1  0.04626000  0.13462000  0.44601000  1.0
  C  C158  1  0.91174000  0.31133000  0.86537000  1.0
  C  C159  1  0.21156000  0.54177000  0.31226000  1.0
  C  C160  1  0.66985000  0.77048000  0.45816000  1.0
  C  C161  1  0.89929000  0.68772000  0.22954000  1.0
  C  C162  1  0.78844000  0.45823000  0.68774000  1.0
  C  C163  1  0.33014000  0.22952000  0.54184000  1.0
  C  C164  1  0.10071000  0.31228000  0.77046000  1.0
  C  C165  1  0.50592000  0.33823000  0.98534000  1.0
  C  C166  1  0.16786000  0.64713000  0.66182000  1.0
  C  C167  1  0.52050000  0.01465000  0.35287000  1.0
  C  C168  1  0.49408000  0.66177000  0.01466000  1.0
  C  C169  1  0.83214000  0.35287000  0.33818000  1.0
  C  C170  1  0.47950000  0.98534000  0.64713000  1.0
  C  C171  1  0.48857000  0.25800000  0.96733000  1.0
  C  C172  1  0.23065000  0.70939000  0.74204000  1.0
  C  C173  1  0.52118000  0.03261000  0.29061000  1.0
  C  C174  1  0.51143000  0.74200000  0.03266000  1.0
  C  C175  1  0.76935000  0.29061000  0.25796000  1.0
  C  C176  1  0.47882000  0.96739000  0.70939000  1.0
  C  C177  1  0.35008000  0.21223000  0.96243000  1.0
  C  C178  1  0.13790000  0.75024000  0.78779000  1.0
  C  C179  1  0.38754000  0.03751000  0.24975000  1.0
  C  C180  1  0.64992000  0.78777000  0.03757000  1.0
  C  C181  1  0.86210000  0.24976000  0.21221000  1.0
  C  C182  1  0.61246000  0.96249000  0.75025000  1.0
  C  C183  1  0.22721000  0.24675000  0.97661000  1.0
  C  C184  1  0.98051000  0.72990000  0.75325000  1.0
  C  C185  1  0.25050000  0.02335000  0.27010000  1.0
  C  C186  1  0.77279000  0.75325000  0.02339000  1.0
  C  C187  1  0.01948000  0.27010000  0.24675000  1.0
  C  C188  1  0.74950000  0.97665000  0.72990000  1.0
  C  C189  1  0.07488000  0.19651000  0.96687000  1.0
  C  C190  1  0.87837000  0.77036000  0.80347000  1.0
  C  C191  1  0.10799000  0.03309000  0.22961000  1.0
  C  C192  1  0.92512000  0.80349000  0.03313000  1.0
  C  C193  1  0.12163000  0.22964000  0.19653000  1.0
  C  C194  1  0.89201000  0.96691000  0.77039000  1.0
  C  C195  1  0.24348000  0.32673000  0.99560000  1.0
  C  C196  1  0.91687000  0.66888000  0.67328000  1.0
  C  C197  1  0.24780000  0.00441000  0.33113000  1.0
  C  C198  1  0.75652000  0.67328000  0.00440000  1.0
  C  C199  1  0.08313000  0.33112000  0.32672000  1.0
  C  C200  1  0.75220000  0.99559000  0.66887000  1.0
  C  C201  1  0.38156000  0.37177000  0.99932000  1.0
  C  C202  1  0.00997000  0.62755000  0.62826000  1.0
  C  C203  1  0.38220000  0.00073000  0.37247000  1.0
  C  C204  1  0.61844000  0.62823000  0.00068000  1.0
  C  C205  1  0.99003000  0.37245000  0.37174000  1.0
  C  C206  1  0.61781000  0.99927000  0.62753000  1.0
  N  N207  1  0.92909000  0.44249000  0.06110000  1.0
  N  N208  1  0.48668000  0.61866000  0.55752000  1.0
  N  N209  1  0.86788000  0.93888000  0.38138000  1.0
  N  N210  1  0.07091000  0.55751000  0.93890000  1.0
  N  N211  1  0.51332000  0.38134000  0.44248000  1.0
  N  N212  1  0.13212000  0.06112000  0.61862000  1.0
  N  N213  1  0.22633000  0.53571000  0.06776000  1.0
  N  N214  1  0.69068000  0.53207000  0.46432000  1.0
  N  N215  1  0.15868000  0.93228000  0.46799000  1.0
  N  N216  1  0.77367000  0.46429000  0.93224000  1.0
  N  N217  1  0.30932000  0.46793000  0.53568000  1.0
  N  N218  1  0.84132000  0.06772000  0.53202000  1.0
  N  N219  1  0.36527000  0.49115000  0.38035000  1.0
  N  N220  1  0.87410000  0.88921000  0.50879000  1.0
  N  N221  1  0.98481000  0.61962000  0.11080000  1.0
  N  N222  1  0.63473000  0.50885000  0.61965000  1.0
  N  N223  1  0.12590000  0.11079000  0.49121000  1.0
  N  N224  1  0.01519000  0.38038000  0.88920000  1.0
  F  F225  1  0.08847000  0.13786000  0.98533000  1.0
  F  F226  1  0.95057000  0.84746000  0.86211000  1.0
  F  F227  1  0.10316000  0.01467000  0.15253000  1.0
  F  F228  1  0.91152000  0.86214000  0.01467000  1.0
  F  F229  1  0.04943000  0.15254000  0.13789000  1.0
  F  F230  1  0.89684000  0.98533000  0.84747000  1.0
  F  F231  1  0.98614000  0.15821000  0.88860000  1.0
  F  F232  1  0.82799000  0.73038000  0.84178000  1.0
  F  F233  1  0.09753000  0.11137000  0.26962000  1.0
  F  F234  1  0.01386000  0.84179000  0.11140000  1.0
  F  F235  1  0.17201000  0.26962000  0.15822000  1.0
  F  F236  1  0.90247000  0.88862000  0.73038000  1.0
  F  F237  1  0.98996000  0.24112000  0.01284000  1.0
  F  F238  1  0.74886000  0.77168000  0.75886000  1.0
  F  F239  1  0.97710000  0.98711000  0.22824000  1.0
  F  F240  1  0.01004000  0.75888000  0.98716000  1.0
  F  F241  1  0.25114000  0.22832000  0.24114000  1.0
  F  F242  1  0.02290000  0.01289000  0.77175000  1.0
