# generated using pymatgen
data_CdH16(C2N)6
_symmetry_space_group_name_H-M   'P 1'
_cell_length_a   9.42096000
_cell_length_b   10.19470000
_cell_length_c   16.97440000
_cell_angle_alpha   89.99940000
_cell_angle_beta   89.99970000
_cell_angle_gamma   89.99920000
_symmetry_Int_Tables_number   1
_chemical_formula_structural   CdH16(C2N)6
_chemical_formula_sum   'Cd4 H64 C48 N24'
_cell_volume   1630.28691239
_cell_formula_units_Z   4
loop_
 _symmetry_equiv_pos_site_id
 _symmetry_equiv_pos_as_xyz
  1  'x, y, z'
loop_
 _atom_site_type_symbol
 _atom_site_label
 _atom_site_symmetry_multiplicity
 _atom_site_fract_x
 _atom_site_fract_y
 _atom_site_fract_z
 _atom_site_occupancy
  Cd  Cd0  1  0.17803000  0.49152000  0.37105000  1.0
  Cd  Cd1  1  0.67803000  0.00848000  0.87106000  1.0
  Cd  Cd2  1  0.17803000  0.99152000  0.12895000  1.0
  Cd  Cd3  1  0.67803000  0.50848000  0.62894000  1.0
  H  H4  1  0.46015000  0.84634000  0.19404000  1.0
  H  H5  1  0.96013000  0.65366000  0.69403000  1.0
  H  H6  1  0.46015000  0.34634000  0.30597000  1.0
  H  H7  1  0.96015000  0.15366000  0.80597000  1.0
  H  H8  1  0.46570000  0.64594000  0.30508000  1.0
  H  H9  1  0.96569000  0.85405000  0.80506000  1.0
  H  H10  1  0.46570000  0.14593000  0.19493000  1.0
  H  H11  1  0.96570000  0.35406000  0.69493000  1.0
  H  H12  1  0.95524000  0.66496000  0.29054000  1.0
  H  H13  1  0.45522000  0.83504000  0.79053000  1.0
  H  H14  1  0.95524000  0.16496000  0.20947000  1.0
  H  H15  1  0.45524000  0.33504000  0.70946000  1.0
  H  H16  1  0.95338000  0.73535000  0.19429000  1.0
  H  H17  1  0.45337000  0.76465000  0.69429000  1.0
  H  H18  1  0.95338000  0.23535000  0.30571000  1.0
  H  H19  1  0.45338000  0.26465000  0.80571000  1.0
  H  H20  1  0.95459000  0.83742000  0.27878000  1.0
  H  H21  1  0.45458000  0.66259000  0.77878000  1.0
  H  H22  1  0.95459000  0.33741000  0.22122000  1.0
  H  H23  1  0.45459000  0.16259000  0.72122000  1.0
  H  H24  1  0.52902000  0.23663000  0.57071000  1.0
  H  H25  1  0.02902000  0.26337000  0.07071000  1.0
  H  H26  1  0.52901000  0.73663000  0.92929000  1.0
  H  H27  1  0.02902000  0.76337000  0.42929000  1.0
  H  H28  1  0.33396000  0.22926000  0.44802000  1.0
  H  H29  1  0.83395000  0.27074000  0.94801000  1.0
  H  H30  1  0.33396000  0.72926000  0.05199000  1.0
  H  H31  1  0.83396000  0.77074000  0.55199000  1.0
  H  H32  1  0.46108000  0.70593000  0.56130000  1.0
  H  H33  1  0.96108000  0.79407000  0.06131000  1.0
  H  H34  1  0.46109000  0.20592000  0.93869000  1.0
  H  H35  1  0.96108000  0.29408000  0.43869000  1.0
  H  H36  1  0.27784000  0.69052000  0.53609000  1.0
  H  H37  1  0.77784000  0.80948000  0.03610000  1.0
  H  H38  1  0.27784000  0.19052000  0.96390000  1.0
  H  H39  1  0.77784000  0.30949000  0.46390000  1.0
  H  H40  1  0.40776000  0.70627000  0.46159000  1.0
  H  H41  1  0.90776000  0.79372000  0.96160000  1.0
  H  H42  1  0.40776000  0.20627000  0.03841000  1.0
  H  H43  1  0.90776000  0.29373000  0.53840000  1.0
  H  H44  1  0.40081000  0.96533000  0.49038000  1.0
  H  H45  1  0.90081000  0.53467000  0.99038000  1.0
  H  H46  1  0.40081000  0.46533000  0.00963000  1.0
  H  H47  1  0.90081000  0.03467000  0.50963000  1.0
  H  H48  1  0.31559000  0.95569000  0.34491000  1.0
  H  H49  1  0.81559000  0.54431000  0.84491000  1.0
  H  H50  1  0.31559000  0.45569000  0.15509000  1.0
  H  H51  1  0.81558000  0.04431000  0.65509000  1.0
  H  H52  1  0.03068000  0.02462000  0.34955000  1.0
  H  H53  1  0.53069000  0.47537000  0.84955000  1.0
  H  H54  1  0.03068000  0.52463000  0.15045000  1.0
  H  H55  1  0.53068000  0.97538000  0.65045000  1.0
  H  H56  1  0.08858000  0.04029000  0.63095000  1.0
  H  H57  1  0.58858000  0.45972000  0.13095000  1.0
  H  H58  1  0.08858000  0.54028000  0.86905000  1.0
  H  H59  1  0.58858000  0.95972000  0.36905000  1.0
  H  H60  1  0.24201000  0.93838000  0.63234000  1.0
  H  H61  1  0.74201000  0.56162000  0.13234000  1.0
  H  H62  1  0.24202000  0.43838000  0.86766000  1.0
  H  H63  1  0.74201000  0.06162000  0.36766000  1.0
  H  H64  1  0.26035000  0.11118000  0.62105000  1.0
  H  H65  1  0.76035000  0.38882000  0.12105000  1.0
  H  H66  1  0.26035000  0.61118000  0.87896000  1.0
  H  H67  1  0.76035000  0.88882000  0.37896000  1.0
  C  C68  1  0.15470000  0.74483000  0.25344000  1.0
  C  C69  1  0.65468000  0.75517000  0.75344000  1.0
  C  C70  1  0.15469000  0.24483000  0.24656000  1.0
  C  C71  1  0.65469000  0.25517000  0.74656000  1.0
  C  C72  1  0.37373000  0.79633000  0.22384000  1.0
  C  C73  1  0.87373000  0.70364000  0.72383000  1.0
  C  C74  1  0.37372000  0.29633000  0.27616000  1.0
  C  C75  1  0.87373000  0.20366000  0.77616000  1.0
  C  C76  1  0.37623000  0.69646000  0.27846000  1.0
  C  C77  1  0.87623000  0.80355000  0.77846000  1.0
  C  C78  1  0.37623000  0.19646000  0.22155000  1.0
  C  C79  1  0.87623000  0.30354000  0.72155000  1.0
  C  C80  1  0.99640000  0.74530000  0.25419000  1.0
  C  C81  1  0.49639000  0.75470000  0.75419000  1.0
  C  C82  1  0.99640000  0.24530000  0.24581000  1.0
  C  C83  1  0.49640000  0.25470000  0.74581000  1.0
  C  C84  1  0.40236000  0.51661000  0.51677000  1.0
  C  C85  1  0.90236000  0.98339000  0.01677000  1.0
  C  C86  1  0.40236000  0.01660000  0.98323000  1.0
  C  C87  1  0.90236000  0.48340000  0.48323000  1.0
  C  C88  1  0.47060000  0.31545000  0.54248000  1.0
  C  C89  1  0.97059000  0.18455000  0.04248000  1.0
  C  C90  1  0.47059000  0.81545000  0.95752000  1.0
  C  C91  1  0.97060000  0.68455000  0.45752000  1.0
  C  C92  1  0.37465000  0.31170000  0.48144000  1.0
  C  C93  1  0.87464000  0.18830000  0.98145000  1.0
  C  C94  1  0.37464000  0.81170000  0.01855000  1.0
  C  C95  1  0.87465000  0.68830000  0.51855000  1.0
  C  C96  1  0.38648000  0.66189000  0.51939000  1.0
  C  C97  1  0.88648000  0.83811000  0.01940000  1.0
  C  C98  1  0.38648000  0.16189000  0.98061000  1.0
  C  C99  1  0.88648000  0.33812000  0.48061000  1.0
  C  C100  1  0.18317000  0.01232000  0.51812000  1.0
  C  C101  1  0.68317000  0.48768000  0.01812000  1.0
  C  C102  1  0.18318000  0.51231000  0.98188000  1.0
  C  C103  1  0.68317000  0.98769000  0.48188000  1.0
  C  C104  1  0.24697000  0.97983000  0.39408000  1.0
  C  C105  1  0.74697000  0.52017000  0.89408000  1.0
  C  C106  1  0.24698000  0.47982000  0.10592000  1.0
  C  C107  1  0.74697000  0.02018000  0.60592000  1.0
  C  C108  1  0.10578000  0.01396000  0.39749000  1.0
  C  C109  1  0.60578000  0.48604000  0.89749000  1.0
  C  C110  1  0.10577000  0.51396000  0.10251000  1.0
  C  C111  1  0.60577000  0.98605000  0.60251000  1.0
  C  C112  1  0.19425000  0.02597000  0.60530000  1.0
  C  C113  1  0.69425000  0.47403000  0.10530000  1.0
  C  C114  1  0.19425000  0.52596000  0.89470000  1.0
  C  C115  1  0.69425000  0.97404000  0.39470000  1.0
  N  N116  1  0.23765000  0.66448000  0.29699000  1.0
  N  N117  1  0.73764000  0.83551000  0.79698000  1.0
  N  N118  1  0.23765000  0.16448000  0.20301000  1.0
  N  N119  1  0.73765000  0.33552000  0.70301000  1.0
  N  N120  1  0.23337000  0.82623000  0.20836000  1.0
  N  N121  1  0.73335000  0.67377000  0.70836000  1.0
  N  N122  1  0.23336000  0.32623000  0.29164000  1.0
  N  N123  1  0.73336000  0.17377000  0.79164000  1.0
  N  N124  1  0.33250000  0.43879000  0.46550000  1.0
  N  N125  1  0.83249000  0.06121000  0.96550000  1.0
  N  N126  1  0.33249000  0.93879000  0.03450000  1.0
  N  N127  1  0.83249000  0.56122000  0.53450000  1.0
  N  N128  1  0.48708000  0.44546000  0.56492000  1.0
  N  N129  1  0.98707000  0.05454000  0.06492000  1.0
  N  N130  1  0.48707000  0.94546000  0.93508000  1.0
  N  N131  1  0.98708000  0.55454000  0.43508000  1.0
  N  N132  1  0.06675000  0.03415000  0.47502000  1.0
  N  N133  1  0.56675000  0.46585000  0.97502000  1.0
  N  N134  1  0.06675000  0.53415000  0.02498000  1.0
  N  N135  1  0.56675000  0.96585000  0.52498000  1.0
  N  N136  1  0.29385000  0.97872000  0.47087000  1.0
  N  N137  1  0.79385000  0.52128000  0.97087000  1.0
  N  N138  1  0.29385000  0.47872000  0.02913000  1.0
  N  N139  1  0.79385000  0.02128000  0.52913000  1.0
