# generated using pymatgen
data_ZnH22C19N4O5
_symmetry_space_group_name_H-M   'P 1'
_cell_length_a   9.72191000
_cell_length_b   9.87195000
_cell_length_c   11.76620000
_cell_angle_alpha   82.09920000
_cell_angle_beta   85.54410000
_cell_angle_gamma   84.54660000
_symmetry_Int_Tables_number   1
_chemical_formula_structural   ZnH22C19N4O5
_chemical_formula_sum   'Zn2 H44 C38 N8 O10'
_cell_volume   1111.07535919
_cell_formula_units_Z   2
loop_
 _symmetry_equiv_pos_site_id
 _symmetry_equiv_pos_as_xyz
  1  'x, y, z'
loop_
 _atom_site_type_symbol
 _atom_site_label
 _atom_site_symmetry_multiplicity
 _atom_site_fract_x
 _atom_site_fract_y
 _atom_site_fract_z
 _atom_site_occupancy
  Zn  Zn0  1  0.00664000  0.82822000  0.42528000  1.0
  Zn  Zn1  1  0.85049000  0.92131000  0.07611000  1.0
  H  H2  1  0.18375000  0.61381000  0.32704000  1.0
  H  H3  1  0.37269000  0.59111000  0.17351000  1.0
  H  H4  1  0.33156000  0.03243000  0.09333000  1.0
  H  H5  1  0.15491000  0.03719000  0.26050000  1.0
  H  H6  1  0.53067000  0.70123000  0.02785000  1.0
  H  H7  1  0.53843000  0.88108000  0.01219000  1.0
  H  H8  1  0.34330000  0.92220000  0.88854000  1.0
  H  H9  1  0.47433000  0.80821000  0.83230000  1.0
  H  H10  1  0.33913000  0.60798000  0.91677000  1.0
  H  H11  1  0.20851000  0.72571000  0.97256000  1.0
  H  H12  1  0.10817000  0.92977000  0.82180000  1.0
  H  H13  1  0.00670000  0.96703000  0.63070000  1.0
  H  H14  1  0.19338000  0.59727000  0.54353000  1.0
  H  H15  1  0.30694000  0.54488000  0.73105000  1.0
  H  H16  1  0.75697000  0.21021000  0.48720000  1.0
  H  H17  1  0.78763000  0.24353000  0.33825000  1.0
  H  H18  1  0.96543000  0.40300000  0.35881000  1.0
  H  H19  1  0.96049000  0.35354000  0.50868000  1.0
  H  H20  1  0.71741000  0.44471000  0.52994000  1.0
  H  H21  1  0.52344000  0.45052000  0.53711000  1.0
  H  H22  1  0.40000000  0.38392000  0.46685000  1.0
  H  H23  1  0.73443000  0.51395000  0.27309000  1.0
  H  H24  1  0.67166000  0.15132000  0.95627000  1.0
  H  H25  1  0.55810000  0.20588000  0.77462000  1.0
  H  H26  1  0.74801000  0.81916000  0.67699000  1.0
  H  H27  1  0.84858000  0.77638000  0.86969000  1.0
  H  H28  1  0.54440000  0.15532000  0.57817000  1.0
  H  H29  1  0.65676000  0.02049000  0.52703000  1.0
  H  H30  1  0.37696000  0.97972000  0.66238000  1.0
  H  H31  1  0.49000000  0.85109000  0.60512000  1.0
  H  H32  1  0.30110000  0.93057000  0.47627000  1.0
  H  H33  1  0.33734000  0.10228000  0.46851000  1.0
  H  H34  1  0.51432000  0.75544000  0.41142000  1.0
  H  H35  1  0.69151000  0.73410000  0.24826000  1.0
  H  H36  1  0.68104000  0.15521000  0.16242000  1.0
  H  H37  1  0.49387000  0.19511000  0.31209000  1.0
  H  H38  1  0.06080000  0.48361000  0.18906000  1.0
  H  H39  1  0.12313000  0.54147000  0.04741000  1.0
  H  H40  1  0.93585000  0.41722000  0.97275000  1.0
  H  H41  1  0.88861000  0.35096000  0.11633000  1.0
  H  H42  1  0.12693000  0.23549000  0.13727000  1.0
  H  H43  1  0.19632000  0.26211000  0.89275000  1.0
  H  H44  1  0.44900000  0.36843000  0.11815000  1.0
  H  H45  1  0.27915000  0.34792000  0.16100000  1.0
  C  C46  1  0.22181000  0.70397000  0.27434000  1.0
  C  C47  1  0.32389000  0.69207000  0.18658000  1.0
  C  C48  1  0.36498000  0.81008000  0.11742000  1.0
  C  C49  1  0.30221000  0.93680000  0.14311000  1.0
  C  C50  1  0.20319000  0.94127000  0.23432000  1.0
  C  C51  1  0.46768000  0.80013000  0.01665000  1.0
  C  C52  1  0.39521000  0.81774000  0.90328000  1.0
  C  C53  1  0.28844000  0.71278000  0.90229000  1.0
  C  C54  1  0.21905000  0.73427000  0.79124000  1.0
  C  C55  1  0.13154000  0.85355000  0.76232000  1.0
  C  C56  1  0.07364000  0.87489000  0.65660000  1.0
  C  C57  1  0.17831000  0.66832000  0.60762000  1.0
  C  C58  1  0.24122000  0.64000000  0.71136000  1.0
  C  C59  1  0.94183000  0.10883000  0.42088000  1.0
  C  C60  1  0.83887000  0.23401000  0.41949000  1.0
  C  C61  1  0.89716000  0.36778000  0.43369000  1.0
  C  C62  1  0.77884000  0.47881000  0.45072000  1.0
  C  C63  1  0.83011000  0.61645000  0.46967000  1.0
  C  C64  1  0.55969000  0.45153000  0.35853000  1.0
  C  C65  1  0.68630000  0.07950000  0.89290000  1.0
  C  C66  1  0.62400000  0.11022000  0.78918000  1.0
  C  C67  1  0.64461000  0.01726000  0.70837000  1.0
  C  C68  1  0.72757000  0.89475000  0.73730000  1.0
  C  C69  1  0.78442000  0.87055000  0.84360000  1.0
  C  C70  1  0.57865000  0.04526000  0.59572000  1.0
  C  C71  1  0.45457000  0.96108000  0.59195000  1.0
  C  C72  1  0.38579000  0.99644000  0.47698000  1.0
  C  C73  1  0.48826000  0.97807000  0.37707000  1.0
  C  C74  1  0.54615000  0.84742000  0.35748000  1.0
  C  C75  1  0.64625000  0.83359000  0.26840000  1.0
  C  C76  1  0.63855000  0.06918000  0.21773000  1.0
  C  C77  1  0.53531000  0.09026000  0.30327000  1.0
  C  C78  1  0.92436000  0.63460000  0.10138000  1.0
  C  C79  1  0.03022000  0.51067000  0.09969000  1.0
  C  C80  1  0.97556000  0.38698000  0.05856000  1.0
  C  C81  1  0.08825000  0.26697000  0.05114000  1.0
  C  C82  1  0.02574000  0.14004000  0.01939000  1.0
  C  C83  1  0.33405000  0.32487000  0.98924000  1.0
  N  N84  1  0.16190000  0.82646000  0.29844000  1.0
  N  N85  1  0.09639000  0.78432000  0.57976000  1.0
  N  N86  1  0.48367000  0.43830000  0.46262000  1.0
  N  N87  1  0.68828000  0.49656000  0.35498000  1.0
  N  N88  1  0.76509000  0.96135000  0.92040000  1.0
  N  N89  1  0.69370000  0.94266000  0.19990000  1.0
  N  N90  1  0.20196000  0.30187000  0.96763000  1.0
  N  N91  1  0.35744000  0.33738000  0.10029000  1.0
  O  O92  1  0.88300000  0.99468000  0.42444000  1.0
  O  O93  1  0.06931000  0.11747000  0.41892000  1.0
  O  O94  1  0.93017000  0.65770000  0.39741000  1.0
  O  O95  1  0.77519000  0.67743000  0.54966000  1.0
  O  O96  1  0.50788000  0.42695000  0.27020000  1.0
  O  O97  1  0.79922000  0.61800000  0.12732000  1.0
  O  O98  1  0.97486000  0.75318000  0.07531000  1.0
  O  O99  1  0.06115000  0.09790000  0.92548000  1.0
  O  O100  1  0.93815000  0.08822000  0.09811000  1.0
  O  O101  1  0.42825000  0.33319000  0.91060000  1.0
