# generated using pymatgen
data_CaH12(C2O5)2
_symmetry_space_group_name_H-M   'P 1'
_cell_length_a   6.16258000
_cell_length_b   8.24902000
_cell_length_c   10.25600000
_cell_angle_alpha   95.40420000
_cell_angle_beta   105.57600000
_cell_angle_gamma   107.76800000
_symmetry_Int_Tables_number   1
_chemical_formula_structural   CaH12(C2O5)2
_chemical_formula_sum   'Ca2 H24 C8 O20'
_cell_volume   469.36559546
_cell_formula_units_Z   2
loop_
 _symmetry_equiv_pos_site_id
 _symmetry_equiv_pos_as_xyz
  1  'x, y, z'
loop_
 _atom_site_type_symbol
 _atom_site_label
 _atom_site_symmetry_multiplicity
 _atom_site_fract_x
 _atom_site_fract_y
 _atom_site_fract_z
 _atom_site_occupancy
  Ca  Ca0  1  0.34631000  0.69793000  0.27572000  1.0
  Ca  Ca1  1  0.65369000  0.30207000  0.72427000  1.0
  H  H2  1  0.52308000  0.25368000  0.29215000  1.0
  H  H3  1  0.47693000  0.74632000  0.70785000  1.0
  H  H4  1  0.76127000  0.25731000  0.12597000  1.0
  H  H5  1  0.23873000  0.74269000  0.87403000  1.0
  H  H6  1  0.68611000  0.51245000  0.43208000  1.0
  H  H7  1  0.31389000  0.48755000  0.56792000  1.0
  H  H8  1  0.82840000  0.52376000  0.06745000  1.0
  H  H9  1  0.17160000  0.47624000  0.93255000  1.0
  H  H10  1  0.74443000  0.77969000  0.53635000  1.0
  H  H11  1  0.25557000  0.22031000  0.46365000  1.0
  H  H12  1  0.68638000  0.94666000  0.54896000  1.0
  H  H13  1  0.31362000  0.05334000  0.45104000  1.0
  H  H14  1  0.77659000  0.00692000  0.27043000  1.0
  H  H15  1  0.22341000  0.99308000  0.72957000  1.0
  H  H16  1  0.70728000  0.85867000  0.13599000  1.0
  H  H17  1  0.29272000  0.14133000  0.86401000  1.0
  H  H18  1  0.02323000  0.83284000  0.05794000  1.0
  H  H19  1  0.97677000  0.16716000  0.94206000  1.0
  H  H20  1  0.26576000  0.98294000  0.08906000  1.0
  H  H21  1  0.73424000  0.01706000  0.91094000  1.0
  H  H22  1  0.97933000  0.84421000  0.32338000  1.0
  H  H23  1  0.02067000  0.15579000  0.67662000  1.0
  H  H24  1  0.10685000  0.81091000  0.46833000  1.0
  H  H25  1  0.89315000  0.18909000  0.53167000  1.0
  C  C26  1  0.37812000  0.34518000  0.11167000  1.0
  C  C27  1  0.62188000  0.65482000  0.88833000  1.0
  C  C28  1  0.57775000  0.36753000  0.24441000  1.0
  C  C29  1  0.42226000  0.63247000  0.75559000  1.0
  C  C30  1  0.80927000  0.37119000  0.20769000  1.0
  C  C31  1  0.19073000  0.62881000  0.79231000  1.0
  C  C32  1  0.98553000  0.35260000  0.33646000  1.0
  C  C33  1  0.01448000  0.64740000  0.66354000  1.0
  O  O34  1  0.31480000  0.47500000  0.08816000  1.0
  O  O35  1  0.68520000  0.52500000  0.91183000  1.0
  O  O36  1  0.28808000  0.19656000  0.03181000  1.0
  O  O37  1  0.71192000  0.80344000  0.96819000  1.0
  O  O38  1  0.61648000  0.52195000  0.33417000  1.0
  O  O39  1  0.38352000  0.47805000  0.66583000  1.0
  O  O40  1  0.91519000  0.52691000  0.16663000  1.0
  O  O41  1  0.08481000  0.47309000  0.83337000  1.0
  O  O42  1  0.93117000  0.20634000  0.37461000  1.0
  O  O43  1  0.06883000  0.79366000  0.62538000  1.0
  O  O44  1  0.17215000  0.48138000  0.40047000  1.0
  O  O45  1  0.82785000  0.51862000  0.59953000  1.0
  O  O46  1  0.60629000  0.81936000  0.50963000  1.0
  O  O47  1  0.39371000  0.18064000  0.49037000  1.0
  O  O48  1  0.71252000  0.87928000  0.23383000  1.0
  O  O49  1  0.28748000  0.12072000  0.76617000  1.0
  O  O50  1  0.19864000  0.86147000  0.09919000  1.0
  O  O51  1  0.80136000  0.13853000  0.90081000  1.0
  O  O52  1  0.13867000  0.84942000  0.38411000  1.0
  O  O53  1  0.86133000  0.15058000  0.61589000  1.0
