# generated using pymatgen
data_Co3H12C15N6O7
_symmetry_space_group_name_H-M   'P 1'
_cell_length_a   10.62770000
_cell_length_b   10.97390000
_cell_length_c   10.96130000
_cell_angle_alpha   83.88270000
_cell_angle_beta   85.31350000
_cell_angle_gamma   83.39600000
_symmetry_Int_Tables_number   1
_chemical_formula_structural   Co3H12C15N6O7
_chemical_formula_sum   'Co6 H24 C30 N12 O14'
_cell_volume   1259.54841842
_cell_formula_units_Z   2
loop_
 _symmetry_equiv_pos_site_id
 _symmetry_equiv_pos_as_xyz
  1  'x, y, z'
loop_
 _atom_site_type_symbol
 _atom_site_label
 _atom_site_symmetry_multiplicity
 _atom_site_fract_x
 _atom_site_fract_y
 _atom_site_fract_z
 _atom_site_occupancy
  Co  Co0  1  0.74853000  0.09061000  0.91948000  1.0
  Co  Co1  1  0.25146000  0.90941000  0.08050000  1.0
  Co  Co2  1  0.99103000  0.15833000  0.02344000  1.0
  Co  Co3  1  0.00898000  0.84169000  0.97656000  1.0
  Co  Co4  1  0.50097000  0.00492000  0.15518000  1.0
  Co  Co5  1  0.49902000  0.99513000  0.84483000  1.0
  H  H6  1  0.00413000  0.16709000  0.34897000  1.0
  H  H7  1  0.99588000  0.83294000  0.65102000  1.0
  H  H8  1  0.90641000  0.15151000  0.56592000  1.0
  H  H9  1  0.09357000  0.84856000  0.43407000  1.0
  H  H10  1  0.55492000  0.05775000  0.44791000  1.0
  H  H11  1  0.44509000  0.94225000  0.55208000  1.0
  H  H12  1  0.48802000  0.67606000  0.83406000  1.0
  H  H13  1  0.51196000  0.32394000  0.16597000  1.0
  H  H14  1  0.57751000  0.45356000  0.86687000  1.0
  H  H15  1  0.42246000  0.54645000  0.13315000  1.0
  H  H16  1  0.93784000  0.55492000  0.95478000  1.0
  H  H17  1  0.06214000  0.44512000  0.04521000  1.0
  H  H18  1  0.96745000  0.07896000  0.81590000  1.0
  H  H19  1  0.03254000  0.92105000  0.18408000  1.0
  H  H20  1  0.52457000  0.18642000  0.94937000  1.0
  H  H21  1  0.47543000  0.81362000  0.05064000  1.0
  H  H22  1  0.65115000  0.83205000  0.28735000  1.0
  H  H23  1  0.34882000  0.16791000  0.71266000  1.0
  H  H24  1  0.67099000  0.61182000  0.28490000  1.0
  H  H25  1  0.32903000  0.38809000  0.71516000  1.0
  H  H26  1  0.51473000  0.68931000  0.26307000  1.0
  H  H27  1  0.48531000  0.31062000  0.73697000  1.0
  H  H28  1  0.61862000  0.64662000  0.13361000  1.0
  H  H29  1  0.38143000  0.35328000  0.86643000  1.0
  C  C30  1  0.70625000  0.08812000  0.30591000  1.0
  C  C31  1  0.29376000  0.91186000  0.69408000  1.0
  C  C32  1  0.83170000  0.12068000  0.27810000  1.0
  C  C33  1  0.16831000  0.87931000  0.72188000  1.0
  C  C34  1  0.90717000  0.14428000  0.37066000  1.0
  C  C35  1  0.09283000  0.85574000  0.62932000  1.0
  C  C36  1  0.85285000  0.13538000  0.48978000  1.0
  C  C37  1  0.14715000  0.86464000  0.51021000  1.0
  C  C38  1  0.72636000  0.10476000  0.51842000  1.0
  C  C39  1  0.27364000  0.89525000  0.48156000  1.0
  C  C40  1  0.65148000  0.08121000  0.42680000  1.0
  C  C41  1  0.34853000  0.91877000  0.57319000  1.0
  C  C42  1  0.67646000  0.09510000  0.65059000  1.0
  C  C43  1  0.32355000  0.90489000  0.34939000  1.0
  C  C44  1  0.79132000  0.70425000  0.91210000  1.0
  C  C45  1  0.20866000  0.29577000  0.08790000  1.0
  C  C46  1  0.66573000  0.73819000  0.87644000  1.0
  C  C47  1  0.33425000  0.26183000  0.12358000  1.0
  C  C48  1  0.58532000  0.64930000  0.85891000  1.0
  C  C49  1  0.41467000  0.35071000  0.14111000  1.0
  C  C50  1  0.63507000  0.52715000  0.87733000  1.0
  C  C51  1  0.36492000  0.47285000  0.12269000  1.0
  C  C52  1  0.76174000  0.49229000  0.91117000  1.0
  C  C53  1  0.23826000  0.50772000  0.08882000  1.0
  C  C54  1  0.84140000  0.58042000  0.92836000  1.0
  C  C55  1  0.15859000  0.41960000  0.07163000  1.0
  C  C56  1  0.80747000  0.35776000  0.93037000  1.0
  C  C57  1  0.19253000  0.64226000  0.06960000  1.0
  C  C58  1  0.61418000  0.68013000  0.22492000  1.0
  C  C59  1  0.38586000  0.31977000  0.77513000  1.0
  N  N60  1  0.85559000  0.11999000  0.15412000  1.0
  N  N61  1  0.14442000  0.88003000  0.84587000  1.0
  N  N62  1  0.75328000  0.08713000  0.10904000  1.0
  N  N63  1  0.24674000  0.91287000  0.89095000  1.0
  N  N64  1  0.66077000  0.06799000  0.19648000  1.0
  N  N65  1  0.33925000  0.93200000  0.80352000  1.0
  N  N66  1  0.84113000  0.81189000  0.92657000  1.0
  N  N67  1  0.15886000  0.18812000  0.07342000  1.0
  N  N68  1  0.75054000  0.90402000  0.90149000  1.0
  N  N69  1  0.24946000  0.09599000  0.09849000  1.0
  N  N70  1  0.64573000  0.86363000  0.86982000  1.0
  N  N71  1  0.35425000  0.13638000  0.13018000  1.0
  O  O72  1  0.94155000  0.05957000  0.90239000  1.0
  O  O73  1  0.05842000  0.94050000  0.09760000  1.0
  O  O74  1  0.55737000  0.09961000  0.95648000  1.0
  O  O75  1  0.44260000  0.90042000  0.04353000  1.0
  O  O76  1  0.56267000  0.06549000  0.67580000  1.0
  O  O77  1  0.43735000  0.93449000  0.32419000  1.0
  O  O78  1  0.75069000  0.11644000  0.72880000  1.0
  O  O79  1  0.24930000  0.88356000  0.27119000  1.0
  O  O80  1  0.92233000  0.32841000  0.96035000  1.0
  O  O81  1  0.07768000  0.67161000  0.03960000  1.0
  O  O82  1  0.72927000  0.28209000  0.91614000  1.0
  O  O83  1  0.27074000  0.71791000  0.08386000  1.0
  O  O84  1  0.66541000  0.79672000  0.20889000  1.0
  O  O85  1  0.33465000  0.20319000  0.79114000  1.0
