# generated using pymatgen
data_MgPH7(CO4)2
_symmetry_space_group_name_H-M   'P 1'
_cell_length_a   5.70004000
_cell_length_b   7.78704000
_cell_length_c   15.47130000
_cell_angle_alpha   89.99480000
_cell_angle_beta   89.99720000
_cell_angle_gamma   69.60900000
_symmetry_Int_Tables_number   1
_chemical_formula_structural   MgPH7(CO4)2
_chemical_formula_sum   'Mg4 P4 H28 C8 O32'
_cell_volume   643.68405424
_cell_formula_units_Z   4
loop_
 _symmetry_equiv_pos_site_id
 _symmetry_equiv_pos_as_xyz
  1  'x, y, z'
loop_
 _atom_site_type_symbol
 _atom_site_label
 _atom_site_symmetry_multiplicity
 _atom_site_fract_x
 _atom_site_fract_y
 _atom_site_fract_z
 _atom_site_occupancy
  Mg  Mg0  1  0.23935000  0.02124000  0.36528000  1.0
  Mg  Mg1  1  0.76064000  0.47877000  0.86528000  1.0
  Mg  Mg2  1  0.76065000  0.97875000  0.63472000  1.0
  Mg  Mg3  1  0.23935000  0.52124000  0.13472000  1.0
  P  P4  1  0.48241000  0.34013000  0.31964000  1.0
  P  P5  1  0.51759000  0.15987000  0.81963000  1.0
  P  P6  1  0.51759000  0.65986000  0.68036000  1.0
  P  P7  1  0.48240000  0.84014000  0.18037000  1.0
  H  H8  1  0.54800000  0.71805000  0.44636000  1.0
  H  H9  1  0.45198000  0.78198000  0.94637000  1.0
  H  H10  1  0.45201000  0.28194000  0.55364000  1.0
  H  H11  1  0.54800000  0.21803000  0.05364000  1.0
  H  H12  1  0.44777000  0.86141000  0.52033000  1.0
  H  H13  1  0.55221000  0.63861000  0.02034000  1.0
  H  H14  1  0.55224000  0.13858000  0.47967000  1.0
  H  H15  1  0.44779000  0.36139000  0.97966000  1.0
  H  H16  1  0.96496000  0.83290000  0.42555000  1.0
  H  H17  1  0.03504000  0.66710000  0.92556000  1.0
  H  H18  1  0.03504000  0.16710000  0.57445000  1.0
  H  H19  1  0.96497000  0.33290000  0.07445000  1.0
  H  H20  1  0.78486000  0.98843000  0.36546000  1.0
  H  H21  1  0.21514000  0.51159000  0.86546000  1.0
  H  H22  1  0.21514000  0.01157000  0.63454000  1.0
  H  H23  1  0.78486000  0.48841000  0.13454000  1.0
  H  H24  1  0.99072000  0.26532000  0.22564000  1.0
  H  H25  1  0.00929000  0.23467000  0.72564000  1.0
  H  H26  1  0.00930000  0.73468000  0.77436000  1.0
  H  H27  1  0.99071000  0.76532000  0.27436000  1.0
  H  H28  1  0.77510000  0.50367000  0.30654000  1.0
  H  H29  1  0.22490000  0.99633000  0.80655000  1.0
  H  H30  1  0.22491000  0.49632000  0.69346000  1.0
  H  H31  1  0.77508000  0.00368000  0.19345000  1.0
  H  H32  1  0.26739000  0.50637000  0.43239000  1.0
  H  H33  1  0.73264000  0.99362000  0.93240000  1.0
  H  H34  1  0.73262000  0.49363000  0.56761000  1.0
  H  H35  1  0.26736000  0.00639000  0.06760000  1.0
  C  C36  1  0.79220000  0.36814000  0.33238000  1.0
  C  C37  1  0.20779000  0.13186000  0.83238000  1.0
  C  C38  1  0.20780000  0.63185000  0.66762000  1.0
  C  C39  1  0.79220000  0.86815000  0.16762000  1.0
  C  C40  1  0.86252000  0.36022000  0.42734000  1.0
  C  C41  1  0.13747000  0.13979000  0.92734000  1.0
  C  C42  1  0.13749000  0.63977000  0.57265000  1.0
  C  C43  1  0.86252000  0.86023000  0.07266000  1.0
  O  O44  1  0.50564000  0.15775000  0.36445000  1.0
  O  O45  1  0.49436000  0.34225000  0.86444000  1.0
  O  O46  1  0.49436000  0.84225000  0.63555000  1.0
  O  O47  1  0.50564000  0.65775000  0.13556000  1.0
  O  O48  1  0.44217000  0.84756000  0.45708000  1.0
  O  O49  1  0.55782000  0.65246000  0.95708000  1.0
  O  O50  1  0.55783000  0.15243000  0.54293000  1.0
  O  O51  1  0.44218000  0.34755000  0.04292000  1.0
  O  O52  1  0.95771000  0.89482000  0.36894000  1.0
  O  O53  1  0.04230000  0.60520000  0.86895000  1.0
  O  O54  1  0.04229000  0.10518000  0.63106000  1.0
  O  O55  1  0.95771000  0.39481000  0.13106000  1.0
  O  O56  1  0.42899000  0.84549000  0.27568000  1.0
  O  O57  1  0.57101000  0.65451000  0.77568000  1.0
  O  O58  1  0.57100000  0.15451000  0.72432000  1.0
  O  O59  1  0.42898000  0.34548000  0.22432000  1.0
  O  O60  1  0.97682000  0.22370000  0.28619000  1.0
  O  O61  1  0.02318000  0.27630000  0.78618000  1.0
  O  O62  1  0.02318000  0.77629000  0.71381000  1.0
  O  O63  1  0.97681000  0.72371000  0.21382000  1.0
  O  O64  1  0.02721000  0.21523000  0.45606000  1.0
  O  O65  1  0.97279000  0.28478000  0.95605000  1.0
  O  O66  1  0.97280000  0.78477000  0.54394000  1.0
  O  O67  1  0.02720000  0.71524000  0.04395000  1.0
  O  O68  1  0.74062000  0.49850000  0.47237000  1.0
  O  O69  1  0.25937000  0.00151000  0.97238000  1.0
  O  O70  1  0.25939000  0.50150000  0.52762000  1.0
  O  O71  1  0.74061000  0.99851000  0.02762000  1.0
  O  O72  1  0.27880000  0.50590000  0.36504000  1.0
  O  O73  1  0.72121000  0.99410000  0.86504000  1.0
  O  O74  1  0.72121000  0.49410000  0.63496000  1.0
  O  O75  1  0.27878000  0.00590000  0.13496000  1.0
