# generated using pymatgen
data_ZnH16C26(NO2)6
_symmetry_space_group_name_H-M   'P 1'
_cell_length_a   5.90251000
_cell_length_b   11.72657287
_cell_length_c   19.90570000
_cell_angle_alpha   81.55397865
_cell_angle_beta   89.99590000
_cell_angle_gamma   75.43781472
_symmetry_Int_Tables_number   1
_chemical_formula_structural   ZnH16C26(NO2)6
_chemical_formula_sum   'Zn2 H32 C52 N12 O24'
_cell_volume   1318.09536392
_cell_formula_units_Z   2
loop_
 _symmetry_equiv_pos_site_id
 _symmetry_equiv_pos_as_xyz
  1  'x, y, z'
loop_
 _atom_site_type_symbol
 _atom_site_label
 _atom_site_symmetry_multiplicity
 _atom_site_fract_x
 _atom_site_fract_y
 _atom_site_fract_z
 _atom_site_occupancy
  Zn  Zn0  1  0.23603000  0.00029000  0.75006000  1.0
  Zn  Zn1  1  0.76396000  0.99971000  0.24994000  1.0
  H  H2  1  0.76265000  0.49600000  0.79042000  1.0
  H  H3  1  0.25861000  0.50466000  0.70951000  1.0
  H  H4  1  0.23738000  0.50399000  0.20958000  1.0
  H  H5  1  0.74141000  0.49533000  0.29049000  1.0
  H  H6  1  0.19267000  0.14545000  0.86302000  1.0
  H  H7  1  0.33755000  0.85526000  0.63725000  1.0
  H  H8  1  0.80731000  0.85455000  0.13699000  1.0
  H  H9  1  0.66242000  0.14475000  0.36275000  1.0
  H  H10  1  0.45074000  0.16726000  0.95708000  1.0
  H  H11  1  0.61723000  0.83293000  0.54322000  1.0
  H  H12  1  0.54924000  0.83275000  0.04293000  1.0
  H  H13  1  0.38272000  0.16708000  0.45677000  1.0
  H  H14  1  0.26971000  0.44437000  0.95531000  1.0
  H  H15  1  0.71474000  0.55568000  0.54471000  1.0
  H  H16  1  0.73028000  0.55564000  0.04469000  1.0
  H  H17  1  0.28526000  0.44432000  0.45529000  1.0
  H  H18  1  0.69917000  0.86257000  0.80882000  1.0
  H  H19  1  0.56210000  0.13821000  0.69107000  1.0
  H  H20  1  0.30083000  0.13746000  0.19117000  1.0
  H  H21  1  0.43792000  0.86178000  0.30893000  1.0
  H  H22  1  0.97777000  0.87165000  0.89917000  1.0
  H  H23  1  0.84947000  0.12876000  0.60064000  1.0
  H  H24  1  0.02223000  0.12837000  0.10082000  1.0
  H  H25  1  0.15053000  0.87123000  0.39936000  1.0
  H  H26  1  0.88695000  0.67415000  0.73615000  1.0
  H  H27  1  0.56044000  0.32631000  0.76387000  1.0
  H  H28  1  0.11308000  0.32584000  0.26385000  1.0
  H  H29  1  0.43958000  0.67368000  0.23614000  1.0
  H  H30  1  0.82062000  0.11181000  0.01688000  1.0
  H  H31  1  0.93254000  0.88798000  0.48338000  1.0
  H  H32  1  0.17938000  0.88820000  0.98312000  1.0
  H  H33  1  0.06742000  0.11202000  0.51662000  1.0
  C  C34  1  0.25248000  0.59411000  0.87580000  1.0
  C  C35  1  0.84661000  0.40608000  0.62429000  1.0
  C  C36  1  0.74753000  0.40589000  0.12419000  1.0
  C  C37  1  0.15339000  0.59391000  0.37571000  1.0
  C  C38  1  0.15115000  0.65989000  0.81362000  1.0
  C  C39  1  0.81069000  0.34033000  0.68646000  1.0
  C  C40  1  0.84885000  0.34011000  0.18638000  1.0
  C  C41  1  0.18932000  0.65966000  0.31354000  1.0
  C  C42  1  0.89222000  0.03583000  0.99071000  1.0
  C  C43  1  0.92802000  0.96418000  0.50935000  1.0
  C  C44  1  0.10778000  0.96418000  0.00929000  1.0
  C  C45  1  0.07196000  0.03582000  0.49064000  1.0
  C  C46  1  0.90425000  0.52281000  0.81325000  1.0
  C  C47  1  0.42710000  0.47770000  0.68674000  1.0
  C  C48  1  0.09577000  0.47719000  0.18675000  1.0
  C  C49  1  0.57291000  0.52229000  0.31326000  1.0
  C  C50  1  0.24546000  0.75985000  0.77765000  1.0
  C  C51  1  0.00473000  0.24040000  0.72250000  1.0
  C  C52  1  0.75455000  0.24015000  0.22235000  1.0
  C  C53  1  0.99527000  0.75960000  0.27750000  1.0
  C  C54  1  0.19086000  0.49261000  0.90652000  1.0
  C  C55  1  0.68390000  0.50763000  0.59352000  1.0
  C  C56  1  0.80915000  0.50739000  0.09348000  1.0
  C  C57  1  0.31610000  0.49237000  0.40648000  1.0
  C  C58  1  0.97314000  0.62308000  0.78336000  1.0
  C  C59  1  0.59584000  0.37731000  0.71666000  1.0
  C  C60  1  0.02688000  0.37692000  0.21664000  1.0
  C  C61  1  0.40417000  0.62268000  0.28334000  1.0
  C  C62  1  0.51344000  0.09860000  0.92520000  1.0
  C  C63  1  0.61159000  0.90177000  0.57497000  1.0
  C  C64  1  0.48655000  0.90140000  0.07480000  1.0
  C  C65  1  0.38837000  0.09824000  0.42503000  1.0
  C  C66  1  0.74003000  0.02160000  0.93661000  1.0
  C  C67  1  0.76144000  0.97869000  0.56342000  1.0
  C  C68  1  0.25996000  0.97841000  0.06339000  1.0
  C  C69  1  0.23854000  0.02131000  0.43658000  1.0
  C  C70  1  0.36800000  0.08705000  0.87333000  1.0
  C  C71  1  0.45464000  0.91357000  0.62685000  1.0
  C  C72  1  0.63198000  0.91295000  0.12668000  1.0
  C  C73  1  0.54534000  0.08643000  0.37315000  1.0
  C  C74  1  0.65104000  0.92822000  0.84307000  1.0
  C  C75  1  0.57923000  0.07246000  0.65688000  1.0
  C  C76  1  0.34896000  0.07179000  0.15693000  1.0
  C  C77  1  0.42079000  0.92753000  0.34312000  1.0
  C  C78  1  0.80580000  0.93424000  0.89393000  1.0
  C  C79  1  0.73992000  0.06622000  0.60598000  1.0
  C  C80  1  0.19419000  0.06577000  0.10607000  1.0
  C  C81  1  0.26008000  0.93377000  0.39402000  1.0
  C  C82  1  0.01557000  0.45843000  0.87393000  1.0
  C  C83  1  0.47441000  0.54195000  0.62607000  1.0
  C  C84  1  0.98444000  0.54157000  0.12607000  1.0
  C  C85  1  0.52560000  0.45803000  0.37393000  1.0
  N  N86  1  0.43554000  0.00369000  0.83220000  1.0
  N  N87  1  0.43902000  0.99703000  0.66789000  1.0
  N  N88  1  0.56446000  0.99631000  0.16780000  1.0
  N  N89  1  0.56099000  0.00296000  0.33212000  1.0
  N  N90  1  0.93934000  0.35466000  0.90682000  1.0
  N  N91  1  0.29424000  0.64554000  0.59309000  1.0
  N  N92  1  0.06067000  0.64534000  0.09318000  1.0
  N  N93  1  0.70577000  0.35446000  0.40692000  1.0
  N  N94  1  0.42165000  0.63665000  0.91294000  1.0
  N  N95  1  0.05826000  0.36349000  0.58713000  1.0
  N  N96  1  0.57837000  0.36335000  0.08706000  1.0
  N  N97  1  0.94175000  0.63650000  0.41287000  1.0
  O  O98  1  0.09584000  0.86217000  0.76481000  1.0
  O  O99  1  0.95728000  0.13809000  0.73551000  1.0
  O  O100  1  0.90417000  0.13782000  0.23519000  1.0
  O  O101  1  0.04271000  0.86191000  0.26450000  1.0
  O  O102  1  0.45556000  0.73512000  0.76294000  1.0
  O  O103  1  0.19021000  0.26514000  0.73712000  1.0
  O  O104  1  0.54444000  0.26488000  0.23705000  1.0
  O  O105  1  0.80981000  0.73485000  0.26287000  1.0
  O  O106  1  0.79370000  0.31994000  0.87555000  1.0
  O  O107  1  0.11375000  0.68016000  0.62433000  1.0
  O  O108  1  0.20630000  0.68006000  0.12446000  1.0
  O  O109  1  0.88626000  0.31984000  0.37568000  1.0
  O  O110  1  0.38266000  0.74556000  0.91325000  1.0
  O  O111  1  0.12815000  0.25458000  0.58683000  1.0
  O  O112  1  0.61735000  0.25444000  0.08675000  1.0
  O  O113  1  0.87183000  0.74541000  0.41316000  1.0
  O  O114  1  0.02483000  0.30710000  0.96428000  1.0
  O  O115  1  0.33208000  0.69297000  0.53558000  1.0
  O  O116  1  0.97515000  0.69292000  0.03572000  1.0
  O  O117  1  0.66793000  0.30702000  0.46443000  1.0
  O  O118  1  0.59060000  0.56121000  0.94299000  1.0
  O  O119  1  0.15174000  0.43895000  0.55705000  1.0
  O  O120  1  0.40942000  0.43879000  0.05701000  1.0
  O  O121  1  0.84830000  0.56103000  0.44297000  1.0
