# generated using pymatgen
data_AlH12C22O5
_symmetry_space_group_name_H-M   'P 1'
_cell_length_a   13.15590000
_cell_length_b   15.84910000
_cell_length_c   30.17670000
_cell_angle_alpha   89.91340000
_cell_angle_beta   88.99450000
_cell_angle_gamma   88.41150000
_symmetry_Int_Tables_number   1
_chemical_formula_structural   AlH12C22O5
_chemical_formula_sum   'Al8 H96 C176 O40'
_cell_volume   6288.72892003
_cell_formula_units_Z   8
loop_
 _symmetry_equiv_pos_site_id
 _symmetry_equiv_pos_as_xyz
  1  'x, y, z'
loop_
 _atom_site_type_symbol
 _atom_site_label
 _atom_site_symmetry_multiplicity
 _atom_site_fract_x
 _atom_site_fract_y
 _atom_site_fract_z
 _atom_site_occupancy
  Al  Al0  1  0.86815000  0.99821000  0.25052000  1.0
  Al  Al1  1  0.63026000  0.00298000  0.74924000  1.0
  Al  Al2  1  0.87997000  0.00045000  0.75040000  1.0
  Al  Al3  1  0.61828000  0.99706000  0.24970000  1.0
  Al  Al4  1  0.36862000  0.99919000  0.25048000  1.0
  Al  Al5  1  0.12981000  0.99733000  0.74936000  1.0
  Al  Al6  1  0.38001000  0.99998000  0.74880000  1.0
  Al  Al7  1  0.11875000  0.00040000  0.24906000  1.0
  H  H8  1  0.73704000  0.03357000  0.30441000  1.0
  H  H9  1  0.75576000  0.71460000  0.04050000  1.0
  H  H10  1  0.74693000  0.49983000  0.15282000  1.0
  H  H11  1  0.76039000  0.96844000  0.69514000  1.0
  H  H12  1  0.75528000  0.71466000  0.95916000  1.0
  H  H13  1  0.74929000  0.49992000  0.84726000  1.0
  H  H14  1  0.73769000  0.28532000  0.95960000  1.0
  H  H15  1  0.73619000  0.28535000  0.04089000  1.0
  H  H16  1  0.00283000  0.03338000  0.80440000  1.0
  H  H17  1  0.00352000  0.71536000  0.53945000  1.0
  H  H18  1  0.00252000  0.50121000  0.65227000  1.0
  H  H19  1  0.99140000  0.02991000  0.19352000  1.0
  H  H20  1  0.00057000  0.71480000  0.45822000  1.0
  H  H21  1  0.99148000  0.49909000  0.34683000  1.0
  H  H22  1  0.98752000  0.28521000  0.45969000  1.0
  H  H23  1  0.99149000  0.28573000  0.54091000  1.0
  H  H24  1  0.84330000  0.69873000  0.39844000  1.0
  H  H25  1  0.84710000  0.82869000  0.35124000  1.0
  H  H26  1  0.64680000  0.62884000  0.35094000  1.0
  H  H27  1  0.64710000  0.76177000  0.30616000  1.0
  H  H28  1  0.90496000  0.76481000  0.18858000  1.0
  H  H29  1  0.59850000  0.82655000  0.15094000  1.0
  H  H30  1  0.59673000  0.69682000  0.10381000  1.0
  H  H31  1  0.90209000  0.63246000  0.14350000  1.0
  H  H32  1  0.89318000  0.17144000  0.14764000  1.0
  H  H33  1  0.89624000  0.30205000  0.10134000  1.0
  H  H34  1  0.59140000  0.36731000  0.14589000  1.0
  H  H35  1  0.58719000  0.23427000  0.19033000  1.0
  H  H36  1  0.64307000  0.16820000  0.35133000  1.0
  H  H37  1  0.83976000  0.36984000  0.35512000  1.0
  H  H38  1  0.83378000  0.23703000  0.31084000  1.0
  H  H39  1  0.64730000  0.29844000  0.39747000  1.0
  H  H40  1  0.66892000  0.76872000  0.68655000  1.0
  H  H41  1  0.85523000  0.83040000  0.64917000  1.0
  H  H42  1  0.66485000  0.63521000  0.64263000  1.0
  H  H43  1  0.85060000  0.70095000  0.60242000  1.0
  H  H44  1  0.85433000  0.37114000  0.65019000  1.0
  H  H45  1  0.85379000  0.23816000  0.69486000  1.0
  H  H46  1  0.65578000  0.17643000  0.65204000  1.0
  H  H47  1  0.66219000  0.30752000  0.60573000  1.0
  H  H48  1  0.89761000  0.16971000  0.85389000  1.0
  H  H49  1  0.89740000  0.29986000  0.90038000  1.0
  H  H50  1  0.59882000  0.23729000  0.80823000  1.0
  H  H51  1  0.60015000  0.37025000  0.85279000  1.0
  H  H52  1  0.60093000  0.82849000  0.85200000  1.0
  H  H53  1  0.90604000  0.76399000  0.80881000  1.0
  H  H54  1  0.90126000  0.63109000  0.85351000  1.0
  H  H55  1  0.59754000  0.69853000  0.89875000  1.0
  H  H56  1  0.24176000  0.96555000  0.30449000  1.0
  H  H57  1  0.26271000  0.71486000  0.03860000  1.0
  H  H58  1  0.25208000  0.50229000  0.15196000  1.0
  H  H59  1  0.25322000  0.03541000  0.69474000  1.0
  H  H60  1  0.26450000  0.71341000  0.95729000  1.0
  H  H61  1  0.25588000  0.49674000  0.84635000  1.0
  H  H62  1  0.24591000  0.28410000  0.95974000  1.0
  H  H63  1  0.24544000  0.28550000  0.04101000  1.0
  H  H64  1  0.50574000  0.96570000  0.80356000  1.0
  H  H65  1  0.51816000  0.71552000  0.53863000  1.0
  H  H66  1  0.51238000  0.50427000  0.65281000  1.0
  H  H67  1  0.49284000  0.03435000  0.19535000  1.0
  H  H68  1  0.51251000  0.71318000  0.45739000  1.0
  H  H69  1  0.49192000  0.49568000  0.34765000  1.0
  H  H70  1  0.49629000  0.28378000  0.46168000  1.0
  H  H71  1  0.50181000  0.28621000  0.54290000  1.0
  H  H72  1  0.34638000  0.69490000  0.40074000  1.0
  H  H73  1  0.34504000  0.82499000  0.35397000  1.0
  H  H74  1  0.14515000  0.62861000  0.35180000  1.0
  H  H75  1  0.15033000  0.76094000  0.30671000  1.0
  H  H76  1  0.40428000  0.76634000  0.18902000  1.0
  H  H77  1  0.10150000  0.82950000  0.14693000  1.0
  H  H78  1  0.10221000  0.69942000  0.09999000  1.0
  H  H79  1  0.40348000  0.63346000  0.14440000  1.0
  H  H80  1  0.39581000  0.17029000  0.14676000  1.0
  H  H81  1  0.40097000  0.30029000  0.10025000  1.0
  H  H82  1  0.10045000  0.37291000  0.14755000  1.0
  H  H83  1  0.09374000  0.24018000  0.19215000  1.0
  H  H84  1  0.13685000  0.16877000  0.35078000  1.0
  H  H85  1  0.34186000  0.36449000  0.35856000  1.0
  H  H86  1  0.33665000  0.23150000  0.31418000  1.0
  H  H87  1  0.14137000  0.29911000  0.39733000  1.0
  H  H88  1  0.15877000  0.76259000  0.68869000  1.0
  H  H89  1  0.36399000  0.83241000  0.64749000  1.0
  H  H90  1  0.15293000  0.63036000  0.64377000  1.0
  H  H91  1  0.36103000  0.70113000  0.60146000  1.0
  H  H92  1  0.35157000  0.36894000  0.64324000  1.0
  H  H93  1  0.34445000  0.23584000  0.68771000  1.0
  H  H94  1  0.15229000  0.17116000  0.64420000  1.0
  H  H95  1  0.15108000  0.30129000  0.59748000  1.0
  H  H96  1  0.39917000  0.16855000  0.84915000  1.0
  H  H97  1  0.40394000  0.29876000  0.89582000  1.0
  H  H98  1  0.09339000  0.23386000  0.81190000  1.0
  H  H99  1  0.09910000  0.36621000  0.85659000  1.0
  H  H100  1  0.11014000  0.82669000  0.85071000  1.0
  H  H101  1  0.41330000  0.75977000  0.80571000  1.0
  H  H102  1  0.40921000  0.62760000  0.85083000  1.0
  H  H103  1  0.10762000  0.69706000  0.89807000  1.0
  C  C104  1  0.75334000  0.88121000  0.19974000  1.0
  C  C105  1  0.75189000  0.65523000  0.02252000  1.0
  C  C106  1  0.74706000  0.49994000  0.02373000  1.0
  C  C107  1  0.74774000  0.57708000  0.09426000  1.0
  C  C108  1  0.74795000  0.57825000  0.04733000  1.0
  C  C109  1  0.74696000  0.49983000  0.11665000  1.0
  C  C110  1  0.83772000  0.74885000  0.17008000  1.0
  C  C111  1  0.83576000  0.67534000  0.14492000  1.0
  C  C112  1  0.66423000  0.71166000  0.12248000  1.0
  C  C113  1  0.66500000  0.78412000  0.14848000  1.0
  C  C114  1  0.75739000  0.88280000  0.80055000  1.0
  C  C115  1  0.75165000  0.65526000  0.97728000  1.0
  C  C116  1  0.74736000  0.49996000  0.97635000  1.0
  C  C117  1  0.74777000  0.57720000  0.90571000  1.0
  C  C118  1  0.74784000  0.57832000  0.95264000  1.0
  C  C119  1  0.74858000  0.49996000  0.88343000  1.0
  C  C120  1  0.74752000  0.11798000  0.80083000  1.0
  C  C121  1  0.74196000  0.34469000  0.97756000  1.0
  C  C122  1  0.74870000  0.42273000  0.90584000  1.0
  C  C123  1  0.74721000  0.42161000  0.95278000  1.0
  C  C124  1  0.74805000  0.19567000  0.82847000  1.0
  C  C125  1  0.74866000  0.34369000  0.87963000  1.0
  C  C126  1  0.75393000  0.80432000  0.82783000  1.0
  C  C127  1  0.83856000  0.74855000  0.82832000  1.0
  C  C128  1  0.83563000  0.67474000  0.85333000  1.0
  C  C129  1  0.74935000  0.65622000  0.87927000  1.0
  C  C130  1  0.66507000  0.71267000  0.87889000  1.0
  C  C131  1  0.66683000  0.78538000  0.85295000  1.0
  C  C132  1  0.73739000  0.11619000  0.19879000  1.0
  C  C133  1  0.74112000  0.34470000  0.02280000  1.0
  C  C134  1  0.74604000  0.42267000  0.09433000  1.0
  C  C135  1  0.74579000  0.42160000  0.04742000  1.0
  C  C136  1  0.73978000  0.19460000  0.17147000  1.0
  C  C137  1  0.65472000  0.24993000  0.17089000  1.0
  C  C138  1  0.65738000  0.32403000  0.14610000  1.0
  C  C139  1  0.74397000  0.34340000  0.12055000  1.0
  C  C140  1  0.82856000  0.28728000  0.12096000  1.0
  C  C141  1  0.82700000  0.21423000  0.14661000  1.0
  C  C142  1  0.75215000  0.80349000  0.17212000  1.0
  C  C143  1  0.74936000  0.65612000  0.12056000  1.0
  C  C144  1  0.66408000  0.25213000  0.82826000  1.0
  C  C145  1  0.66513000  0.32594000  0.85315000  1.0
  C  C146  1  0.83206000  0.28630000  0.88006000  1.0
  C  C147  1  0.83234000  0.21358000  0.85427000  1.0
  C  C148  1  0.01068000  0.88217000  0.69904000  1.0
  C  C149  1  0.99971000  0.65577000  0.52167000  1.0
  C  C150  1  0.99712000  0.50040000  0.52325000  1.0
  C  C151  1  0.99929000  0.57811000  0.59361000  1.0
  C  C152  1  0.99757000  0.57896000  0.54667000  1.0
  C  C153  1  0.00112000  0.50098000  0.61613000  1.0
  C  C154  1  0.00755000  0.80454000  0.67143000  1.0
  C  C155  1  0.60181000  0.75314000  0.66788000  1.0
  C  C156  1  0.59922000  0.67886000  0.64342000  1.0
  C  C157  1  0.51290000  0.65960000  0.61905000  1.0
  C  C158  1  0.91818000  0.71433000  0.62135000  1.0
  C  C159  1  0.92059000  0.78673000  0.64731000  1.0
  C  C160  1  0.00199000  0.88137000  0.29966000  1.0
  C  C161  1  0.99811000  0.65545000  0.47645000  1.0
  C  C162  1  0.99527000  0.50006000  0.47588000  1.0
  C  C163  1  0.99280000  0.57670000  0.40509000  1.0
  C  C164  1  0.99422000  0.57826000  0.45200000  1.0
  C  C165  1  0.99239000  0.49930000  0.38298000  1.0
  C  C166  1  0.99436000  0.65542000  0.37843000  1.0
  C  C167  1  0.98221000  0.11623000  0.30138000  1.0
  C  C168  1  0.99205000  0.34474000  0.47747000  1.0
  C  C169  1  0.99320000  0.42221000  0.40554000  1.0
  C  C170  1  0.99462000  0.42152000  0.45247000  1.0
  C  C171  1  0.99948000  0.80308000  0.32690000  1.0
  C  C172  1  0.58124000  0.74592000  0.32661000  1.0
  C  C173  1  0.58077000  0.67207000  0.35162000  1.0
  C  C174  1  0.91059000  0.71244000  0.37833000  1.0
  C  C175  1  0.91248000  0.78501000  0.35232000  1.0
  C  C176  1  0.00123000  0.11795000  0.69934000  1.0
  C  C177  1  0.99419000  0.34504000  0.52268000  1.0
  C  C178  1  0.00136000  0.42357000  0.59402000  1.0
  C  C179  1  0.99878000  0.42217000  0.54711000  1.0
  C  C180  1  0.49962000  0.19825000  0.67217000  1.0
  C  C181  1  0.91891000  0.25315000  0.67376000  1.0
  C  C182  1  0.91946000  0.32698000  0.64874000  1.0
  C  C183  1  0.00241000  0.34477000  0.62062000  1.0
  C  C184  1  0.59272000  0.29188000  0.62387000  1.0
  C  C185  1  0.58940000  0.21871000  0.64935000  1.0
  C  C186  1  0.48940000  0.19187000  0.33014000  1.0
  C  C187  1  0.90099000  0.25139000  0.32975000  1.0
  C  C188  1  0.90460000  0.32535000  0.35447000  1.0
  C  C189  1  0.99066000  0.34303000  0.37943000  1.0
  C  C190  1  0.57917000  0.28390000  0.37917000  1.0
  C  C191  1  0.57696000  0.21104000  0.35354000  1.0
  C  C192  1  0.25343000  0.88391000  0.19798000  1.0
  C  C193  1  0.25909000  0.65517000  0.02091000  1.0
  C  C194  1  0.25433000  0.49990000  0.02286000  1.0
  C  C195  1  0.25295000  0.57842000  0.09303000  1.0
  C  C196  1  0.25439000  0.57867000  0.04608000  1.0
  C  C197  1  0.25271000  0.50155000  0.11580000  1.0
  C  C198  1  0.33826000  0.75060000  0.16966000  1.0
  C  C199  1  0.33756000  0.67683000  0.14468000  1.0
  C  C200  1  0.16837000  0.71399000  0.11961000  1.0
  C  C201  1  0.16776000  0.78667000  0.14553000  1.0
  C  C202  1  0.26406000  0.87947000  0.79836000  1.0
  C  C203  1  0.26008000  0.65433000  0.97566000  1.0
  C  C204  1  0.25494000  0.49905000  0.97545000  1.0
  C  C205  1  0.25646000  0.57507000  0.90441000  1.0
  C  C206  1  0.25616000  0.57697000  0.95136000  1.0
  C  C207  1  0.25578000  0.49741000  0.88251000  1.0
  C  C208  1  0.24345000  0.11468000  0.80109000  1.0
  C  C209  1  0.24971000  0.34382000  0.97741000  1.0
  C  C210  1  0.25452000  0.42058000  0.90529000  1.0
  C  C211  1  0.25410000  0.42031000  0.95223000  1.0
  C  C212  1  0.24568000  0.19296000  0.82835000  1.0
  C  C213  1  0.25166000  0.34111000  0.87935000  1.0
  C  C214  1  0.26226000  0.80138000  0.82587000  1.0
  C  C215  1  0.34650000  0.74521000  0.82589000  1.0
  C  C216  1  0.34391000  0.67159000  0.85110000  1.0
  C  C217  1  0.25838000  0.65375000  0.87768000  1.0
  C  C218  1  0.17453000  0.71074000  0.87771000  1.0
  C  C219  1  0.17574000  0.78319000  0.85158000  1.0
  C  C220  1  0.24000000  0.11884000  0.19948000  1.0
  C  C221  1  0.24948000  0.34460000  0.02265000  1.0
  C  C222  1  0.25318000  0.42389000  0.09390000  1.0
  C  C223  1  0.25346000  0.42195000  0.04695000  1.0
  C  C224  1  0.24398000  0.19684000  0.17193000  1.0
  C  C225  1  0.16085000  0.25417000  0.17205000  1.0
  C  C226  1  0.16492000  0.32806000  0.14714000  1.0
  C  C227  1  0.25076000  0.34519000  0.12060000  1.0
  C  C228  1  0.33363000  0.28722000  0.12045000  1.0
  C  C229  1  0.33085000  0.21445000  0.14630000  1.0
  C  C230  1  0.25309000  0.80583000  0.17043000  1.0
  C  C231  1  0.25302000  0.65785000  0.11906000  1.0
  C  C232  1  0.16112000  0.24873000  0.83035000  1.0
  C  C233  1  0.16465000  0.32250000  0.85524000  1.0
  C  C234  1  0.33583000  0.28455000  0.87741000  1.0
  C  C235  1  0.33344000  0.21179000  0.85169000  1.0
  C  C236  1  0.51796000  0.88660000  0.69659000  1.0
  C  C237  1  0.51237000  0.65569000  0.52124000  1.0
  C  C238  1  0.50718000  0.50048000  0.52378000  1.0
  C  C239  1  0.51086000  0.57975000  0.59357000  1.0
  C  C240  1  0.50911000  0.57947000  0.54668000  1.0
  C  C241  1  0.51145000  0.50320000  0.61666000  1.0
  C  C242  1  0.51689000  0.80856000  0.66921000  1.0
  C  C243  1  0.09149000  0.74807000  0.66989000  1.0
  C  C244  1  0.08790000  0.67461000  0.64479000  1.0
  C  C245  1  0.00170000  0.65709000  0.61989000  1.0
  C  C246  1  0.42849000  0.71599000  0.62015000  1.0
  C  C247  1  0.42987000  0.78924000  0.64549000  1.0
  C  C248  1  0.49704000  0.87929000  0.29982000  1.0
  C  C249  1  0.50923000  0.65438000  0.47606000  1.0
  C  C250  1  0.50396000  0.49905000  0.47649000  1.0
  C  C251  1  0.49754000  0.57438000  0.40541000  1.0
  C  C252  1  0.50253000  0.57673000  0.45221000  1.0
  C  C253  1  0.49537000  0.49661000  0.38375000  1.0
  C  C254  1  0.49658000  0.65308000  0.37873000  1.0
  C  C255  1  0.48670000  0.11413000  0.30247000  1.0
  C  C256  1  0.50051000  0.34376000  0.47905000  1.0
  C  C257  1  0.49783000  0.41992000  0.40671000  1.0
  C  C258  1  0.50181000  0.42004000  0.45359000  1.0
  C  C259  1  0.49611000  0.80123000  0.32734000  1.0
  C  C260  1  0.08339000  0.74660000  0.32685000  1.0
  C  C261  1  0.08019000  0.67295000  0.35198000  1.0
  C  C262  1  0.41202000  0.70928000  0.37973000  1.0
  C  C263  1  0.41119000  0.78206000  0.35381000  1.0
  C  C264  1  0.49661000  0.12017000  0.69954000  1.0
  C  C265  1  0.50345000  0.34512000  0.52425000  1.0
  C  C266  1  0.50999000  0.42547000  0.59497000  1.0
  C  C267  1  0.50792000  0.42290000  0.54812000  1.0
  C  C268  1  0.00285000  0.19660000  0.67214000  1.0
  C  C269  1  0.41376000  0.25235000  0.66978000  1.0
  C  C270  1  0.41808000  0.32644000  0.64506000  1.0
  C  C271  1  0.50726000  0.34675000  0.62160000  1.0
  C  C272  1  0.08604000  0.28762000  0.61898000  1.0
  C  C273  1  0.08686000  0.21488000  0.64494000  1.0
  C  C274  1  0.98468000  0.19466000  0.32856000  1.0
  C  C275  1  0.40445000  0.24721000  0.33234000  1.0
  C  C276  1  0.40771000  0.32109000  0.35713000  1.0
  C  C277  1  0.49480000  0.34025000  0.38105000  1.0
  C  C278  1  0.07398000  0.28555000  0.37830000  1.0
  C  C279  1  0.07169000  0.21272000  0.35263000  1.0
  O  O280  1  0.74168000  0.99805000  0.27827000  1.0
  O  O281  1  0.83724000  0.90028000  0.21702000  1.0
  O  O282  1  0.75676000  0.00291000  0.72167000  1.0
  O  O283  1  0.67444000  0.92558000  0.79571000  1.0
  O  O284  1  0.83074000  0.07494000  0.79649000  1.0
  O  O285  1  0.84338000  0.90187000  0.78406000  1.0
  O  O286  1  0.65130000  0.09597000  0.21508000  1.0
  O  O287  1  0.67020000  0.92383000  0.20417000  1.0
  O  O288  1  0.82092000  0.07478000  0.20403000  1.0
  O  O289  1  0.66389000  0.09953000  0.78327000  1.0
  O  O290  1  0.00429000  0.99806000  0.77818000  1.0
  O  O291  1  0.60299000  0.90636000  0.71297000  1.0
  O  O292  1  0.99382000  0.00144000  0.22191000  1.0
  O  O293  1  0.91908000  0.92343000  0.29524000  1.0
  O  O294  1  0.56991000  0.07142000  0.29705000  1.0
  O  O295  1  0.58160000  0.89867000  0.28214000  1.0
  O  O296  1  0.91631000  0.09939000  0.71702000  1.0
  O  O297  1  0.92808000  0.92570000  0.70421000  1.0
  O  O298  1  0.57997000  0.07930000  0.70502000  1.0
  O  O299  1  0.89626000  0.09596000  0.28603000  1.0
  O  O300  1  0.24199000  0.99986000  0.27787000  1.0
  O  O301  1  0.33754000  0.90239000  0.21532000  1.0
  O  O302  1  0.25550000  0.99971000  0.72085000  1.0
  O  O303  1  0.18070000  0.92072000  0.79352000  1.0
  O  O304  1  0.32657000  0.07264000  0.79575000  1.0
  O  O305  1  0.34965000  0.90012000  0.78155000  1.0
  O  O306  1  0.15362000  0.09877000  0.21547000  1.0
  O  O307  1  0.17027000  0.92675000  0.20222000  1.0
  O  O308  1  0.32303000  0.07716000  0.20534000  1.0
  O  O309  1  0.15805000  0.09499000  0.78504000  1.0
  O  O310  1  0.50400000  0.00042000  0.77709000  1.0
  O  O311  1  0.09538000  0.90040000  0.71568000  1.0
  O  O312  1  0.49417000  0.00046000  0.22209000  1.0
  O  O313  1  0.41371000  0.92183000  0.29574000  1.0
  O  O314  1  0.06565000  0.07495000  0.29543000  1.0
  O  O315  1  0.08753000  0.90146000  0.28264000  1.0
  O  O316  1  0.41047000  0.09936000  0.71572000  1.0
  O  O317  1  0.43436000  0.92800000  0.70185000  1.0
  O  O318  1  0.08415000  0.07453000  0.70293000  1.0
  O  O319  1  0.40171000  0.09567000  0.28610000  1.0
