# generated using pymatgen
data_ZnH16C25NO6
_symmetry_space_group_name_H-M   'P 1'
_cell_length_a   13.35820000
_cell_length_b   13.39300000
_cell_length_c   16.49170000
_cell_angle_alpha   90.00030000
_cell_angle_beta   90.00030000
_cell_angle_gamma   116.62400000
_symmetry_Int_Tables_number   1
_chemical_formula_structural   ZnH16C25NO6
_chemical_formula_sum   'Zn4 H64 C100 N4 O24'
_cell_volume   2637.62183978
_cell_formula_units_Z   4
loop_
 _symmetry_equiv_pos_site_id
 _symmetry_equiv_pos_as_xyz
  1  'x, y, z'
loop_
 _atom_site_type_symbol
 _atom_site_label
 _atom_site_symmetry_multiplicity
 _atom_site_fract_x
 _atom_site_fract_y
 _atom_site_fract_z
 _atom_site_occupancy
  Zn  Zn0  1  0.08970000  0.11105000  0.50197000  1.0
  Zn  Zn1  1  0.91030000  0.38895000  0.00197000  1.0
  Zn  Zn2  1  0.91030000  0.88894000  0.49803000  1.0
  Zn  Zn3  1  0.08970000  0.61106000  0.99803000  1.0
  H  H4  1  0.32798000  0.16431000  0.51631000  1.0
  H  H5  1  0.51364000  0.32989000  0.51722000  1.0
  H  H6  1  0.34087000  0.53272000  0.47772000  1.0
  H  H7  1  0.16356000  0.35810000  0.47724000  1.0
  H  H8  1  0.93516000  0.28367000  0.35015000  1.0
  H  H9  1  0.84237000  0.33128000  0.23436000  1.0
  H  H10  1  0.70076000  0.17975000  0.15038000  1.0
  H  H11  1  0.74553000  0.93515000  0.29547000  1.0
  H  H12  1  0.50937000  0.89512000  0.29245000  1.0
  H  H13  1  0.41411000  0.69475000  0.33807000  1.0
  H  H14  1  0.56512000  0.60302000  0.14005000  1.0
  H  H15  1  0.66055000  0.80338000  0.09475000  1.0
  H  H16  1  0.33746000  0.33173000  0.32725000  1.0
  H  H17  1  0.14306000  0.19106000  0.29416000  1.0
  H  H18  1  0.02919000  0.23987000  0.19457000  1.0
  H  H19  1  0.29979000  0.56967000  0.16963000  1.0
  H  H20  1  0.67202000  0.33569000  0.01631000  1.0
  H  H21  1  0.48636000  0.17011000  0.01722000  1.0
  H  H22  1  0.65914000  0.96728000  0.97772000  1.0
  H  H23  1  0.83645000  0.14190000  0.97724000  1.0
  H  H24  1  0.06484000  0.21633000  0.85015000  1.0
  H  H25  1  0.15764000  0.16872000  0.73436000  1.0
  H  H26  1  0.29924000  0.32025000  0.65039000  1.0
  H  H27  1  0.25448000  0.56485000  0.79548000  1.0
  H  H28  1  0.49063000  0.60489000  0.79245000  1.0
  H  H29  1  0.58589000  0.80526000  0.83807000  1.0
  H  H30  1  0.43488000  0.89699000  0.64005000  1.0
  H  H31  1  0.33944000  0.69662000  0.59475000  1.0
  H  H32  1  0.66254000  0.16827000  0.82725000  1.0
  H  H33  1  0.85694000  0.30894000  0.79416000  1.0
  H  H34  1  0.97081000  0.26012000  0.69457000  1.0
  H  H35  1  0.70021000  0.93033000  0.66963000  1.0
  H  H36  1  0.67202000  0.83568000  0.48369000  1.0
  H  H37  1  0.48636000  0.67010000  0.48277000  1.0
  H  H38  1  0.65914000  0.46727000  0.52229000  1.0
  H  H39  1  0.83645000  0.64190000  0.52277000  1.0
  H  H40  1  0.06484000  0.71633000  0.64985000  1.0
  H  H41  1  0.15764000  0.66872000  0.76564000  1.0
  H  H42  1  0.29924000  0.82026000  0.84962000  1.0
  H  H43  1  0.25448000  0.06485000  0.70452000  1.0
  H  H44  1  0.49063000  0.10489000  0.70755000  1.0
  H  H45  1  0.58589000  0.30525000  0.66193000  1.0
  H  H46  1  0.43488000  0.39699000  0.85995000  1.0
  H  H47  1  0.33946000  0.19663000  0.90526000  1.0
  H  H48  1  0.66253000  0.66827000  0.67275000  1.0
  H  H49  1  0.85694000  0.80894000  0.70583000  1.0
  H  H50  1  0.97080000  0.76012000  0.80542000  1.0
  H  H51  1  0.70019000  0.43033000  0.83037000  1.0
  H  H52  1  0.32798000  0.66432000  0.98368000  1.0
  H  H53  1  0.51364000  0.82990000  0.98278000  1.0
  H  H54  1  0.34086000  0.03272000  0.02229000  1.0
  H  H55  1  0.16356000  0.85810000  0.02277000  1.0
  H  H56  1  0.93515000  0.78367000  0.14986000  1.0
  H  H57  1  0.84236000  0.83128000  0.26565000  1.0
  H  H58  1  0.70076000  0.67975000  0.34963000  1.0
  H  H59  1  0.74553000  0.43515000  0.20453000  1.0
  H  H60  1  0.50937000  0.39511000  0.20755000  1.0
  H  H61  1  0.41410000  0.19475000  0.16193000  1.0
  H  H62  1  0.56512000  0.10302000  0.35995000  1.0
  H  H63  1  0.66055000  0.30338000  0.40525000  1.0
  H  H64  1  0.33746000  0.83172000  0.17275000  1.0
  H  H65  1  0.14306000  0.69105000  0.20584000  1.0
  H  H66  1  0.02919000  0.73987000  0.30542000  1.0
  H  H67  1  0.29980000  0.06966000  0.33037000  1.0
  C  C68  1  0.33579000  0.24819000  0.50763000  1.0
  C  C69  1  0.43912000  0.34193000  0.50842000  1.0
  C  C70  1  0.44574000  0.44894000  0.49866000  1.0
  C  C71  1  0.34398000  0.45375000  0.48649000  1.0
  C  C72  1  0.24364000  0.35647000  0.48638000  1.0
  C  C73  1  0.90139000  0.07473000  0.39595000  1.0
  C  C74  1  0.84447000  0.10652000  0.32955000  1.0
  C  C75  1  0.87229000  0.21846000  0.31303000  1.0
  C  C76  1  0.82062000  0.24447000  0.24847000  1.0
  C  C77  1  0.74220000  0.16024000  0.20025000  1.0
  C  C78  1  0.71563000  0.04890000  0.21679000  1.0
  C  C79  1  0.76556000  0.02144000  0.28157000  1.0
  C  C80  1  0.58960000  0.85925000  0.19123000  1.0
  C  C81  1  0.52107000  0.83046000  0.25991000  1.0
  C  C82  1  0.46866000  0.71961000  0.28509000  1.0
  C  C83  1  0.48503000  0.63875000  0.24160000  1.0
  C  C84  1  0.55158000  0.66699000  0.17221000  1.0
  C  C85  1  0.60459000  0.77827000  0.14699000  1.0
  C  C86  1  0.33019000  0.45804000  0.25034000  1.0
  C  C87  1  0.28590000  0.35167000  0.28546000  1.0
  C  C88  1  0.17757000  0.27322000  0.26571000  1.0
  C  C89  1  0.11372000  0.30028000  0.21089000  1.0
  C  C90  1  0.15815000  0.40731000  0.17689000  1.0
  C  C91  1  0.26686000  0.48702000  0.19689000  1.0
  C  C92  1  0.09173000  0.43832000  0.11741000  1.0
  C  C93  1  0.66422000  0.25181000  0.00763000  1.0
  C  C94  1  0.56088000  0.15807000  0.00842000  1.0
  C  C95  1  0.55427000  0.05106000  0.99866000  1.0
  C  C96  1  0.65602000  0.04624000  0.98650000  1.0
  C  C97  1  0.75637000  0.14353000  0.98638000  1.0
  C  C98  1  0.09862000  0.42527000  0.89595000  1.0
  C  C99  1  0.15554000  0.39349000  0.82956000  1.0
  C  C100  1  0.12772000  0.28154000  0.81304000  1.0
  C  C101  1  0.17938000  0.25553000  0.74847000  1.0
  C  C102  1  0.25780000  0.33976000  0.70026000  1.0
  C  C103  1  0.28437000  0.45111000  0.71680000  1.0
  C  C104  1  0.23445000  0.47856000  0.78158000  1.0
  C  C105  1  0.41039000  0.64075000  0.69123000  1.0
  C  C106  1  0.47893000  0.66954000  0.75991000  1.0
  C  C107  1  0.53134000  0.78039000  0.78509000  1.0
  C  C108  1  0.51496000  0.86126000  0.74160000  1.0
  C  C109  1  0.44842000  0.83301000  0.67221000  1.0
  C  C110  1  0.39541000  0.72174000  0.64699000  1.0
  C  C111  1  0.66981000  0.04196000  0.75034000  1.0
  C  C112  1  0.71410000  0.14833000  0.78546000  1.0
  C  C113  1  0.82243000  0.22678000  0.76570000  1.0
  C  C114  1  0.88628000  0.19972000  0.71089000  1.0
  C  C115  1  0.84184000  0.09269000  0.67689000  1.0
  C  C116  1  0.73314000  0.01297000  0.69688000  1.0
  C  C117  1  0.90827000  0.06168000  0.61741000  1.0
  C  C118  1  0.66422000  0.75181000  0.49237000  1.0
  C  C119  1  0.56088000  0.65806000  0.49158000  1.0
  C  C120  1  0.55427000  0.55105000  0.50134000  1.0
  C  C121  1  0.65602000  0.54624000  0.51351000  1.0
  C  C122  1  0.75636000  0.64353000  0.51363000  1.0
  C  C123  1  0.09861000  0.92526000  0.60405000  1.0
  C  C124  1  0.15554000  0.89348000  0.67045000  1.0
  C  C125  1  0.12772000  0.78154000  0.68697000  1.0
  C  C126  1  0.17939000  0.75553000  0.75153000  1.0
  C  C127  1  0.25780000  0.83977000  0.79975000  1.0
  C  C128  1  0.28437000  0.95111000  0.78320000  1.0
  C  C129  1  0.23445000  0.97856000  0.71842000  1.0
  C  C130  1  0.41040000  0.14075000  0.80877000  1.0
  C  C131  1  0.47893000  0.16954000  0.74009000  1.0
  C  C132  1  0.53134000  0.28039000  0.71491000  1.0
  C  C133  1  0.51496000  0.36126000  0.75839000  1.0
  C  C134  1  0.44842000  0.33301000  0.82779000  1.0
  C  C135  1  0.39541000  0.22175000  0.85301000  1.0
  C  C136  1  0.66980000  0.54196000  0.74965000  1.0
  C  C137  1  0.71409000  0.64833000  0.71453000  1.0
  C  C138  1  0.82243000  0.72678000  0.73429000  1.0
  C  C139  1  0.88627000  0.69972000  0.78910000  1.0
  C  C140  1  0.84183000  0.59269000  0.82311000  1.0
  C  C141  1  0.73313000  0.51298000  0.80311000  1.0
  C  C142  1  0.90826000  0.56168000  0.88260000  1.0
  C  C143  1  0.33578000  0.74819000  0.99236000  1.0
  C  C144  1  0.43912000  0.84193000  0.99157000  1.0
  C  C145  1  0.44574000  0.94895000  0.00134000  1.0
  C  C146  1  0.34398000  0.95376000  0.01350000  1.0
  C  C147  1  0.24364000  0.85647000  0.01363000  1.0
  C  C148  1  0.90139000  0.57474000  0.10406000  1.0
  C  C149  1  0.84446000  0.60652000  0.17045000  1.0
  C  C150  1  0.87228000  0.71846000  0.18697000  1.0
  C  C151  1  0.82061000  0.74447000  0.25154000  1.0
  C  C152  1  0.74220000  0.66024000  0.29975000  1.0
  C  C153  1  0.71563000  0.54889000  0.28321000  1.0
  C  C154  1  0.76555000  0.52144000  0.21843000  1.0
  C  C155  1  0.58960000  0.35925000  0.30877000  1.0
  C  C156  1  0.52107000  0.33046000  0.24009000  1.0
  C  C157  1  0.46866000  0.21961000  0.21491000  1.0
  C  C158  1  0.48504000  0.13874000  0.25839000  1.0
  C  C159  1  0.55158000  0.16699000  0.32779000  1.0
  C  C160  1  0.60459000  0.27826000  0.35301000  1.0
  C  C161  1  0.33019000  0.95804000  0.24965000  1.0
  C  C162  1  0.28590000  0.85167000  0.21453000  1.0
  C  C163  1  0.17757000  0.77322000  0.23429000  1.0
  C  C164  1  0.11372000  0.80028000  0.28910000  1.0
  C  C165  1  0.15816000  0.90731000  0.32311000  1.0
  C  C166  1  0.26686000  0.98702000  0.30311000  1.0
  C  C167  1  0.09173000  0.93832000  0.38259000  1.0
  N  N168  1  0.23902000  0.25507000  0.49763000  1.0
  N  N169  1  0.76099000  0.24492000  0.99763000  1.0
  N  N170  1  0.76099000  0.74492000  0.50237000  1.0
  N  N171  1  0.23902000  0.75508000  0.00237000  1.0
  O  O172  1  0.99276000  0.15081000  0.42354000  1.0
  O  O173  1  0.85429000  0.97274000  0.41835000  1.0
  O  O174  1  0.64185000  0.96891000  0.16413000  1.0
  O  O175  1  0.43989000  0.52993000  0.27109000  1.0
  O  O176  1  0.13601000  0.53956000  0.09312000  1.0
  O  O177  1  0.99704000  0.36189000  0.09523000  1.0
  O  O178  1  0.00725000  0.34920000  0.92355000  1.0
  O  O179  1  0.14571000  0.52727000  0.91836000  1.0
  O  O180  1  0.35814000  0.53109000  0.66413000  1.0
  O  O181  1  0.56012000  0.97007000  0.77109000  1.0
  O  O182  1  0.86399000  0.96045000  0.59312000  1.0
  O  O183  1  0.00296000  0.13812000  0.59523000  1.0
  O  O184  1  0.00724000  0.84919000  0.57646000  1.0
  O  O185  1  0.14572000  0.02726000  0.58164000  1.0
  O  O186  1  0.35816000  0.03109000  0.83587000  1.0
  O  O187  1  0.56011000  0.47007000  0.72890000  1.0
  O  O188  1  0.86399000  0.46045000  0.90688000  1.0
  O  O189  1  0.00294000  0.63812000  0.90478000  1.0
  O  O190  1  0.99276000  0.65081000  0.07647000  1.0
  O  O191  1  0.85428000  0.47274000  0.08164000  1.0
  O  O192  1  0.64185000  0.46891000  0.33587000  1.0
  O  O193  1  0.43989000  0.02993000  0.22890000  1.0
  O  O194  1  0.13601000  0.03955000  0.40688000  1.0
  O  O195  1  0.99705000  0.86188000  0.40477000  1.0
