# generated using pymatgen
data_CuH8C12(NCl)2
_symmetry_space_group_name_H-M   'P 1'
_cell_length_a   6.02244000
_cell_length_b   6.95549000
_cell_length_c   12.98070000
_cell_angle_alpha   89.99080000
_cell_angle_beta   90.00100000
_cell_angle_gamma   89.99710000
_symmetry_Int_Tables_number   1
_chemical_formula_structural   CuH8C12(NCl)2
_chemical_formula_sum   'Cu2 H16 C24 N4 Cl4'
_cell_volume   543.74880964
_cell_formula_units_Z   2
loop_
 _symmetry_equiv_pos_site_id
 _symmetry_equiv_pos_as_xyz
  1  'x, y, z'
loop_
 _atom_site_type_symbol
 _atom_site_label
 _atom_site_symmetry_multiplicity
 _atom_site_fract_x
 _atom_site_fract_y
 _atom_site_fract_z
 _atom_site_occupancy
  Cu  Cu0  1  0.99997000  0.50000000  0.00001000  1.0
  Cu  Cu1  1  0.49999000  0.49999000  0.50000000  1.0
  H  H2  1  0.67262000  0.35878000  0.89265000  1.0
  H  H3  1  0.32738000  0.35868000  0.10731000  1.0
  H  H4  1  0.17261000  0.64128000  0.60729000  1.0
  H  H5  1  0.82739000  0.64131000  0.39266000  1.0
  H  H6  1  0.32729000  0.64121000  0.10737000  1.0
  H  H7  1  0.67259000  0.64131000  0.89270000  1.0
  H  H8  1  0.82735000  0.35877000  0.39267000  1.0
  H  H9  1  0.17272000  0.35873000  0.60736000  1.0
  H  H10  1  0.38278000  0.18165000  0.80096000  1.0
  H  H11  1  0.61720000  0.18150000  0.19903000  1.0
  H  H12  1  0.88287000  0.81842000  0.69902000  1.0
  H  H13  1  0.11718000  0.81847000  0.30098000  1.0
  H  H14  1  0.61715000  0.81835000  0.19905000  1.0
  H  H15  1  0.38278000  0.81850000  0.80098000  1.0
  H  H16  1  0.11721000  0.18159000  0.30097000  1.0
  H  H17  1  0.88290000  0.18156000  0.69904000  1.0
  C  C18  1  0.84272000  0.10438000  0.94790000  1.0
  C  C19  1  0.15724000  0.10434000  0.05212000  1.0
  C  C20  1  0.34273000  0.89564000  0.55209000  1.0
  C  C21  1  0.65726000  0.89564000  0.44789000  1.0
  C  C22  1  0.15723000  0.89566000  0.05213000  1.0
  C  C23  1  0.84275000  0.89567000  0.94788000  1.0
  C  C24  1  0.65728000  0.10433000  0.44788000  1.0
  C  C25  1  0.34275000  0.10432000  0.55212000  1.0
  C  C26  1  0.67342000  0.20241000  0.89312000  1.0
  C  C27  1  0.32662000  0.20239000  0.10687000  1.0
  C  C28  1  0.17341000  0.79760000  0.60686000  1.0
  C  C29  1  0.82662000  0.79762000  0.39309000  1.0
  C  C30  1  0.32656000  0.79760000  0.10691000  1.0
  C  C31  1  0.67337000  0.79763000  0.89314000  1.0
  C  C32  1  0.82665000  0.20242000  0.39312000  1.0
  C  C33  1  0.17340000  0.20238000  0.60687000  1.0
  C  C34  1  0.51235000  0.10218000  0.84118000  1.0
  C  C35  1  0.48762000  0.10209000  0.15882000  1.0
  C  C36  1  0.01240000  0.89780000  0.65879000  1.0
  C  C37  1  0.98763000  0.89783000  0.34118000  1.0
  C  C38  1  0.48761000  0.89779000  0.15885000  1.0
  C  C39  1  0.51234000  0.89790000  0.84118000  1.0
  C  C40  1  0.98766000  0.10214000  0.34116000  1.0
  C  C41  1  0.01240000  0.10208000  0.65883000  1.0
  N  N42  1  0.99999000  0.20264000  0.99999000  1.0
  N  N43  1  0.50003000  0.79737000  0.49999000  1.0
  N  N44  1  0.99998000  0.79737000  0.00002000  1.0
  N  N45  1  0.50005000  0.20267000  0.49999000  1.0
  Cl  Cl46  1  0.84332000  0.49994000  0.15549000  1.0
  Cl  Cl47  1  0.15663000  0.50006000  0.84453000  1.0
  Cl  Cl48  1  0.34333000  0.49999000  0.34451000  1.0
  Cl  Cl49  1  0.65667000  0.49999000  0.65548000  1.0
