# generated using pymatgen
data_ZnH7(C7N2)2
_symmetry_space_group_name_H-M   'P 1'
_cell_length_a   20.48670000
_cell_length_b   23.04570000
_cell_length_c   23.11080000
_cell_angle_alpha   89.89460000
_cell_angle_beta   89.81690000
_cell_angle_gamma   85.24900000
_symmetry_Int_Tables_number   1
_chemical_formula_structural   ZnH7(C7N2)2
_chemical_formula_sum   'Zn8 H56 C112 N32'
_cell_volume   10873.75017154
_cell_formula_units_Z   8
loop_
 _symmetry_equiv_pos_site_id
 _symmetry_equiv_pos_as_xyz
  1  'x, y, z'
loop_
 _atom_site_type_symbol
 _atom_site_label
 _atom_site_symmetry_multiplicity
 _atom_site_fract_x
 _atom_site_fract_y
 _atom_site_fract_z
 _atom_site_occupancy
  Zn  Zn0  1  0.38351000  0.01578000  0.51704000  1.0
  Zn  Zn1  1  0.61648000  0.98426000  0.48298000  1.0
  Zn  Zn2  1  0.88313000  0.51418000  0.98388000  1.0
  Zn  Zn3  1  0.11687000  0.48595000  0.01607000  1.0
  Zn  Zn4  1  0.51654000  0.02182000  0.40479000  1.0
  Zn  Zn5  1  0.48343000  0.97820000  0.59523000  1.0
  Zn  Zn6  1  0.98408000  0.47864000  0.90479000  1.0
  Zn  Zn7  1  0.01589000  0.52148000  0.09514000  1.0
  H  H8  1  0.37265000  0.88178000  0.50699000  1.0
  H  H9  1  0.58007000  0.11830000  0.31805000  1.0
  H  H10  1  0.48449000  0.10997000  0.62975000  1.0
  H  H11  1  0.51547000  0.89001000  0.37025000  1.0
  H  H12  1  0.01667000  0.38917000  0.13009000  1.0
  H  H13  1  0.98314000  0.61099000  0.87007000  1.0
  H  H14  1  0.07748000  0.61952000  0.18055000  1.0
  H  H15  1  0.92259000  0.38039000  0.81961000  1.0
  H  H16  1  0.27458000  0.83932000  0.84802000  1.0
  H  H17  1  0.72558000  0.16040000  0.15196000  1.0
  H  H18  1  0.55471000  0.28828000  0.71173000  1.0
  H  H19  1  0.62718000  0.11827000  0.49293000  1.0
  H  H20  1  0.44522000  0.71184000  0.28826000  1.0
  H  H21  1  0.94858000  0.20763000  0.21067000  1.0
  H  H22  1  0.05142000  0.79246000  0.78944000  1.0
  H  H23  1  0.22022000  0.66658000  0.34434000  1.0
  H  H24  1  0.77996000  0.33297000  0.65585000  1.0
  H  H25  1  0.20927000  0.78064000  0.91301000  1.0
  H  H26  1  0.79080000  0.21923000  0.08704000  1.0
  H  H27  1  0.61941000  0.34616000  0.77749000  1.0
  H  H28  1  0.38061000  0.65385000  0.22253000  1.0
  H  H29  1  0.88337000  0.14867000  0.27552000  1.0
  H  H30  1  0.75255000  0.04303000  0.40728000  1.0
  H  H31  1  0.11672000  0.85125000  0.72453000  1.0
  H  H32  1  0.28488000  0.72441000  0.41016000  1.0
  H  H33  1  0.71521000  0.27526000  0.59001000  1.0
  H  H34  1  0.34262000  0.29360000  0.25922000  1.0
  H  H35  1  0.65740000  0.70630000  0.74061000  1.0
  H  H36  1  0.74497000  0.83257000  0.13973000  1.0
  H  H37  1  0.25511000  0.16764000  0.86033000  1.0
  H  H38  1  0.75302000  0.66698000  0.64205000  1.0
  H  H39  1  0.24696000  0.33303000  0.35771000  1.0
  H  H40  1  0.15842000  0.20577000  0.76260000  1.0
  H  H41  1  0.24747000  0.95689000  0.59278000  1.0
  H  H42  1  0.84160000  0.79423000  0.23744000  1.0
  H  H43  1  0.70030000  0.87039000  0.52741000  1.0
  H  H44  1  0.29975000  0.12973000  0.47264000  1.0
  H  H45  1  0.28814000  0.11943000  0.58420000  1.0
  H  H46  1  0.71178000  0.88054000  0.41592000  1.0
  H  H47  1  0.21253000  0.38220000  0.08198000  1.0
  H  H48  1  0.78739000  0.61775000  0.91773000  1.0
  H  H49  1  0.79791000  0.62758000  0.02813000  1.0
  H  H50  1  0.20223000  0.37277000  0.97162000  1.0
  H  H51  1  0.60040000  0.95874000  0.27245000  1.0
  H  H52  1  0.74853000  0.45255000  0.90934000  1.0
  H  H53  1  0.39961000  0.04122000  0.72760000  1.0
  H  H54  1  0.46722000  0.14557000  0.36127000  1.0
  H  H55  1  0.53272000  0.85442000  0.63862000  1.0
  H  H56  1  0.03335000  0.35390000  0.86381000  1.0
  H  H57  1  0.96664000  0.64624000  0.13620000  1.0
  H  H58  1  0.89916000  0.54184000  0.77305000  1.0
  H  H59  1  0.10099000  0.45810000  0.22679000  1.0
  H  H60  1  0.25146000  0.54742000  0.09066000  1.0
  H  H61  1  0.12517000  0.62047000  0.00645000  1.0
  H  H62  1  0.87459000  0.37968000  0.99373000  1.0
  H  H63  1  0.42003000  0.88164000  0.68190000  1.0
  C  C64  1  0.40993000  0.89367000  0.47702000  1.0
  C  C65  1  0.24144000  0.87322000  0.73957000  1.0
  C  C66  1  0.63134000  0.27584000  0.64717000  1.0
  C  C67  1  0.12684000  0.78031000  0.85477000  1.0
  C  C68  1  0.87318000  0.21967000  0.14531000  1.0
  C  C69  1  0.70513000  0.34181000  0.72233000  1.0
  C  C70  1  0.29496000  0.65799000  0.27776000  1.0
  C  C71  1  0.77445000  0.17078000  0.16470000  1.0
  C  C72  1  0.22567000  0.82901000  0.83531000  1.0
  C  C73  1  0.39603000  0.70164000  0.30051000  1.0
  C  C74  1  0.60396000  0.29835000  0.69952000  1.0
  C  C75  1  0.10023000  0.80293000  0.80223000  1.0
  C  C76  1  0.39997000  0.76569000  0.38534000  1.0
  C  C77  1  0.89981000  0.19706000  0.19785000  1.0
  C  C78  1  0.73058000  0.32316000  0.66794000  1.0
  C  C79  1  0.26954000  0.67653000  0.33220000  1.0
  C  C80  1  0.59995000  0.23428000  0.61469000  1.0
  C  C81  1  0.09574000  0.73778000  0.88651000  1.0
  C  C82  1  0.90419000  0.26229000  0.11362000  1.0
  C  C83  1  0.74455000  0.36781000  0.76340000  1.0
  C  C84  1  0.25555000  0.63201000  0.23668000  1.0
  C  C85  1  0.27621000  0.89060000  0.70125000  1.0
  C  C86  1  0.72390000  0.10925000  0.29875000  1.0
  C  C87  1  0.57922000  0.19204000  0.59125000  1.0
  C  C88  1  0.58992000  0.10638000  0.52291000  1.0
  C  C89  1  0.42068000  0.80797000  0.40874000  1.0
  C  C90  1  0.92399000  0.30551000  0.09100000  1.0
  C  C91  1  0.07581000  0.69463000  0.90917000  1.0
  C  C92  1  0.22121000  0.61397000  0.19867000  1.0
  C  C93  1  0.77887000  0.38589000  0.80141000  1.0
  C  C94  1  0.34530000  0.21710000  0.38955000  1.0
  C  C95  1  0.65465000  0.78292000  0.61034000  1.0
  C  C96  1  0.72248000  0.88150000  0.28791000  1.0
  C  C97  1  0.27751000  0.11847000  0.71220000  1.0
  C  C98  1  0.77654000  0.61831000  0.78986000  1.0
  C  C99  1  0.70340000  0.05782000  0.39334000  1.0
  C  C100  1  0.22354000  0.38159000  0.20986000  1.0
  C  C101  1  0.15611000  0.28351000  0.89152000  1.0
  C  C102  1  0.84395000  0.71673000  0.10841000  1.0
  C  C103  1  0.28783000  0.30787000  0.33649000  1.0
  C  C104  1  0.71216000  0.69211000  0.66331000  1.0
  C  C105  1  0.79964000  0.81894000  0.21742000  1.0
  C  C106  1  0.20039000  0.18112000  0.78266000  1.0
  C  C107  1  0.69903000  0.68132000  0.72023000  1.0
  C  C108  1  0.30099000  0.31862000  0.27956000  1.0
  C  C109  1  0.21388000  0.19235000  0.83930000  1.0
  C  C110  1  0.29663000  0.94211000  0.60669000  1.0
  C  C111  1  0.78616000  0.80781000  0.16075000  1.0
  C  C112  1  0.67919000  0.73811000  0.63264000  1.0
  C  C113  1  0.32076000  0.26188000  0.36721000  1.0
  C  C114  1  0.23982000  0.14425000  0.74655000  1.0
  C  C115  1  0.76020000  0.85576000  0.25356000  1.0
  C  C116  1  0.26152000  0.35561000  0.24372000  1.0
  C  C117  1  0.73854000  0.64431000  0.75603000  1.0
  C  C118  1  0.81923000  0.76172000  0.13022000  1.0
  C  C119  1  0.18082000  0.23848000  0.86978000  1.0
  C  C120  1  0.65504000  0.87649000  0.55203000  1.0
  C  C121  1  0.79795000  0.43878000  0.89515000  1.0
  C  C122  1  0.34499000  0.12361000  0.44799000  1.0
  C  C123  1  0.32349000  0.09582000  0.61232000  1.0
  C  C124  1  0.67644000  0.90414000  0.38778000  1.0
  C  C125  1  0.17714000  0.40531000  0.11054000  1.0
  C  C126  1  0.82284000  0.59464000  0.88921000  1.0
  C  C127  1  0.84352000  0.62214000  0.05207000  1.0
  C  C128  1  0.15658000  0.37816000  0.94772000  1.0
  C  C129  1  0.61936000  0.94439000  0.31437000  1.0
  C  C130  1  0.38062000  0.05557000  0.68570000  1.0
  C  C131  1  0.43035000  0.13152000  0.39079000  1.0
  C  C132  1  0.20206000  0.56120000  0.10488000  1.0
  C  C133  1  0.56962000  0.86851000  0.60914000  1.0
  C  C134  1  0.07053000  0.36872000  0.89230000  1.0
  C  C135  1  0.92948000  0.63148000  0.10764000  1.0
  C  C136  1  0.88013000  0.55559000  0.81517000  1.0
  C  C137  1  0.11997000  0.44436000  0.18465000  1.0
  C  C138  1  0.38491000  0.90327000  0.65219000  1.0
  C  C139  1  0.61516000  0.09667000  0.34779000  1.0
  C  C140  1  0.51676000  0.10208000  0.59299000  1.0
  C  C141  1  0.48316000  0.89793000  0.40699000  1.0
  C  C142  1  0.98427000  0.39687000  0.09352000  1.0
  C  C143  1  0.08831000  0.60817000  0.97653000  1.0
  C  C144  1  0.01552000  0.60328000  0.90664000  1.0
  C  C145  1  0.11302000  0.59845000  0.15074000  1.0
  C  C146  1  0.88703000  0.40149000  0.84937000  1.0
  C  C147  1  0.43856000  0.86125000  0.43078000  1.0
  C  C148  1  0.56133000  0.13878000  0.56917000  1.0
  C  C149  1  0.68395000  0.08959000  0.34295000  1.0
  C  C150  1  0.31612000  0.91031000  0.65705000  1.0
  C  C151  1  0.81819000  0.40683000  0.84508000  1.0
  C  C152  1  0.18186000  0.59309000  0.15499000  1.0
  C  C153  1  0.05912000  0.64061000  0.93060000  1.0
  C  C154  1  0.91148000  0.39198000  0.02364000  1.0
  C  C155  1  0.94067000  0.35953000  0.06957000  1.0
  C  C156  1  0.62811000  0.83751000  0.59068000  1.0
  C  C157  1  0.37187000  0.16253000  0.40926000  1.0
  C  C158  1  0.32291000  0.09159000  0.67322000  1.0
  C  C159  1  0.67705000  0.90836000  0.32688000  1.0
  C  C160  1  0.17786000  0.40878000  0.17147000  1.0
  C  C161  1  0.82220000  0.59114000  0.82829000  1.0
  C  C162  1  0.87062000  0.66191000  0.08945000  1.0
  C  C163  1  0.12943000  0.33833000  0.91044000  1.0
  C  C164  1  0.18914000  0.79627000  0.87169000  1.0
  C  C165  1  0.75870000  0.12660000  0.26044000  1.0
  C  C166  1  0.81094000  0.20360000  0.12835000  1.0
  C  C167  1  0.64012000  0.33063000  0.73630000  1.0
  C  C168  1  0.35992000  0.66931000  0.26375000  1.0
  C  C169  1  0.86335000  0.16418000  0.23413000  1.0
  C  C170  1  0.13674000  0.83573000  0.76591000  1.0
  C  C171  1  0.30570000  0.70876000  0.36904000  1.0
  C  C172  1  0.69437000  0.29100000  0.63108000  1.0
  C  C173  1  0.79882000  0.15242000  0.21947000  1.0
  C  C174  1  0.20131000  0.84739000  0.78054000  1.0
  C  C175  1  0.36865000  0.72407000  0.35290000  1.0
  N  N176  1  0.43510000  0.94600000  0.47989000  1.0
  N  N177  1  0.38372000  0.07358000  0.45141000  1.0
  N  N178  1  0.37712000  0.06531000  0.59111000  1.0
  N  N179  1  0.62280000  0.93467000  0.40895000  1.0
  N  N180  1  0.12328000  0.43583000  0.08996000  1.0
  N  N181  1  0.87668000  0.56416000  0.90986000  1.0
  N  N182  1  0.88249000  0.57221000  0.04914000  1.0
  N  N183  1  0.11759000  0.42807000  0.95068000  1.0
  N  N184  1  0.58780000  0.95964000  0.36346000  1.0
  N  N185  1  0.41216000  0.04034000  0.63659000  1.0
  N  N186  1  0.43701000  0.07865000  0.41573000  1.0
  N  N187  1  0.56476000  0.05405000  0.52004000  1.0
  N  N188  1  0.56299000  0.92141000  0.58427000  1.0
  N  N189  1  0.06385000  0.42206000  0.91610000  1.0
  N  N190  1  0.93616000  0.57816000  0.08380000  1.0
  N  N191  1  0.91182000  0.53995000  0.86398000  1.0
  N  N192  1  0.08822000  0.46004000  0.13588000  1.0
  N  N193  1  0.40424000  0.92862000  0.60316000  1.0
  N  N194  1  0.59579000  0.07136000  0.39682000  1.0
  N  N195  1  0.51941000  0.05151000  0.56347000  1.0
  N  N196  1  0.48048000  0.94851000  0.43649000  1.0
  N  N197  1  0.98049000  0.44777000  0.06435000  1.0
  N  N198  1  0.65070000  0.04726000  0.42486000  1.0
  N  N199  1  0.01932000  0.55237000  0.93579000  1.0
  N  N200  1  0.09431000  0.57211000  0.10227000  1.0
  N  N201  1  0.90570000  0.42792000  0.89780000  1.0
  N  N202  1  0.34931000  0.95271000  0.57516000  1.0
  N  N203  1  0.85030000  0.45103000  0.92597000  1.0
  N  N204  1  0.14968000  0.54902000  0.07405000  1.0
  N  N205  1  0.06441000  0.55527000  0.97908000  1.0
  N  N206  1  0.93539000  0.44486000  0.02106000  1.0
  N  N207  1  0.61631000  0.92652000  0.54864000  1.0
