# generated using pymatgen
data_YbH9C3SeNO8
_symmetry_space_group_name_H-M   'P 1'
_cell_length_a   7.66698000
_cell_length_b   9.27680000
_cell_length_c   12.07700000
_cell_angle_alpha   88.29790000
_cell_angle_beta   89.99400000
_cell_angle_gamma   89.98600000
_symmetry_Int_Tables_number   1
_chemical_formula_structural   YbH9C3SeNO8
_chemical_formula_sum   'Yb4 H36 C12 Se4 N4 O32'
_cell_volume   858.59807449
_cell_formula_units_Z   4
loop_
 _symmetry_equiv_pos_site_id
 _symmetry_equiv_pos_as_xyz
  1  'x, y, z'
loop_
 _atom_site_type_symbol
 _atom_site_label
 _atom_site_symmetry_multiplicity
 _atom_site_fract_x
 _atom_site_fract_y
 _atom_site_fract_z
 _atom_site_occupancy
  Yb  Yb0  1  0.22032000  0.93099000  0.70903000  1.0
  Yb  Yb1  1  0.72042000  0.06898000  0.79093000  1.0
  Yb  Yb2  1  0.77968000  0.06901000  0.29097000  1.0
  Yb  Yb3  1  0.27958000  0.93102000  0.20907000  1.0
  H  H4  1  0.11192000  0.95787000  0.92929000  1.0
  H  H5  1  0.61201000  0.04245000  0.57071000  1.0
  H  H6  1  0.88808000  0.04213000  0.07071000  1.0
  H  H7  1  0.38799000  0.95755000  0.42929000  1.0
  H  H8  1  0.97128000  0.85425000  0.87373000  1.0
  H  H9  1  0.47136000  0.14600000  0.62643000  1.0
  H  H10  1  0.02872000  0.14575000  0.12627000  1.0
  H  H11  1  0.52864000  0.85400000  0.37357000  1.0
  H  H12  1  0.92583000  0.73544000  0.69751000  1.0
  H  H13  1  0.42591000  0.26467000  0.80355000  1.0
  H  H14  1  0.07417000  0.26456000  0.30249000  1.0
  H  H15  1  0.57409000  0.73532000  0.19645000  1.0
  H  H16  1  0.08522000  0.62412000  0.69691000  1.0
  H  H17  1  0.58538000  0.37581000  0.80329000  1.0
  H  H18  1  0.91478000  0.37588000  0.30309000  1.0
  H  H19  1  0.41462000  0.62419000  0.19671000  1.0
  H  H20  1  0.31541000  0.47690000  0.38627000  1.0
  H  H21  1  0.81579000  0.52211000  0.11416000  1.0
  H  H22  1  0.68459000  0.52310000  0.61373000  1.0
  H  H23  1  0.18421000  0.47789000  0.88584000  1.0
  H  H24  1  0.41504000  0.25434000  0.45581000  1.0
  H  H25  1  0.91433000  0.74523000  0.04515000  1.0
  H  H26  1  0.58496000  0.74566000  0.54419000  1.0
  H  H27  1  0.08567000  0.25477000  0.95485000  1.0
  H  H28  1  0.43371000  0.33102000  0.59051000  1.0
  H  H29  1  0.93267000  0.66938000  0.91017000  1.0
  H  H30  1  0.56630000  0.66898000  0.40949000  1.0
  H  H31  1  0.06734000  0.33062000  0.08982000  1.0
  H  H32  1  0.34970000  0.58209000  0.61245000  1.0
  H  H33  1  0.84954000  0.41819000  0.88754000  1.0
  H  H34  1  0.65030000  0.41791000  0.38755000  1.0
  H  H35  1  0.15047000  0.58181000  0.11246000  1.0
  H  H36  1  0.26822000  0.68141000  0.49602000  1.0
  H  H37  1  0.76890000  0.31809000  0.00383000  1.0
  H  H38  1  0.73178000  0.31859000  0.50398000  1.0
  H  H39  1  0.23110000  0.68191000  0.99617000  1.0
  C  C40  1  0.08333000  0.99159000  0.46626000  1.0
  C  C41  1  0.58333000  0.00841000  0.03375000  1.0
  C  C42  1  0.91666000  0.00841000  0.53374000  1.0
  C  C43  1  0.41667000  0.99159000  0.96625000  1.0
  C  C44  1  0.44768000  0.35309000  0.50018000  1.0
  C  C45  1  0.94713000  0.64680000  0.00040000  1.0
  C  C46  1  0.55232000  0.64691000  0.49982000  1.0
  C  C47  1  0.05287000  0.35320000  0.99960000  1.0
  C  C48  1  0.36403000  0.59938000  0.52267000  1.0
  C  C49  1  0.86430000  0.40045000  0.97725000  1.0
  C  C50  1  0.63597000  0.40061000  0.47733000  1.0
  C  C51  1  0.13570000  0.59955000  0.02275000  1.0
  Se  Se52  1  0.57014000  0.70853000  0.82259000  1.0
  Se  Se53  1  0.07003000  0.29138000  0.67711000  1.0
  Se  Se54  1  0.42986000  0.29147000  0.17741000  1.0
  Se  Se55  1  0.92996000  0.70862000  0.32288000  1.0
  N  N56  1  0.32119000  0.46449000  0.47064000  1.0
  N  N57  1  0.82116000  0.53497000  0.02980000  1.0
  N  N58  1  0.67881000  0.53551000  0.52936000  1.0
  N  N59  1  0.17884000  0.46503000  0.97020000  1.0
  O  O60  1  0.03580000  0.94555000  0.86190000  1.0
  O  O61  1  0.53596000  0.05470000  0.63816000  1.0
  O  O62  1  0.96421000  0.05445000  0.13810000  1.0
  O  O63  1  0.46404000  0.94530000  0.36184000  1.0
  O  O64  1  0.51947000  0.72553000  0.95325000  1.0
  O  O65  1  0.01991000  0.27412000  0.54638000  1.0
  O  O66  1  0.48053000  0.27447000  0.04674000  1.0
  O  O67  1  0.98009000  0.72588000  0.45362000  1.0
  O  O68  1  0.39833000  0.75944000  0.74154000  1.0
  O  O69  1  0.89782000  0.24078000  0.75795000  1.0
  O  O70  1  0.60167000  0.24056000  0.25846000  1.0
  O  O71  1  0.10218000  0.75922000  0.24205000  1.0
  O  O72  1  0.05333000  0.72860000  0.70008000  1.0
  O  O73  1  0.55335000  0.27134000  0.80050000  1.0
  O  O74  1  0.94667000  0.27140000  0.29992000  1.0
  O  O75  1  0.44665000  0.72865000  0.19950000  1.0
  O  O76  1  0.63944000  0.55124000  0.78004000  1.0
  O  O77  1  0.13920000  0.44869000  0.71965000  1.0
  O  O78  1  0.36056000  0.44876000  0.21996000  1.0
  O  O79  1  0.86080000  0.55132000  0.28035000  1.0
  O  O80  1  0.72961000  0.83069000  0.78474000  1.0
  O  O81  1  0.22932000  0.16920000  0.71531000  1.0
  O  O82  1  0.27039000  0.16931000  0.21526000  1.0
  O  O83  1  0.77068000  0.83080000  0.28469000  1.0
  O  O84  1  0.22415000  0.96457000  0.51992000  1.0
  O  O85  1  0.72415000  0.03534000  0.98009000  1.0
  O  O86  1  0.77585000  0.03543000  0.48007000  1.0
  O  O87  1  0.27585000  0.96466000  0.01991000  1.0
  O  O88  1  0.07323000  0.00989000  0.36176000  1.0
  O  O89  1  0.57316000  0.99019000  0.13825000  1.0
  O  O90  1  0.92677000  0.99011000  0.63824000  1.0
  O  O91  1  0.42684000  0.00981000  0.86175000  1.0
