# generated using pymatgen
data_CaH12C13N5ClO3
_symmetry_space_group_name_H-M   'P 1'
_cell_length_a   7.95977000
_cell_length_b   8.69596000
_cell_length_c   11.23590000
_cell_angle_alpha   95.73380000
_cell_angle_beta   94.15490000
_cell_angle_gamma   106.00100000
_symmetry_Int_Tables_number   1
_chemical_formula_structural   CaH12C13N5ClO3
_chemical_formula_sum   'Ca2 H24 C26 N10 Cl2 O6'
_cell_volume   739.77662992
_cell_formula_units_Z   2
loop_
 _symmetry_equiv_pos_site_id
 _symmetry_equiv_pos_as_xyz
  1  'x, y, z'
loop_
 _atom_site_type_symbol
 _atom_site_label
 _atom_site_symmetry_multiplicity
 _atom_site_fract_x
 _atom_site_fract_y
 _atom_site_fract_z
 _atom_site_occupancy
  Ca  Ca0  1  0.47730000  0.85688000  0.24372000  1.0
  Ca  Ca1  1  0.52270000  0.14312000  0.75628000  1.0
  H  H2  1  0.58860000  0.18558000  0.34722000  1.0
  H  H3  1  0.41140000  0.81442000  0.65278000  1.0
  H  H4  1  0.66980000  0.12480000  0.46272000  1.0
  H  H5  1  0.33020000  0.87521000  0.53728000  1.0
  H  H6  1  0.83428000  0.87417000  0.18278000  1.0
  H  H7  1  0.16572000  0.12581000  0.81722000  1.0
  H  H8  1  0.72118000  0.82281000  0.05452000  1.0
  H  H9  1  0.27882000  0.17719000  0.94548000  1.0
  H  H10  1  0.26814000  0.90520000  0.98827000  1.0
  H  H11  1  0.73186000  0.09480000  0.01173000  1.0
  H  H12  1  0.07912000  0.76667000  0.80066000  1.0
  H  H13  1  0.92089000  0.23333000  0.19934000  1.0
  H  H14  1  0.99518000  0.45766000  0.76416000  1.0
  H  H15  1  0.00483000  0.54234000  0.23583000  1.0
  H  H16  1  0.11451000  0.31657000  0.91356000  1.0
  H  H17  1  0.88550000  0.68343000  0.08644000  1.0
  H  H18  1  0.71916000  0.38374000  0.46177000  1.0
  H  H19  1  0.28083000  0.61626000  0.53823000  1.0
  H  H20  1  0.92559000  0.56234000  0.62362000  1.0
  H  H21  1  0.07440000  0.43765000  0.37639000  1.0
  H  H22  1  0.96506000  0.86515000  0.63699000  1.0
  H  H23  1  0.03494000  0.13485000  0.36301000  1.0
  H  H24  1  0.79453000  0.96404000  0.48682000  1.0
  H  H25  1  0.20547000  0.03597000  0.51319000  1.0
  C  C26  1  0.23489000  0.77489000  0.96670000  1.0
  C  C27  1  0.76512000  0.22511000  0.03330000  1.0
  C  C28  1  0.12734000  0.69591000  0.86237000  1.0
  C  C29  1  0.87267000  0.30409000  0.13763000  1.0
  C  C30  1  0.08356000  0.52853000  0.84139000  1.0
  C  C31  1  0.91645000  0.47148000  0.15860000  1.0
  C  C32  1  0.15270000  0.44720000  0.92395000  1.0
  C  C33  1  0.84731000  0.55280000  0.07605000  1.0
  C  C34  1  0.26548000  0.53482000  0.02359000  1.0
  C  C35  1  0.73453000  0.46519000  0.97641000  1.0
  C  C36  1  0.34902000  0.45363000  0.11121000  1.0
  C  C37  1  0.65098000  0.54637000  0.88879000  1.0
  C  C38  1  0.40847000  0.22417000  0.17051000  1.0
  C  C39  1  0.59153000  0.77583000  0.82949000  1.0
  C  C40  1  0.52534000  0.47486000  0.28425000  1.0
  C  C41  1  0.47466000  0.52514000  0.71576000  1.0
  C  C42  1  0.64580000  0.57867000  0.38637000  1.0
  C  C43  1  0.35420000  0.42132000  0.61363000  1.0
  C  C44  1  0.73719000  0.51269000  0.46856000  1.0
  C  C45  1  0.26280000  0.48731000  0.53144000  1.0
  C  C46  1  0.85339000  0.61429000  0.56073000  1.0
  C  C47  1  0.14660000  0.38570000  0.43928000  1.0
  C  C48  1  0.87466000  0.77893000  0.56801000  1.0
  C  C49  1  0.12534000  0.22107000  0.43199000  1.0
  C  C50  1  0.77844000  0.83532000  0.48238000  1.0
  C  C51  1  0.22155000  0.16467000  0.51762000  1.0
  N  N52  1  0.30392000  0.69727000  0.04581000  1.0
  N  N53  1  0.69609000  0.30273000  0.95419000  1.0
  N  N54  1  0.44452000  0.54976000  0.20859000  1.0
  N  N55  1  0.55548000  0.45024000  0.79141000  1.0
  N  N56  1  0.32871000  0.29581000  0.08689000  1.0
  N  N57  1  0.67130000  0.70419000  0.91311000  1.0
  N  N58  1  0.50887000  0.31776000  0.27126000  1.0
  N  N59  1  0.49113000  0.68225000  0.72874000  1.0
  N  N60  1  0.66546000  0.73924000  0.39326000  1.0
  N  N61  1  0.33454000  0.26077000  0.60674000  1.0
  Cl  Cl62  1  0.18546000  0.79158000  0.35809000  1.0
  Cl  Cl63  1  0.81453000  0.20841000  0.64191000  1.0
  O  O64  1  0.39351000  0.07562000  0.15346000  1.0
  O  O65  1  0.60649000  0.92438000  0.84654000  1.0
  O  O66  1  0.62516000  0.09294000  0.37684000  1.0
  O  O67  1  0.37483000  0.90706000  0.62316000  1.0
  O  O68  1  0.73319000  0.88841000  0.13599000  1.0
  O  O69  1  0.26681000  0.11159000  0.86401000  1.0
