# generated using pymatgen
data_AgH3C5(NO2)2
_symmetry_space_group_name_H-M   'P 1'
_cell_length_a   4.92052000
_cell_length_b   6.10077000
_cell_length_c   12.12373555
_cell_angle_alpha   76.68410107
_cell_angle_beta   88.86559661
_cell_angle_gamma   73.22300000
_symmetry_Int_Tables_number   1
_chemical_formula_structural   AgH3C5(NO2)2
_chemical_formula_sum   'Ag2 H6 C10 N4 O8'
_cell_volume   338.65689328
_cell_formula_units_Z   2
loop_
 _symmetry_equiv_pos_site_id
 _symmetry_equiv_pos_as_xyz
  1  'x, y, z'
loop_
 _atom_site_type_symbol
 _atom_site_label
 _atom_site_symmetry_multiplicity
 _atom_site_fract_x
 _atom_site_fract_y
 _atom_site_fract_z
 _atom_site_occupancy
  Ag  Ag0  1  0.00512000  0.13555000  0.07799000  1.0
  Ag  Ag1  1  0.99488000  0.86445000  0.92202000  1.0
  H  H2  1  0.49533000  0.85232000  0.32367000  1.0
  H  H3  1  0.50466000  0.14768000  0.67633000  1.0
  H  H4  1  0.03488000  0.38331000  0.42539000  1.0
  H  H5  1  0.96512000  0.61669000  0.57461000  1.0
  H  H6  1  0.43453000  0.41811000  0.11012000  1.0
  H  H7  1  0.56547000  0.58190000  0.88988000  1.0
  C  C8  1  0.26399000  0.62522000  0.39285000  1.0
  C  C9  1  0.73600000  0.37478000  0.60715000  1.0
  C  C10  1  0.21842000  0.36772000  0.26942000  1.0
  C  C11  1  0.78159000  0.63228000  0.73058000  1.0
  C  C12  1  0.39106000  0.47312000  0.18929000  1.0
  C  C13  1  0.60894000  0.52689000  0.81070000  1.0
  C  C14  1  0.49281000  0.64214000  0.21411000  1.0
  C  C15  1  0.50719000  0.35786000  0.78589000  1.0
  C  C16  1  0.67383000  0.76528000  0.13629000  1.0
  C  C17  1  0.32617000  0.23472000  0.86371000  1.0
  N  N18  1  0.43455000  0.71150000  0.31368000  1.0
  N  N19  1  0.56544000  0.28849000  0.68633000  1.0
  N  N20  1  0.16823000  0.45099000  0.36749000  1.0
  N  N21  1  0.83177000  0.54901000  0.63251000  1.0
  O  O22  1  0.74336000  0.92284000  0.17166000  1.0
  O  O23  1  0.25663000  0.07717000  0.82834000  1.0
  O  O24  1  0.73847000  0.69769000  0.04520000  1.0
  O  O25  1  0.26155000  0.30231000  0.95480000  1.0
  O  O26  1  0.20367000  0.70034000  0.47982000  1.0
  O  O27  1  0.79632000  0.29966000  0.52018000  1.0
  O  O28  1  0.11030000  0.21235000  0.25665000  1.0
  O  O29  1  0.88971000  0.78764000  0.74335000  1.0
