# generated using pymatgen
data_MoH12C9(NO2)2
_symmetry_space_group_name_H-M   'P 1'
_cell_length_a   8.60880000
_cell_length_b   9.90091000
_cell_length_c   13.82960000
_cell_angle_alpha   90.00000000
_cell_angle_beta   90.00000000
_cell_angle_gamma   106.97400000
_symmetry_Int_Tables_number   1
_chemical_formula_structural   MoH12C9(NO2)2
_chemical_formula_sum   'Mo4 H48 C36 N8 O16'
_cell_volume   1127.41515716
_cell_formula_units_Z   4
loop_
 _symmetry_equiv_pos_site_id
 _symmetry_equiv_pos_as_xyz
  1  'x, y, z'
loop_
 _atom_site_type_symbol
 _atom_site_label
 _atom_site_symmetry_multiplicity
 _atom_site_fract_x
 _atom_site_fract_y
 _atom_site_fract_z
 _atom_site_occupancy
  Mo  Mo0  1  0.53407000  0.41005000  0.97669000  1.0
  Mo  Mo1  1  0.96593000  0.58995000  0.47669000  1.0
  Mo  Mo2  1  0.46592000  0.58996000  0.02331000  1.0
  Mo  Mo3  1  0.03408000  0.41003000  0.52331000  1.0
  H  H4  1  0.07521000  0.66428000  0.00848000  1.0
  H  H5  1  0.42479000  0.33571000  0.50849000  1.0
  H  H6  1  0.92479000  0.33571000  0.99151000  1.0
  H  H7  1  0.57521000  0.66428000  0.49151000  1.0
  H  H8  1  0.01886000  0.74849000  0.11084000  1.0
  H  H9  1  0.48115000  0.25150000  0.61083000  1.0
  H  H10  1  0.98115000  0.25150000  0.88916000  1.0
  H  H11  1  0.51885000  0.74849000  0.38916000  1.0
  H  H12  1  0.02611000  0.82834000  0.99578000  1.0
  H  H13  1  0.47388000  0.17166000  0.49579000  1.0
  H  H14  1  0.97389000  0.17166000  0.00421000  1.0
  H  H15  1  0.52611000  0.82833000  0.50421000  1.0
  H  H16  1  0.60234000  0.43473000  0.32914000  1.0
  H  H17  1  0.89767000  0.56527000  0.82914000  1.0
  H  H18  1  0.39767000  0.56527000  0.67086000  1.0
  H  H19  1  0.10233000  0.43473000  0.17086000  1.0
  H  H20  1  0.51276000  0.25490000  0.29437000  1.0
  H  H21  1  0.98724000  0.74510000  0.79437000  1.0
  H  H22  1  0.48724000  0.74510000  0.70563000  1.0
  H  H23  1  0.01276000  0.25490000  0.20563000  1.0
  H  H24  1  0.38888000  0.36581000  0.32630000  1.0
  H  H25  1  0.11112000  0.63419000  0.82630000  1.0
  H  H26  1  0.61112000  0.63419000  0.67370000  1.0
  H  H27  1  0.88887000  0.36581000  0.17370000  1.0
  H  H28  1  0.61297000  0.90588000  0.98790000  1.0
  H  H29  1  0.88703000  0.09412000  0.48790000  1.0
  H  H30  1  0.38703000  0.09412000  0.01210000  1.0
  H  H31  1  0.11297000  0.90588000  0.51210000  1.0
  H  H32  1  0.67190000  0.34547000  0.74883000  1.0
  H  H33  1  0.82811000  0.65454000  0.24883000  1.0
  H  H34  1  0.32811000  0.65454000  0.25117000  1.0
  H  H35  1  0.17190000  0.34547000  0.75117000  1.0
  H  H36  1  0.83779000  0.15651000  0.69177000  1.0
  H  H37  1  0.66221000  0.84350000  0.19177000  1.0
  H  H38  1  0.16221000  0.84350000  0.30823000  1.0
  H  H39  1  0.33779000  0.15651000  0.80823000  1.0
  H  H40  1  0.81287000  0.90110000  0.74863000  1.0
  H  H41  1  0.68713000  0.09890000  0.24863000  1.0
  H  H42  1  0.18713000  0.09890000  0.25137000  1.0
  H  H43  1  0.31287000  0.90111000  0.75137000  1.0
  H  H44  1  0.72776000  0.84661000  0.86503000  1.0
  H  H45  1  0.77224000  0.15340000  0.36503000  1.0
  H  H46  1  0.27224000  0.15340000  0.13497000  1.0
  H  H47  1  0.22776000  0.84661000  0.63497000  1.0
  H  H48  1  0.92407000  0.97338000  0.85489000  1.0
  H  H49  1  0.57592000  0.02662000  0.35489000  1.0
  H  H50  1  0.07592000  0.02662000  0.14511000  1.0
  H  H51  1  0.42408000  0.97339000  0.64511000  1.0
  C  C52  1  0.82142000  0.64709000  0.01909000  1.0
  C  C53  1  0.67859000  0.35291000  0.51909000  1.0
  C  C54  1  0.17859000  0.35290000  0.98091000  1.0
  C  C55  1  0.32141000  0.64709000  0.48091000  1.0
  C  C56  1  0.99654000  0.72622000  0.03336000  1.0
  C  C57  1  0.50346000  0.27378000  0.53336000  1.0
  C  C58  1  0.00346000  0.27378000  0.96664000  1.0
  C  C59  1  0.49654000  0.72622000  0.46664000  1.0
  C  C60  1  0.50128000  0.40795000  0.18693000  1.0
  C  C61  1  0.99872000  0.59204000  0.68693000  1.0
  C  C62  1  0.49872000  0.59204000  0.81307000  1.0
  C  C63  1  0.00127000  0.40795000  0.31307000  1.0
  C  C64  1  0.50092000  0.36180000  0.28999000  1.0
  C  C65  1  0.99908000  0.63820000  0.78999000  1.0
  C  C66  1  0.49908000  0.63820000  0.71001000  1.0
  C  C67  1  0.00092000  0.36180000  0.21001000  1.0
  C  C68  1  0.62591000  0.08057000  0.89060000  1.0
  C  C69  1  0.87409000  0.91944000  0.39061000  1.0
  C  C70  1  0.37409000  0.91944000  0.10939000  1.0
  C  C71  1  0.12591000  0.08056000  0.60940000  1.0
  C  C72  1  0.56101000  0.99147000  0.97179000  1.0
  C  C73  1  0.93899000  0.00854000  0.47179000  1.0
  C  C74  1  0.43899000  0.00854000  0.02821000  1.0
  C  C75  1  0.06101000  0.99147000  0.52822000  1.0
  C  C76  1  0.67659000  0.24799000  0.78255000  1.0
  C  C77  1  0.82341000  0.75201000  0.28255000  1.0
  C  C78  1  0.32342000  0.75201000  0.21745000  1.0
  C  C79  1  0.17659000  0.24799000  0.71746000  1.0
  C  C80  1  0.75812000  0.15451000  0.75284000  1.0
  C  C81  1  0.74188000  0.84549000  0.25284000  1.0
  C  C82  1  0.24188000  0.84549000  0.24716000  1.0
  C  C83  1  0.25813000  0.15451000  0.74717000  1.0
  C  C84  1  0.80192000  0.93571000  0.82298000  1.0
  C  C85  1  0.69808000  0.06429000  0.32299000  1.0
  C  C86  1  0.19807000  0.06429000  0.17702000  1.0
  C  C87  1  0.30193000  0.93571000  0.67702000  1.0
  N  N88  1  0.59553000  0.20259000  0.86747000  1.0
  N  N89  1  0.90447000  0.79741000  0.36747000  1.0
  N  N90  1  0.40447000  0.79741000  0.13253000  1.0
  N  N91  1  0.09553000  0.20259000  0.63253000  1.0
  N  N92  1  0.72628000  0.04918000  0.82148000  1.0
  N  N93  1  0.77372000  0.95083000  0.32148000  1.0
  N  N94  1  0.27372000  0.95083000  0.17852000  1.0
  N  N95  1  0.22628000  0.04918000  0.67852000  1.0
  O  O96  1  0.78154000  0.51751000  0.99066000  1.0
  O  O97  1  0.71845000  0.48248000  0.49066000  1.0
  O  O98  1  0.21846000  0.48248000  0.00934000  1.0
  O  O99  1  0.28154000  0.51751000  0.50934000  1.0
  O  O100  1  0.53879000  0.33427000  0.11861000  1.0
  O  O101  1  0.96120000  0.66573000  0.61861000  1.0
  O  O102  1  0.46121000  0.66573000  0.88139000  1.0
  O  O103  1  0.03879000  0.33427000  0.38139000  1.0
  O  O104  1  0.71208000  0.70909000  0.03680000  1.0
  O  O105  1  0.78793000  0.29091000  0.53680000  1.0
  O  O106  1  0.28793000  0.29091000  0.96320000  1.0
  O  O107  1  0.21207000  0.70909000  0.46320000  1.0
  O  O108  1  0.46435000  0.52172000  0.16840000  1.0
  O  O109  1  0.03566000  0.47828000  0.66840000  1.0
  O  O110  1  0.53566000  0.47828000  0.83160000  1.0
  O  O111  1  0.96434000  0.52172000  0.33160000  1.0
