# generated using pymatgen
data_ZnH4C15S(NO3)5
_symmetry_space_group_name_H-M   'P 1'
_cell_length_a   9.20952000
_cell_length_b   17.86890000
_cell_length_c   34.73840000
_cell_angle_alpha   90.20010000
_cell_angle_beta   89.80720000
_cell_angle_gamma   89.92440000
_symmetry_Int_Tables_number   1
_chemical_formula_structural   ZnH4C15S(NO3)5
_chemical_formula_sum   'Zn4 H16 C60 S4 N20 O60'
_cell_volume   5716.61748350
_cell_formula_units_Z   4
loop_
 _symmetry_equiv_pos_site_id
 _symmetry_equiv_pos_as_xyz
  1  'x, y, z'
loop_
 _atom_site_type_symbol
 _atom_site_label
 _atom_site_symmetry_multiplicity
 _atom_site_fract_x
 _atom_site_fract_y
 _atom_site_fract_z
 _atom_site_occupancy
  Zn  Zn0  1  0.35927000  0.99436000  0.49985000  1.0
  Zn  Zn1  1  0.64136000  0.00566000  0.49960000  1.0
  Zn  Zn2  1  0.73802000  0.99240000  0.00022000  1.0
  Zn  Zn3  1  0.45591000  0.00422000  0.00038000  1.0
  H  H4  1  0.28150000  0.76635000  0.50052000  1.0
  H  H5  1  0.26683000  0.62839000  0.49813000  1.0
  H  H6  1  0.73577000  0.61774000  0.49638000  1.0
  H  H7  1  0.26261000  0.38226000  0.49587000  1.0
  H  H8  1  0.71618000  0.23346000  0.50159000  1.0
  H  H9  1  0.73142000  0.37132000  0.49900000  1.0
  H  H10  1  0.81472000  0.76455000  0.99956000  1.0
  H  H11  1  0.83011000  0.62667000  0.00232000  1.0
  H  H12  1  0.36125000  0.61609000  0.00470000  1.0
  H  H13  1  0.83462000  0.38009000  0.00483000  1.0
  H  H14  1  0.38034000  0.23238000  0.99896000  1.0
  H  H15  1  0.36575000  0.37033000  0.00185000  1.0
  H  H16  1  0.76390000  0.85683000  0.52753000  1.0
  H  H17  1  0.23233000  0.14383000  0.52711000  1.0
  H  H18  1  0.33119000  0.85456000  0.97344000  1.0
  H  H19  1  0.86348000  0.14134000  0.97302000  1.0
  C  C20  1  0.50704000  0.85447000  0.50061000  1.0
  C  C21  1  0.50151000  0.99985000  0.42537000  1.0
  C  C22  1  0.49072000  0.14547000  0.50113000  1.0
  C  C23  1  0.50231000  0.99983000  0.57482000  1.0
  C  C24  1  0.58883000  0.85271000  0.99954000  1.0
  C  C25  1  0.59717000  0.99890000  0.07462000  1.0
  C  C26  1  0.60548000  0.14384000  0.99915000  1.0
  C  C27  1  0.59626000  0.99764000  0.92527000  1.0
  C  C28  1  0.59537000  0.99864000  0.11797000  1.0
  C  C29  1  0.46454000  0.99713000  0.13893000  1.0
  C  C30  1  0.46107000  0.00092000  0.17893000  1.0
  C  C31  1  0.59078000  0.99707000  0.20036000  1.0
  C  C32  1  0.72153000  0.99501000  0.17932000  1.0
  C  C33  1  0.72415000  0.00009000  0.13945000  1.0
  C  C34  1  0.37629000  0.99580000  0.32071000  1.0
  C  C35  1  0.50681000  0.99772000  0.29958000  1.0
  C  C36  1  0.63669000  0.00168000  0.32095000  1.0
  C  C37  1  0.63361000  0.99790000  0.36094000  1.0
  C  C38  1  0.50298000  0.99946000  0.38199000  1.0
  C  C39  1  0.37404000  0.00091000  0.36059000  1.0
  C  C40  1  0.59504000  0.99775000  0.88187000  1.0
  C  C41  1  0.46463000  0.00035000  0.86100000  1.0
  C  C42  1  0.46167000  0.99606000  0.82103000  1.0
  C  C43  1  0.59178000  0.99926000  0.79954000  1.0
  C  C44  1  0.72226000  0.00038000  0.82046000  1.0
  C  C45  1  0.72403000  0.99498000  0.86030000  1.0
  C  C46  1  0.37686000  0.00154000  0.67970000  1.0
  C  C47  1  0.50748000  0.00023000  0.70056000  1.0
  C  C48  1  0.63750000  0.99749000  0.67898000  1.0
  C  C49  1  0.63421000  0.00213000  0.63904000  1.0
  C  C50  1  0.50370000  0.99960000  0.61822000  1.0
  C  C51  1  0.37486000  0.99653000  0.63982000  1.0
  C  C52  1  0.51467000  0.77132000  0.49917000  1.0
  C  C53  1  0.38076000  0.73328000  0.49929000  1.0
  C  C54  1  0.37232000  0.65588000  0.49796000  1.0
  C  C55  1  0.50075000  0.61304000  0.49676000  1.0
  C  C56  1  0.63579000  0.65024000  0.49681000  1.0
  C  C57  1  0.64391000  0.72778000  0.49787000  1.0
  C  C58  1  0.49810000  0.53408000  0.49617000  1.0
  C  C59  1  0.50052000  0.46579000  0.49624000  1.0
  C  C60  1  0.49761000  0.38684000  0.49701000  1.0
  C  C61  1  0.36248000  0.34973000  0.49673000  1.0
  C  C62  1  0.35413000  0.27221000  0.49789000  1.0
  C  C63  1  0.48308000  0.22861000  0.49966000  1.0
  C  C64  1  0.61707000  0.26656000  0.50009000  1.0
  C  C65  1  0.62583000  0.34393000  0.49865000  1.0
  C  C66  1  0.58153000  0.76959000  0.00117000  1.0
  C  C67  1  0.71562000  0.73153000  0.00097000  1.0
  C  C68  1  0.72446000  0.65416000  0.00250000  1.0
  C  C69  1  0.59627000  0.61137000  0.00393000  1.0
  C  C70  1  0.46106000  0.64857000  0.00399000  1.0
  C  C71  1  0.45258000  0.72608000  0.00279000  1.0
  C  C72  1  0.59929000  0.53245000  0.00466000  1.0
  C  C73  1  0.59696000  0.46417000  0.00461000  1.0
  C  C74  1  0.59960000  0.38524000  0.00381000  1.0
  C  C75  1  0.73459000  0.34781000  0.00397000  1.0
  C  C76  1  0.74259000  0.27027000  0.00265000  1.0
  C  C77  1  0.61341000  0.22698000  0.00083000  1.0
  C  C78  1  0.47958000  0.26525000  0.00052000  1.0
  C  C79  1  0.47119000  0.34265000  0.00213000  1.0
  S  S80  1  0.82822000  0.76244000  0.49668000  1.0
  S  S81  1  0.17010000  0.23746000  0.49591000  1.0
  S  S82  1  0.26833000  0.76086000  0.00457000  1.0
  S  S83  1  0.92654000  0.23503000  0.00434000  1.0
  N  N84  1  0.60731000  0.99610000  0.24038000  1.0
  N  N85  1  0.49007000  0.99649000  0.25956000  1.0
  N  N86  1  0.60839000  0.00046000  0.75950000  1.0
  N  N87  1  0.49099000  0.00096000  0.74060000  1.0
  N  N88  1  0.86831000  0.00839000  0.12058000  1.0
  N  N89  1  0.85967000  0.98841000  0.20088000  1.0
  N  N90  1  0.32272000  0.99011000  0.11875000  1.0
  N  N91  1  0.31748000  0.01004000  0.19781000  1.0
  N  N92  1  0.23785000  0.98940000  0.29923000  1.0
  N  N93  1  0.23000000  0.00932000  0.37956000  1.0
  N  N94  1  0.78002000  0.01100000  0.30203000  1.0
  N  N95  1  0.77555000  0.99069000  0.38103000  1.0
  N  N96  1  0.86781000  0.98546000  0.87902000  1.0
  N  N97  1  0.86085000  0.00659000  0.79884000  1.0
  N  N98  1  0.32244000  0.00822000  0.88122000  1.0
  N  N99  1  0.31837000  0.98640000  0.80234000  1.0
  N  N100  1  0.23829000  0.00760000  0.70139000  1.0
  N  N101  1  0.23103000  0.98708000  0.62110000  1.0
  N  N102  1  0.78111000  0.98827000  0.69754000  1.0
  N  N103  1  0.77604000  0.01047000  0.61876000  1.0
  O  O104  1  0.38134000  0.88430000  0.50322000  1.0
  O  O105  1  0.62574000  0.89272000  0.49915000  1.0
  O  O106  1  0.62120000  0.01394000  0.44198000  1.0
  O  O107  1  0.38107000  0.98614000  0.44178000  1.0
  O  O108  1  0.61630000  0.11578000  0.50359000  1.0
  O  O109  1  0.37202000  0.10703000  0.49982000  1.0
  O  O110  1  0.37935000  0.00602000  0.55876000  1.0
  O  O111  1  0.62459000  0.99375000  0.55807000  1.0
  O  O112  1  0.71444000  0.88236000  0.99688000  1.0
  O  O113  1  0.47007000  0.89115000  0.00089000  1.0
  O  O114  1  0.47760000  0.01304000  0.05799000  1.0
  O  O115  1  0.71779000  0.98499000  0.05825000  1.0
  O  O116  1  0.47982000  0.11438000  0.99658000  1.0
  O  O117  1  0.72406000  0.10516000  0.00035000  1.0
  O  O118  1  0.71923000  0.00340000  0.94139000  1.0
  O  O119  1  0.47393000  0.99180000  0.94196000  1.0
  O  O120  1  0.89583000  0.07073000  0.10771000  1.0
  O  O121  1  0.94657000  0.95241000  0.12086000  1.0
  O  O122  1  0.88558000  0.92661000  0.21466000  1.0
  O  O123  1  0.93423000  0.04553000  0.20235000  1.0
  O  O124  1  0.29463000  0.92766000  0.10592000  1.0
  O  O125  1  0.24703000  0.04696000  0.11796000  1.0
  O  O126  1  0.28849000  0.07355000  0.20922000  1.0
  O  O127  1  0.24024000  0.95391000  0.19877000  1.0
  O  O128  1  0.21177000  0.92770000  0.28519000  1.0
  O  O129  1  0.16321000  0.04661000  0.29809000  1.0
  O  O130  1  0.20238000  0.07169000  0.39263000  1.0
  O  O131  1  0.15193000  0.95337000  0.37915000  1.0
  O  O132  1  0.80785000  0.07447000  0.29063000  1.0
  O  O133  1  0.85825000  0.95512000  0.30105000  1.0
  O  O134  1  0.80350000  0.92821000  0.39368000  1.0
  O  O135  1  0.85138000  0.04737000  0.38196000  1.0
  O  O136  1  0.89687000  0.92183000  0.88987000  1.0
  O  O137  1  0.94467000  0.04176000  0.88051000  1.0
  O  O138  1  0.88771000  0.06850000  0.78530000  1.0
  O  O139  1  0.93494000  0.94921000  0.79712000  1.0
  O  O140  1  0.29152000  0.07173000  0.89220000  1.0
  O  O141  1  0.24889000  0.95094000  0.88379000  1.0
  O  O142  1  0.29069000  0.92261000  0.79120000  1.0
  O  O143  1  0.23979000  0.04213000  0.80141000  1.0
  O  O144  1  0.21104000  0.06948000  0.71517000  1.0
  O  O145  1  0.16458000  0.95019000  0.70289000  1.0
  O  O146  1  0.20250000  0.92357000  0.60980000  1.0
  O  O147  1  0.15360000  0.04330000  0.62005000  1.0
  O  O148  1  0.81075000  0.92440000  0.70801000  1.0
  O  O149  1  0.85799000  0.04450000  0.69905000  1.0
  O  O150  1  0.80601000  0.07416000  0.60815000  1.0
  O  O151  1  0.85022000  0.95336000  0.61573000  1.0
  O  O152  1  0.83297000  0.81558000  0.53374000  1.0
  O  O153  1  0.92375000  0.70123000  0.50542000  1.0
  O  O154  1  0.84847000  0.80530000  0.46215000  1.0
  O  O155  1  0.16219000  0.18500000  0.53299000  1.0
  O  O156  1  0.07364000  0.29878000  0.50409000  1.0
  O  O157  1  0.15335000  0.19393000  0.46134000  1.0
  O  O158  1  0.26147000  0.81341000  0.96751000  1.0
  O  O159  1  0.17250000  0.69957000  0.99625000  1.0
  O  O160  1  0.25001000  0.80426000  0.03916000  1.0
  O  O161  1  0.93366000  0.18232000  0.96715000  1.0
  O  O162  1  0.02320000  0.29603000  0.99616000  1.0
  O  O163  1  0.94371000  0.19170000  0.03881000  1.0
