# generated using pymatgen
data_Cd2H17C16N10O7
_symmetry_space_group_name_H-M   'P 1'
_cell_length_a   12.44460000
_cell_length_b   15.27620000
_cell_length_c   15.40840000
_cell_angle_alpha   96.58480000
_cell_angle_beta   89.99980000
_cell_angle_gamma   89.99990000
_symmetry_Int_Tables_number   1
_chemical_formula_structural   Cd2H17C16N10O7
_chemical_formula_sum   'Cd8 H68 C64 N40 O28'
_cell_volume   2909.90885469
_cell_formula_units_Z   4
loop_
 _symmetry_equiv_pos_site_id
 _symmetry_equiv_pos_as_xyz
  1  'x, y, z'
loop_
 _atom_site_type_symbol
 _atom_site_label
 _atom_site_symmetry_multiplicity
 _atom_site_fract_x
 _atom_site_fract_y
 _atom_site_fract_z
 _atom_site_occupancy
  Cd  Cd0  1  0.15565000  0.67396000  0.68062000  1.0
  Cd  Cd1  1  0.65565000  0.32604000  0.81937000  1.0
  Cd  Cd2  1  0.84435000  0.32604000  0.31938000  1.0
  Cd  Cd3  1  0.34435000  0.67396000  0.18062000  1.0
  Cd  Cd4  1  0.15437000  0.37950000  0.73164000  1.0
  Cd  Cd5  1  0.65438000  0.62050000  0.76836000  1.0
  Cd  Cd6  1  0.84562000  0.62050000  0.26836000  1.0
  Cd  Cd7  1  0.34563000  0.37950000  0.23164000  1.0
  H  H8  1  0.02114000  0.04282000  0.73031000  1.0
  H  H9  1  0.52114000  0.95719000  0.76969000  1.0
  H  H10  1  0.97886000  0.95718000  0.26969000  1.0
  H  H11  1  0.47887000  0.04281000  0.23031000  1.0
  H  H12  1  0.00305000  0.20306000  0.72662000  1.0
  H  H13  1  0.50306000  0.79694000  0.77338000  1.0
  H  H14  1  0.99694000  0.79694000  0.27338000  1.0
  H  H15  1  0.49695000  0.20306000  0.22662000  1.0
  H  H16  1  0.33423000  0.23792000  0.72353000  1.0
  H  H17  1  0.83424000  0.76208000  0.77647000  1.0
  H  H18  1  0.66576000  0.76207000  0.27646000  1.0
  H  H19  1  0.16577000  0.23792000  0.22353000  1.0
  H  H20  1  0.36670000  0.07725000  0.73155000  1.0
  H  H21  1  0.86670000  0.92275000  0.76844000  1.0
  H  H22  1  0.63330000  0.92275000  0.26844000  1.0
  H  H23  1  0.13330000  0.07725000  0.23155000  1.0
  H  H24  1  0.45523000  0.56111000  0.41912000  1.0
  H  H25  1  0.95523000  0.43889000  0.08089000  1.0
  H  H26  1  0.54477000  0.43890000  0.58089000  1.0
  H  H27  1  0.04477000  0.56112000  0.91912000  1.0
  H  H28  1  0.59027000  0.56140000  0.29982000  1.0
  H  H29  1  0.09027000  0.43860000  0.20018000  1.0
  H  H30  1  0.40973000  0.43861000  0.70018000  1.0
  H  H31  1  0.90973000  0.56140000  0.79982000  1.0
  H  H32  1  0.81076000  0.69802000  0.46611000  1.0
  H  H33  1  0.31076000  0.30198000  0.03389000  1.0
  H  H34  1  0.18924000  0.30199000  0.53390000  1.0
  H  H35  1  0.68923000  0.69802000  0.96611000  1.0
  H  H36  1  0.68347000  0.70629000  0.59148000  1.0
  H  H37  1  0.18346000  0.29371000  0.90852000  1.0
  H  H38  1  0.31654000  0.29372000  0.40852000  1.0
  H  H39  1  0.81653000  0.70629000  0.09149000  1.0
  H  H40  1  0.99130000  0.59208000  0.55010000  1.0
  H  H41  1  0.49130000  0.40792000  0.94990000  1.0
  H  H42  1  0.00871000  0.40792000  0.44990000  1.0
  H  H43  1  0.50870000  0.59208000  0.05009000  1.0
  H  H44  1  0.81374000  0.51487000  0.49847000  1.0
  H  H45  1  0.31375000  0.48513000  0.00153000  1.0
  H  H46  1  0.18626000  0.48513000  0.50153000  1.0
  H  H47  1  0.68626000  0.51487000  0.99847000  1.0
  H  H48  1  0.84976000  0.42992000  0.56109000  1.0
  H  H49  1  0.34976000  0.57008000  0.93892000  1.0
  H  H50  1  0.15024000  0.57007000  0.43891000  1.0
  H  H51  1  0.65024000  0.42993000  0.06109000  1.0
  H  H52  1  0.24248000  0.69451000  0.84468000  1.0
  H  H53  1  0.74249000  0.30549000  0.65533000  1.0
  H  H54  1  0.75751000  0.30549000  0.15533000  1.0
  H  H55  1  0.25753000  0.69451000  0.34468000  1.0
  H  H56  1  0.13914000  0.70243000  0.48995000  1.0
  H  H57  1  0.63914000  0.29756000  0.01005000  1.0
  H  H58  1  0.86086000  0.29756000  0.51006000  1.0
  H  H59  1  0.36086000  0.70243000  0.98994000  1.0
  H  H60  1  0.99228000  0.79440000  0.66031000  1.0
  H  H61  1  0.49229000  0.20559000  0.83969000  1.0
  H  H62  1  0.00771000  0.20559000  0.33970000  1.0
  H  H63  1  0.50771000  0.79440000  0.16031000  1.0
  H  H64  1  0.20478000  0.59396000  0.83599000  1.0
  H  H65  1  0.70478000  0.40604000  0.66401000  1.0
  H  H66  1  0.79522000  0.40603000  0.16401000  1.0
  H  H67  1  0.29522000  0.59396000  0.33599000  1.0
  H  H68  1  0.26041000  0.68234000  0.51780000  1.0
  H  H69  1  0.76041000  0.31765000  0.98220000  1.0
  H  H70  1  0.73959000  0.31765000  0.48220000  1.0
  H  H71  1  0.23959000  0.68234000  0.01780000  1.0
  H  H72  1  0.92901000  0.69965000  0.64790000  1.0
  H  H73  1  0.42900000  0.30035000  0.85210000  1.0
  H  H74  1  0.07100000  0.30035000  0.35210000  1.0
  H  H75  1  0.57099000  0.69965000  0.14790000  1.0
  C  C76  1  0.21484000  0.95289000  0.73820000  1.0
  C  C77  1  0.71484000  0.04711000  0.76180000  1.0
  C  C78  1  0.78516000  0.04711000  0.26180000  1.0
  C  C79  1  0.28516000  0.95289000  0.23820000  1.0
  C  C80  1  0.19656000  0.04625000  0.73272000  1.0
  C  C81  1  0.69656000  0.95375000  0.76727000  1.0
  C  C82  1  0.80344000  0.95375000  0.26727000  1.0
  C  C83  1  0.30344000  0.04625000  0.23273000  1.0
  C  C84  1  0.09341000  0.08293000  0.72967000  1.0
  C  C85  1  0.59341000  0.91707000  0.77033000  1.0
  C  C86  1  0.90659000  0.91707000  0.27033000  1.0
  C  C87  1  0.40660000  0.08293000  0.22968000  1.0
  C  C88  1  0.08278000  0.17324000  0.72708000  1.0
  C  C89  1  0.58278000  0.82676000  0.77292000  1.0
  C  C90  1  0.91722000  0.82676000  0.27292000  1.0
  C  C91  1  0.41723000  0.17323000  0.22708000  1.0
  C  C92  1  0.26755000  0.19205000  0.72633000  1.0
  C  C93  1  0.76755000  0.80795000  0.77367000  1.0
  C  C94  1  0.73244000  0.80795000  0.27367000  1.0
  C  C95  1  0.23246000  0.19205000  0.22633000  1.0
  C  C96  1  0.28522000  0.10317000  0.73047000  1.0
  C  C97  1  0.78522000  0.89683000  0.76952000  1.0
  C  C98  1  0.71478000  0.89683000  0.26952000  1.0
  C  C99  1  0.21478000  0.10317000  0.23048000  1.0
  C  C100  1  0.48139000  0.63010000  0.58673000  1.0
  C  C101  1  0.98138000  0.36990000  0.91327000  1.0
  C  C102  1  0.51862000  0.36990000  0.41327000  1.0
  C  C103  1  0.01861000  0.63011000  0.08673000  1.0
  C  C104  1  0.55920000  0.63193000  0.51598000  1.0
  C  C105  1  0.05920000  0.36808000  0.98402000  1.0
  C  C106  1  0.44080000  0.36808000  0.48402000  1.0
  C  C107  1  0.94079000  0.63193000  0.01598000  1.0
  C  C108  1  0.53317000  0.59207000  0.43204000  1.0
  C  C109  1  0.03317000  0.40793000  0.06797000  1.0
  C  C110  1  0.46683000  0.40793000  0.56797000  1.0
  C  C111  1  0.96683000  0.59208000  0.93204000  1.0
  C  C112  1  0.60851000  0.59203000  0.36551000  1.0
  C  C113  1  0.10852000  0.40797000  0.13449000  1.0
  C  C114  1  0.39149000  0.40797000  0.63449000  1.0
  C  C115  1  0.89149000  0.59204000  0.86552000  1.0
  C  C116  1  0.73083000  0.66880000  0.45821000  1.0
  C  C117  1  0.23082000  0.33120000  0.04179000  1.0
  C  C118  1  0.26918000  0.33121000  0.54180000  1.0
  C  C119  1  0.76917000  0.66880000  0.95821000  1.0
  C  C120  1  0.65986000  0.67260000  0.52831000  1.0
  C  C121  1  0.15985000  0.32739000  0.97170000  1.0
  C  C122  1  0.34015000  0.32740000  0.47170000  1.0
  C  C123  1  0.84014000  0.67261000  0.02831000  1.0
  C  C124  1  0.04235000  0.48201000  0.61611000  1.0
  C  C125  1  0.54235000  0.51798000  0.88388000  1.0
  C  C126  1  0.95765000  0.51798000  0.38389000  1.0
  C  C127  1  0.45765000  0.48201000  0.11611000  1.0
  C  C128  1  0.97924000  0.52059000  0.54493000  1.0
  C  C129  1  0.47924000  0.47941000  0.95506000  1.0
  C  C130  1  0.02076000  0.47941000  0.45506000  1.0
  C  C131  1  0.52076000  0.52059000  0.04493000  1.0
  C  C132  1  0.85993000  0.50041000  0.55618000  1.0
  C  C133  1  0.35994000  0.49959000  0.94382000  1.0
  C  C134  1  0.14007000  0.49959000  0.44382000  1.0
  C  C135  1  0.64007000  0.50041000  0.05618000  1.0
  C  C136  1  0.80540000  0.55121000  0.63404000  1.0
  C  C137  1  0.30540000  0.44879000  0.86596000  1.0
  C  C138  1  0.19460000  0.44879000  0.36596000  1.0
  C  C139  1  0.69460000  0.55121000  0.13404000  1.0
  N  N140  1  0.19731000  0.81523000  0.73294000  1.0
  N  N141  1  0.69732000  0.18477000  0.76706000  1.0
  N  N142  1  0.80268000  0.18477000  0.26707000  1.0
  N  N143  1  0.30269000  0.81523000  0.23294000  1.0
  N  N144  1  0.29825000  0.83472000  0.75850000  1.0
  N  N145  1  0.79824000  0.16528000  0.74150000  1.0
  N  N146  1  0.70176000  0.16528000  0.24150000  1.0
  N  N147  1  0.20176000  0.83472000  0.25850000  1.0
  N  N148  1  0.31108000  0.92124000  0.76200000  1.0
  N  N149  1  0.81108000  0.07876000  0.73800000  1.0
  N  N150  1  0.68892000  0.07876000  0.23800000  1.0
  N  N151  1  0.18892000  0.92124000  0.26200000  1.0
  N  N152  1  0.14234000  0.88759000  0.71993000  1.0
  N  N153  1  0.64234000  0.11242000  0.78007000  1.0
  N  N154  1  0.85766000  0.11241000  0.28008000  1.0
  N  N155  1  0.35766000  0.88758000  0.21993000  1.0
  N  N156  1  0.16823000  0.22746000  0.72585000  1.0
  N  N157  1  0.66824000  0.77254000  0.77415000  1.0
  N  N158  1  0.83176000  0.77254000  0.27415000  1.0
  N  N159  1  0.33178000  0.22745000  0.22585000  1.0
  N  N160  1  0.33215000  0.62628000  0.65298000  1.0
  N  N161  1  0.83215000  0.37372000  0.84702000  1.0
  N  N162  1  0.66785000  0.37372000  0.34702000  1.0
  N  N163  1  0.16785000  0.62628000  0.15298000  1.0
  N  N164  1  0.40769000  0.62386000  0.71264000  1.0
  N  N165  1  0.90769000  0.37615000  0.78736000  1.0
  N  N166  1  0.59231000  0.37615000  0.28736000  1.0
  N  N167  1  0.09231000  0.62385000  0.21265000  1.0
  N  N168  1  0.50303000  0.62629000  0.67254000  1.0
  N  N169  1  0.00303000  0.37371000  0.82747000  1.0
  N  N170  1  0.49697000  0.37371000  0.32747000  1.0
  N  N171  1  0.99697000  0.62629000  0.17254000  1.0
  N  N172  1  0.37479000  0.62976000  0.57352000  1.0
  N  N173  1  0.87479000  0.37025000  0.92649000  1.0
  N  N174  1  0.62521000  0.37025000  0.42649000  1.0
  N  N175  1  0.12521000  0.62976000  0.07351000  1.0
  N  N176  1  0.70662000  0.62850000  0.37817000  1.0
  N  N177  1  0.20662000  0.37150000  0.12183000  1.0
  N  N178  1  0.29338000  0.37150000  0.62183000  1.0
  N  N179  1  0.79338000  0.62850000  0.87818000  1.0
  O  O180  1  0.09499000  0.53202000  0.67346000  1.0
  O  O181  1  0.59498000  0.46798000  0.82653000  1.0
  O  O182  1  0.90502000  0.46798000  0.32654000  1.0
  O  O183  1  0.40501000  0.53202000  0.17346000  1.0
  O  O184  1  0.04026000  0.39891000  0.61587000  1.0
  O  O185  1  0.54026000  0.60109000  0.88413000  1.0
  O  O186  1  0.95974000  0.60109000  0.38413000  1.0
  O  O187  1  0.45974000  0.39891000  0.11587000  1.0
  O  O188  1  0.83540000  0.62752000  0.66496000  1.0
  O  O189  1  0.33540000  0.37247000  0.83504000  1.0
  O  O190  1  0.16460000  0.37247000  0.33504000  1.0
  O  O191  1  0.66460000  0.62753000  0.16496000  1.0
  O  O192  1  0.72343000  0.51433000  0.66521000  1.0
  O  O193  1  0.22343000  0.48567000  0.83479000  1.0
  O  O194  1  0.27657000  0.48567000  0.33479000  1.0
  O  O195  1  0.77657000  0.51433000  0.16521000  1.0
  O  O196  1  0.18070000  0.65596000  0.83173000  1.0
  O  O197  1  0.68071000  0.34404000  0.66826000  1.0
  O  O198  1  0.81929000  0.34404000  0.16827000  1.0
  O  O199  1  0.31930000  0.65596000  0.33173000  1.0
  O  O200  1  0.19414000  0.71636000  0.53420000  1.0
  O  O201  1  0.69413000  0.28364000  0.96580000  1.0
  O  O202  1  0.80586000  0.28364000  0.46580000  1.0
  O  O203  1  0.30586000  0.71636000  0.03419000  1.0
  O  O204  1  0.99504000  0.73302000  0.63440000  1.0
  O  O205  1  0.49504000  0.26698000  0.86559000  1.0
  O  O206  1  0.00496000  0.26698000  0.36560000  1.0
  O  O207  1  0.50496000  0.73302000  0.13440000  1.0
