# generated using pymatgen
data_ErH8C6O7
_symmetry_space_group_name_H-M   'P 1'
_cell_length_a   7.49742000
_cell_length_b   8.41471000
_cell_length_c   13.81750000
_cell_angle_alpha   96.47360000
_cell_angle_beta   98.05970000
_cell_angle_gamma   99.39800000
_symmetry_Int_Tables_number   1
_chemical_formula_structural   ErH8C6O7
_chemical_formula_sum   'Er4 H32 C24 O28'
_cell_volume   843.28239479
_cell_formula_units_Z   4
loop_
 _symmetry_equiv_pos_site_id
 _symmetry_equiv_pos_as_xyz
  1  'x, y, z'
loop_
 _atom_site_type_symbol
 _atom_site_label
 _atom_site_symmetry_multiplicity
 _atom_site_fract_x
 _atom_site_fract_y
 _atom_site_fract_z
 _atom_site_occupancy
  Er  Er0  1  0.59750000  0.98523000  0.70711000  1.0
  Er  Er1  1  0.40250000  0.01477000  0.29289000  1.0
  Er  Er2  1  0.14023000  0.07954000  0.79452000  1.0
  Er  Er3  1  0.85977000  0.92045000  0.20548000  1.0
  H  H4  1  0.34501000  0.59271000  0.84089000  1.0
  H  H5  1  0.65500000  0.40729000  0.15911000  1.0
  H  H6  1  0.54306000  0.72017000  0.90919000  1.0
  H  H7  1  0.45694000  0.27983000  0.09081000  1.0
  H  H8  1  0.04228000  0.66126000  0.75501000  1.0
  H  H9  1  0.95772000  0.33874000  0.24500000  1.0
  H  H10  1  0.95654000  0.62345000  0.86354000  1.0
  H  H11  1  0.04345000  0.37655000  0.13647000  1.0
  H  H12  1  0.96947000  0.79627000  0.43086000  1.0
  H  H13  1  0.03053000  0.20374000  0.56914000  1.0
  H  H14  1  0.96254000  0.63732000  0.50326000  1.0
  H  H15  1  0.03746000  0.36268000  0.49674000  1.0
  H  H16  1  0.36577000  0.52192000  0.00525000  1.0
  H  H17  1  0.63424000  0.47808000  0.99475000  1.0
  H  H18  1  0.18585000  0.63394000  0.99404000  1.0
  H  H19  1  0.81415000  0.36606000  0.00596000  1.0
  H  H20  1  0.61258000  0.61232000  0.48431000  1.0
  H  H21  1  0.38742000  0.38768000  0.51569000  1.0
  H  H22  1  0.69647000  0.56190000  0.37249000  1.0
  H  H23  1  0.30353000  0.43810000  0.62751000  1.0
  H  H24  1  0.78195000  0.44828000  0.65499000  1.0
  H  H25  1  0.21805000  0.55172000  0.34501000  1.0
  H  H26  1  0.70058000  0.40748000  0.76315000  1.0
  H  H27  1  0.29942000  0.59252000  0.23685000  1.0
  H  H28  1  0.02819000  0.14080000  0.99465000  1.0
  H  H29  1  0.97181000  0.85920000  0.00535000  1.0
  H  H30  1  0.87384000  0.16796000  0.91214000  1.0
  H  H31  1  0.12616000  0.83204000  0.08786000  1.0
  H  H32  1  0.24242000  0.84877000  0.59511000  1.0
  H  H33  1  0.75758000  0.15123000  0.40489000  1.0
  H  H34  1  0.38781000  0.82303000  0.51861000  1.0
  H  H35  1  0.61219000  0.17698000  0.48139000  1.0
  C  C36  1  0.31817000  0.83821000  0.87049000  1.0
  C  C37  1  0.68183000  0.16180000  0.12951000  1.0
  C  C38  1  0.39293000  0.69323000  0.90191000  1.0
  C  C39  1  0.60707000  0.30678000  0.09809000  1.0
  C  C40  1  0.79349000  0.74399000  0.76816000  1.0
  C  C41  1  0.20651000  0.25601000  0.23184000  1.0
  C  C42  1  0.91551000  0.62042000  0.78359000  1.0
  C  C43  1  0.08449000  0.37958000  0.21641000  1.0
  C  C44  1  0.89674000  0.85586000  0.57301000  1.0
  C  C45  1  0.10325000  0.14414000  0.42699000  1.0
  C  C46  1  0.43755000  0.76107000  0.08605000  1.0
  C  C47  1  0.56246000  0.23893000  0.91396000  1.0
  C  C48  1  0.94946000  0.32716000  0.74627000  1.0
  C  C49  1  0.05054000  0.67284000  0.25373000  1.0
  C  C50  1  0.88984000  0.73449000  0.48144000  1.0
  C  C51  1  0.11016000  0.26551000  0.51856000  1.0
  C  C52  1  0.59509000  0.78180000  0.38165000  1.0
  C  C53  1  0.40491000  0.21820000  0.61835000  1.0
  C  C54  1  0.33403000  0.64316000  0.99723000  1.0
  C  C55  1  0.66598000  0.35684000  0.00277000  1.0
  C  C56  1  0.69335000  0.66174000  0.43065000  1.0
  C  C57  1  0.30665000  0.33826000  0.56935000  1.0
  C  C58  1  0.82653000  0.45046000  0.73456000  1.0
  C  C59  1  0.17346000  0.54954000  0.26545000  1.0
  O  O60  1  0.36858000  0.83043000  0.58876000  1.0
  O  O61  1  0.63142000  0.16958000  0.41124000  1.0
  O  O62  1  0.35746000  0.89220000  0.79052000  1.0
  O  O63  1  0.64253000  0.10779000  0.20948000  1.0
  O  O64  1  0.20949000  0.90433000  0.91706000  1.0
  O  O65  1  0.79052000  0.09567000  0.08294000  1.0
  O  O66  1  0.63058000  0.70367000  0.72426000  1.0
  O  O67  1  0.36942000  0.29633000  0.27574000  1.0
  O  O68  1  0.85968000  0.89646000  0.79975000  1.0
  O  O69  1  0.14033000  0.10354000  0.20025000  1.0
  O  O70  1  0.04821000  0.89885000  0.63308000  1.0
  O  O71  1  0.95178000  0.10115000  0.36692000  1.0
  O  O72  1  0.75015000  0.90622000  0.58429000  1.0
  O  O73  1  0.24985000  0.09378000  0.41570000  1.0
  O  O74  1  0.44693000  0.81686000  0.40570000  1.0
  O  O75  1  0.55308000  0.18314000  0.59429000  1.0
  O  O76  1  0.65652000  0.84839000  0.31091000  1.0
  O  O77  1  0.34348000  0.15160000  0.68909000  1.0
  O  O78  1  0.87794000  0.17416000  0.72322000  1.0
  O  O79  1  0.12206000  0.82584000  0.27678000  1.0
  O  O80  1  0.60975000  0.77339000  0.10147000  1.0
  O  O81  1  0.39025000  0.22661000  0.89853000  1.0
  O  O82  1  0.34666000  0.84165000  0.13960000  1.0
  O  O83  1  0.65335000  0.15834000  0.86040000  1.0
  O  O84  1  0.01036000  0.18021000  0.93100000  1.0
  O  O85  1  0.98964000  0.81978000  0.06900000  1.0
  O  O86  1  0.11915000  0.36620000  0.77749000  1.0
  O  O87  1  0.88085000  0.63380000  0.22250000  1.0
