# generated using pymatgen
data_CuH8C7SN4Cl
_symmetry_space_group_name_H-M   'P 1'
_cell_length_a   7.61232311
_cell_length_b   8.09421000
_cell_length_c   8.49339000
_cell_angle_alpha   78.94800000
_cell_angle_beta   80.78665387
_cell_angle_gamma   87.08004187
_symmetry_Int_Tables_number   1
_chemical_formula_structural   CuH8C7SN4Cl
_chemical_formula_sum   'Cu2 H16 C14 S2 N8 Cl2'
_cell_volume   506.88374304
_cell_formula_units_Z   2
loop_
 _symmetry_equiv_pos_site_id
 _symmetry_equiv_pos_as_xyz
  1  'x, y, z'
loop_
 _atom_site_type_symbol
 _atom_site_label
 _atom_site_symmetry_multiplicity
 _atom_site_fract_x
 _atom_site_fract_y
 _atom_site_fract_z
 _atom_site_occupancy
  Cu  Cu0  1  0.91702000  0.62523000  0.07686000  1.0
  Cu  Cu1  1  0.08299000  0.37477000  0.92313000  1.0
  H  H2  1  0.13349000  0.03175000  0.70149000  1.0
  H  H3  1  0.86651000  0.96825000  0.29852000  1.0
  H  H4  1  0.97120000  0.88896000  0.82387000  1.0
  H  H5  1  0.02880000  0.11103000  0.17614000  1.0
  H  H6  1  0.48668000  0.88001000  0.90302000  1.0
  H  H7  1  0.51333000  0.12000000  0.09698000  1.0
  H  H8  1  0.68121000  0.06003000  0.76184000  1.0
  H  H9  1  0.31879000  0.93997000  0.23816000  1.0
  H  H10  1  0.91366000  0.22714000  0.60877000  1.0
  H  H11  1  0.08634000  0.77288000  0.39123000  1.0
  H  H12  1  0.03882000  0.43041000  0.36162000  1.0
  H  H13  1  0.96118000  0.56960000  0.63838000  1.0
  H  H14  1  0.55004000  0.49757000  0.19863000  1.0
  H  H15  1  0.44996000  0.50243000  0.80136000  1.0
  H  H16  1  0.40741000  0.28851000  0.43243000  1.0
  H  H17  1  0.59259000  0.71150000  0.56756000  1.0
  C  C18  1  0.21776000  0.87820000  0.89141000  1.0
  C  C19  1  0.78224000  0.12179000  0.10859000  1.0
  C  C20  1  0.58396000  0.11446000  0.68304000  1.0
  C  C21  1  0.41605000  0.88555000  0.31696000  1.0
  C  C22  1  0.64914000  0.23909000  0.54203000  1.0
  C  C23  1  0.35086000  0.76092000  0.45797000  1.0
  C  C24  1  0.82914000  0.28281000  0.51941000  1.0
  C  C25  1  0.17086000  0.71720000  0.48059000  1.0
  C  C26  1  0.89861000  0.39845000  0.38427000  1.0
  C  C27  1  0.10139000  0.60155000  0.61573000  1.0
  C  C28  1  0.62550000  0.43480000  0.29289000  1.0
  C  C29  1  0.37450000  0.56520000  0.70710000  1.0
  C  C30  1  0.54683000  0.31854000  0.42371000  1.0
  C  C31  1  0.45317000  0.68146000  0.57629000  1.0
  S  S32  1  0.18538000  0.71867000  0.05520000  1.0
  S  S33  1  0.81462000  0.28132000  0.94480000  1.0
  N  N34  1  0.09525000  0.94139000  0.80029000  1.0
  N  N35  1  0.90475000  0.05860000  0.19972000  1.0
  N  N36  1  0.38319000  0.94531000  0.85039000  1.0
  N  N37  1  0.61682000  0.05469000  0.14961000  1.0
  N  N38  1  0.41998000  0.06615000  0.71640000  1.0
  N  N39  1  0.58001000  0.93385000  0.28360000  1.0
  N  N40  1  0.79942000  0.47533000  0.27179000  1.0
  N  N41  1  0.20059000  0.52467000  0.72820000  1.0
  Cl  Cl42  1  0.73658000  0.73361000  0.89109000  1.0
  Cl  Cl43  1  0.26342000  0.26638000  0.10892000  1.0
