# generated using pymatgen
data_CuH4C4SN2Cl
_symmetry_space_group_name_H-M   'P 1'
_cell_length_a   7.33892000
_cell_length_b   7.36344000
_cell_length_c   12.88230000
_cell_angle_alpha   83.53640000
_cell_angle_beta   84.19980000
_cell_angle_gamma   63.35580000
_symmetry_Int_Tables_number   1
_chemical_formula_structural   CuH4C4SN2Cl
_chemical_formula_sum   'Cu4 H16 C16 S4 N8 Cl4'
_cell_volume   617.27129489
_cell_formula_units_Z   4
loop_
 _symmetry_equiv_pos_site_id
 _symmetry_equiv_pos_as_xyz
  1  'x, y, z'
loop_
 _atom_site_type_symbol
 _atom_site_label
 _atom_site_symmetry_multiplicity
 _atom_site_fract_x
 _atom_site_fract_y
 _atom_site_fract_z
 _atom_site_occupancy
  Cu  Cu0  1  0.49443000  0.83889000  0.65788000  1.0
  Cu  Cu1  1  0.50557000  0.16110000  0.34211000  1.0
  Cu  Cu2  1  0.68099000  0.05491000  0.75508000  1.0
  Cu  Cu3  1  0.31901000  0.94508000  0.24492000  1.0
  H  H4  1  0.35275000  0.63847000  0.03114000  1.0
  H  H5  1  0.64724000  0.36157000  0.96887000  1.0
  H  H6  1  0.72057000  0.86894000  0.96173000  1.0
  H  H7  1  0.27943000  0.13105000  0.03827000  1.0
  H  H8  1  0.99477000  0.67738000  0.08944000  1.0
  H  H9  1  0.00523000  0.32264000  0.91056000  1.0
  H  H10  1  0.20832000  0.59765000  0.35432000  1.0
  H  H11  1  0.79168000  0.40233000  0.64568000  1.0
  H  H12  1  0.02997000  0.66202000  0.68415000  1.0
  H  H13  1  0.97004000  0.33796000  0.31585000  1.0
  H  H14  1  0.98064000  0.82103000  0.49532000  1.0
  H  H15  1  0.01936000  0.17895000  0.50468000  1.0
  H  H16  1  0.40715000  0.76126000  0.85995000  1.0
  H  H17  1  0.59284000  0.23876000  0.14005000  1.0
  H  H18  1  0.31604000  0.34649000  0.71550000  1.0
  H  H19  1  0.68397000  0.65349000  0.28449000  1.0
  C  C20  1  0.41528000  0.29115000  0.56021000  1.0
  C  C21  1  0.58473000  0.70884000  0.43979000  1.0
  C  C22  1  0.10723000  0.89612000  0.81710000  1.0
  C  C23  1  0.89277000  0.10389000  0.18290000  1.0
  C  C24  1  0.22813000  0.54759000  0.43733000  1.0
  C  C25  1  0.77187000  0.45241000  0.56267000  1.0
  C  C26  1  0.09985000  0.66964000  0.51505000  1.0
  C  C27  1  0.90016000  0.33036000  0.48495000  1.0
  C  C28  1  0.12823000  0.58847000  0.61727000  1.0
  C  C29  1  0.87178000  0.41152000  0.38274000  1.0
  C  C30  1  0.22296000  0.71367000  0.98183000  1.0
  C  C31  1  0.77704000  0.28636000  0.01817000  1.0
  C  C32  1  0.02851000  0.73831000  0.01315000  1.0
  C  C33  1  0.97148000  0.26171000  0.98685000  1.0
  C  C34  1  0.87760000  0.84391000  0.94185000  1.0
  C  C35  1  0.12240000  0.15609000  0.05815000  1.0
  S  S36  1  0.62636000  0.06868000  0.59043000  1.0
  S  S37  1  0.37364000  0.93132000  0.40956000  1.0
  S  S38  1  0.15915000  0.98864000  0.69724000  1.0
  S  S39  1  0.84085000  0.01136000  0.30275000  1.0
  N  N40  1  0.37896000  0.36028000  0.45834000  1.0
  N  N41  1  0.62104000  0.63971000  0.54166000  1.0
  N  N42  1  0.28398000  0.40308000  0.63715000  1.0
  N  N43  1  0.71602000  0.59691000  0.36285000  1.0
  N  N44  1  0.25668000  0.79278000  0.88654000  1.0
  N  N45  1  0.74331000  0.20725000  0.11346000  1.0
  N  N46  1  0.91376000  0.92078000  0.84662000  1.0
  N  N47  1  0.08624000  0.07922000  0.15338000  1.0
  Cl  Cl48  1  0.69716000  0.63522000  0.79539000  1.0
  Cl  Cl49  1  0.30283000  0.36478000  0.20461000  1.0
  Cl  Cl50  1  0.41623000  0.26687000  0.86097000  1.0
  Cl  Cl51  1  0.58377000  0.73312000  0.13903000  1.0
