# generated using pymatgen
data_CuHC3N7
_symmetry_space_group_name_H-M   'P 1'
_cell_length_a   7.35601000
_cell_length_b   9.29731689
_cell_length_c   9.65367000
_cell_angle_alpha   90.00000000
_cell_angle_beta   90.00000000
_cell_angle_gamma   112.16398420
_symmetry_Int_Tables_number   1
_chemical_formula_structural   CuHC3N7
_chemical_formula_sum   'Cu4 H4 C12 N28'
_cell_volume   611.44019826
_cell_formula_units_Z   4
loop_
 _symmetry_equiv_pos_site_id
 _symmetry_equiv_pos_as_xyz
  1  'x, y, z'
loop_
 _atom_site_type_symbol
 _atom_site_label
 _atom_site_symmetry_multiplicity
 _atom_site_fract_x
 _atom_site_fract_y
 _atom_site_fract_z
 _atom_site_occupancy
  Cu  Cu0  1  0.77537000  0.53326000  0.92263000  1.0
  Cu  Cu1  1  0.22463000  0.96674000  0.42263000  1.0
  Cu  Cu2  1  0.22464000  0.46675000  0.07737000  1.0
  Cu  Cu3  1  0.77536000  0.03325000  0.57737000  1.0
  H  H4  1  0.16297000  0.68670000  0.66809000  1.0
  H  H5  1  0.83703000  0.81330000  0.16809000  1.0
  H  H6  1  0.83703000  0.31329000  0.33190000  1.0
  H  H7  1  0.16297000  0.18671000  0.83191000  1.0
  C  C8  1  0.05546000  0.73950000  0.68062000  1.0
  C  C9  1  0.94454000  0.76050000  0.18062000  1.0
  C  C10  1  0.94454000  0.26050000  0.31938000  1.0
  C  C11  1  0.05548000  0.23951000  0.81938000  1.0
  C  C12  1  0.64425000  0.77237000  0.83455000  1.0
  C  C13  1  0.35575000  0.72763000  0.33454000  1.0
  C  C14  1  0.35576000  0.22763000  0.16545000  1.0
  C  C15  1  0.64424000  0.27237000  0.66545000  1.0
  C  C16  1  0.81754000  0.79525000  0.75451000  1.0
  C  C17  1  0.18246000  0.70475000  0.25451000  1.0
  C  C18  1  0.18246000  0.20475000  0.24549000  1.0
  C  C19  1  0.81754000  0.29525000  0.74549000  1.0
  N  N20  1  0.41940000  0.64723000  0.97600000  1.0
  N  N21  1  0.58060000  0.85277000  0.47600000  1.0
  N  N22  1  0.58060000  0.35277000  0.02400000  1.0
  N  N23  1  0.41941000  0.14723000  0.52400000  1.0
  N  N24  1  0.05286000  0.85831000  0.60373000  1.0
  N  N25  1  0.94713000  0.64168000  0.10373000  1.0
  N  N26  1  0.94714000  0.14168000  0.39627000  1.0
  N  N27  1  0.05286000  0.35832000  0.89627000  1.0
  N  N28  1  0.90039000  0.89382000  0.65201000  1.0
  N  N29  1  0.09960000  0.60618000  0.15201000  1.0
  N  N30  1  0.09961000  0.10618000  0.34799000  1.0
  N  N31  1  0.90040000  0.39383000  0.84799000  1.0
  N  N32  1  0.58781000  0.65004000  0.92127000  1.0
  N  N33  1  0.41219000  0.84996000  0.42127000  1.0
  N  N34  1  0.41219000  0.34996000  0.07873000  1.0
  N  N35  1  0.58781000  0.15004000  0.57873000  1.0
  N  N36  1  0.91038000  0.69618000  0.77618000  1.0
  N  N37  1  0.08962000  0.80382000  0.27618000  1.0
  N  N38  1  0.08962000  0.30382000  0.22382000  1.0
  N  N39  1  0.91039000  0.19619000  0.72382000  1.0
  N  N40  1  0.37633000  0.76336000  0.92524000  1.0
  N  N41  1  0.62366000  0.73664000  0.42523000  1.0
  N  N42  1  0.62367000  0.23664000  0.07477000  1.0
  N  N43  1  0.37634000  0.26336000  0.57477000  1.0
  N  N44  1  0.51686000  0.84443000  0.83540000  1.0
  N  N45  1  0.48314000  0.65557000  0.33539000  1.0
  N  N46  1  0.48315000  0.15557000  0.16461000  1.0
  N  N47  1  0.51686000  0.34443000  0.66461000  1.0
