# generated using pymatgen
data_Ag2H18C21(NO2)4
_symmetry_space_group_name_H-M   'P 1'
_cell_length_a   9.50401000
_cell_length_b   10.93750000
_cell_length_c   12.47730000
_cell_angle_alpha   78.86560000
_cell_angle_beta   85.47530000
_cell_angle_gamma   64.93310000
_symmetry_Int_Tables_number   1
_chemical_formula_structural   Ag2H18C21(NO2)4
_chemical_formula_sum   'Ag4 H36 C42 N8 O16'
_cell_volume   1152.73482892
_cell_formula_units_Z   2
loop_
 _symmetry_equiv_pos_site_id
 _symmetry_equiv_pos_as_xyz
  1  'x, y, z'
loop_
 _atom_site_type_symbol
 _atom_site_label
 _atom_site_symmetry_multiplicity
 _atom_site_fract_x
 _atom_site_fract_y
 _atom_site_fract_z
 _atom_site_occupancy
  Ag  Ag0  1  0.39154000  0.40774000  0.48222000  1.0
  Ag  Ag1  1  0.60846000  0.59226000  0.51778000  1.0
  Ag  Ag2  1  0.43056000  0.13921000  0.59134000  1.0
  Ag  Ag3  1  0.56944000  0.86079000  0.40866000  1.0
  H  H4  1  0.27356000  0.25381000  0.96457000  1.0
  H  H5  1  0.72644000  0.74619000  0.03543000  1.0
  H  H6  1  0.54580000  0.12155000  0.90379000  1.0
  H  H7  1  0.45420000  0.87845000  0.09621000  1.0
  H  H8  1  0.76065000  0.02266000  0.03929000  1.0
  H  H9  1  0.23935000  0.97734000  0.96071000  1.0
  H  H10  1  0.70739000  0.05658000  0.23279000  1.0
  H  H11  1  0.29261000  0.94342000  0.76721000  1.0
  H  H12  1  0.51002000  0.49981000  0.79403000  1.0
  H  H13  1  0.48998000  0.50019000  0.20597000  1.0
  H  H14  1  0.63377000  0.52542000  0.95138000  1.0
  H  H15  1  0.36622000  0.47458000  0.04862000  1.0
  H  H16  1  0.88275000  0.33715000  0.02945000  1.0
  H  H17  1  0.11725000  0.66286000  0.97055000  1.0
  H  H18  1  0.99665000  0.12015000  0.95485000  1.0
  H  H19  1  0.00335000  0.87985000  0.04515000  1.0
  H  H20  1  0.88084000  0.52289000  0.67183000  1.0
  H  H21  1  0.11916000  0.47711000  0.32817000  1.0
  H  H22  1  0.89873000  0.26744000  0.34809000  1.0
  H  H23  1  0.10127000  0.73256000  0.65191000  1.0
  H  H24  1  0.80239000  0.20569000  0.45793000  1.0
  H  H25  1  0.19761000  0.79431000  0.54207000  1.0
  H  H26  1  0.72455000  0.38382000  0.40372000  1.0
  H  H27  1  0.27545000  0.61618000  0.59628000  1.0
  H  H28  1  0.26857000  0.02199000  0.51799000  1.0
  H  H29  1  0.73143000  0.97801000  0.48201000  1.0
  H  H30  1  0.07940000  0.03146000  0.50160000  1.0
  H  H31  1  0.92060000  0.96854000  0.49840000  1.0
  H  H32  1  0.16207000  0.10938000  0.39419000  1.0
  H  H33  1  0.83793000  0.89062000  0.60582000  1.0
  H  H34  1  0.25880000  0.25891000  0.78572000  1.0
  H  H35  1  0.74120000  0.74109000  0.21428000  1.0
  H  H36  1  0.26265000  0.40664000  0.70077000  1.0
  H  H37  1  0.73735000  0.59336000  0.29923000  1.0
  H  H38  1  0.10816000  0.42584000  0.79589000  1.0
  H  H39  1  0.89184000  0.57416000  0.20411000  1.0
  C  C40  1  0.94043000  0.43528000  0.63061000  1.0
  C  C41  1  0.05957000  0.56472000  0.36939000  1.0
  C  C42  1  0.09351000  0.34348000  0.65599000  1.0
  C  C43  1  0.90650000  0.65652000  0.34402000  1.0
  C  C44  1  0.59467000  0.28175000  0.69589000  1.0
  C  C45  1  0.40533000  0.71825000  0.30411000  1.0
  C  C46  1  0.68108000  0.29713000  0.78469000  1.0
  C  C47  1  0.31892000  0.70288000  0.21530000  1.0
  C  C48  1  0.46149000  0.17354000  0.20822000  1.0
  C  C49  1  0.53851000  0.82646000  0.79177000  1.0
  C  C50  1  0.92610000  0.31167000  0.50415000  1.0
  C  C51  1  0.07390000  0.68833000  0.49585000  1.0
  C  C52  1  0.61274000  0.09885000  0.17351000  1.0
  C  C53  1  0.38726000  0.90115000  0.82649000  1.0
  C  C54  1  0.64261000  0.08088000  0.06511000  1.0
  C  C55  1  0.35739000  0.91912000  0.93489000  1.0
  C  C56  1  0.34232000  0.22688000  0.12992000  1.0
  C  C57  1  0.65768000  0.77311000  0.87008000  1.0
  C  C58  1  0.08071000  0.21565000  0.53082000  1.0
  C  C59  1  0.91929000  0.78435000  0.46918000  1.0
  C  C60  1  0.37118000  0.21016000  0.02102000  1.0
  C  C61  1  0.62882000  0.78984000  0.97898000  1.0
  C  C62  1  0.52223000  0.13692000  0.98827000  1.0
  C  C63  1  0.47777000  0.86308000  0.01173000  1.0
  C  C64  1  0.44079000  0.20554000  0.32226000  1.0
  C  C65  1  0.55921000  0.79446000  0.67774000  1.0
  C  C66  1  0.89040000  0.20438000  0.92007000  1.0
  C  C67  1  0.10960000  0.79562000  0.07994000  1.0
  C  C68  1  0.81780000  0.19182000  0.83275000  1.0
  C  C69  1  0.18220000  0.80818000  0.16725000  1.0
  C  C70  1  0.61656000  0.41700000  0.82979000  1.0
  C  C71  1  0.38344000  0.58300000  0.17021000  1.0
  C  C72  1  0.68698000  0.43112000  0.91774000  1.0
  C  C73  1  0.31301000  0.56888000  0.08226000  1.0
  C  C74  1  0.83311000  0.29172000  0.42342000  1.0
  C  C75  1  0.16689000  0.70828000  0.57658000  1.0
  C  C76  1  0.15284000  0.08783000  0.48336000  1.0
  C  C77  1  0.84716000  0.91217000  0.51664000  1.0
  C  C78  1  0.18469000  0.36016000  0.73994000  1.0
  C  C79  1  0.81531000  0.63984000  0.26006000  1.0
  C  C80  1  0.82507000  0.32564000  0.96240000  1.0
  C  C81  1  0.17493000  0.67436000  0.03760000  1.0
  N  N82  1  0.16330000  0.23597000  0.60292000  1.0
  N  N83  1  0.83670000  0.76403000  0.39708000  1.0
  N  N84  1  0.18093000  0.30245000  0.16023000  1.0
  N  N85  1  0.81907000  0.69755000  0.83977000  1.0
  N  N86  1  0.85983000  0.42145000  0.55359000  1.0
  N  N87  1  0.14017000  0.57855000  0.44641000  1.0
  N  N88  1  0.89275000  0.06174000  0.79146000  1.0
  N  N89  1  0.10725000  0.93827000  0.20854000  1.0
  O  O90  1  0.47619000  0.10639000  0.40215000  1.0
  O  O91  1  0.52381000  0.89361000  0.59785000  1.0
  O  O92  1  0.39966000  0.33056000  0.32679000  1.0
  O  O93  1  0.60034000  0.66944000  0.67321000  1.0
  O  O94  1  0.59189000  0.16594000  0.70152000  1.0
  O  O95  1  0.40811000  0.83406000  0.29848000  1.0
  O  O96  1  0.52614000  0.39007000  0.62573000  1.0
  O  O97  1  0.47386000  0.60993000  0.37427000  1.0
  O  O98  1  0.14491000  0.28496000  0.25815000  1.0
  O  O99  1  0.85509000  0.71504000  0.74185000  1.0
  O  O100  1  0.08743000  0.38039000  0.08653000  1.0
  O  O101  1  0.91257000  0.61961000  0.91347000  1.0
  O  O102  1  0.91846000  0.95453000  0.85867000  1.0
  O  O103  1  0.08154000  0.04547000  0.14133000  1.0
  O  O104  1  0.93076000  0.06586000  0.69424000  1.0
  O  O105  1  0.06924000  0.93414000  0.30576000  1.0
