# generated using pymatgen
data_Zn2H9C20N2Cl3O8
_symmetry_space_group_name_H-M   'P 1'
_cell_length_a   7.35014000
_cell_length_b   9.11519000
_cell_length_c   12.01448795
_cell_angle_alpha   110.97653569
_cell_angle_beta   92.91921552
_cell_angle_gamma   102.41960000
_symmetry_Int_Tables_number   1
_chemical_formula_structural   Zn2H9C20N2Cl3O8
_chemical_formula_sum   'Zn2 H9 C20 N2 Cl3 O8'
_cell_volume   726.75311799
_cell_formula_units_Z   1
loop_
 _symmetry_equiv_pos_site_id
 _symmetry_equiv_pos_as_xyz
  1  'x, y, z'
loop_
 _atom_site_type_symbol
 _atom_site_label
 _atom_site_symmetry_multiplicity
 _atom_site_fract_x
 _atom_site_fract_y
 _atom_site_fract_z
 _atom_site_occupancy
  Zn  Zn0  1  0.19096000  0.06769000  0.49261000  1.0
  Zn  Zn1  1  0.81208000  0.96083000  0.53819000  1.0
  H  H2  1  0.88598000  0.24652000  0.93347000  1.0
  H  H3  1  0.40942000  0.85933000  0.51103000  1.0
  H  H4  1  0.59348000  0.16211000  0.51810000  1.0
  H  H5  1  0.21375000  0.76207000  0.21668000  1.0
  H  H6  1  0.00164000  0.49875000  0.11901000  1.0
  H  H7  1  0.41187000  0.34259000  0.80491000  1.0
  H  H8  1  0.10967000  0.90468000  0.10671000  1.0
  H  H9  1  0.01038000  0.70700000  0.89362000  1.0
  H  H10  1  0.84323000  0.50725000  0.56628000  1.0
  C  C11  1  0.99497000  0.31530000  0.53432000  1.0
  C  C12  1  0.83356000  0.85450000  0.15535000  1.0
  C  C13  1  0.96717000  0.47019000  0.53137000  1.0
  C  C14  1  0.90411000  0.92886000  0.28770000  1.0
  C  C15  1  0.07463000  0.56798000  0.48561000  1.0
  C  C16  1  0.02723000  0.72317000  0.48981000  1.0
  C  C17  1  0.07785000  0.14532000  0.74206000  1.0
  C  C18  1  0.09212000  0.46271000  0.05013000  1.0
  C  C19  1  0.14708000  0.28344000  0.86006000  1.0
  C  C20  1  0.96372000  0.83610000  0.07505000  1.0
  C  C21  1  0.90929000  0.72273000  0.95739000  1.0
  C  C22  1  0.58766000  0.63266000  0.00015000  1.0
  C  C23  1  0.73093000  0.61682000  0.92316000  1.0
  C  C24  1  0.64130000  0.77037000  0.11229000  1.0
  C  C25  1  0.39834000  0.52553000  0.97811000  1.0
  C  C26  1  0.27316000  0.56645000  0.06603000  1.0
  C  C27  1  0.32048000  0.72144000  0.16217000  1.0
  C  C28  1  0.49356000  0.82285000  0.17827000  1.0
  C  C29  1  0.32795000  0.38127000  0.87614000  1.0
  C  C30  1  0.02765000  0.32362000  0.94829000  1.0
  N  N31  1  0.52690000  0.95475000  0.52352000  1.0
  N  N32  1  0.47477000  0.06892000  0.50970000  1.0
  Cl  Cl33  1  0.27234000  0.53122000  0.42118000  1.0
  Cl  Cl34  1  0.70315000  0.46670000  0.78057000  1.0
  Cl  Cl35  1  0.52674000  0.02867000  0.26173000  1.0
  O  O36  1  0.16133000  0.29639000  0.53863000  1.0
  O  O37  1  0.84674000  0.21059000  0.53249000  1.0
  O  O38  1  0.07327000  0.01515000  0.32165000  1.0
  O  O39  1  0.79549000  0.88578000  0.35587000  1.0
  O  O40  1  0.14597000  0.81634000  0.45566000  1.0
  O  O41  1  0.87507000  0.74888000  0.52846000  1.0
  O  O42  1  0.19798000  0.09987000  0.67288000  1.0
  O  O43  1  0.89967000  0.08556000  0.71448000  1.0
