# generated using pymatgen
data_NaZnFePH27C25S(BrO)3
_symmetry_space_group_name_H-M   'P 1'
_cell_length_a   8.67757000
_cell_length_b   9.17045000
_cell_length_c   18.10210000
_cell_angle_alpha   91.27800000
_cell_angle_beta   100.14800000
_cell_angle_gamma   95.10210000
_symmetry_Int_Tables_number   1
_chemical_formula_structural   NaZnFePH27C25S(BrO)3
_chemical_formula_sum   'Na2 Zn2 Fe2 P2 H54 C50 S2 Br6 O6'
_cell_volume   1411.30135313
_cell_formula_units_Z   2
loop_
 _symmetry_equiv_pos_site_id
 _symmetry_equiv_pos_as_xyz
  1  'x, y, z'
loop_
 _atom_site_type_symbol
 _atom_site_label
 _atom_site_symmetry_multiplicity
 _atom_site_fract_x
 _atom_site_fract_y
 _atom_site_fract_z
 _atom_site_occupancy
  Na  Na0  1  0.71344000  0.06467000  0.03927000  1.0
  Na  Na1  1  0.28656000  0.93534000  0.96073000  1.0
  Zn  Zn2  1  0.68330000  0.15398000  0.23742000  1.0
  Zn  Zn3  1  0.31669000  0.84602000  0.76257000  1.0
  Fe  Fe4  1  0.13985000  0.45661000  0.27452000  1.0
  Fe  Fe5  1  0.86015000  0.54339000  0.72548000  1.0
  P  P6  1  0.81740000  0.29666000  0.34605000  1.0
  P  P7  1  0.18260000  0.70334000  0.65395000  1.0
  H  H8  1  0.39101000  0.49359000  0.19741000  1.0
  H  H9  1  0.60900000  0.50641000  0.80260000  1.0
  H  H10  1  0.27436000  0.73620000  0.24675000  1.0
  H  H11  1  0.72565000  0.26381000  0.75326000  1.0
  H  H12  1  0.95776000  0.68651000  0.22257000  1.0
  H  H13  1  0.04224000  0.31350000  0.77743000  1.0
  H  H14  1  0.87784000  0.41231000  0.15752000  1.0
  H  H15  1  0.12216000  0.58769000  0.84248000  1.0
  H  H16  1  0.11529000  0.15691000  0.30048000  1.0
  H  H17  1  0.88471000  0.84309000  0.69951000  1.0
  H  H18  1  0.39939000  0.31343000  0.33743000  1.0
  H  H19  1  0.60061000  0.68657000  0.66257000  1.0
  H  H20  1  0.35676000  0.57571000  0.39872000  1.0
  H  H21  1  0.64325000  0.42429000  0.60128000  1.0
  H  H22  1  0.04569000  0.58164000  0.40050000  1.0
  H  H23  1  0.95431000  0.41836000  0.59951000  1.0
  H  H24  1  0.07364000  0.16920000  0.15215000  1.0
  H  H25  1  0.92635000  0.83081000  0.84785000  1.0
  H  H26  1  0.27407000  0.22612000  0.14601000  1.0
  H  H27  1  0.72592000  0.77388000  0.85398000  1.0
  H  H28  1  0.07035000  0.23599000  0.46984000  1.0
  H  H29  1  0.92966000  0.76402000  0.53016000  1.0
  H  H30  1  0.06837000  0.13701000  0.59559000  1.0
  H  H31  1  0.93163000  0.86300000  0.40440000  1.0
  H  H32  1  0.81291000  0.05920000  0.63535000  1.0
  H  H33  1  0.18709000  0.94080000  0.36465000  1.0
  H  H34  1  0.56330000  0.07243000  0.54646000  1.0
  H  H35  1  0.43670000  0.92757000  0.45354000  1.0
  H  H36  1  0.56377000  0.16576000  0.41865000  1.0
  H  H37  1  0.43624000  0.83424000  0.58134000  1.0
  H  H38  1  0.73941000  0.45597000  0.47733000  1.0
  H  H39  1  0.26059000  0.54402000  0.52267000  1.0
  H  H40  1  0.64092000  0.69762000  0.49107000  1.0
  H  H41  1  0.35908000  0.30238000  0.50893000  1.0
  H  H42  1  0.58320000  0.85221000  0.37811000  1.0
  H  H43  1  0.41679000  0.14778000  0.62189000  1.0
  H  H44  1  0.61843000  0.76017000  0.25450000  1.0
  H  H45  1  0.38157000  0.23983000  0.74550000  1.0
  H  H46  1  0.71159000  0.51337000  0.23953000  1.0
  H  H47  1  0.28841000  0.48662000  0.76047000  1.0
  H  H48  1  0.31820000  0.39976000  0.02051000  1.0
  H  H49  1  0.68180000  0.60023000  0.97950000  1.0
  H  H50  1  0.14764000  0.50003000  0.01892000  1.0
  H  H51  1  0.85237000  0.49998000  0.98108000  1.0
  H  H52  1  0.16502000  0.38867000  0.93814000  1.0
  H  H53  1  0.83498000  0.61133000  0.06186000  1.0
  H  H54  1  0.45321000  0.96872000  0.12089000  1.0
  H  H55  1  0.54679000  0.03127000  0.87911000  1.0
  H  H56  1  0.38759000  0.72130000  0.11598000  1.0
  H  H57  1  0.61241000  0.27869000  0.88402000  1.0
  H  H58  1  0.59845000  0.75540000  0.12955000  1.0
  H  H59  1  0.40155000  0.24460000  0.87045000  1.0
  H  H60  1  0.48645000  0.70925000  0.03769000  1.0
  H  H61  1  0.51354000  0.29074000  0.96231000  1.0
  C  C62  1  0.13798000  0.40426000  0.16509000  1.0
  C  C63  1  0.86202000  0.59574000  0.83491000  1.0
  C  C64  1  0.26774000  0.51096000  0.19386000  1.0
  C  C65  1  0.73227000  0.48905000  0.80615000  1.0
  C  C66  1  0.20586000  0.63799000  0.22019000  1.0
  C  C67  1  0.79414000  0.36202000  0.77981000  1.0
  C  C68  1  0.03796000  0.61117000  0.20750000  1.0
  C  C69  1  0.96204000  0.38884000  0.79251000  1.0
  C  C70  1  0.99579000  0.46714000  0.17347000  1.0
  C  C71  1  0.00420000  0.53287000  0.82653000  1.0
  C  C72  1  0.02172000  0.35316000  0.34834000  1.0
  C  C73  1  0.97828000  0.64684000  0.65166000  1.0
  C  C74  1  0.13883000  0.26499000  0.32805000  1.0
  C  C75  1  0.86117000  0.73501000  0.67195000  1.0
  C  C76  1  0.28889000  0.34771000  0.34855000  1.0
  C  C77  1  0.71111000  0.65228000  0.65145000  1.0
  C  C78  1  0.26583000  0.48686000  0.38053000  1.0
  C  C79  1  0.73417000  0.51314000  0.61947000  1.0
  C  C80  1  0.10161000  0.49082000  0.38077000  1.0
  C  C81  1  0.89839000  0.50918000  0.61923000  1.0
  C  C82  1  0.15269000  0.25605000  0.13345000  1.0
  C  C83  1  0.84730000  0.74395000  0.86655000  1.0
  C  C84  1  0.81760000  0.20964000  0.43592000  1.0
  C  C85  1  0.18241000  0.79036000  0.56408000  1.0
  C  C86  1  0.95879000  0.19932000  0.48607000  1.0
  C  C87  1  0.04121000  0.80068000  0.51393000  1.0
  C  C88  1  0.95753000  0.14380000  0.55721000  1.0
  C  C89  1  0.04247000  0.85620000  0.44279000  1.0
  C  C90  1  0.81513000  0.09946000  0.57928000  1.0
  C  C91  1  0.18487000  0.90055000  0.42072000  1.0
  C  C92  1  0.67424000  0.10720000  0.52908000  1.0
  C  C93  1  0.32576000  0.89281000  0.47092000  1.0
  C  C94  1  0.67457000  0.16029000  0.45743000  1.0
  C  C95  1  0.32544000  0.83971000  0.54257000  1.0
  C  C96  1  0.73334000  0.46911000  0.35774000  1.0
  C  C97  1  0.26666000  0.53088000  0.64226000  1.0
  C  C98  1  0.71188000  0.52134000  0.42820000  1.0
  C  C99  1  0.28813000  0.47865000  0.57180000  1.0
  C  C100  1  0.65689000  0.65843000  0.43580000  1.0
  C  C101  1  0.34312000  0.34157000  0.56420000  1.0
  C  C102  1  0.62453000  0.74428000  0.37325000  1.0
  C  C103  1  0.37547000  0.25572000  0.62675000  1.0
  C  C104  1  0.64432000  0.69200000  0.30281000  1.0
  C  C105  1  0.35568000  0.30800000  0.69719000  1.0
  C  C106  1  0.69784000  0.55470000  0.29471000  1.0
  C  C107  1  0.30216000  0.44529000  0.70529000  1.0
  C  C108  1  0.19169000  0.40034000  0.99958000  1.0
  C  C109  1  0.80831000  0.59966000  0.00042000  1.0
  C  C110  1  0.48716000  0.76769000  0.09130000  1.0
  C  C111  1  0.51284000  0.23231000  0.90870000  1.0
  S  S112  1  0.09607000  0.24236000  0.03279000  1.0
  S  S113  1  0.90393000  0.75765000  0.96721000  1.0
  Br  Br114  1  0.43591000  0.02708000  0.25503000  1.0
  Br  Br115  1  0.56408000  0.97292000  0.74497000  1.0
  Br  Br116  1  0.85957000  0.98680000  0.20101000  1.0
  Br  Br117  1  0.14041000  0.01319000  0.79898000  1.0
  Br  Br118  1  0.59316000  0.29854000  0.12626000  1.0
  Br  Br119  1  0.40684000  0.70147000  0.87374000  1.0
  O  O120  1  0.92588000  0.24854000  0.01361000  1.0
  O  O121  1  0.07410000  0.75148000  0.98639000  1.0
  O  O122  1  0.16110000  0.11469000  0.00578000  1.0
  O  O123  1  0.83888000  0.88531000  0.99422000  1.0
  O  O124  1  0.47274000  0.91963000  0.07492000  1.0
  O  O125  1  0.52726000  0.08037000  0.92508000  1.0
