# generated using pymatgen
data_Cd5H36C54N18(ClO3)4
_symmetry_space_group_name_H-M   'P 1'
_cell_length_a   12.93190000
_cell_length_b   17.22100000
_cell_length_c   22.20740000
_cell_angle_alpha   71.04120000
_cell_angle_beta   76.59950000
_cell_angle_gamma   72.20070000
_symmetry_Int_Tables_number   1
_chemical_formula_structural   Cd5H36C54N18(ClO3)4
_chemical_formula_sum   'Cd10 H72 C108 N36 Cl8 O24'
_cell_volume   4404.98602752
_cell_formula_units_Z   2
loop_
 _symmetry_equiv_pos_site_id
 _symmetry_equiv_pos_as_xyz
  1  'x, y, z'
loop_
 _atom_site_type_symbol
 _atom_site_label
 _atom_site_symmetry_multiplicity
 _atom_site_fract_x
 _atom_site_fract_y
 _atom_site_fract_z
 _atom_site_occupancy
  Cd  Cd0  1  0.18846000  0.54249000  0.01522000  1.0
  Cd  Cd1  1  0.18315000  0.73323000  0.08851000  1.0
  Cd  Cd2  1  0.17967000  0.77355000  0.24985000  1.0
  Cd  Cd3  1  0.17984000  0.79868000  0.41339000  1.0
  Cd  Cd4  1  0.16372000  0.00247000  0.48411000  1.0
  Cd  Cd5  1  0.81153000  0.45752000  0.98478000  1.0
  Cd  Cd6  1  0.81685000  0.26677000  0.91149000  1.0
  Cd  Cd7  1  0.82032000  0.22645000  0.75015000  1.0
  Cd  Cd8  1  0.82014000  0.20132000  0.58661000  1.0
  Cd  Cd9  1  0.83628000  0.99753000  0.51589000  1.0
  H  H10  1  0.10169000  0.53733000  0.62138000  1.0
  H  H11  1  0.20612000  0.76367000  0.57178000  1.0
  H  H12  1  0.09619000  0.76403000  0.68005000  1.0
  H  H13  1  0.10333000  0.74042000  0.79635000  1.0
  H  H14  1  0.24861000  0.47531000  0.81681000  1.0
  H  H15  1  0.24151000  0.49726000  0.70066000  1.0
  H  H16  1  0.89791000  0.56794000  0.05715000  1.0
  H  H17  1  0.89283000  0.77684000  0.12050000  1.0
  H  H18  1  0.72550000  0.72176000  0.19524000  1.0
  H  H19  1  0.51878000  0.76160000  0.21066000  1.0
  H  H20  1  0.52468000  0.71603000  0.03112000  1.0
  H  H21  1  0.73156000  0.67771000  0.01397000  1.0
  H  H22  1  0.20822000  0.50321000  0.16728000  1.0
  H  H23  1  0.16642000  0.56679000  0.34270000  1.0
  H  H24  1  0.26106000  0.41813000  0.37744000  1.0
  H  H25  1  0.24875000  0.27023000  0.43883000  1.0
  H  H26  1  0.08625000  0.26098000  0.29461000  1.0
  H  H27  1  0.09205000  0.41007000  0.23376000  1.0
  H  H28  1  0.17551000  0.03627000  0.33385000  1.0
  H  H29  1  0.18068000  0.98489000  0.15852000  1.0
  H  H30  1  0.05099000  0.13739000  0.14730000  1.0
  H  H31  1  0.04793000  0.28776000  0.08645000  1.0
  H  H32  1  0.30023000  0.28089000  0.18577000  1.0
  H  H33  1  0.30466000  0.12944000  0.24724000  1.0
  H  H34  1  0.88442000  0.79158000  0.27850000  1.0
  H  H35  1  0.87961000  0.82829000  0.45932000  1.0
  H  H36  1  0.70863000  0.93418000  0.42301000  1.0
  H  H37  1  0.50227000  0.96467000  0.44293000  1.0
  H  H38  1  0.51679000  0.75645000  0.37281000  1.0
  H  H39  1  0.72289000  0.72618000  0.35080000  1.0
  H  H40  1  0.08915000  0.02186000  0.89721000  1.0
  H  H41  1  0.19579000  0.75476000  0.92867000  1.0
  H  H42  1  0.04438000  0.01927000  0.80023000  1.0
  H  H43  1  0.07160000  0.02789000  0.68327000  1.0
  H  H44  1  0.31835000  0.79266000  0.71303000  1.0
  H  H45  1  0.29703000  0.78412000  0.82949000  1.0
  H  H46  1  0.89830000  0.46267000  0.37863000  1.0
  H  H47  1  0.79389000  0.23632000  0.42822000  1.0
  H  H48  1  0.90381000  0.23598000  0.31995000  1.0
  H  H49  1  0.89669000  0.25959000  0.20364000  1.0
  H  H50  1  0.75140000  0.52470000  0.18319000  1.0
  H  H51  1  0.75849000  0.50274000  0.29934000  1.0
  H  H52  1  0.10208000  0.43207000  0.94285000  1.0
  H  H53  1  0.10717000  0.22317000  0.87950000  1.0
  H  H54  1  0.27449000  0.27826000  0.80476000  1.0
  H  H55  1  0.48121000  0.23841000  0.78934000  1.0
  H  H56  1  0.47532000  0.28397000  0.96888000  1.0
  H  H57  1  0.26845000  0.32229000  0.98603000  1.0
  H  H58  1  0.79179000  0.49678000  0.83272000  1.0
  H  H59  1  0.83360000  0.43320000  0.65730000  1.0
  H  H60  1  0.73895000  0.58187000  0.62255000  1.0
  H  H61  1  0.75126000  0.72977000  0.56117000  1.0
  H  H62  1  0.91375000  0.73902000  0.70540000  1.0
  H  H63  1  0.90795000  0.58993000  0.76624000  1.0
  H  H64  1  0.82449000  0.96373000  0.66615000  1.0
  H  H65  1  0.81931000  0.01511000  0.84149000  1.0
  H  H66  1  0.94902000  0.86261000  0.85269000  1.0
  H  H67  1  0.95207000  0.71224000  0.91355000  1.0
  H  H68  1  0.69977000  0.71911000  0.81422000  1.0
  H  H69  1  0.69533000  0.87057000  0.75276000  1.0
  H  H70  1  0.11557000  0.20842000  0.72150000  1.0
  H  H71  1  0.12038000  0.17171000  0.54068000  1.0
  H  H72  1  0.29137000  0.06581000  0.57699000  1.0
  H  H73  1  0.49772000  0.03532000  0.55707000  1.0
  H  H74  1  0.48320000  0.24354000  0.62720000  1.0
  H  H75  1  0.27710000  0.27381000  0.64921000  1.0
  H  H76  1  0.91084000  0.97814000  0.10279000  1.0
  H  H77  1  0.80422000  0.24524000  0.07133000  1.0
  H  H78  1  0.95562000  0.98073000  0.19977000  1.0
  H  H79  1  0.92841000  0.97210000  0.31673000  1.0
  H  H80  1  0.68166000  0.20734000  0.28696000  1.0
  H  H81  1  0.70297000  0.21589000  0.17051000  1.0
  C  C82  1  0.12668000  0.59463000  0.59269000  1.0
  C  C83  1  0.17918000  0.71151000  0.56776000  1.0
  C  C84  1  0.16565000  0.63160000  0.68440000  1.0
  C  C85  1  0.12823000  0.70084000  0.71037000  1.0
  C  C86  1  0.13279000  0.68764000  0.77499000  1.0
  C  C87  1  0.17472000  0.60651000  0.81387000  1.0
  C  C88  1  0.21315000  0.53788000  0.78686000  1.0
  C  C89  1  0.20882000  0.55008000  0.72222000  1.0
  C  C90  1  0.17822000  0.59423000  0.88350000  1.0
  C  C91  1  0.92525000  0.61415000  0.06917000  1.0
  C  C92  1  0.92155000  0.72126000  0.10250000  1.0
  C  C93  1  0.73849000  0.69941000  0.10309000  1.0
  C  C94  1  0.68098000  0.72240000  0.15884000  1.0
  C  C95  1  0.56671000  0.74432000  0.16752000  1.0
  C  C96  1  0.51086000  0.74283000  0.12102000  1.0
  C  C97  1  0.56994000  0.71817000  0.06603000  1.0
  C  C98  1  0.68419000  0.69659000  0.05662000  1.0
  C  C99  1  0.38704000  0.76441000  0.13161000  1.0
  C  C100  1  0.19613000  0.53974000  0.20145000  1.0
  C  C101  1  0.17571000  0.57128000  0.29194000  1.0
  C  C102  1  0.17686000  0.42213000  0.30240000  1.0
  C  C103  1  0.22064000  0.38421000  0.36012000  1.0
  C  C104  1  0.21445000  0.30181000  0.39406000  1.0
  C  C105  1  0.16671000  0.25713000  0.37013000  1.0
  C  C106  1  0.12310000  0.29647000  0.31247000  1.0
  C  C107  1  0.12669000  0.37937000  0.27851000  1.0
  C  C108  1  0.16384000  0.16700000  0.40537000  1.0
  C  C109  1  0.17829000  0.00203000  0.29967000  1.0
  C  C110  1  0.17825000  0.97711000  0.20925000  1.0
  C  C111  1  0.17885000  0.12516000  0.19996000  1.0
  C  C112  1  0.10728000  0.16847000  0.15446000  1.0
  C  C113  1  0.10578000  0.25232000  0.12047000  1.0
  C  C114  1  0.17472000  0.29307000  0.13224000  1.0
  C  C115  1  0.24662000  0.24845000  0.17763000  1.0
  C  C116  1  0.24923000  0.16435000  0.21172000  1.0
  C  C117  1  0.17166000  0.38395000  0.09598000  1.0
  C  C118  1  0.91098000  0.79394000  0.32056000  1.0
  C  C119  1  0.90951000  0.81422000  0.41283000  1.0
  C  C120  1  0.72560000  0.82910000  0.38570000  1.0
  C  C121  1  0.66575000  0.89565000  0.41238000  1.0
  C  C122  1  0.55168000  0.91229000  0.42325000  1.0
  C  C123  1  0.49836000  0.86226000  0.40897000  1.0
  C  C124  1  0.55994000  0.79537000  0.38266000  1.0
  C  C125  1  0.67403000  0.77885000  0.37043000  1.0
  C  C126  1  0.37496000  0.87948000  0.42261000  1.0
  C  C127  1  0.11517000  0.95456000  0.92103000  1.0
  C  C128  1  0.17125000  0.81739000  0.93653000  1.0
  C  C129  1  0.16799000  0.90027000  0.82192000  1.0
  C  C130  1  0.10484000  0.96977000  0.78118000  1.0
  C  C131  1  0.12039000  0.97487000  0.71590000  1.0
  C  C132  1  0.19654000  0.91078000  0.69122000  1.0
  C  C133  1  0.25960000  0.84226000  0.73262000  1.0
  C  C134  1  0.24692000  0.83722000  0.79762000  1.0
  C  C135  1  0.20900000  0.91448000  0.62116000  1.0
  C  C136  1  0.87331000  0.40536000  0.40732000  1.0
  C  C137  1  0.82081000  0.28848000  0.43224000  1.0
  C  C138  1  0.83435000  0.36840000  0.31561000  1.0
  C  C139  1  0.87178000  0.29916000  0.28962000  1.0
  C  C140  1  0.86722000  0.31237000  0.22501000  1.0
  C  C141  1  0.82529000  0.39351000  0.18613000  1.0
  C  C142  1  0.78685000  0.46213000  0.21314000  1.0
  C  C143  1  0.79118000  0.44993000  0.27778000  1.0
  C  C144  1  0.82178000  0.40578000  0.11650000  1.0
  C  C145  1  0.07474000  0.38586000  0.93083000  1.0
  C  C146  1  0.07844000  0.27875000  0.89750000  1.0
  C  C147  1  0.26150000  0.30061000  0.89691000  1.0
  C  C148  1  0.31901000  0.27761000  0.84115000  1.0
  C  C149  1  0.43328000  0.25569000  0.83247000  1.0
  C  C150  1  0.48914000  0.25717000  0.87897000  1.0
  C  C151  1  0.43006000  0.28183000  0.93397000  1.0
  C  C152  1  0.31581000  0.30342000  0.94338000  1.0
  C  C153  1  0.61296000  0.23559000  0.86838000  1.0
  C  C154  1  0.80387000  0.46025000  0.79855000  1.0
  C  C155  1  0.82430000  0.42872000  0.70805000  1.0
  C  C156  1  0.82315000  0.57787000  0.69759000  1.0
  C  C157  1  0.77938000  0.61579000  0.63988000  1.0
  C  C158  1  0.78556000  0.69819000  0.60594000  1.0
  C  C159  1  0.83330000  0.74287000  0.62987000  1.0
  C  C160  1  0.87691000  0.70353000  0.68753000  1.0
  C  C161  1  0.87332000  0.62062000  0.72150000  1.0
  C  C162  1  0.83616000  0.83300000  0.59463000  1.0
  C  C163  1  0.82170000  0.99797000  0.70033000  1.0
  C  C164  1  0.82174000  0.02289000  0.79076000  1.0
  C  C165  1  0.82115000  0.87484000  0.80004000  1.0
  C  C166  1  0.89273000  0.83153000  0.84554000  1.0
  C  C167  1  0.89423000  0.74768000  0.87952000  1.0
  C  C168  1  0.82529000  0.70693000  0.86775000  1.0
  C  C169  1  0.75338000  0.75155000  0.82237000  1.0
  C  C170  1  0.75077000  0.83565000  0.78829000  1.0
  C  C171  1  0.82835000  0.61605000  0.90402000  1.0
  C  C172  1  0.08901000  0.20606000  0.67944000  1.0
  C  C173  1  0.09048000  0.18578000  0.58717000  1.0
  C  C174  1  0.27439000  0.17089000  0.61430000  1.0
  C  C175  1  0.33425000  0.10434000  0.58763000  1.0
  C  C176  1  0.44831000  0.08770000  0.57676000  1.0
  C  C177  1  0.50163000  0.13773000  0.59104000  1.0
  C  C178  1  0.44006000  0.20463000  0.61734000  1.0
  C  C179  1  0.32596000  0.22115000  0.62958000  1.0
  C  C180  1  0.62503000  0.12051000  0.57740000  1.0
  C  C181  1  0.88483000  0.04544000  0.07897000  1.0
  C  C182  1  0.82875000  0.18261000  0.06347000  1.0
  C  C183  1  0.83202000  0.09973000  0.17808000  1.0
  C  C184  1  0.89515000  0.03023000  0.21882000  1.0
  C  C185  1  0.87961000  0.02513000  0.28410000  1.0
  C  C186  1  0.80346000  0.08921000  0.30878000  1.0
  C  C187  1  0.74040000  0.15774000  0.26739000  1.0
  C  C188  1  0.75309000  0.16278000  0.20238000  1.0
  C  C189  1  0.79102000  0.08551000  0.37884000  1.0
  N  N190  1  0.12727000  0.62766000  0.53031000  1.0
  N  N191  1  0.16119000  0.70124000  0.51500000  1.0
  N  N192  1  0.15888000  0.64464000  0.61860000  1.0
  N  N193  1  0.02733000  0.61783000  0.06458000  1.0
  N  N194  1  0.02515000  0.68529000  0.08546000  1.0
  N  N195  1  0.85573000  0.67860000  0.09300000  1.0
  N  N196  1  0.19450000  0.62060000  0.18763000  1.0
  N  N197  1  0.18162000  0.64009000  0.24440000  1.0
  N  N198  1  0.18352000  0.50638000  0.26708000  1.0
  N  N199  1  0.17636000  0.90675000  0.25577000  1.0
  N  N200  1  0.17635000  0.92199000  0.31275000  1.0
  N  N201  1  0.17957000  0.03916000  0.23465000  1.0
  N  N202  1  0.01249000  0.79672000  0.38491000  1.0
  N  N203  1  0.01345000  0.78414000  0.32675000  1.0
  N  N204  1  0.84273000  0.81239000  0.37383000  1.0
  N  N205  1  0.11449000  0.92081000  0.98340000  1.0
  N  N206  1  0.14984000  0.83421000  0.99263000  1.0
  N  N207  1  0.15117000  0.89200000  0.88922000  1.0
  N  N208  1  0.87272000  0.37233000  0.46970000  1.0
  N  N209  1  0.83881000  0.29875000  0.48500000  1.0
  N  N210  1  0.84111000  0.35535000  0.38141000  1.0
  N  N211  1  0.97266000  0.38218000  0.93542000  1.0
  N  N212  1  0.97485000  0.31472000  0.91454000  1.0
  N  N213  1  0.14427000  0.32141000  0.90700000  1.0
  N  N214  1  0.80551000  0.37940000  0.81237000  1.0
  N  N215  1  0.81839000  0.35991000  0.75559000  1.0
  N  N216  1  0.81649000  0.49362000  0.73291000  1.0
  N  N217  1  0.82363000  0.09325000  0.74424000  1.0
  N  N218  1  0.82365000  0.07801000  0.68725000  1.0
  N  N219  1  0.82043000  0.96084000  0.76535000  1.0
  N  N220  1  0.98751000  0.20328000  0.61509000  1.0
  N  N221  1  0.98654000  0.21586000  0.67325000  1.0
  N  N222  1  0.15726000  0.18760000  0.62617000  1.0
  N  N223  1  0.88550000  0.07919000  0.01660000  1.0
  N  N224  1  0.85016000  0.16579000  0.00737000  1.0
  N  N225  1  0.84883000  0.10800000  0.11078000  1.0
  Cl  Cl226  1  0.31404000  0.61816000  0.02901000  1.0
  Cl  Cl227  1  0.04427000  0.83244000  0.16017000  1.0
  Cl  Cl228  1  0.28669000  0.69271000  0.34803000  1.0
  Cl  Cl229  1  0.05208000  0.91077000  0.47421000  1.0
  Cl  Cl230  1  0.68596000  0.38184000  0.97098000  1.0
  Cl  Cl231  1  0.95574000  0.16755000  0.83983000  1.0
  Cl  Cl232  1  0.71330000  0.30730000  0.65196000  1.0
  Cl  Cl233  1  0.94792000  0.08923000  0.52579000  1.0
  O  O234  1  0.21166000  0.51763000  0.91796000  1.0
  O  O235  1  0.14790000  0.65782000  0.90587000  1.0
  O  O236  1  0.34221000  0.76125000  0.08763000  1.0
  O  O237  1  0.33967000  0.78337000  0.18365000  1.0
  O  O238  1  0.19684000  0.13646000  0.46037000  1.0
  O  O239  1  0.12940000  0.12574000  0.37960000  1.0
  O  O240  1  0.22851000  0.42199000  0.11108000  1.0
  O  O241  1  0.11412000  0.41909000  0.05026000  1.0
  O  O242  1  0.33543000  0.81752000  0.43000000  1.0
  O  O243  1  0.32316000  0.95449000  0.42513000  1.0
  O  O244  1  0.24310000  0.84720000  0.60439000  1.0
  O  O245  1  0.18116000  0.99014000  0.58384000  1.0
  O  O246  1  0.78833000  0.48237000  0.08204000  1.0
  O  O247  1  0.85210000  0.34218000  0.09412000  1.0
  O  O248  1  0.65780000  0.23874000  0.91237000  1.0
  O  O249  1  0.66032000  0.21665000  0.81633000  1.0
  O  O250  1  0.80316000  0.86354000  0.53963000  1.0
  O  O251  1  0.87059000  0.87427000  0.62040000  1.0
  O  O252  1  0.77150000  0.57802000  0.88891000  1.0
  O  O253  1  0.88588000  0.58091000  0.94974000  1.0
  O  O254  1  0.66456000  0.18247000  0.57000000  1.0
  O  O255  1  0.67684000  0.04550000  0.57489000  1.0
  O  O256  1  0.75691000  0.15278000  0.39562000  1.0
  O  O257  1  0.81886000  0.00984000  0.41616000  1.0
