# generated using pymatgen
data_CuH12C16N4(ClO)6
_symmetry_space_group_name_H-M   'P 1'
_cell_length_a   9.50678000
_cell_length_b   9.50679000
_cell_length_c   13.00450000
_cell_angle_alpha   87.19800000
_cell_angle_beta   87.19800000
_cell_angle_gamma   87.61710000
_symmetry_Int_Tables_number   1
_chemical_formula_structural   CuH12C16N4(ClO)6
_chemical_formula_sum   'Cu2 H24 C32 N8 Cl12 O12'
_cell_volume   1171.61951727
_cell_formula_units_Z   2
loop_
 _symmetry_equiv_pos_site_id
 _symmetry_equiv_pos_as_xyz
  1  'x, y, z'
loop_
 _atom_site_type_symbol
 _atom_site_label
 _atom_site_symmetry_multiplicity
 _atom_site_fract_x
 _atom_site_fract_y
 _atom_site_fract_z
 _atom_site_occupancy
  Cu  Cu0  1  0.50000000  0.00000000  0.50000000  1.0
  Cu  Cu1  1  0.00000000  0.50000000  0.00000000  1.0
  H  H2  1  0.35246000  0.46558000  0.99488000  1.0
  H  H3  1  0.53443000  0.64754000  0.50512000  1.0
  H  H4  1  0.64754000  0.53442000  0.00513000  1.0
  H  H5  1  0.46558000  0.35246000  0.49488000  1.0
  H  H6  1  0.48773000  0.35073000  0.94805000  1.0
  H  H7  1  0.64927000  0.51227000  0.55195000  1.0
  H  H8  1  0.51227000  0.64927000  0.05195000  1.0
  H  H9  1  0.35073000  0.48773000  0.44805000  1.0
  H  H10  1  0.23428000  0.12950000  0.57256000  1.0
  H  H11  1  0.87050000  0.76572000  0.92744000  1.0
  H  H12  1  0.76572000  0.87049000  0.42744000  1.0
  H  H13  1  0.12951000  0.23428000  0.07256000  1.0
  H  H14  1  0.14785000  0.27382000  0.72201000  1.0
  H  H15  1  0.72619000  0.85214000  0.77799000  1.0
  H  H16  1  0.85214000  0.72619000  0.27799000  1.0
  H  H17  1  0.27381000  0.14785000  0.22201000  1.0
  H  H18  1  0.56796000  0.22904000  0.83462000  1.0
  H  H19  1  0.77097000  0.43204000  0.66538000  1.0
  H  H20  1  0.43204000  0.77097000  0.16538000  1.0
  H  H21  1  0.22904000  0.56796000  0.33462000  1.0
  H  H22  1  0.63473000  0.08538000  0.68336000  1.0
  H  H23  1  0.91462000  0.36527000  0.81664000  1.0
  H  H24  1  0.36527000  0.91462000  0.31664000  1.0
  H  H25  1  0.08538000  0.63473000  0.18336000  1.0
  C  C26  1  0.27368000  0.78324000  0.50999000  1.0
  C  C27  1  0.21676000  0.72632000  0.99001000  1.0
  C  C28  1  0.72631000  0.21675000  0.49001000  1.0
  C  C29  1  0.78325000  0.27369000  0.00999000  1.0
  C  C30  1  0.12583000  0.74789000  0.56448000  1.0
  C  C31  1  0.25211000  0.87417000  0.93552000  1.0
  C  C32  1  0.87417000  0.25211000  0.43552000  1.0
  C  C33  1  0.74789000  0.12583000  0.06447000  1.0
  C  C34  1  0.30367000  0.15521000  0.63244000  1.0
  C  C35  1  0.84480000  0.69633000  0.86756000  1.0
  C  C36  1  0.69633000  0.84479000  0.36756000  1.0
  C  C37  1  0.15521000  0.30367000  0.13244000  1.0
  C  C38  1  0.25666000  0.23415000  0.71507000  1.0
  C  C39  1  0.76585000  0.74334000  0.78493000  1.0
  C  C40  1  0.74334000  0.76585000  0.28493000  1.0
  C  C41  1  0.23415000  0.25665000  0.21507000  1.0
  C  C42  1  0.35049000  0.26443000  0.78965000  1.0
  C  C43  1  0.73558000  0.64951000  0.71035000  1.0
  C  C44  1  0.64951000  0.73558000  0.21035000  1.0
  C  C45  1  0.26443000  0.35048000  0.28965000  1.0
  C  C46  1  0.48936000  0.21067000  0.77913000  1.0
  C  C47  1  0.78933000  0.51063000  0.72087000  1.0
  C  C48  1  0.51064000  0.78933000  0.22087000  1.0
  C  C49  1  0.21067000  0.48936000  0.27913000  1.0
  C  C50  1  0.52858000  0.13090000  0.69490000  1.0
  C  C51  1  0.86910000  0.47142000  0.80510000  1.0
  C  C52  1  0.47142000  0.86910000  0.30510000  1.0
  C  C53  1  0.13090000  0.52858000  0.19490000  1.0
  C  C54  1  0.29627000  0.35693000  0.87458000  1.0
  C  C55  1  0.64308000  0.70373000  0.62542000  1.0
  C  C56  1  0.70374000  0.64307000  0.12543000  1.0
  C  C57  1  0.35693000  0.29626000  0.37458000  1.0
  N  N58  1  0.43790000  0.10522000  0.62254000  1.0
  N  N59  1  0.89478000  0.56209000  0.87746000  1.0
  N  N60  1  0.56209000  0.89478000  0.37747000  1.0
  N  N61  1  0.10522000  0.43790000  0.12253000  1.0
  N  N62  1  0.38533000  0.38818000  0.94597000  1.0
  N  N63  1  0.61183000  0.61467000  0.55403000  1.0
  N  N64  1  0.61467000  0.61182000  0.05403000  1.0
  N  N65  1  0.38817000  0.38533000  0.44597000  1.0
  Cl  Cl66  1  0.15633000  0.61439000  0.66324000  1.0
  Cl  Cl67  1  0.38561000  0.84367000  0.83676000  1.0
  Cl  Cl68  1  0.84366000  0.38561000  0.33676000  1.0
  Cl  Cl69  1  0.61439000  0.15633000  0.16324000  1.0
  Cl  Cl70  1  0.01732000  0.68259000  0.46997000  1.0
  Cl  Cl71  1  0.31741000  0.98268000  0.03003000  1.0
  Cl  Cl72  1  0.98268000  0.31741000  0.53003000  1.0
  Cl  Cl73  1  0.68259000  0.01732000  0.96997000  1.0
  Cl  Cl74  1  0.03662000  0.89475000  0.61943000  1.0
  Cl  Cl75  1  0.10525000  0.96338000  0.88057000  1.0
  Cl  Cl76  1  0.96337000  0.10525000  0.38056000  1.0
  Cl  Cl77  1  0.89475000  0.03662000  0.11943000  1.0
  O  O78  1  0.30710000  0.90988000  0.51496000  1.0
  O  O79  1  0.09012000  0.69290000  0.98504000  1.0
  O  O80  1  0.69290000  0.09011000  0.48505000  1.0
  O  O81  1  0.90989000  0.30710000  0.01495000  1.0
  O  O82  1  0.34013000  0.68286000  0.46862000  1.0
  O  O83  1  0.31714000  0.65987000  0.03139000  1.0
  O  O84  1  0.65986000  0.31713000  0.53138000  1.0
  O  O85  1  0.68287000  0.34013000  0.96862000  1.0
  O  O86  1  0.17098000  0.40341000  0.87436000  1.0
  O  O87  1  0.59659000  0.82902000  0.62564000  1.0
  O  O88  1  0.82902000  0.59659000  0.12564000  1.0
  O  O89  1  0.40341000  0.17098000  0.37436000  1.0
