# generated using pymatgen
data_AlH14C20O7F3
_symmetry_space_group_name_H-M   'P 1'
_cell_length_a   6.67710000
_cell_length_b   23.94490000
_cell_length_c   25.79650000
_cell_angle_alpha   78.94510000
_cell_angle_beta   89.99980000
_cell_angle_gamma   89.99840000
_symmetry_Int_Tables_number   1
_chemical_formula_structural   AlH14C20O7F3
_chemical_formula_sum   'Al4 H56 C80 O28 F12'
_cell_volume   4047.87576746
_cell_formula_units_Z   4
loop_
 _symmetry_equiv_pos_site_id
 _symmetry_equiv_pos_as_xyz
  1  'x, y, z'
loop_
 _atom_site_type_symbol
 _atom_site_label
 _atom_site_symmetry_multiplicity
 _atom_site_fract_x
 _atom_site_fract_y
 _atom_site_fract_z
 _atom_site_occupancy
  Al  Al0  1  0.75494000  0.25105000  0.75037000  1.0
  Al  Al1  1  0.24506000  0.74895000  0.24963000  1.0
  Al  Al2  1  0.25493000  0.24895000  0.74963000  1.0
  Al  Al3  1  0.74506000  0.75105000  0.25037000  1.0
  H  H4  1  0.26190000  0.68375000  0.10968000  1.0
  H  H5  1  0.73810000  0.31624000  0.89034000  1.0
  H  H6  1  0.76191000  0.81626000  0.39033000  1.0
  H  H7  1  0.23809000  0.18376000  0.60968000  1.0
  H  H8  1  0.26594000  0.61646000  0.04695000  1.0
  H  H9  1  0.73403000  0.38355000  0.95305000  1.0
  H  H10  1  0.76602000  0.88358000  0.45302000  1.0
  H  H11  1  0.23408000  0.11649000  0.54693000  1.0
  H  H12  1  0.33103000  0.46284000  0.53613000  1.0
  H  H13  1  0.66897000  0.53715000  0.46385000  1.0
  H  H14  1  0.83104000  0.03715000  0.96386000  1.0
  H  H15  1  0.16897000  0.96285000  0.03614000  1.0
  H  H16  1  0.90668000  0.46460000  0.15920000  1.0
  H  H17  1  0.80685000  0.45458000  0.09746000  1.0
  H  H18  1  0.46795000  0.43495000  0.13838000  1.0
  H  H19  1  0.65017000  0.38665000  0.17157000  1.0
  H  H20  1  0.56454000  0.44423000  0.20057000  1.0
  H  H21  1  0.19388000  0.54542000  0.90263000  1.0
  H  H22  1  0.09328000  0.53544000  0.84096000  1.0
  H  H23  1  0.43494000  0.55576000  0.79932000  1.0
  H  H24  1  0.34998000  0.61334000  0.82843000  1.0
  H  H25  1  0.53240000  0.56499000  0.86143000  1.0
  H  H26  1  0.40675000  0.03549000  0.34107000  1.0
  H  H27  1  0.30558000  0.04544000  0.40269000  1.0
  H  H28  1  0.96732000  0.06496000  0.36130000  1.0
  H  H29  1  0.14985000  0.11335000  0.32842000  1.0
  H  H30  1  0.06539000  0.05578000  0.29924000  1.0
  H  H31  1  0.69313000  0.95460000  0.59744000  1.0
  H  H32  1  0.59334000  0.96461000  0.65919000  1.0
  H  H33  1  0.93550000  0.94423000  0.70054000  1.0
  H  H34  1  0.84981000  0.88665000  0.67154000  1.0
  H  H35  1  0.03205000  0.93495000  0.63835000  1.0
  H  H36  1  0.86303000  0.57653000  0.25519000  1.0
  H  H37  1  0.75173000  0.52110000  0.22729000  1.0
  H  H38  1  0.40916000  0.55320000  0.25291000  1.0
  H  H39  1  0.56815000  0.53073000  0.30854000  1.0
  H  H40  1  0.52782000  0.60446000  0.28482000  1.0
  H  H41  1  0.24819000  0.47888000  0.77268000  1.0
  H  H42  1  0.13690000  0.42343000  0.74481000  1.0
  H  H43  1  0.47203000  0.39549000  0.71517000  1.0
  H  H44  1  0.43170000  0.46921000  0.69143000  1.0
  H  H45  1  0.59078000  0.44677000  0.74705000  1.0
  H  H46  1  0.36306000  0.92342000  0.24479000  1.0
  H  H47  1  0.25188000  0.97888000  0.27267000  1.0
  H  H48  1  0.90922000  0.94680000  0.24706000  1.0
  H  H49  1  0.06825000  0.96923000  0.19143000  1.0
  H  H50  1  0.02785000  0.89551000  0.21517000  1.0
  H  H51  1  0.74828000  0.02110000  0.72730000  1.0
  H  H52  1  0.63691000  0.07654000  0.75518000  1.0
  H  H53  1  0.97200000  0.10450000  0.78483000  1.0
  H  H54  1  0.93173000  0.03077000  0.80856000  1.0
  H  H55  1  0.09082000  0.05323000  0.75295000  1.0
  H  H56  1  0.49769000  0.31214000  0.77436000  1.0
  H  H57  1  0.50231000  0.68786000  0.22564000  1.0
  H  H58  1  0.99770000  0.18785000  0.72565000  1.0
  H  H59  1  0.00231000  0.81214000  0.27436000  1.0
  C  C60  1  0.50705000  0.16966000  0.82353000  1.0
  C  C61  1  0.49296000  0.83033000  0.17647000  1.0
  C  C62  1  0.00705000  0.33034000  0.67647000  1.0
  C  C63  1  0.99296000  0.66966000  0.32353000  1.0
  C  C64  1  0.50778000  0.19208000  0.68354000  1.0
  C  C65  1  0.49220000  0.80792000  0.31647000  1.0
  C  C66  1  0.00780000  0.30792000  0.81647000  1.0
  C  C67  1  0.99218000  0.69208000  0.18354000  1.0
  C  C68  1  0.14505000  0.65180000  0.11095000  1.0
  C  C69  1  0.85492000  0.34820000  0.88905000  1.0
  C  C70  1  0.64508000  0.84822000  0.38904000  1.0
  C  C71  1  0.35495000  0.15181000  0.61096000  1.0
  C  C72  1  0.14798000  0.61399000  0.07650000  1.0
  C  C73  1  0.85199000  0.38603000  0.92349000  1.0
  C  C74  1  0.64804000  0.88605000  0.42348000  1.0
  C  C75  1  0.35204000  0.11401000  0.57649000  1.0
  C  C76  1  0.99806000  0.57245000  0.07880000  1.0
  C  C77  1  0.00189000  0.42756000  0.92119000  1.0
  C  C78  1  0.49814000  0.92759000  0.42117000  1.0
  C  C79  1  0.50197000  0.07248000  0.57878000  1.0
  C  C80  1  0.84837000  0.56780000  0.11791000  1.0
  C  C81  1  0.15162000  0.43221000  0.88208000  1.0
  C  C82  1  0.34839000  0.93223000  0.38207000  1.0
  C  C83  1  0.65165000  0.06781000  0.61790000  1.0
  C  C84  1  0.84060000  0.60776000  0.15175000  1.0
  C  C85  1  0.15936000  0.39224000  0.84825000  1.0
  C  C86  1  0.34065000  0.89225000  0.34825000  1.0
  C  C87  1  0.65939000  0.10777000  0.65174000  1.0
  C  C88  1  0.98957000  0.65004000  0.14782000  1.0
  C  C89  1  0.01041000  0.34996000  0.85218000  1.0
  C  C90  1  0.48959000  0.84998000  0.35217000  1.0
  C  C91  1  0.51042000  0.15004000  0.64782000  1.0
  C  C92  1  0.83668000  0.53420000  0.00452000  1.0
  C  C93  1  0.16324000  0.46583000  0.99547000  1.0
  C  C94  1  0.33678000  0.96585000  0.49546000  1.0
  C  C95  1  0.66335000  0.03423000  0.50449000  1.0
  C  C96  1  0.83875000  0.49951000  0.96695000  1.0
  C  C97  1  0.16118000  0.50051000  0.03304000  1.0
  C  C98  1  0.33886000  0.00055000  0.53302000  1.0
  C  C99  1  0.66131000  0.99953000  0.46693000  1.0
  C  C100  1  0.00202000  0.46457000  0.96101000  1.0
  C  C101  1  0.99790000  0.53545000  0.03897000  1.0
  C  C102  1  0.50213000  0.03549000  0.53895000  1.0
  C  C103  1  0.49803000  0.96459000  0.46099000  1.0
  C  C104  1  0.18639000  0.47883000  0.52062000  1.0
  C  C105  1  0.81362000  0.52116000  0.47938000  1.0
  C  C106  1  0.68640000  0.02116000  0.97938000  1.0
  C  C107  1  0.31361000  0.97884000  0.02062000  1.0
  C  C108  1  0.00856000  0.45639000  0.54587000  1.0
  C  C109  1  0.99144000  0.54361000  0.45412000  1.0
  C  C110  1  0.50858000  0.04361000  0.95412000  1.0
  C  C111  1  0.49144000  0.95639000  0.04587000  1.0
  C  C112  1  0.82569000  0.47885000  0.52390000  1.0
  C  C113  1  0.17432000  0.52114000  0.47610000  1.0
  C  C114  1  0.32569000  0.02115000  0.97610000  1.0
  C  C115  1  0.67432000  0.97886000  0.02390000  1.0
  C  C116  1  0.01121000  0.41299000  0.59131000  1.0
  C  C117  1  0.98880000  0.58701000  0.40868000  1.0
  C  C118  1  0.51122000  0.08701000  0.90869000  1.0
  C  C119  1  0.48879000  0.91299000  0.09132000  1.0
  C  C120  1  0.99129000  0.62470000  0.36963000  1.0
  C  C121  1  0.00873000  0.37529000  0.63036000  1.0
  C  C122  1  0.49129000  0.87530000  0.13036000  1.0
  C  C123  1  0.50873000  0.12470000  0.86964000  1.0
  C  C124  1  0.76972000  0.46789000  0.13488000  1.0
  C  C125  1  0.60268000  0.43143000  0.16311000  1.0
  C  C126  1  0.23049000  0.53212000  0.86518000  1.0
  C  C127  1  0.39737000  0.56856000  0.83682000  1.0
  C  C128  1  0.26932000  0.03214000  0.36521000  1.0
  C  C129  1  0.10258000  0.06856000  0.33677000  1.0
  C  C130  1  0.73029000  0.96790000  0.63486000  1.0
  C  C131  1  0.89734000  0.93144000  0.66309000  1.0
  C  C132  1  0.72573000  0.56354000  0.23673000  1.0
  C  C133  1  0.54664000  0.56329000  0.27266000  1.0
  C  C134  1  0.27420000  0.43643000  0.76326000  1.0
  C  C135  1  0.45326000  0.43667000  0.72732000  1.0
  C  C136  1  0.22580000  0.93644000  0.26325000  1.0
  C  C137  1  0.04670000  0.93669000  0.22732000  1.0
  C  C138  1  0.77424000  0.06355000  0.73673000  1.0
  C  C139  1  0.95327000  0.06332000  0.77267000  1.0
  O  O140  1  0.33575000  0.20722000  0.69735000  1.0
  O  O141  1  0.66425000  0.79277000  0.30266000  1.0
  O  O142  1  0.83574000  0.29278000  0.80265000  1.0
  O  O143  1  0.16423000  0.70721000  0.19736000  1.0
  O  O144  1  0.67797000  0.18789000  0.80608000  1.0
  O  O145  1  0.32204000  0.81210000  0.19392000  1.0
  O  O146  1  0.17795000  0.31211000  0.69393000  1.0
  O  O147  1  0.82207000  0.68788000  0.30606000  1.0
  O  O148  1  0.67400000  0.20994000  0.69776000  1.0
  O  O149  1  0.32599000  0.79007000  0.30225000  1.0
  O  O150  1  0.17400000  0.29004000  0.80226000  1.0
  O  O151  1  0.82598000  0.70995000  0.19774000  1.0
  O  O152  1  0.83549000  0.31420000  0.69500000  1.0
  O  O153  1  0.16453000  0.68580000  0.30500000  1.0
  O  O154  1  0.33550000  0.18579000  0.80499000  1.0
  O  O155  1  0.66450000  0.81421000  0.19501000  1.0
  O  O156  1  0.50355000  0.28379000  0.75195000  1.0
  O  O157  1  0.49645000  0.71621000  0.24805000  1.0
  O  O158  1  0.00355000  0.21621000  0.74805000  1.0
  O  O159  1  0.99644000  0.78379000  0.25195000  1.0
  O  O160  1  0.70309000  0.52663000  0.12469000  1.0
  O  O161  1  0.29695000  0.47336000  0.87530000  1.0
  O  O162  1  0.20301000  0.97337000  0.37529000  1.0
  O  O163  1  0.79692000  0.02664000  0.62467000  1.0
  O  O164  1  0.68863000  0.60388000  0.18810000  1.0
  O  O165  1  0.31134000  0.39611000  0.81190000  1.0
  O  O166  1  0.18865000  0.89613000  0.31190000  1.0
  O  O167  1  0.81137000  0.10388000  0.68809000  1.0
  F  F168  1  0.67625000  0.56837000  0.00625000  1.0
  F  F169  1  0.32369000  0.43165000  0.99373000  1.0
  F  F170  1  0.17636000  0.93168000  0.49373000  1.0
  F  F171  1  0.82380000  0.06840000  0.50623000  1.0
  F  F172  1  0.68000000  0.50160000  0.93396000  1.0
  F  F173  1  0.31990000  0.49841000  0.06603000  1.0
  F  F174  1  0.18018000  0.99844000  0.56602000  1.0
  F  F175  1  0.82008000  0.00160000  0.43396000  1.0
  F  F176  1  0.34621000  0.54255000  0.45181000  1.0
  F  F177  1  0.65380000  0.45744000  0.54818000  1.0
  F  F178  1  0.84621000  0.95743000  0.04818000  1.0
  F  F179  1  0.15381000  0.04256000  0.95182000  1.0
