# generated using pymatgen
data_Zn3H28C30N9O14
_symmetry_space_group_name_H-M   'P 1'
_cell_length_a   10.47870000
_cell_length_b   12.82010000
_cell_length_c   14.99790000
_cell_angle_alpha   93.82630000
_cell_angle_beta   106.29400000
_cell_angle_gamma   109.20700000
_symmetry_Int_Tables_number   1
_chemical_formula_structural   Zn3H28C30N9O14
_chemical_formula_sum   'Zn6 H56 C60 N18 O28'
_cell_volume   1797.88770939
_cell_formula_units_Z   2
loop_
 _symmetry_equiv_pos_site_id
 _symmetry_equiv_pos_as_xyz
  1  'x, y, z'
loop_
 _atom_site_type_symbol
 _atom_site_label
 _atom_site_symmetry_multiplicity
 _atom_site_fract_x
 _atom_site_fract_y
 _atom_site_fract_z
 _atom_site_occupancy
  Zn  Zn0  1  0.42035000  0.92212000  0.34127000  1.0
  Zn  Zn1  1  0.57966000  0.07788000  0.65873000  1.0
  Zn  Zn2  1  0.23171000  0.63593000  0.08312000  1.0
  Zn  Zn3  1  0.76829000  0.36407000  0.91688000  1.0
  Zn  Zn4  1  0.59577000  0.48960000  0.17933000  1.0
  Zn  Zn5  1  0.40422000  0.51040000  0.82066000  1.0
  H  H6  1  0.12039000  0.54341000  0.33296000  1.0
  H  H7  1  0.87960000  0.45659000  0.66703000  1.0
  H  H8  1  0.30757000  0.62144000  0.38153000  1.0
  H  H9  1  0.69242000  0.37856000  0.61847000  1.0
  H  H10  1  0.94488000  0.65770000  0.15416000  1.0
  H  H11  1  0.05512000  0.34231000  0.84584000  1.0
  H  H12  1  0.84829000  0.71210000  0.06413000  1.0
  H  H13  1  0.15171000  0.28789000  0.93587000  1.0
  H  H14  1  0.36907000  0.71829000  0.51538000  1.0
  H  H15  1  0.63093000  0.28171000  0.48461000  1.0
  H  H16  1  0.23540000  0.73300000  0.56206000  1.0
  H  H17  1  0.76459000  0.26701000  0.43795000  1.0
  H  H18  1  0.93418000  0.96292000  0.61289000  1.0
  H  H19  1  0.06582000  0.03708000  0.38712000  1.0
  H  H20  1  0.07462000  0.95473000  0.57275000  1.0
  H  H21  1  0.92538000  0.04527000  0.42726000  1.0
  H  H22  1  0.73831000  0.92090000  0.39468000  1.0
  H  H23  1  0.26170000  0.07909000  0.60532000  1.0
  H  H24  1  0.73640000  0.93479000  0.51182000  1.0
  H  H25  1  0.26360000  0.06521000  0.48819000  1.0
  H  H26  1  0.71683000  0.82448000  0.19377000  1.0
  H  H27  1  0.28317000  0.17552000  0.80622000  1.0
  H  H28  1  0.67124000  0.75539000  0.07528000  1.0
  H  H29  1  0.32876000  0.24461000  0.92472000  1.0
  H  H30  1  0.35486000  0.29450000  0.14886000  1.0
  H  H31  1  0.64513000  0.70549000  0.85114000  1.0
  H  H32  1  0.31703000  0.39538000  0.11059000  1.0
  H  H33  1  0.68296000  0.60461000  0.88940000  1.0
  H  H34  1  0.49921000  0.87981000  0.18250000  1.0
  H  H35  1  0.50078000  0.12018000  0.81750000  1.0
  H  H36  1  0.60466000  0.99909000  0.24310000  1.0
  H  H37  1  0.39534000  0.00090000  0.75689000  1.0
  H  H38  1  0.10013000  0.32888000  0.22524000  1.0
  H  H39  1  0.89987000  0.67112000  0.77476000  1.0
  H  H40  1  0.97443000  0.42489000  0.11350000  1.0
  H  H41  1  0.02556000  0.57511000  0.88650000  1.0
  H  H42  1  0.84587000  0.59580000  0.52405000  1.0
  H  H43  1  0.15414000  0.40422000  0.47594000  1.0
  H  H44  1  0.77334000  0.35401000  0.23110000  1.0
  H  H45  1  0.22665000  0.64598000  0.76889000  1.0
  H  H46  1  0.93539000  0.94966000  0.14087000  1.0
  H  H47  1  0.06461000  0.05034000  0.85913000  1.0
  H  H48  1  0.76724000  0.13527000  0.90923000  1.0
  H  H49  1  0.23275000  0.86472000  0.09077000  1.0
  H  H50  1  0.64506000  0.56450000  0.38337000  1.0
  H  H51  1  0.35493000  0.43551000  0.61662000  1.0
  H  H52  1  0.89693000  0.03143000  0.00944000  1.0
  H  H53  1  0.10308000  0.96857000  0.99056000  1.0
  H  H54  1  0.97623000  0.37015000  0.36797000  1.0
  H  H55  1  0.02377000  0.62986000  0.63203000  1.0
  H  H56  1  0.28307000  0.26717000  0.25655000  1.0
  H  H57  1  0.71694000  0.73284000  0.74345000  1.0
  H  H58  1  0.10029000  0.85799000  0.22694000  1.0
  H  H59  1  0.89971000  0.14201000  0.77306000  1.0
  H  H60  1  0.43692000  0.15978000  0.32634000  1.0
  H  H61  1  0.56310000  0.84022000  0.67366000  1.0
  C  C62  1  0.20302000  0.62768000  0.34868000  1.0
  C  C63  1  0.79697000  0.37231000  0.65132000  1.0
  C  C64  1  0.20614000  0.66359000  0.25472000  1.0
  C  C65  1  0.79386000  0.33641000  0.74528000  1.0
  C  C66  1  0.85824000  0.71389000  0.27602000  1.0
  C  C67  1  0.14175000  0.28611000  0.72398000  1.0
  C  C68  1  0.90701000  0.80090000  0.42405000  1.0
  C  C69  1  0.09299000  0.19909000  0.57595000  1.0
  C  C70  1  0.05809000  0.72468000  0.38898000  1.0
  C  C71  1  0.94191000  0.27532000  0.61103000  1.0
  C  C72  1  0.83688000  0.65207000  0.11305000  1.0
  C  C73  1  0.16312000  0.34792000  0.88695000  1.0
  C  C74  1  0.28396000  0.75265000  0.50630000  1.0
  C  C75  1  0.71604000  0.24735000  0.49370000  1.0
  C  C76  1  0.97265000  0.90496000  0.58069000  1.0
  C  C77  1  0.02735000  0.09504000  0.41932000  1.0
  C  C78  1  0.73863000  0.87710000  0.45530000  1.0
  C  C79  1  0.26137000  0.12290000  0.54470000  1.0
  C  C80  1  0.35260000  0.88031000  0.52239000  1.0
  C  C81  1  0.64741000  0.11970000  0.47761000  1.0
  C  C82  1  0.52341000  0.68291000  0.14389000  1.0
  C  C83  1  0.47659000  0.31709000  0.85611000  1.0
  C  C84  1  0.67620000  0.74224000  0.14772000  1.0
  C  C85  1  0.32379000  0.25775000  0.85228000  1.0
  C  C86  1  0.76423000  0.53441000  0.05561000  1.0
  C  C87  1  0.23577000  0.46558000  0.94439000  1.0
  C  C88  1  0.59723000  0.77672000  0.42589000  1.0
  C  C89  1  0.40278000  0.22328000  0.57412000  1.0
  C  C90  1  0.00699000  0.82895000  0.65258000  1.0
  C  C91  1  0.99302000  0.17104000  0.34742000  1.0
  C  C92  1  0.03309000  0.28519000  0.15397000  1.0
  C  C93  1  0.96690000  0.71481000  0.84603000  1.0
  C  C94  1  0.93547000  0.48939000  0.45921000  1.0
  C  C95  1  0.06453000  0.51062000  0.54078000  1.0
  C  C96  1  0.95791000  0.33715000  0.09317000  1.0
  C  C97  1  0.04207000  0.66285000  0.90684000  1.0
  C  C98  1  0.83496000  0.53911000  0.46218000  1.0
  C  C99  1  0.16505000  0.46091000  0.53781000  1.0
  C  C100  1  0.79309000  0.40632000  0.29757000  1.0
  C  C101  1  0.20691000  0.59368000  0.70242000  1.0
  C  C102  1  0.09930000  0.11600000  0.18327000  1.0
  C  C103  1  0.90071000  0.88401000  0.81674000  1.0
  C  C104  1  0.04680000  0.99950000  0.17933000  1.0
  C  C105  1  0.95321000  0.00050000  0.82066000  1.0
  C  C106  1  0.84294000  0.17517000  0.97929000  1.0
  C  C107  1  0.15706000  0.82483000  0.02071000  1.0
  C  C108  1  0.72008000  0.52242000  0.38189000  1.0
  C  C109  1  0.27991000  0.47759000  0.61810000  1.0
  C  C110  1  0.91539000  0.11807000  0.03607000  1.0
  C  C111  1  0.08460000  0.88193000  0.96393000  1.0
  C  C112  1  0.01344000  0.17301000  0.12535000  1.0
  C  C113  1  0.98655000  0.82700000  0.87465000  1.0
  C  C114  1  0.90871000  0.41784000  0.37519000  1.0
  C  C115  1  0.09129000  0.58217000  0.62481000  1.0
  C  C116  1  0.24014000  0.17560000  0.24169000  1.0
  C  C117  1  0.75986000  0.82440000  0.75831000  1.0
  C  C118  1  0.13670000  0.94804000  0.22725000  1.0
  C  C119  1  0.86330000  0.05197000  0.77274000  1.0
  C  C120  1  0.32500000  0.11733000  0.28428000  1.0
  C  C121  1  0.67500000  0.88267000  0.71572000  1.0
  N  N122  1  0.97077000  0.68249000  0.29847000  1.0
  N  N123  1  0.02924000  0.31751000  0.70154000  1.0
  N  N124  1  0.18010000  0.70233000  0.41404000  1.0
  N  N125  1  0.81990000  0.29766000  0.58596000  1.0
  N  N126  1  0.81736000  0.77047000  0.33256000  1.0
  N  N127  1  0.18264000  0.22953000  0.66744000  1.0
  N  N128  1  0.03212000  0.78460000  0.45371000  1.0
  N  N129  1  0.96788000  0.21540000  0.54629000  1.0
  N  N130  1  0.86875000  0.85302000  0.48726000  1.0
  N  N131  1  0.13124000  0.14698000  0.51274000  1.0
  N  N132  1  0.77034000  0.68035000  0.17970000  1.0
  N  N133  1  0.22966000  0.31965000  0.82030000  1.0
  N  N134  1  0.86501000  0.28373000  0.00692000  1.0
  N  N135  1  0.13499000  0.71627000  0.99308000  1.0
  N  N136  1  0.70131000  0.45959000  0.29943000  1.0
  N  N137  1  0.29868000  0.54041000  0.70057000  1.0
  N  N138  1  0.27544000  0.00496000  0.27559000  1.0
  N  N139  1  0.72456000  0.99505000  0.72441000  1.0
  O  O140  1  0.34361000  0.93300000  0.45422000  1.0
  O  O141  1  0.65638000  0.06700000  0.54578000  1.0
  O  O142  1  0.17395000  0.57971000  0.18853000  1.0
  O  O143  1  0.82605000  0.42029000  0.81147000  1.0
  O  O144  1  0.23993000  0.76305000  0.24063000  1.0
  O  O145  1  0.76008000  0.23695000  0.75938000  1.0
  O  O146  1  0.41655000  0.92445000  0.60907000  1.0
  O  O147  1  0.58345000  0.07555000  0.39093000  1.0
  O  O148  1  0.43971000  0.73609000  0.11842000  1.0
  O  O149  1  0.56029000  0.26391000  0.88158000  1.0
  O  O150  1  0.48020000  0.58413000  0.16143000  1.0
  O  O151  1  0.51980000  0.41587000  0.83857000  1.0
  O  O152  1  0.81140000  0.51764000  0.98864000  1.0
  O  O153  1  0.18861000  0.48235000  0.01137000  1.0
  O  O154  1  0.66734000  0.45835000  0.07523000  1.0
  O  O155  1  0.33265000  0.54164000  0.92477000  1.0
  O  O156  1  0.58924000  0.68363000  0.44846000  1.0
  O  O157  1  0.41076000  0.31638000  0.55153000  1.0
  O  O158  1  0.48802000  0.79819000  0.37789000  1.0
  O  O159  1  0.51198000  0.20181000  0.62212000  1.0
  O  O160  1  0.91971000  0.72907000  0.63981000  1.0
  O  O161  1  0.08030000  0.27093000  0.36020000  1.0
  O  O162  1  0.12053000  0.87787000  0.72150000  1.0
  O  O163  1  0.87948000  0.12213000  0.27850000  1.0
  O  O164  1  0.38518000  0.35683000  0.11595000  1.0
  O  O165  1  0.61481000  0.64316000  0.88405000  1.0
  O  O166  1  0.50411000  0.94982000  0.21696000  1.0
  O  O167  1  0.49588000  0.05017000  0.78303000  1.0
