# generated using pymatgen
data_CdH9C4O7
_symmetry_space_group_name_H-M   'P 1'
_cell_length_a   7.00336000
_cell_length_b   8.41987000
_cell_length_c   13.87620000
_cell_angle_alpha   90.00060000
_cell_angle_beta   90.00060000
_cell_angle_gamma   79.98600000
_symmetry_Int_Tables_number   1
_chemical_formula_structural   CdH9C4O7
_chemical_formula_sum   'Cd4 H36 C16 O28'
_cell_volume   805.77747423
_cell_formula_units_Z   4
loop_
 _symmetry_equiv_pos_site_id
 _symmetry_equiv_pos_as_xyz
  1  'x, y, z'
loop_
 _atom_site_type_symbol
 _atom_site_label
 _atom_site_symmetry_multiplicity
 _atom_site_fract_x
 _atom_site_fract_y
 _atom_site_fract_z
 _atom_site_occupancy
  Cd  Cd0  1  0.90010000  0.45702000  0.17810000  1.0
  Cd  Cd1  1  0.59991000  0.04297000  0.67810000  1.0
  Cd  Cd2  1  0.09991000  0.54298000  0.82190000  1.0
  Cd  Cd3  1  0.40010000  0.95702000  0.32191000  1.0
  H  H4  1  0.29747000  0.33364000  0.12253000  1.0
  H  H5  1  0.20255000  0.16636000  0.62253000  1.0
  H  H6  1  0.70253000  0.66636000  0.87747000  1.0
  H  H7  1  0.79747000  0.83364000  0.37747000  1.0
  H  H8  1  0.24616000  0.50589000  0.06358000  1.0
  H  H9  1  0.25385000  0.99411000  0.56358000  1.0
  H  H10  1  0.75385000  0.49410000  0.93642000  1.0
  H  H11  1  0.74616000  0.00589000  0.43642000  1.0
  H  H12  1  0.82391000  0.67025000  0.03067000  1.0
  H  H13  1  0.67610000  0.82975000  0.53067000  1.0
  H  H14  1  0.17610000  0.32975000  0.96933000  1.0
  H  H15  1  0.32392000  0.17025000  0.46933000  1.0
  H  H16  1  0.73274000  0.77157000  0.12484000  1.0
  H  H17  1  0.76726000  0.72843000  0.62484000  1.0
  H  H18  1  0.26726000  0.22843000  0.87516000  1.0
  H  H19  1  0.23275000  0.27157000  0.37516000  1.0
  H  H20  1  0.54427000  0.34822000  0.24382000  1.0
  H  H21  1  0.95573000  0.15179000  0.74381000  1.0
  H  H22  1  0.45573000  0.65180000  0.75619000  1.0
  H  H23  1  0.04428000  0.84821000  0.25619000  1.0
  H  H24  1  0.52324000  0.52154000  0.29617000  1.0
  H  H25  1  0.97677000  0.97847000  0.79617000  1.0
  H  H26  1  0.47677000  0.47848000  0.70383000  1.0
  H  H27  1  0.02323000  0.02153000  0.20383000  1.0
  H  H28  1  0.84232000  0.95698000  0.03043000  1.0
  H  H29  1  0.65768000  0.54302000  0.53043000  1.0
  H  H30  1  0.15765000  0.04302000  0.96957000  1.0
  H  H31  1  0.34234000  0.45699000  0.46958000  1.0
  H  H32  1  0.77399000  0.08878000  0.93006000  1.0
  H  H33  1  0.72600000  0.41121000  0.43007000  1.0
  H  H34  1  0.22598000  0.91122000  0.06993000  1.0
  H  H35  1  0.27400000  0.58879000  0.56994000  1.0
  H  H36  1  0.45575000  0.18495000  0.00349000  1.0
  H  H37  1  0.04425000  0.31504000  0.50348000  1.0
  H  H38  1  0.54422000  0.81504000  0.99651000  1.0
  H  H39  1  0.95576000  0.68495000  0.49652000  1.0
  C  C40  1  0.81037000  0.21020000  0.06245000  1.0
  C  C41  1  0.68964000  0.28980000  0.56246000  1.0
  C  C42  1  0.18960000  0.78981000  0.93754000  1.0
  C  C43  1  0.31037000  0.71021000  0.43755000  1.0
  C  C44  1  0.75346000  0.07074000  0.00753000  1.0
  C  C45  1  0.74653000  0.42925000  0.50754000  1.0
  C  C46  1  0.24651000  0.92925000  0.99246000  1.0
  C  C47  1  0.25347000  0.57075000  0.49247000  1.0
  C  C48  1  0.53674000  0.06832000  0.02721000  1.0
  C  C49  1  0.96326000  0.43167000  0.52721000  1.0
  C  C50  1  0.46324000  0.93166000  0.97279000  1.0
  C  C51  1  0.03675000  0.56834000  0.47279000  1.0
  C  C52  1  0.50424000  0.05418000  0.13511000  1.0
  C  C53  1  0.99576000  0.44582000  0.63511000  1.0
  C  C54  1  0.49575000  0.94581000  0.86489000  1.0
  C  C55  1  0.00425000  0.55419000  0.36489000  1.0
  O  O56  1  0.90761000  0.18241000  0.14100000  1.0
  O  O57  1  0.59240000  0.31759000  0.64101000  1.0
  O  O58  1  0.09237000  0.81760000  0.85900000  1.0
  O  O59  1  0.40763000  0.68242000  0.35901000  1.0
  O  O60  1  0.75021000  0.35305000  0.03344000  1.0
  O  O61  1  0.74978000  0.14695000  0.53344000  1.0
  O  O62  1  0.24977000  0.64694000  0.96656000  1.0
  O  O63  1  0.25019000  0.85307000  0.46656000  1.0
  O  O64  1  0.42194000  0.17637000  0.18252000  1.0
  O  O65  1  0.07809000  0.32361000  0.68252000  1.0
  O  O66  1  0.57806000  0.82361000  0.81748000  1.0
  O  O67  1  0.92195000  0.67639000  0.31749000  1.0
  O  O68  1  0.56068000  0.91718000  0.17543000  1.0
  O  O69  1  0.93931000  0.58281000  0.67543000  1.0
  O  O70  1  0.43929000  0.08281000  0.82457000  1.0
  O  O71  1  0.06069000  0.41719000  0.32457000  1.0
  O  O72  1  0.19621000  0.40909000  0.08589000  1.0
  O  O73  1  0.30381000  0.09091000  0.58588000  1.0
  O  O74  1  0.80380000  0.59091000  0.91412000  1.0
  O  O75  1  0.69621000  0.90909000  0.41412000  1.0
  O  O76  1  0.84733000  0.69560000  0.09940000  1.0
  O  O77  1  0.65268000  0.80439000  0.59940000  1.0
  O  O78  1  0.15268000  0.30440000  0.90060000  1.0
  O  O79  1  0.34733000  0.19560000  0.40060000  1.0
  O  O80  1  0.61228000  0.43696000  0.25984000  1.0
  O  O81  1  0.88772000  0.06306000  0.75985000  1.0
  O  O82  1  0.38771000  0.56307000  0.74014000  1.0
  O  O83  1  0.11229000  0.93694000  0.24014000  1.0
