# generated using pymatgen
data_AlH7C11O5F3
_symmetry_space_group_name_H-M   'P 1'
_cell_length_a   6.61274000
_cell_length_b   10.97674703
_cell_length_c   11.09010000
_cell_angle_alpha   86.02896386
_cell_angle_beta   74.58960000
_cell_angle_gamma   72.47528976
_symmetry_Int_Tables_number   1
_chemical_formula_structural   AlH7C11O5F3
_chemical_formula_sum   'Al2 H14 C22 O10 F6'
_cell_volume   739.97915469
_cell_formula_units_Z   2
loop_
 _symmetry_equiv_pos_site_id
 _symmetry_equiv_pos_as_xyz
  1  'x, y, z'
loop_
 _atom_site_type_symbol
 _atom_site_label
 _atom_site_symmetry_multiplicity
 _atom_site_fract_x
 _atom_site_fract_y
 _atom_site_fract_z
 _atom_site_occupancy
  Al  Al0  1  0.50442000  0.51217000  0.49570000  1.0
  Al  Al1  1  0.00149000  0.51353000  0.50065000  1.0
  H  H2  1  0.78922000  0.36830000  0.57708000  1.0
  H  H3  1  0.26442000  0.60614000  0.36084000  1.0
  H  H4  1  0.70112000  0.89468000  0.30569000  1.0
  H  H5  1  0.87928000  0.90026000  0.39850000  1.0
  H  H6  1  0.76076000  0.12342000  0.39376000  1.0
  H  H7  1  0.58246000  0.11617000  0.30244000  1.0
  H  H8  1  0.64088000  0.12693000  0.62461000  1.0
  H  H9  1  0.37035000  0.12820000  0.70457000  1.0
  H  H10  1  0.75097000  0.90419000  0.63235000  1.0
  H  H11  1  0.47895000  0.90608000  0.70792000  1.0
  H  H12  1  0.31090000  0.89524000  0.41166000  1.0
  H  H13  1  0.21947000  0.89446000  0.57521000  1.0
  H  H14  1  0.10541000  0.11768000  0.58101000  1.0
  H  H15  1  0.18198000  0.11763000  0.41676000  1.0
  C  C16  1  0.36008000  0.28046000  0.49813000  1.0
  C  C17  1  0.16218000  0.52441000  0.72365000  1.0
  C  C18  1  0.64333000  0.74119000  0.50466000  1.0
  C  C19  1  0.85738000  0.49374000  0.27023000  1.0
  C  C20  1  0.93503000  0.48849000  0.12897000  1.0
  C  C21  1  0.12459000  0.39324000  0.06234000  1.0
  C  C22  1  0.83311000  0.58748000  0.06248000  1.0
  C  C23  1  0.22035000  0.28050000  0.12208000  1.0
  C  C24  1  0.40979000  0.19024000  0.06156000  1.0
  C  C25  1  0.10307000  0.51148000  0.86491000  1.0
  C  C26  1  0.91262000  0.59664000  0.93190000  1.0
  C  C27  1  0.21857000  0.40870000  0.93096000  1.0
  C  C28  1  0.41931000  0.31660000  0.87437000  1.0
  C  C29  1  0.51413000  0.21120000  0.93732000  1.0
  C  C30  1  0.70845000  0.93523000  0.39193000  1.0
  C  C31  1  0.62967000  0.08305000  0.38941000  1.0
  C  C32  1  0.43100000  0.13527000  0.50230000  1.0
  C  C33  1  0.50643000  0.08884000  0.62239000  1.0
  C  C34  1  0.58057000  0.94085000  0.62566000  1.0
  C  C35  1  0.56187000  0.88600000  0.50605000  1.0
  C  C36  1  0.32253000  0.93381000  0.49748000  1.0
  C  C37  1  0.24321000  0.08129000  0.49887000  1.0
  O  O38  1  0.49642000  0.33770000  0.50901000  1.0
  O  O39  1  0.02448000  0.50493000  0.67221000  1.0
  O  O40  1  0.83108000  0.68787000  0.52472000  1.0
  O  O41  1  0.66972000  0.48016000  0.31951000  1.0
  O  O42  1  0.52127000  0.68154000  0.47980000  1.0
  O  O43  1  0.98805000  0.51732000  0.32467000  1.0
  O  O44  1  0.16891000  0.33625000  0.48438000  1.0
  O  O45  1  0.33669000  0.55147000  0.66974000  1.0
  O  O46  1  0.75683000  0.45652000  0.55047000  1.0
  O  O47  1  0.25133000  0.56475000  0.44138000  1.0
  F  F48  1  0.79668000  0.69446000  0.87401000  1.0
  F  F49  1  0.65555000  0.68193000  0.12146000  1.0
  F  F50  1  0.52750000  0.32783000  0.75474000  1.0
  F  F51  1  0.70507000  0.12614000  0.87980000  1.0
  F  F52  1  0.49481000  0.08135000  0.11813000  1.0
  F  F53  1  0.11950000  0.25621000  0.24032000  1.0
