# generated using pymatgen
data_AlH8C13NO7
_symmetry_space_group_name_H-M   'P 1'
_cell_length_a   6.80918000
_cell_length_b   11.06091056
_cell_length_c   17.52719264
_cell_angle_alpha   80.07324629
_cell_angle_beta   81.59279154
_cell_angle_gamma   73.31737000
_symmetry_Int_Tables_number   1
_chemical_formula_structural   AlH8C13NO7
_chemical_formula_sum   'Al2 H16 C26 N2 O14'
_cell_volume   1239.01879797
_cell_formula_units_Z   2
loop_
 _symmetry_equiv_pos_site_id
 _symmetry_equiv_pos_as_xyz
  1  'x, y, z'
loop_
 _atom_site_type_symbol
 _atom_site_label
 _atom_site_symmetry_multiplicity
 _atom_site_fract_x
 _atom_site_fract_y
 _atom_site_fract_z
 _atom_site_occupancy
  Al  Al0  1  0.50387000  0.49913000  0.49947000  1.0
  Al  Al1  1  0.00338000  0.49932000  0.50015000  1.0
  H  H2  1  0.29792000  0.35556000  0.56729000  1.0
  H  H3  1  0.70959000  0.64368000  0.43292000  1.0
  H  H4  1  0.36280000  0.88512000  0.52851000  1.0
  H  H5  1  0.64569000  0.11317000  0.47218000  1.0
  H  H6  1  0.40366000  0.41743000  0.72826000  1.0
  H  H7  1  0.32015000  0.41764000  0.87205000  1.0
  H  H8  1  0.90255000  0.58084000  0.73251000  1.0
  H  H9  1  0.09515000  0.41975000  0.26931000  1.0
  H  H10  1  0.59707000  0.58289000  0.26852000  1.0
  H  H11  1  0.66995000  0.58457000  0.12425000  1.0
  H  H12  1  0.97048000  0.63784000  0.84966000  1.0
  H  H13  1  0.74566000  0.68648000  0.91537000  1.0
  H  H14  1  0.91781000  0.53490000  0.93548000  1.0
  H  H15  1  0.06385000  0.46833000  0.06750000  1.0
  H  H16  1  0.23783000  0.31678000  0.08523000  1.0
  H  H17  1  0.01820000  0.36389000  0.15347000  1.0
  C  C18  1  0.71060000  0.49313000  0.63735000  1.0
  C  C19  1  0.85206000  0.27525000  0.49529000  1.0
  C  C20  1  0.29461000  0.50548000  0.36226000  1.0
  C  C21  1  0.15603000  0.72317000  0.50470000  1.0
  C  C22  1  0.93251000  0.13391000  0.49503000  1.0
  C  C23  1  0.07596000  0.86439000  0.50553000  1.0
  C  C24  1  0.13431000  0.06732000  0.50981000  1.0
  C  C25  1  0.87404000  0.93101000  0.49097000  1.0
  C  C26  1  0.20619000  0.93576000  0.51596000  1.0
  C  C27  1  0.80224000  0.06251000  0.48476000  1.0
  C  C28  1  0.65955000  0.49776000  0.72246000  1.0
  C  C29  1  0.49321000  0.45319000  0.76138000  1.0
  C  C30  1  0.44659000  0.45414000  0.84094000  1.0
  C  C31  1  0.56228000  0.50227000  0.88305000  1.0
  C  C32  1  0.72802000  0.55066000  0.84377000  1.0
  C  C33  1  0.77485000  0.54580000  0.76398000  1.0
  C  C34  1  0.51293000  0.50173000  0.96420000  1.0
  C  C35  1  0.47163000  0.50073000  0.03452000  1.0
  C  C36  1  0.42615000  0.49982000  0.11585000  1.0
  C  C37  1  0.26225000  0.45114000  0.15663000  1.0
  C  C38  1  0.22136000  0.45493000  0.23664000  1.0
  C  C39  1  0.34060000  0.50214000  0.27691000  1.0
  C  C40  1  0.50462000  0.54748000  0.23647000  1.0
  C  C41  1  0.54531000  0.54763000  0.15664000  1.0
  C  C42  1  0.84762000  0.60544000  0.88788000  1.0
  C  C43  1  0.13832000  0.39711000  0.11398000  1.0
  N  N44  1  0.28666000  0.13735000  0.51185000  1.0
  N  N45  1  0.72137000  0.86116000  0.48900000  1.0
  O  O46  1  0.57871000  0.46651000  0.60260000  1.0
  O  O47  1  0.97929000  0.32929000  0.51152000  1.0
  O  O48  1  0.12457000  0.48537000  0.39492000  1.0
  O  O49  1  0.34227000  0.67116000  0.51664000  1.0
  O  O50  1  0.42893000  0.53105000  0.39629000  1.0
  O  O51  1  0.02784000  0.66938000  0.48896000  1.0
  O  O52  1  0.88133000  0.51329000  0.60549000  1.0
  O  O53  1  0.66645000  0.32718000  0.48238000  1.0
  O  O54  1  0.26915000  0.43830000  0.53521000  1.0
  O  O55  1  0.73825000  0.56040000  0.46441000  1.0
  O  O56  1  0.35838000  0.18020000  0.44729000  1.0
  O  O57  1  0.34047000  0.14217000  0.57550000  1.0
  O  O58  1  0.66698000  0.85666000  0.42540000  1.0
  O  O59  1  0.64972000  0.81827000  0.55357000  1.0
