# generated using pymatgen
data_Hg2H19C20N7Cl4O
_symmetry_space_group_name_H-M   'P 1'
_cell_length_a   8.17200000
_cell_length_b   8.89009000
_cell_length_c   9.65350000
_cell_angle_alpha   100.98600000
_cell_angle_beta   112.99900000
_cell_angle_gamma   98.88710000
_symmetry_Int_Tables_number   1
_chemical_formula_structural   Hg2H19C20N7Cl4O
_chemical_formula_sum   'Hg2 H19 C20 N7 Cl4 O1'
_cell_volume   613.06909974
_cell_formula_units_Z   1
loop_
 _symmetry_equiv_pos_site_id
 _symmetry_equiv_pos_as_xyz
  1  'x, y, z'
loop_
 _atom_site_type_symbol
 _atom_site_label
 _atom_site_symmetry_multiplicity
 _atom_site_fract_x
 _atom_site_fract_y
 _atom_site_fract_z
 _atom_site_occupancy
  Hg  Hg0  1  0.20867000  0.15459000  0.84158000  1.0
  Hg  Hg1  1  0.74978000  0.55416000  0.21772000  1.0
  H  H2  1  0.43558000  0.94123000  0.59979000  1.0
  H  H3  1  0.09602000  0.85479000  0.45294000  1.0
  H  H4  1  0.10612000  0.38621000  0.31660000  1.0
  H  H5  1  0.44389000  0.45002000  0.45843000  1.0
  H  H6  1  0.09444000  0.50951000  0.71356000  1.0
  H  H7  1  0.41844000  0.50190000  0.82291000  1.0
  H  H8  1  0.66565000  0.75886000  0.96253000  1.0
  H  H9  1  0.56744000  0.01372000  0.97797000  1.0
  H  H10  1  0.78750000  0.49389000  0.83479000  1.0
  H  H11  1  0.75416000  0.19811000  0.76417000  1.0
  H  H12  1  0.74583000  0.06724000  0.50673000  1.0
  H  H13  1  0.74882000  0.22985000  0.32165000  1.0
  H  H14  1  0.19808000  0.72419000  0.12544000  1.0
  H  H15  1  0.88202000  0.97856000  0.03469000  1.0
  H  H16  1  0.06442000  0.15262000  0.14325000  1.0
  H  H17  1  0.96403000  0.04457000  0.24249000  1.0
  H  H18  1  0.41515000  0.93702000  0.25654000  1.0
  H  H19  1  0.35668000  0.08027000  0.37444000  1.0
  H  H20  1  0.36994000  0.11351000  0.20211000  1.0
  C  C21  1  0.36835000  0.81679000  0.53906000  1.0
  C  C22  1  0.17878000  0.76888000  0.45704000  1.0
  C  C23  1  0.18439000  0.50783000  0.38190000  1.0
  C  C24  1  0.37533000  0.54496000  0.46210000  1.0
  C  C25  1  0.47141000  0.70323000  0.54270000  1.0
  C  C26  1  0.67114000  0.76103000  0.62857000  1.0
  C  C27  1  0.96984000  0.78792000  0.73132000  1.0
  C  C28  1  0.15652000  0.76636000  0.78827000  1.0
  C  C29  1  0.20023000  0.61992000  0.77322000  1.0
  C  C30  1  0.38419000  0.61599000  0.83576000  1.0
  C  C31  1  0.52021000  0.75739000  0.91214000  1.0
  C  C32  1  0.46660000  0.89913000  0.92136000  1.0
  C  C33  1  0.77744000  0.50724000  0.61074000  1.0
  C  C34  1  0.77230000  0.42839000  0.72098000  1.0
  C  C35  1  0.75822000  0.26605000  0.68241000  1.0
  C  C36  1  0.75228000  0.19290000  0.53888000  1.0
  C  C37  1  0.75531000  0.28297000  0.43603000  1.0
  C  C38  1  0.08319000  0.78221000  0.10346000  1.0
  C  C39  1  0.00404000  0.03462000  0.14538000  1.0
  C  C40  1  0.33089000  0.02222000  0.25389000  1.0
  N  N41  1  0.08774000  0.61680000  0.37898000  1.0
  N  N42  1  0.75360000  0.91457000  0.69432000  1.0
  N  N43  1  0.93678000  0.93030000  0.75568000  1.0
  N  N44  1  0.29048000  0.90406000  0.86130000  1.0
  N  N45  1  0.80374000  0.67666000  0.65087000  1.0
  N  N46  1  0.76683000  0.43907000  0.47036000  1.0
  N  N47  1  0.13797000  0.94036000  0.16228000  1.0
  Cl  Cl48  1  0.70415000  0.80511000  0.30647000  1.0
  Cl  Cl49  1  0.70843000  0.30454000  0.04920000  1.0
  Cl  Cl50  1  0.25633000  0.36630000  0.06145000  1.0
  Cl  Cl51  1  0.22802000  0.18880000  0.60154000  1.0
  O  O52  1  0.91936000  0.70452000  0.02905000  1.0
