# generated using pymatgen
data_NiH22C18(NO3)2
_symmetry_space_group_name_H-M   'P 1'
_cell_length_a   8.97373000
_cell_length_b   9.28957000
_cell_length_c   12.31590000
_cell_angle_alpha   90.79890000
_cell_angle_beta   90.00200000
_cell_angle_gamma   117.29100000
_symmetry_Int_Tables_number   1
_chemical_formula_structural   NiH22C18(NO3)2
_chemical_formula_sum   'Ni2 H44 C36 N4 O12'
_cell_volume   912.28622390
_cell_formula_units_Z   2
loop_
 _symmetry_equiv_pos_site_id
 _symmetry_equiv_pos_as_xyz
  1  'x, y, z'
loop_
 _atom_site_type_symbol
 _atom_site_label
 _atom_site_symmetry_multiplicity
 _atom_site_fract_x
 _atom_site_fract_y
 _atom_site_fract_z
 _atom_site_occupancy
  Ni  Ni0  1  0.00000000  0.00000000  0.00000000  1.0
  Ni  Ni1  1  0.00000000  0.50000000  0.50000000  1.0
  H  H2  1  0.14556000  0.07643000  0.17586000  1.0
  H  H3  1  0.85841000  0.42247000  0.68433000  1.0
  H  H4  1  0.85444000  0.92357000  0.82414000  1.0
  H  H5  1  0.14159000  0.57753000  0.31567000  1.0
  H  H6  1  0.59256000  0.10872000  0.09870000  1.0
  H  H7  1  0.41016000  0.39423000  0.59794000  1.0
  H  H8  1  0.40744000  0.89128000  0.90130000  1.0
  H  H9  1  0.58984000  0.60577000  0.40206000  1.0
  H  H10  1  0.47591000  0.89818000  0.10239000  1.0
  H  H11  1  0.52910000  0.60463000  0.60371000  1.0
  H  H12  1  0.52408000  0.10182000  0.89761000  1.0
  H  H13  1  0.47091000  0.39538000  0.39629000  1.0
  H  H14  1  0.25494000  0.14404000  0.83743000  1.0
  H  H15  1  0.75351000  0.36219000  0.34051000  1.0
  H  H16  1  0.74506000  0.85597000  0.16258000  1.0
  H  H17  1  0.24649000  0.63780000  0.65949000  1.0
  H  H18  1  0.91228000  0.26577000  0.07082000  1.0
  H  H19  1  0.09191000  0.24411000  0.57959000  1.0
  H  H20  1  0.08772000  0.73423000  0.92918000  1.0
  H  H21  1  0.90809000  0.75589000  0.42041000  1.0
  H  H22  1  0.05509000  0.45272000  0.13291000  1.0
  H  H23  1  0.94973000  0.05075000  0.63018000  1.0
  H  H24  1  0.94491000  0.54728000  0.86709000  1.0
  H  H25  1  0.05028000  0.94925000  0.36982000  1.0
  H  H26  1  0.19889000  0.31070000  0.22442000  1.0
  H  H27  1  0.79505000  0.18352000  0.72695000  1.0
  H  H28  1  0.80111000  0.68930000  0.77558000  1.0
  H  H29  1  0.20495000  0.81648000  0.27305000  1.0
  H  H30  1  0.98501000  0.23931000  0.26136000  1.0
  H  H31  1  0.00423000  0.24671000  0.77199000  1.0
  H  H32  1  0.01499000  0.76069000  0.73864000  1.0
  H  H33  1  0.99577000  0.75328000  0.22801000  1.0
  H  H34  1  0.47561000  0.41705000  0.78100000  1.0
  H  H35  1  0.52969000  0.08945000  0.28162000  1.0
  H  H36  1  0.52439000  0.58295000  0.21900000  1.0
  H  H37  1  0.47031000  0.91055000  0.71838000  1.0
  H  H38  1  0.27680000  0.62451000  0.02217000  1.0
  H  H39  1  0.72631000  0.88389000  0.52090000  1.0
  H  H40  1  0.72320000  0.37549000  0.97783000  1.0
  H  H41  1  0.27369000  0.11611000  0.47910000  1.0
  H  H42  1  0.48103000  0.66461000  0.87141000  1.0
  H  H43  1  0.52109000  0.84219000  0.37004000  1.0
  H  H44  1  0.51897000  0.33539000  0.12859000  1.0
  H  H45  1  0.47891000  0.15781000  0.62997000  1.0
  C  C46  1  0.48528000  0.00618000  0.06032000  1.0
  C  C47  1  0.51691000  0.49513000  0.55997000  1.0
  C  C48  1  0.51472000  0.99382000  0.93968000  1.0
  C  C49  1  0.48309000  0.50488000  0.44003000  1.0
  C  C50  1  0.26632000  0.25499000  0.87594000  1.0
  C  C51  1  0.74037000  0.25178000  0.37839000  1.0
  C  C52  1  0.73368000  0.74501000  0.12406000  1.0
  C  C53  1  0.25962000  0.74822000  0.62161000  1.0
  C  C54  1  0.32623000  0.01978000  0.08395000  1.0
  C  C55  1  0.67553000  0.47931000  0.58347000  1.0
  C  C56  1  0.67376000  0.98022000  0.91605000  1.0
  C  C57  1  0.32447000  0.52069000  0.41653000  1.0
  C  C58  1  0.04154000  0.33652000  0.10059000  1.0
  C  C59  1  0.96188000  0.16854000  0.60477000  1.0
  C  C60  1  0.95846000  0.66349000  0.89941000  1.0
  C  C61  1  0.03812000  0.83146000  0.39523000  1.0
  C  C62  1  0.16065000  0.36480000  0.00862000  1.0
  C  C63  1  0.84531000  0.14313000  0.51111000  1.0
  C  C64  1  0.83935000  0.63520000  0.99138000  1.0
  C  C65  1  0.15469000  0.85687000  0.48889000  1.0
  C  C66  1  0.06877000  0.24493000  0.19462000  1.0
  C  C67  1  0.92756000  0.25102000  0.70376000  1.0
  C  C68  1  0.93123000  0.75507000  0.80538000  1.0
  C  C69  1  0.07245000  0.74899000  0.29624000  1.0
  C  C70  1  0.38570000  0.40705000  0.84369000  1.0
  C  C71  1  0.61945000  0.09961000  0.34468000  1.0
  C  C72  1  0.61430000  0.59295000  0.15631000  1.0
  C  C73  1  0.38055000  0.90039000  0.65532000  1.0
  C  C74  1  0.27635000  0.52141000  0.97848000  1.0
  C  C75  1  0.72779000  0.98666000  0.47837000  1.0
  C  C76  1  0.72365000  0.47859000  0.02152000  1.0
  C  C77  1  0.27221000  0.01334000  0.52162000  1.0
  C  C78  1  0.38935000  0.54340000  0.89525000  1.0
  C  C79  1  0.61411000  0.96369000  0.39501000  1.0
  C  C80  1  0.61066000  0.45661000  0.10475000  1.0
  C  C81  1  0.38589000  0.03631000  0.60498000  1.0
  N  N82  1  0.15575000  0.23357000  0.95594000  1.0
  N  N83  1  0.85083000  0.27395000  0.45955000  1.0
  N  N84  1  0.84425000  0.76643000  0.04406000  1.0
  N  N85  1  0.14916000  0.72605000  0.54045000  1.0
  O  O86  1  0.21244000  0.96660000  0.01096000  1.0
  O  O87  1  0.79084000  0.53347000  0.51176000  1.0
  O  O88  1  0.78756000  0.03340000  0.98904000  1.0
  O  O89  1  0.20916000  0.46653000  0.48823000  1.0
  O  O90  1  0.03397000  0.08188000  0.16529000  1.0
  O  O91  1  0.96893000  0.41644000  0.68428000  1.0
  O  O92  1  0.96603000  0.91812000  0.83471000  1.0
  O  O93  1  0.03107000  0.58356000  0.31572000  1.0
  O  O94  1  0.31647000  0.08182000  0.17509000  1.0
  O  O95  1  0.68278000  0.41600000  0.67266000  1.0
  O  O96  1  0.68353000  0.91819000  0.82491000  1.0
  O  O97  1  0.31722000  0.58400000  0.32733000  1.0
