# generated using pymatgen
data_CuH11C7IN2
_symmetry_space_group_name_H-M   'P 1'
_cell_length_a   4.34204000
_cell_length_b   8.50443000
_cell_length_c   12.39640000
_cell_angle_alpha   81.74780000
_cell_angle_beta   83.43950000
_cell_angle_gamma   84.51750000
_symmetry_Int_Tables_number   1
_chemical_formula_structural   CuH11C7IN2
_chemical_formula_sum   'Cu2 H22 C14 I2 N4'
_cell_volume   448.58994544
_cell_formula_units_Z   2
loop_
 _symmetry_equiv_pos_site_id
 _symmetry_equiv_pos_as_xyz
  1  'x, y, z'
loop_
 _atom_site_type_symbol
 _atom_site_label
 _atom_site_symmetry_multiplicity
 _atom_site_fract_x
 _atom_site_fract_y
 _atom_site_fract_z
 _atom_site_occupancy
  Cu  Cu0  1  0.69224000  0.43638000  0.11039000  1.0
  Cu  Cu1  1  0.30776000  0.56362000  0.88961000  1.0
  H  H2  1  0.78143000  0.47969000  0.35784000  1.0
  H  H3  1  0.21857000  0.52031000  0.64216000  1.0
  H  H4  1  0.15367000  0.38747000  0.32225000  1.0
  H  H5  1  0.84633000  0.61253000  0.67775000  1.0
  H  H6  1  0.96026000  0.33495000  0.45557000  1.0
  H  H7  1  0.03974000  0.66505000  0.54443000  1.0
  H  H8  1  0.79424000  0.03197000  0.46429000  1.0
  H  H9  1  0.20575000  0.96803000  0.53571000  1.0
  H  H10  1  0.21916000  0.84847000  0.32153000  1.0
  H  H11  1  0.78083000  0.15153000  0.67847000  1.0
  H  H12  1  0.51372000  0.78316000  0.41040000  1.0
  H  H13  1  0.48627000  0.21685000  0.58961000  1.0
  H  H14  1  0.58911000  0.77347000  0.26715000  1.0
  H  H15  1  0.41088000  0.22653000  0.73285000  1.0
  H  H16  1  0.30172000  0.21781000  0.09342000  1.0
  H  H17  1  0.69829000  0.78219000  0.90658000  1.0
  H  H18  1  0.16799000  0.03542000  0.16268000  1.0
  H  H19  1  0.83202000  0.96458000  0.83731000  1.0
  H  H20  1  0.65651000  0.88637000  0.08898000  1.0
  H  H21  1  0.34350000  0.11363000  0.91102000  1.0
  H  H22  1  0.79344000  0.06979000  0.02359000  1.0
  H  H23  1  0.20657000  0.93021000  0.97641000  1.0
  C  C24  1  0.92666000  0.36652000  0.36849000  1.0
  C  C25  1  0.07334000  0.63348000  0.63151000  1.0
  C  C26  1  0.77923000  0.23677000  0.32943000  1.0
  C  C27  1  0.22076000  0.76323000  0.67057000  1.0
  C  C28  1  0.73159000  0.08284000  0.38384000  1.0
  C  C29  1  0.26840000  0.91716000  0.61616000  1.0
  C  C30  1  0.57756000  0.00819000  0.31527000  1.0
  C  C31  1  0.42244000  0.99181000  0.68473000  1.0
  C  C32  1  0.46963000  0.84496000  0.32910000  1.0
  C  C33  1  0.53037000  0.15504000  0.67090000  1.0
  C  C34  1  0.37746000  0.09742000  0.13152000  1.0
  C  C35  1  0.62255000  0.90257000  0.86848000  1.0
  C  C36  1  0.58325000  0.00642000  0.04968000  1.0
  C  C37  1  0.41676000  0.99358000  0.95032000  1.0
  I  I38  1  0.16066000  0.61698000  0.10322000  1.0
  I  I39  1  0.83935000  0.38302000  0.89678000  1.0
  N  N40  1  0.66186000  0.25640000  0.23145000  1.0
  N  N41  1  0.33814000  0.74359000  0.76854000  1.0
  N  N42  1  0.53652000  0.11678000  0.22517000  1.0
  N  N43  1  0.46348000  0.88322000  0.77483000  1.0
