# generated using pymatgen
data_ZnH16PdC12N2(ClO4)2
_symmetry_space_group_name_H-M   'P 1'
_cell_length_a   5.50520000
_cell_length_b   6.69881000
_cell_length_c   12.46030000
_cell_angle_alpha   102.01600000
_cell_angle_beta   98.55970000
_cell_angle_gamma   94.89580000
_symmetry_Int_Tables_number   1
_chemical_formula_structural   ZnH16PdC12N2(ClO4)2
_chemical_formula_sum   'Zn1 H16 Pd1 C12 N2 Cl2 O8'
_cell_volume   441.21370549
_cell_formula_units_Z   1
loop_
 _symmetry_equiv_pos_site_id
 _symmetry_equiv_pos_as_xyz
  1  'x, y, z'
loop_
 _atom_site_type_symbol
 _atom_site_label
 _atom_site_symmetry_multiplicity
 _atom_site_fract_x
 _atom_site_fract_y
 _atom_site_fract_z
 _atom_site_occupancy
  Zn  Zn0  1  0.50000000  0.49999000  0.50000000  1.0
  H  H1  1  0.61744000  0.95104000  0.08979000  1.0
  H  H2  1  0.38256000  0.04896000  0.91021000  1.0
  H  H3  1  0.94539000  0.18485000  0.23029000  1.0
  H  H4  1  0.05459000  0.81515000  0.76972000  1.0
  H  H5  1  0.98878000  0.44327000  0.11571000  1.0
  H  H6  1  0.01123000  0.55673000  0.88428000  1.0
  H  H7  1  0.32936000  0.65680000  0.25339000  1.0
  H  H8  1  0.67065000  0.34321000  0.74661000  1.0
  H  H9  1  0.03451000  0.65013000  0.44391000  1.0
  H  H10  1  0.96548000  0.34986000  0.55609000  1.0
  H  H11  1  0.25677000  0.81086000  0.52815000  1.0
  H  H12  1  0.74322000  0.18913000  0.47185000  1.0
  H  H13  1  0.65771000  0.53254000  0.30638000  1.0
  H  H14  1  0.34229000  0.46745000  0.69362000  1.0
  H  H15  1  0.64519000  0.76183000  0.37261000  1.0
  H  H16  1  0.35480000  0.23817000  0.62739000  1.0
  Pd  Pd17  1  0.50000000  0.50000000  0.00000000  1.0
  C  C18  1  0.17781000  0.73018000  0.21926000  1.0
  C  C19  1  0.82218000  0.26984000  0.78075000  1.0
  C  C20  1  0.77885000  0.89258000  0.12808000  1.0
  C  C21  1  0.22115000  0.10741000  0.87192000  1.0
  C  C22  1  0.16646000  0.94035000  0.25385000  1.0
  C  C23  1  0.83355000  0.05963000  0.74615000  1.0
  C  C24  1  0.96301000  0.02197000  0.20584000  1.0
  C  C25  1  0.03698000  0.97806000  0.79416000  1.0
  C  C26  1  0.98717000  0.60824000  0.14212000  1.0
  C  C27  1  0.01285000  0.39175000  0.85788000  1.0
  C  C28  1  0.36459000  0.07563000  0.34181000  1.0
  C  C29  1  0.63539000  0.92439000  0.65819000  1.0
  N  N30  1  0.78919000  0.68842000  0.09832000  1.0
  N  N31  1  0.21081000  0.31159000  0.90167000  1.0
  Cl  Cl32  1  0.48546000  0.31763000  0.13794000  1.0
  Cl  Cl33  1  0.51455000  0.68238000  0.86206000  1.0
  O  O34  1  0.21504000  0.68149000  0.46871000  1.0
  O  O35  1  0.78496000  0.31850000  0.53130000  1.0
  O  O36  1  0.70157000  0.62611000  0.38066000  1.0
  O  O37  1  0.29842000  0.37389000  0.61934000  1.0
  O  O38  1  0.56407000  0.00364000  0.37134000  1.0
  O  O39  1  0.43594000  0.99635000  0.62866000  1.0
  O  O40  1  0.31266000  0.25589000  0.37935000  1.0
  O  O41  1  0.68734000  0.74409000  0.62066000  1.0
