# generated using pymatgen
data_BaCoH13C8NO10
_symmetry_space_group_name_H-M   'P 1'
_cell_length_a   9.51566000
_cell_length_b   9.65689000
_cell_length_c   9.72384000
_cell_angle_alpha   64.67860000
_cell_angle_beta   61.10230000
_cell_angle_gamma   65.15970000
_symmetry_Int_Tables_number   1
_chemical_formula_structural   BaCoH13C8NO10
_chemical_formula_sum   'Ba2 Co2 H26 C16 N2 O20'
_cell_volume   680.92409555
_cell_formula_units_Z   2
loop_
 _symmetry_equiv_pos_site_id
 _symmetry_equiv_pos_as_xyz
  1  'x, y, z'
loop_
 _atom_site_type_symbol
 _atom_site_label
 _atom_site_symmetry_multiplicity
 _atom_site_fract_x
 _atom_site_fract_y
 _atom_site_fract_z
 _atom_site_occupancy
  Ba  Ba0  1  0.74815000  0.65640000  0.50692000  1.0
  Ba  Ba1  1  0.25185000  0.34360000  0.49308000  1.0
  Co  Co2  1  0.69183000  0.41099000  0.22487000  1.0
  Co  Co3  1  0.30817000  0.58901000  0.77512000  1.0
  H  H4  1  0.10489000  0.30845000  0.97372000  1.0
  H  H5  1  0.89511000  0.69155000  0.02628000  1.0
  H  H6  1  0.09670000  0.12633000  0.98133000  1.0
  H  H7  1  0.90330000  0.87367000  0.01867000  1.0
  H  H8  1  0.82732000  0.05941000  0.18097000  1.0
  H  H9  1  0.17268000  0.94059000  0.81903000  1.0
  H  H10  1  0.95507000  0.95884000  0.29933000  1.0
  H  H11  1  0.04493000  0.04116000  0.70067000  1.0
  H  H12  1  0.02529000  0.10165000  0.38155000  1.0
  H  H13  1  0.97471000  0.89835000  0.61845000  1.0
  H  H14  1  0.14336000  0.21835000  0.20072000  1.0
  H  H15  1  0.85664000  0.78165000  0.79928000  1.0
  H  H16  1  0.79231000  0.20768000  0.77085000  1.0
  H  H17  1  0.20768000  0.79232000  0.22915000  1.0
  H  H18  1  0.73192000  0.13456000  0.67344000  1.0
  H  H19  1  0.26808000  0.86544000  0.32656000  1.0
  H  H20  1  0.67708000  0.05885000  0.88953000  1.0
  H  H21  1  0.32293000  0.94115000  0.11047000  1.0
  H  H22  1  0.64753000  0.57477000  0.89214000  1.0
  H  H23  1  0.35247000  0.42523000  0.10786000  1.0
  H  H24  1  0.57712000  0.75823000  0.86579000  1.0
  H  H25  1  0.42289000  0.24177000  0.13421000  1.0
  H  H26  1  0.62299000  0.86023000  0.18972000  1.0
  H  H27  1  0.37701000  0.13977000  0.81028000  1.0
  H  H28  1  0.52865000  0.95906000  0.31900000  1.0
  H  H29  1  0.47134000  0.04095000  0.68100000  1.0
  C  C30  1  0.01914000  0.23748000  0.01559000  1.0
  C  C31  1  0.98086000  0.76252000  0.98441000  1.0
  C  C32  1  0.90340000  0.33220000  0.92036000  1.0
  C  C33  1  0.09660000  0.66780000  0.07964000  1.0
  C  C34  1  0.86230000  0.07034000  0.26784000  1.0
  C  C35  1  0.13770000  0.92966000  0.73216000  1.0
  C  C36  1  0.70209000  0.08808000  0.41739000  1.0
  C  C37  1  0.29791000  0.91192000  0.58261000  1.0
  C  C38  1  0.01477000  0.21191000  0.28148000  1.0
  C  C39  1  0.98523000  0.78809000  0.71852000  1.0
  C  C40  1  0.93033000  0.35136000  0.35446000  1.0
  C  C41  1  0.06967000  0.64864000  0.64554000  1.0
  C  C42  1  0.69435000  0.16528000  0.78526000  1.0
  C  C43  1  0.30565000  0.83472000  0.21475000  1.0
  C  C44  1  0.53290000  0.29476000  0.80514000  1.0
  C  C45  1  0.46711000  0.70524000  0.19486000  1.0
  N  N46  1  0.92695000  0.21024000  0.19283000  1.0
  N  N47  1  0.07305000  0.78976000  0.80717000  1.0
  O  O48  1  0.80818000  0.46113000  0.31596000  1.0
  O  O49  1  0.19182000  0.53887000  0.68404000  1.0
  O  O50  1  0.95239000  0.33036000  0.77634000  1.0
  O  O51  1  0.04761000  0.66965000  0.22365000  1.0
  O  O52  1  0.60756000  0.23045000  0.41512000  1.0
  O  O53  1  0.39244000  0.76954000  0.58488000  1.0
  O  O54  1  0.66658000  0.96649000  0.53208000  1.0
  O  O55  1  0.33341000  0.03351000  0.46793000  1.0
  O  O56  1  0.98362000  0.35563000  0.44777000  1.0
  O  O57  1  0.01638000  0.64437000  0.55223000  1.0
  O  O58  1  0.75887000  0.41558000  0.99570000  1.0
  O  O59  1  0.24113000  0.58442000  0.00430000  1.0
  O  O60  1  0.54007000  0.43929000  0.72219000  1.0
  O  O61  1  0.45993000  0.56071000  0.27782000  1.0
  O  O62  1  0.39536000  0.26061000  0.89940000  1.0
  O  O63  1  0.60464000  0.73939000  0.10061000  1.0
  O  O64  1  0.59780000  0.67522000  0.82153000  1.0
  O  O65  1  0.40220000  0.32478000  0.17847000  1.0
  O  O66  1  0.64132000  0.90744000  0.25018000  1.0
  O  O67  1  0.35868000  0.09256000  0.74982000  1.0
