# generated using pymatgen
data_Ni7H38C18(N3O10)2
_symmetry_space_group_name_H-M   'P 1'
_cell_length_a   9.48579000
_cell_length_b   9.48580000
_cell_length_c   9.48584000
_cell_angle_alpha   101.71000000
_cell_angle_beta   101.70900000
_cell_angle_gamma   101.70900000
_symmetry_Int_Tables_number   1
_chemical_formula_structural   Ni7H38C18(N3O10)2
_chemical_formula_sum   'Ni7 H38 C18 N6 O20'
_cell_volume   791.41048388
_cell_formula_units_Z   1
loop_
 _symmetry_equiv_pos_site_id
 _symmetry_equiv_pos_as_xyz
  1  'x, y, z'
loop_
 _atom_site_type_symbol
 _atom_site_label
 _atom_site_symmetry_multiplicity
 _atom_site_fract_x
 _atom_site_fract_y
 _atom_site_fract_z
 _atom_site_occupancy
  Ni  Ni0  1  0.50000000  0.50000000  0.50000000  1.0
  Ni  Ni1  1  0.57162000  0.67352000  0.81888000  1.0
  Ni  Ni2  1  0.67352000  0.81888000  0.57162000  1.0
  Ni  Ni3  1  0.81888000  0.57162000  0.67352000  1.0
  Ni  Ni4  1  0.32648000  0.18112000  0.42838000  1.0
  Ni  Ni5  1  0.18112000  0.42838000  0.32647000  1.0
  Ni  Ni6  1  0.42838000  0.32647000  0.18112000  1.0
  H  H7  1  0.56860000  0.93191000  0.82892000  1.0
  H  H8  1  0.93191000  0.82892000  0.56860000  1.0
  H  H9  1  0.82892000  0.56860000  0.93191000  1.0
  H  H10  1  0.06809000  0.17108000  0.43140000  1.0
  H  H11  1  0.17108000  0.43140000  0.06809000  1.0
  H  H12  1  0.43140000  0.06809000  0.17108000  1.0
  H  H13  1  0.75336000  0.96717000  0.05201000  1.0
  H  H14  1  0.96717000  0.05201000  0.75336000  1.0
  H  H15  1  0.05201000  0.75336000  0.96717000  1.0
  H  H16  1  0.03283000  0.94799000  0.24665000  1.0
  H  H17  1  0.94799000  0.24665000  0.03283000  1.0
  H  H18  1  0.24665000  0.03283000  0.94799000  1.0
  H  H19  1  0.61113000  0.90403000  0.13728000  1.0
  H  H20  1  0.90403000  0.13728000  0.61112000  1.0
  H  H21  1  0.13729000  0.61113000  0.90403000  1.0
  H  H22  1  0.09598000  0.86272000  0.38888000  1.0
  H  H23  1  0.86272000  0.38888000  0.09597000  1.0
  H  H24  1  0.38888000  0.09597000  0.86272000  1.0
  H  H25  1  0.35007000  0.81652000  0.98426000  1.0
  H  H26  1  0.81652000  0.98427000  0.35007000  1.0
  H  H27  1  0.98427000  0.35007000  0.81652000  1.0
  H  H28  1  0.18348000  0.01574000  0.64993000  1.0
  H  H29  1  0.01574000  0.64993000  0.18348000  1.0
  H  H30  1  0.64993000  0.18348000  0.01573000  1.0
  H  H31  1  0.31145000  0.81603000  0.79325000  1.0
  H  H32  1  0.81603000  0.79325000  0.31145000  1.0
  H  H33  1  0.79325000  0.31146000  0.81603000  1.0
  H  H34  1  0.18397000  0.20675000  0.68855000  1.0
  H  H35  1  0.20675000  0.68855000  0.18397000  1.0
  H  H36  1  0.68855000  0.18396000  0.20675000  1.0
  H  H37  1  0.84518000  0.84518000  0.84518000  1.0
  H  H38  1  0.15482000  0.15482000  0.15482000  1.0
  H  H39  1  0.38221000  0.70601000  0.58003000  1.0
  H  H40  1  0.70601000  0.58003000  0.38221000  1.0
  H  H41  1  0.58003000  0.38221000  0.70601000  1.0
  H  H42  1  0.29399000  0.41998000  0.61779000  1.0
  H  H43  1  0.41998000  0.61779000  0.29399000  1.0
  H  H44  1  0.61779000  0.29399000  0.41998000  1.0
  C  C45  1  0.63738000  0.96446000  0.05452000  1.0
  C  C46  1  0.96446000  0.05453000  0.63737000  1.0
  C  C47  1  0.05453000  0.63738000  0.96446000  1.0
  C  C48  1  0.03554000  0.94548000  0.36263000  1.0
  C  C49  1  0.94548000  0.36263000  0.03554000  1.0
  C  C50  1  0.36263000  0.03554000  0.94548000  1.0
  C  C51  1  0.58191000  0.52637000  0.04840000  1.0
  C  C52  1  0.52638000  0.04839000  0.58191000  1.0
  C  C53  1  0.04837000  0.58192000  0.52640000  1.0
  C  C54  1  0.47361000  0.95160000  0.41809000  1.0
  C  C55  1  0.95160000  0.41809000  0.47360000  1.0
  C  C56  1  0.41808000  0.47358000  0.95161000  1.0
  C  C57  1  0.38238000  0.87784000  0.90423000  1.0
  C  C58  1  0.87784000  0.90424000  0.38239000  1.0
  C  C59  1  0.90424000  0.38239000  0.87784000  1.0
  C  C60  1  0.12216000  0.09577000  0.61762000  1.0
  C  C61  1  0.09577000  0.61762000  0.12216000  1.0
  C  C62  1  0.61762000  0.12216000  0.09576000  1.0
  N  N63  1  0.53912000  0.87907000  0.90754000  1.0
  N  N64  1  0.87907000  0.90755000  0.53912000  1.0
  N  N65  1  0.90755000  0.53912000  0.87907000  1.0
  N  N66  1  0.12093000  0.09246000  0.46088000  1.0
  N  N67  1  0.09246000  0.46089000  0.12093000  1.0
  N  N68  1  0.46089000  0.12092000  0.09246000  1.0
  O  O69  1  0.66940000  0.63047000  0.01885000  1.0
  O  O70  1  0.63048000  0.01885000  0.66939000  1.0
  O  O71  1  0.01885000  0.66939000  0.63048000  1.0
  O  O72  1  0.36951000  0.98113000  0.33060000  1.0
  O  O73  1  0.98113000  0.33061000  0.36952000  1.0
  O  O74  1  0.33060000  0.36951000  0.98113000  1.0
  O  O75  1  0.61790000  0.46199000  0.15009000  1.0
  O  O76  1  0.46199000  0.15008000  0.61790000  1.0
  O  O77  1  0.15009000  0.61791000  0.46198000  1.0
  O  O78  1  0.53800000  0.84990000  0.38210000  1.0
  O  O79  1  0.84990000  0.38210000  0.53800000  1.0
  O  O80  1  0.38209000  0.53800000  0.84991000  1.0
  O  O81  1  0.76851000  0.76851000  0.76852000  1.0
  O  O82  1  0.23149000  0.23149000  0.23149000  1.0
  O  O83  1  0.48467000  0.70021000  0.61467000  1.0
  O  O84  1  0.70021000  0.61467000  0.48468000  1.0
  O  O85  1  0.61467000  0.48468000  0.70021000  1.0
  O  O86  1  0.29979000  0.38533000  0.51532000  1.0
  O  O87  1  0.38533000  0.51532000  0.29979000  1.0
  O  O88  1  0.51532000  0.29979000  0.38533000  1.0
