# generated using pymatgen
data_SrH18C14(N2O5)2
_symmetry_space_group_name_H-M   'P 1'
_cell_length_a   9.21480000
_cell_length_b   9.21480000
_cell_length_c   11.27460000
_cell_angle_alpha   96.95280000
_cell_angle_beta   96.95280000
_cell_angle_gamma   94.08870000
_symmetry_Int_Tables_number   1
_chemical_formula_structural   SrH18C14(N2O5)2
_chemical_formula_sum   'Sr2 H36 C28 N8 O20'
_cell_volume   939.73033317
_cell_formula_units_Z   2
loop_
 _symmetry_equiv_pos_site_id
 _symmetry_equiv_pos_as_xyz
  1  'x, y, z'
loop_
 _atom_site_type_symbol
 _atom_site_label
 _atom_site_symmetry_multiplicity
 _atom_site_fract_x
 _atom_site_fract_y
 _atom_site_fract_z
 _atom_site_occupancy
  Sr  Sr0  1  0.91383000  0.08617000  0.25000000  1.0
  Sr  Sr1  1  0.08617000  0.91383000  0.75000000  1.0
  H  H2  1  0.03528000  0.14024000  0.51896000  1.0
  H  H3  1  0.85976000  0.96473000  0.98104000  1.0
  H  H4  1  0.96473000  0.85976000  0.48104000  1.0
  H  H5  1  0.14024000  0.03527000  0.01896000  1.0
  H  H6  1  0.86857000  0.16570000  0.52607000  1.0
  H  H7  1  0.83430000  0.13143000  0.97393000  1.0
  H  H8  1  0.13144000  0.83430000  0.47393000  1.0
  H  H9  1  0.16570000  0.86856000  0.02607000  1.0
  H  H10  1  0.17712000  0.55880000  0.08748000  1.0
  H  H11  1  0.44120000  0.82288000  0.41252000  1.0
  H  H12  1  0.82288000  0.44120000  0.91252000  1.0
  H  H13  1  0.55880000  0.17712000  0.58748000  1.0
  H  H14  1  0.81758000  0.71226000  0.30341000  1.0
  H  H15  1  0.28774000  0.18243000  0.19659000  1.0
  H  H16  1  0.18242000  0.28774000  0.69659000  1.0
  H  H17  1  0.71226000  0.81758000  0.80341000  1.0
  H  H18  1  0.68255000  0.33856000  0.38777000  1.0
  H  H19  1  0.66144000  0.31745000  0.11223000  1.0
  H  H20  1  0.31745000  0.66144000  0.61223000  1.0
  H  H21  1  0.33855000  0.68255000  0.88777000  1.0
  H  H22  1  0.61097000  0.50840000  0.36510000  1.0
  H  H23  1  0.49160000  0.38903000  0.13490000  1.0
  H  H24  1  0.38903000  0.49160000  0.63490000  1.0
  H  H25  1  0.50840000  0.61097000  0.86510000  1.0
  H  H26  1  0.86681000  0.46806000  0.55715000  1.0
  H  H27  1  0.53194000  0.13319000  0.94285000  1.0
  H  H28  1  0.13319000  0.53193000  0.44285000  1.0
  H  H29  1  0.46806000  0.86681000  0.05715000  1.0
  H  H30  1  0.68329000  0.49323000  0.58390000  1.0
  H  H31  1  0.50677000  0.31671000  0.91610000  1.0
  H  H32  1  0.31671000  0.50677000  0.41610000  1.0
  H  H33  1  0.49323000  0.68329000  0.08390000  1.0
  H  H34  1  0.79218000  0.63801000  0.53711000  1.0
  H  H35  1  0.36199000  0.20782000  0.96289000  1.0
  H  H36  1  0.20782000  0.36199000  0.46289000  1.0
  H  H37  1  0.63801000  0.79218000  0.03711000  1.0
  C  C38  1  0.99470000  0.45054000  0.19770000  1.0
  C  C39  1  0.54946000  0.00530000  0.30230000  1.0
  C  C40  1  0.00530000  0.54946000  0.80230000  1.0
  C  C41  1  0.45054000  0.99470000  0.69770000  1.0
  C  C42  1  0.96778000  0.59812000  0.20409000  1.0
  C  C43  1  0.40188000  0.03223000  0.29592000  1.0
  C  C44  1  0.03222000  0.40188000  0.79591000  1.0
  C  C45  1  0.59812000  0.96778000  0.70408000  1.0
  C  C46  1  0.82183000  0.48078000  0.31135000  1.0
  C  C47  1  0.51922000  0.17817000  0.18865000  1.0
  C  C48  1  0.17817000  0.51922000  0.68865000  1.0
  C  C49  1  0.48078000  0.82183000  0.81135000  1.0
  C  C50  1  0.10635000  0.37138000  0.14077000  1.0
  C  C51  1  0.62862000  0.89365000  0.35923000  1.0
  C  C52  1  0.89365000  0.62862000  0.85923000  1.0
  C  C53  1  0.37138000  0.10635000  0.64077000  1.0
  C  C54  1  0.02729000  0.72143000  0.14714000  1.0
  C  C55  1  0.27857000  0.97271000  0.35286000  1.0
  C  C56  1  0.97271000  0.27857000  0.85286000  1.0
  C  C57  1  0.72143000  0.02729000  0.64714000  1.0
  C  C58  1  0.71108000  0.45714000  0.39487000  1.0
  C  C59  1  0.54286000  0.28892000  0.10513000  1.0
  C  C60  1  0.28892000  0.54286000  0.60513000  1.0
  C  C61  1  0.45714000  0.71108000  0.89487000  1.0
  C  C62  1  0.76727000  0.51859000  0.52633000  1.0
  C  C63  1  0.48141000  0.23273000  0.97366000  1.0
  C  C64  1  0.23273000  0.48141000  0.47367000  1.0
  C  C65  1  0.51859000  0.76727000  0.02633000  1.0
  N  N66  1  0.90204000  0.37934000  0.26339000  1.0
  N  N67  1  0.62066000  0.09796000  0.23661000  1.0
  N  N68  1  0.09796000  0.62066000  0.73661000  1.0
  N  N69  1  0.37934000  0.90204000  0.76339000  1.0
  N  N70  1  0.85847000  0.61329000  0.27582000  1.0
  N  N71  1  0.38671000  0.14153000  0.22418000  1.0
  N  N72  1  0.14153000  0.38671000  0.72418000  1.0
  N  N73  1  0.61329000  0.85847000  0.77582000  1.0
  O  O74  1  0.11362000  0.23701000  0.14853000  1.0
  O  O75  1  0.76300000  0.88639000  0.35147000  1.0
  O  O76  1  0.88638000  0.76299000  0.85147000  1.0
  O  O77  1  0.23701000  0.11362000  0.64853000  1.0
  O  O78  1  0.95103000  0.18191000  0.47896000  1.0
  O  O79  1  0.81809000  0.04897000  0.02104000  1.0
  O  O80  1  0.04897000  0.81809000  0.52104000  1.0
  O  O81  1  0.18191000  0.95103000  0.97896000  1.0
  O  O82  1  0.20005000  0.44379000  0.08622000  1.0
  O  O83  1  0.55621000  0.79995000  0.41378000  1.0
  O  O84  1  0.79995000  0.55621000  0.91378000  1.0
  O  O85  1  0.44379000  0.20005000  0.58622000  1.0
  O  O86  1  0.13886000  0.70041000  0.08952000  1.0
  O  O87  1  0.29959000  0.86114000  0.41048000  1.0
  O  O88  1  0.86114000  0.29959000  0.91048000  1.0
  O  O89  1  0.70041000  0.13886000  0.58952000  1.0
  O  O90  1  0.96633000  0.83877000  0.15530000  1.0
  O  O91  1  0.16123000  0.03367000  0.34471000  1.0
  O  O92  1  0.03367000  0.16123000  0.84471000  1.0
  O  O93  1  0.83877000  0.96633000  0.65530000  1.0
