# generated using pymatgen
data_CdH16C12(N2O3)2
_symmetry_space_group_name_H-M   'P 1'
_cell_length_a   8.42935000
_cell_length_b   8.66737000
_cell_length_c   11.27160000
_cell_angle_alpha   102.85400000
_cell_angle_beta   89.99970000
_cell_angle_gamma   89.99990000
_symmetry_Int_Tables_number   1
_chemical_formula_structural   CdH16C12(N2O3)2
_chemical_formula_sum   'Cd2 H32 C24 N8 O12'
_cell_volume   802.86944970
_cell_formula_units_Z   2
loop_
 _symmetry_equiv_pos_site_id
 _symmetry_equiv_pos_as_xyz
  1  'x, y, z'
loop_
 _atom_site_type_symbol
 _atom_site_label
 _atom_site_symmetry_multiplicity
 _atom_site_fract_x
 _atom_site_fract_y
 _atom_site_fract_z
 _atom_site_occupancy
  Cd  Cd0  1  0.50000000  0.00000000  0.50000000  1.0
  Cd  Cd1  1  0.00000000  0.50000000  0.00000000  1.0
  H  H2  1  0.48797000  0.81570000  0.73803000  1.0
  H  H3  1  0.98796000  0.68429000  0.76197000  1.0
  H  H4  1  0.51203000  0.18430000  0.26197000  1.0
  H  H5  1  0.01203000  0.31571000  0.23803000  1.0
  H  H6  1  0.31331000  0.53924000  0.73409000  1.0
  H  H7  1  0.81331000  0.96076000  0.76591000  1.0
  H  H8  1  0.68669000  0.46076000  0.26591000  1.0
  H  H9  1  0.18669000  0.03924000  0.23409000  1.0
  H  H10  1  0.32050000  0.63677000  0.38186000  1.0
  H  H11  1  0.82051000  0.86322000  0.11814000  1.0
  H  H12  1  0.67950000  0.36322000  0.61814000  1.0
  H  H13  1  0.17949000  0.13678000  0.88186000  1.0
  H  H14  1  0.17117000  0.39900000  0.40265000  1.0
  H  H15  1  0.67118000  0.10099000  0.09735000  1.0
  H  H16  1  0.82883000  0.60099000  0.59735000  1.0
  H  H17  1  0.32883000  0.89901000  0.90265000  1.0
  H  H18  1  0.09085000  0.40478000  0.55124000  1.0
  H  H19  1  0.59085000  0.09521000  0.94876000  1.0
  H  H20  1  0.90916000  0.59521000  0.44876000  1.0
  H  H21  1  0.40916000  0.90479000  0.05124000  1.0
  H  H22  1  0.27090000  0.30033000  0.50372000  1.0
  H  H23  1  0.77090000  0.19967000  0.99628000  1.0
  H  H24  1  0.72910000  0.69967000  0.49628000  1.0
  H  H25  1  0.22910000  0.80034000  0.00372000  1.0
  H  H26  1  0.47630000  0.21743000  0.73923000  1.0
  H  H27  1  0.97630000  0.28257000  0.76076000  1.0
  H  H28  1  0.52370000  0.78257000  0.26077000  1.0
  H  H29  1  0.02370000  0.71743000  0.23923000  1.0
  H  H30  1  0.30225000  0.14481000  0.69658000  1.0
  H  H31  1  0.80225000  0.35519000  0.80342000  1.0
  H  H32  1  0.69775000  0.85519000  0.30342000  1.0
  H  H33  1  0.19775000  0.64481000  0.19658000  1.0
  C  C34  1  0.42682000  0.73732000  0.66394000  1.0
  C  C35  1  0.92682000  0.76268000  0.83606000  1.0
  C  C36  1  0.57318000  0.26268000  0.33607000  1.0
  C  C37  1  0.07317000  0.23732000  0.16394000  1.0
  C  C38  1  0.34248000  0.60126000  0.66303000  1.0
  C  C39  1  0.84248000  0.89873000  0.83696000  1.0
  C  C40  1  0.65752000  0.39873000  0.33696000  1.0
  C  C41  1  0.15752000  0.10127000  0.16304000  1.0
  C  C42  1  0.34303000  0.65088000  0.47838000  1.0
  C  C43  1  0.84303000  0.84911000  0.02161000  1.0
  C  C44  1  0.65698000  0.34911000  0.52161000  1.0
  C  C45  1  0.15697000  0.15089000  0.97839000  1.0
  C  C46  1  0.19997000  0.40446000  0.49816000  1.0
  C  C47  1  0.69997000  0.09553000  0.00184000  1.0
  C  C48  1  0.80003000  0.59553000  0.50184000  1.0
  C  C49  1  0.30003000  0.90447000  0.99816000  1.0
  C  C50  1  0.11212000  0.99537000  0.45923000  1.0
  C  C51  1  0.61212000  0.50463000  0.04077000  1.0
  C  C52  1  0.88787000  0.00461000  0.54077000  1.0
  C  C53  1  0.38788000  0.49539000  0.95924000  1.0
  C  C54  1  0.95233000  0.93664000  0.41809000  1.0
  C  C55  1  0.45233000  0.56335000  0.08191000  1.0
  C  C56  1  0.04767000  0.06335000  0.58191000  1.0
  C  C57  1  0.54766000  0.43665000  0.91810000  1.0
  N  N58  1  0.42615000  0.76710000  0.54852000  1.0
  N  N59  1  0.92615000  0.73290000  0.95148000  1.0
  N  N60  1  0.57385000  0.23290000  0.45148000  1.0
  N  N61  1  0.07384000  0.26710000  0.04852000  1.0
  N  N62  1  0.29039000  0.54828000  0.54459000  1.0
  N  N63  1  0.79039000  0.95172000  0.95541000  1.0
  N  N64  1  0.70961000  0.45172000  0.45541000  1.0
  N  N65  1  0.20961000  0.04828000  0.04460000  1.0
  O  O66  1  0.24492000  0.99029000  0.40716000  1.0
  O  O67  1  0.74493000  0.50971000  0.09284000  1.0
  O  O68  1  0.75507000  0.00971000  0.59284000  1.0
  O  O69  1  0.25507000  0.49029000  0.90716000  1.0
  O  O70  1  0.89676000  0.85755000  0.31881000  1.0
  O  O71  1  0.39676000  0.64245000  0.18120000  1.0
  O  O72  1  0.10324000  0.14245000  0.68119000  1.0
  O  O73  1  0.60324000  0.35755000  0.81881000  1.0
  O  O74  1  0.41768000  0.11971000  0.69959000  1.0
  O  O75  1  0.91768000  0.38029000  0.80041000  1.0
  O  O76  1  0.58232000  0.88029000  0.30041000  1.0
  O  O77  1  0.08232000  0.61971000  0.19959000  1.0
