# generated using pymatgen
data_Al3H19C42(S3O16)2
_symmetry_space_group_name_H-M   'P 1'
_cell_length_a   13.95081472
_cell_length_b   14.01800000
_cell_length_c   28.11470000
_cell_angle_alpha   90.11630000
_cell_angle_beta   90.15251846
_cell_angle_gamma   60.32230978
_symmetry_Int_Tables_number   1
_chemical_formula_structural   Al3H19C42(S3O16)2
_chemical_formula_sum   'Al6 H38 C84 S12 O64'
_cell_volume   4776.93563627
_cell_formula_units_Z   2
loop_
 _symmetry_equiv_pos_site_id
 _symmetry_equiv_pos_as_xyz
  1  'x, y, z'
loop_
 _atom_site_type_symbol
 _atom_site_label
 _atom_site_symmetry_multiplicity
 _atom_site_fract_x
 _atom_site_fract_y
 _atom_site_fract_z
 _atom_site_occupancy
  Al  Al0  1  0.75072000  0.76028000  0.49909000  1.0
  Al  Al1  1  0.76214000  0.52528000  0.49999000  1.0
  Al  Al2  1  0.53893000  0.72738000  0.50003000  1.0
  Al  Al3  1  0.51018000  0.24061000  0.00085000  1.0
  Al  Al4  1  0.28715000  0.47537000  0.99975000  1.0
  Al  Al5  1  0.26549000  0.27264000  0.99929000  1.0
  H  H6  1  0.36522000  0.65413000  0.22637000  1.0
  H  H7  1  0.87513000  0.46164000  0.79662000  1.0
  H  H8  1  0.66032000  0.87416000  0.79215000  1.0
  H  H9  1  0.45692000  0.66765000  0.78542000  1.0
  H  H10  1  0.56849000  0.60677000  0.26821000  1.0
  H  H11  1  0.59906000  0.82800000  0.26316000  1.0
  H  H12  1  0.82618000  0.56564000  0.25949000  1.0
  H  H13  1  0.18015000  0.40484000  0.76936000  1.0
  H  H14  1  0.41412000  0.17735000  0.76515000  1.0
  H  H15  1  0.39736000  0.42089000  0.76040000  1.0
  H  H16  1  0.44206000  0.34021000  0.24615000  1.0
  H  H17  1  0.64074000  0.98486000  0.21939000  1.0
  H  H18  1  0.32680000  0.21691000  0.24422000  1.0
  H  H19  1  0.21795000  0.44642000  0.24025000  1.0
  H  H20  1  0.78723000  0.66111000  0.74326000  1.0
  H  H21  1  0.54391000  0.78630000  0.74064000  1.0
  H  H22  1  0.66392000  0.54765000  0.73696000  1.0
  H  H23  1  0.81708000  0.30289000  0.26353000  1.0
  H  H24  1  0.28772000  0.88339000  0.26215000  1.0
  H  H25  1  0.89127000  0.81990000  0.26168000  1.0
  H  H26  1  0.12927000  0.68773000  0.77989000  1.0
  H  H27  1  0.18261000  0.12595000  0.77996000  1.0
  H  H28  1  0.98000000  0.37153000  0.21239000  1.0
  H  H29  1  0.67746000  0.18994000  0.77921000  1.0
  H  H30  1  0.76697000  0.18355000  0.23674000  1.0
  H  H31  1  0.17204000  0.04965000  0.23674000  1.0
  H  H32  1  0.06077000  0.76229000  0.23853000  1.0
  H  H33  1  0.92969000  0.81316000  0.72616000  1.0
  H  H34  1  0.24772000  0.93067000  0.72618000  1.0
  H  H35  1  0.81367000  0.25326000  0.72709000  1.0
  H  H36  1  0.03195000  0.35258000  0.72288000  1.0
  H  H37  1  0.61067000  0.02939000  0.71737000  1.0
  H  H38  1  0.35500000  0.61242000  0.71026000  1.0
  H  H39  1  0.33032000  0.53722000  0.30123000  1.0
  H  H40  1  0.52979000  0.13382000  0.29596000  1.0
  H  H41  1  0.13273000  0.32466000  0.28885000  1.0
  H  H42  1  0.85602000  0.83947000  0.52461000  1.0
  H  H43  1  0.69217000  0.13835000  0.97266000  1.0
  C  C44  1  0.55365000  0.86539000  0.43395000  1.0
  C  C45  1  0.00580000  0.52146000  0.80471000  1.0
  C  C46  1  0.47144000  0.00440000  0.80128000  1.0
  C  C47  1  0.51219000  0.48080000  0.79717000  1.0
  C  C48  1  0.60013000  0.44085000  0.23394000  1.0
  C  C49  1  0.42881000  0.95994000  0.23144000  1.0
  C  C50  1  0.96007000  0.60380000  0.22947000  1.0
  C  C51  1  0.04454000  0.57006000  0.73495000  1.0
  C  C52  1  0.38038000  0.04224000  0.73233000  1.0
  C  C53  1  0.56882000  0.38469000  0.72960000  1.0
  C  C54  1  0.53827000  0.54902000  0.26343000  1.0
  C  C55  1  0.87978000  0.56852000  0.43294000  1.0
  C  C56  1  0.53996000  0.91511000  0.25907000  1.0
  C  C57  1  0.91397000  0.53673000  0.25544000  1.0
  C  C58  1  0.09237000  0.46062000  0.76335000  1.0
  C  C59  1  0.44468000  0.08993000  0.75954000  1.0
  C  C60  1  0.45549000  0.45074000  0.75522000  1.0
  C  C61  1  0.47079000  0.45641000  0.16066000  1.0
  C  C62  1  0.43612000  0.07750000  0.15772000  1.0
  C  C63  1  0.07541000  0.48589000  0.15376000  1.0
  C  C64  1  0.93772000  0.55112000  0.65886000  1.0
  C  C65  1  0.50294000  0.93288000  0.65600000  1.0
  C  C66  1  0.59130000  0.54827000  0.43687000  1.0
  C  C67  1  0.56326000  0.50104000  0.65199000  1.0
  C  C68  1  0.54021000  0.49870000  0.35331000  1.0
  C  C69  1  0.49732000  0.96156000  0.34959000  1.0
  C  C70  1  0.96602000  0.52331000  0.34642000  1.0
  C  C71  1  0.03828000  0.50635000  0.85301000  1.0
  C  C72  1  0.45715000  0.03677000  0.84952000  1.0
  C  C73  1  0.49324000  0.47098000  0.84581000  1.0
  C  C74  1  0.55730000  0.86041000  0.56762000  1.0
  C  C75  1  0.87531000  0.57295000  0.56851000  1.0
  C  C76  1  0.59413000  0.55084000  0.56485000  1.0
  C  C77  1  0.42133000  0.13350000  0.93374000  1.0
  C  C78  1  0.41320000  0.14266000  0.06795000  1.0
  C  C79  1  0.44499000  0.42617000  0.06946000  1.0
  C  C80  1  0.14716000  0.44942000  0.06503000  1.0
  C  C81  1  0.40646000  0.50993000  0.28127000  1.0
  C  C82  1  0.50097000  0.08503000  0.27677000  1.0
  C  C83  1  0.08424000  0.40355000  0.27107000  1.0
  C  C84  1  0.92290000  0.49261000  0.77821000  1.0
  C  C85  1  0.58104000  0.92139000  0.77418000  1.0
  C  C86  1  0.48906000  0.58747000  0.76855000  1.0
  C  C87  1  0.42600000  0.57470000  0.24079000  1.0
  C  C88  1  0.44761000  0.43346000  0.93297000  1.0
  C  C89  1  0.56259000  0.00235000  0.23541000  1.0
  C  C90  1  0.99948000  0.42951000  0.22977000  1.0
  C  C91  1  0.01014000  0.43201000  0.73829000  1.0
  C  C92  1  0.55340000  0.00786000  0.73383000  1.0
  C  C93  1  0.43218000  0.55684000  0.72805000  1.0
  C  C94  1  0.45937000  0.44823000  0.11822000  1.0
  C  C95  1  0.42670000  0.10185000  0.11582000  1.0
  C  C96  1  0.10107000  0.47355000  0.11195000  1.0
  C  C97  1  0.91621000  0.55586000  0.61667000  1.0
  C  C98  1  0.52257000  0.90654000  0.61440000  1.0
  C  C99  1  0.13887000  0.45011000  0.93642000  1.0
  C  C100  1  0.57461000  0.51825000  0.61054000  1.0
  C  C101  1  0.56097000  0.51637000  0.39337000  1.0
  C  C102  1  0.51838000  0.92354000  0.38956000  1.0
  C  C103  1  0.93334000  0.53845000  0.38731000  1.0
  C  C104  1  0.07609000  0.48613000  0.89315000  1.0
  C  C105  1  0.44201000  0.07431000  0.88959000  1.0
  C  C106  1  0.47450000  0.45878000  0.88693000  1.0
  C  C107  1  0.46753000  0.40170000  0.25150000  1.0
  C  C108  1  0.38956000  0.13086000  0.24898000  1.0
  C  C109  1  0.13128000  0.47012000  0.24512000  1.0
  C  C110  1  0.51910000  0.48496000  0.30534000  1.0
  C  C111  1  0.87431000  0.60201000  0.74932000  1.0
  C  C112  1  0.51750000  0.87293000  0.74652000  1.0
  C  C113  1  0.60252000  0.52202000  0.74267000  1.0
  C  C114  1  0.48608000  0.46669000  0.20972000  1.0
  C  C115  1  0.45104000  0.04917000  0.20641000  1.0
  C  C116  1  0.04741000  0.49533000  0.20248000  1.0
  C  C117  1  0.96133000  0.54136000  0.70812000  1.0
  C  C118  1  0.49007000  0.95902000  0.70493000  1.0
  C  C119  1  0.54580000  0.49152000  0.70082000  1.0
  C  C120  1  0.57958000  0.37585000  0.27450000  1.0
  C  C121  1  0.47918000  0.99649000  0.30173000  1.0
  C  C122  1  0.36670000  0.04391000  0.27285000  1.0
  C  C123  1  0.04581000  0.57720000  0.27090000  1.0
  C  C124  1  0.95547000  0.63167000  0.77466000  1.0
  C  C125  1  0.40873000  0.95405000  0.77248000  1.0
  C  C126  1  0.62670000  0.41594000  0.76997000  1.0
  C  C127  1  0.99746000  0.51087000  0.29808000  1.0
  S  S128  1  0.72466000  0.40189000  0.20112000  1.0
  S  S129  1  0.91665000  0.76414000  0.79646000  1.0
  S  S130  1  0.31531000  0.91566000  0.79572000  1.0
  S  S131  1  0.75595000  0.32428000  0.79544000  1.0
  S  S132  1  0.38995000  0.87191000  0.20039000  1.0
  S  S133  1  0.87221000  0.73315000  0.20075000  1.0
  S  S134  1  0.12354000  0.62506000  0.71087000  1.0
  S  S135  1  0.24522000  0.12187000  0.70983000  1.0
  S  S136  1  0.62460000  0.24891000  0.70830000  1.0
  S  S137  1  0.67687000  0.25082000  0.30067000  1.0
  S  S138  1  0.24276000  0.07045000  0.30034000  1.0
  S  S139  1  0.07418000  0.67073000  0.30092000  1.0
  O  O140  1  0.84212000  0.66672000  0.44585000  1.0
  O  O141  1  0.49440000  0.15498000  0.94796000  1.0
  O  O142  1  0.35639000  0.50803000  0.95149000  1.0
  O  O143  1  0.16080000  0.35564000  0.95188000  1.0
  O  O144  1  0.85478000  0.66171000  0.54869000  1.0
  O  O145  1  0.68467000  0.48585000  0.54399000  1.0
  O  O146  1  0.48981000  0.83952000  0.54439000  1.0
  O  O147  1  0.51002000  0.33131000  0.05401000  1.0
  O  O148  1  0.17903000  0.51344000  0.04787000  1.0
  O  O149  1  0.31963000  0.17022000  0.04798000  1.0
  O  O150  1  0.65156000  0.84039000  0.55422000  1.0
  O  O151  1  0.69092000  0.48936000  0.45099000  1.0
  O  O152  1  0.85896000  0.49734000  0.55080000  1.0
  O  O153  1  0.52116000  0.64542000  0.54995000  1.0
  O  O154  1  0.49111000  0.15198000  0.05040000  1.0
  O  O155  1  0.36405000  0.50416000  0.04645000  1.0
  O  O156  1  0.15782000  0.36272000  0.04509000  1.0
  O  O157  1  0.68351000  0.66985000  0.50008000  1.0
  O  O158  1  0.35247000  0.33066000  0.99965000  1.0
  O  O159  1  0.71790000  0.36282000  0.15497000  1.0
  O  O160  1  0.75075000  0.48826000  0.20772000  1.0
  O  O161  1  0.81744000  0.29216000  0.22842000  1.0
  O  O162  1  0.49252000  0.82803000  0.45052000  1.0
  O  O163  1  0.35481000  0.91149000  0.15316000  1.0
  O  O164  1  0.47452000  0.76077000  0.20979000  1.0
  O  O165  1  0.27707000  0.89357000  0.22698000  1.0
  O  O166  1  0.90613000  0.72891000  0.15254000  1.0
  O  O167  1  0.76065000  0.76409000  0.21325000  1.0
  O  O168  1  0.90355000  0.81813000  0.22659000  1.0
  O  O169  1  0.20643000  0.54905000  0.67930000  1.0
  O  O170  1  0.04596000  0.73569000  0.69459000  1.0
  O  O171  1  0.18547000  0.63173000  0.75711000  1.0
  O  O172  1  0.23711000  0.20499000  0.67807000  1.0
  O  O173  1  0.51220000  0.34015000  0.95009000  1.0
  O  O174  1  0.20869000  0.04557000  0.69447000  1.0
  O  O175  1  0.18155000  0.18237000  0.75696000  1.0
  O  O176  1  0.55161000  0.23946000  0.67537000  1.0
  O  O177  1  0.73835000  0.21253000  0.69468000  1.0
  O  O178  1  0.62352000  0.18768000  0.75548000  1.0
  O  O179  1  0.76699000  0.26565000  0.31760000  1.0
  O  O180  1  0.62085000  0.21447000  0.33200000  1.0
  O  O181  1  0.71769000  0.16752000  0.25645000  1.0
  O  O182  1  0.25746000  0.96589000  0.31673000  1.0
  O  O183  1  0.20779000  0.16131000  0.33223000  1.0
  O  O184  1  0.17219000  0.51219000  0.95450000  1.0
  O  O185  1  0.15676000  0.11405000  0.25680000  1.0
  O  O186  1  0.96958000  0.76117000  0.31665000  1.0
  O  O187  1  0.16273000  0.61200000  0.33377000  1.0
  O  O188  1  0.12341000  0.71204000  0.25918000  1.0
  O  O189  1  0.82758000  0.79822000  0.82940000  1.0
  O  O190  1  0.01684000  0.76419000  0.81110000  1.0
  O  O191  1  0.86780000  0.83650000  0.75007000  1.0
  O  O192  1  0.37126000  0.82608000  0.82815000  1.0
  O  O193  1  0.21739000  0.01522000  0.81143000  1.0
  O  O194  1  0.28694000  0.86843000  0.74980000  1.0
  O  O195  1  0.32762000  0.16279000  0.95365000  1.0
  O  O196  1  0.78757000  0.38172000  0.82838000  1.0
  O  O197  1  0.75183000  0.22752000  0.81124000  1.0
  O  O198  1  0.83509000  0.29405000  0.75083000  1.0
  O  O199  1  0.64223000  0.85270000  0.45174000  1.0
  O  O200  1  0.87189000  0.49273000  0.45576000  1.0
  O  O201  1  0.51746000  0.63613000  0.45682000  1.0
  O  O202  1  0.81069000  0.84357000  0.49779000  1.0
  O  O203  1  0.65329000  0.16006000  0.00260000  1.0
