# generated using pymatgen
data_Na2H16PdC32(NO2)4
_symmetry_space_group_name_H-M   'P 1'
_cell_length_a   7.87471000
_cell_length_b   10.14120000
_cell_length_c   10.55800000
_cell_angle_alpha   80.27540000
_cell_angle_beta   77.88310000
_cell_angle_gamma   72.42870000
_symmetry_Int_Tables_number   1
_chemical_formula_structural   Na2H16PdC32(NO2)4
_chemical_formula_sum   'Na2 H16 Pd1 C32 N4 O8'
_cell_volume   780.84941604
_cell_formula_units_Z   1
loop_
 _symmetry_equiv_pos_site_id
 _symmetry_equiv_pos_as_xyz
  1  'x, y, z'
loop_
 _atom_site_type_symbol
 _atom_site_label
 _atom_site_symmetry_multiplicity
 _atom_site_fract_x
 _atom_site_fract_y
 _atom_site_fract_z
 _atom_site_occupancy
  Na  Na0  1  0.68670000  0.88930000  0.04947000  1.0
  Na  Na1  1  0.31330000  0.11070000  0.95053000  1.0
  H  H2  1  0.13092000  0.39225000  0.19291000  1.0
  H  H3  1  0.86908000  0.60775000  0.80709000  1.0
  H  H4  1  0.42294000  0.24045000  0.25346000  1.0
  H  H5  1  0.57705000  0.75955000  0.74654000  1.0
  H  H6  1  0.68312000  0.33655000  0.23454000  1.0
  H  H7  1  0.31688000  0.66344000  0.76546000  1.0
  H  H8  1  0.66412000  0.58338000  0.14498000  1.0
  H  H9  1  0.33589000  0.41662000  0.85502000  1.0
  H  H10  1  0.54293000  0.07827000  0.52838000  1.0
  H  H11  1  0.45708000  0.92173000  0.47162000  1.0
  H  H12  1  0.60257000  0.20338000  0.68839000  1.0
  H  H13  1  0.39743000  0.79662000  0.31161000  1.0
  H  H14  1  0.87351000  0.29073000  0.64536000  1.0
  H  H15  1  0.12649000  0.70927000  0.35464000  1.0
  H  H16  1  0.09577000  0.25205000  0.43758000  1.0
  H  H17  1  0.90423000  0.74795000  0.56242000  1.0
  Pd  Pd18  1  0.00000000  0.00000000  0.00000000  1.0
  C  C19  1  0.08151000  0.68975000  0.09698000  1.0
  C  C20  1  0.91849000  0.31025000  0.90301000  1.0
  C  C21  1  0.23449000  0.57257000  0.13832000  1.0
  C  C22  1  0.76551000  0.42743000  0.86168000  1.0
  C  C23  1  0.24471000  0.43475000  0.18484000  1.0
  C  C24  1  0.75529000  0.56525000  0.81516000  1.0
  C  C25  1  0.40985000  0.35007000  0.21883000  1.0
  C  C26  1  0.59015000  0.64993000  0.78117000  1.0
  C  C27  1  0.55720000  0.40404000  0.20615000  1.0
  C  C28  1  0.44281000  0.59596000  0.79385000  1.0
  C  C29  1  0.54707000  0.54335000  0.15663000  1.0
  C  C30  1  0.45293000  0.45665000  0.84337000  1.0
  C  C31  1  0.38364000  0.62573000  0.12303000  1.0
  C  C32  1  0.61636000  0.37427000  0.87697000  1.0
  C  C33  1  0.32398000  0.77511000  0.06941000  1.0
  C  C34  1  0.67602000  0.22489000  0.93059000  1.0
  C  C35  1  0.79039000  0.02970000  0.27453000  1.0
  C  C36  1  0.20961000  0.97030000  0.72547000  1.0
  C  C37  1  0.78696000  0.09535000  0.39238000  1.0
  C  C38  1  0.21304000  0.90465000  0.60762000  1.0
  C  C39  1  0.66327000  0.11525000  0.50703000  1.0
  C  C40  1  0.33673000  0.88475000  0.49297000  1.0
  C  C41  1  0.69763000  0.18652000  0.59761000  1.0
  C  C42  1  0.30236000  0.81348000  0.40239000  1.0
  C  C43  1  0.85095000  0.23531000  0.57338000  1.0
  C  C44  1  0.14905000  0.76469000  0.42662000  1.0
  C  C45  1  0.97582000  0.21452000  0.45724000  1.0
  C  C46  1  0.02418000  0.78548000  0.54276000  1.0
  C  C47  1  0.94038000  0.14469000  0.36804000  1.0
  C  C48  1  0.05962000  0.85531000  0.63196000  1.0
  C  C49  1  0.03851000  0.11144000  0.23506000  1.0
  C  C50  1  0.96149000  0.88856000  0.76494000  1.0
  N  N51  1  0.14583000  0.80617000  0.05607000  1.0
  N  N52  1  0.85417000  0.19383000  0.94393000  1.0
  N  N53  1  0.94154000  0.04456000  0.18555000  1.0
  N  N54  1  0.05846000  0.95544000  0.81445000  1.0
  O  O55  1  0.92427000  0.68761000  0.10022000  1.0
  O  O56  1  0.07573000  0.31239000  0.89978000  1.0
  O  O57  1  0.41508000  0.86052000  0.04198000  1.0
  O  O58  1  0.58492000  0.13948000  0.95802000  1.0
  O  O59  1  0.67877000  0.97350000  0.25670000  1.0
  O  O60  1  0.32123000  0.02650000  0.74330000  1.0
  O  O61  1  0.17860000  0.14030000  0.17622000  1.0
  O  O62  1  0.82139000  0.85970000  0.82378000  1.0
