# generated using pymatgen
data_CdH18C26S(NO3)2
_symmetry_space_group_name_H-M   'P 1'
_cell_length_a   16.38380000
_cell_length_b   16.54870000
_cell_length_c   22.04890000
_cell_angle_alpha   90.00000000
_cell_angle_beta   89.99990000
_cell_angle_gamma   115.51200000
_symmetry_Int_Tables_number   1
_chemical_formula_structural   CdH18C26S(NO3)2
_chemical_formula_sum   'Cd8 H144 C208 S8 N16 O48'
_cell_volume   5395.23418683
_cell_formula_units_Z   8
loop_
 _symmetry_equiv_pos_site_id
 _symmetry_equiv_pos_as_xyz
  1  'x, y, z'
loop_
 _atom_site_type_symbol
 _atom_site_label
 _atom_site_symmetry_multiplicity
 _atom_site_fract_x
 _atom_site_fract_y
 _atom_site_fract_z
 _atom_site_occupancy
  Cd  Cd0  1  0.44072000  0.23514000  0.23870000  1.0
  Cd  Cd1  1  0.05928000  0.26486000  0.73870000  1.0
  Cd  Cd2  1  0.55928000  0.76486000  0.76130000  1.0
  Cd  Cd3  1  0.94072000  0.73514000  0.26130000  1.0
  Cd  Cd4  1  0.20227000  0.79527000  0.21836000  1.0
  Cd  Cd5  1  0.29773000  0.70473000  0.71836000  1.0
  Cd  Cd6  1  0.79773000  0.20473000  0.78164000  1.0
  Cd  Cd7  1  0.70227000  0.29527000  0.28164000  1.0
  H  H8  1  0.44268000  0.42462000  0.25477000  1.0
  H  H9  1  0.05732000  0.07538000  0.75477000  1.0
  H  H10  1  0.55732000  0.57538000  0.74523000  1.0
  H  H11  1  0.94268000  0.92462000  0.24522000  1.0
  H  H12  1  0.41496000  0.51908000  0.33360000  1.0
  H  H13  1  0.08504000  0.98092000  0.83360000  1.0
  H  H14  1  0.58503000  0.48092000  0.66640000  1.0
  H  H15  1  0.91496000  0.01908000  0.16640000  1.0
  H  H16  1  0.42430000  0.33293000  0.46829000  1.0
  H  H17  1  0.07570000  0.16707000  0.96829000  1.0
  H  H18  1  0.57570000  0.66707000  0.53171000  1.0
  H  H19  1  0.92430000  0.83293000  0.03171000  1.0
  H  H20  1  0.45676000  0.25090000  0.38519000  1.0
  H  H21  1  0.04323000  0.24910000  0.88519000  1.0
  H  H22  1  0.54324000  0.74910000  0.61481000  1.0
  H  H23  1  0.95677000  0.75090000  0.11481000  1.0
  H  H24  1  0.39962000  0.55045000  0.43842000  1.0
  H  H25  1  0.10039000  0.94955000  0.93842000  1.0
  H  H26  1  0.60039000  0.44955000  0.56158000  1.0
  H  H27  1  0.89962000  0.05045000  0.06158000  1.0
  H  H28  1  0.34853000  0.38747000  0.52314000  1.0
  H  H29  1  0.15147000  0.11253000  0.02314000  1.0
  H  H30  1  0.65147000  0.61253000  0.47686000  1.0
  H  H31  1  0.84853000  0.88747000  0.97686000  1.0
  H  H32  1  0.32972000  0.70568000  0.58206000  1.0
  H  H33  1  0.17028000  0.79432000  0.08206000  1.0
  H  H34  1  0.67028000  0.29432000  0.41794000  1.0
  H  H35  1  0.82972000  0.20568000  0.91794000  1.0
  H  H36  1  0.35553000  0.62105000  0.49775000  1.0
  H  H37  1  0.14447000  0.87895000  0.99775000  1.0
  H  H38  1  0.64447000  0.37895000  0.50225000  1.0
  H  H39  1  0.85553000  0.12105000  0.00225000  1.0
  H  H40  1  0.31135000  0.40773000  0.62609000  1.0
  H  H41  1  0.18865000  0.09227000  0.12609000  1.0
  H  H42  1  0.68865000  0.59226000  0.37391000  1.0
  H  H43  1  0.81135000  0.90773000  0.87391000  1.0
  H  H44  1  0.28097000  0.49948000  0.70412000  1.0
  H  H45  1  0.21903000  0.00053000  0.20412000  1.0
  H  H46  1  0.71903000  0.50053000  0.29588000  1.0
  H  H47  1  0.78097000  0.99947000  0.79588000  1.0
  H  H48  1  0.43578000  0.04245000  0.20413000  1.0
  H  H49  1  0.06422000  0.45755000  0.70413000  1.0
  H  H50  1  0.56422000  0.95755000  0.79587000  1.0
  H  H51  1  0.93578000  0.54246000  0.29587000  1.0
  H  H52  1  0.41064000  0.94057000  0.11634000  1.0
  H  H53  1  0.08936000  0.55943000  0.61634000  1.0
  H  H54  1  0.58936000  0.05943000  0.88366000  1.0
  H  H55  1  0.91064000  0.44057000  0.38366000  1.0
  H  H56  1  0.40222000  0.15032000  0.00252000  1.0
  H  H57  1  0.09778000  0.34968000  0.50252000  1.0
  H  H58  1  0.59778000  0.84968000  0.99747000  1.0
  H  H59  1  0.90222000  0.65033000  0.49748000  1.0
  H  H60  1  0.43035000  0.24361000  0.09464000  1.0
  H  H61  1  0.06965000  0.25639000  0.59464000  1.0
  H  H62  1  0.56964000  0.75639000  0.90536000  1.0
  H  H63  1  0.93036000  0.74361000  0.40536000  1.0
  H  H64  1  0.38280000  0.90994000  0.01103000  1.0
  H  H65  1  0.11720000  0.59006000  0.51103000  1.0
  H  H66  1  0.61720000  0.09006000  0.98897000  1.0
  H  H67  1  0.88280000  0.40994000  0.48897000  1.0
  H  H68  1  0.37300000  0.05738000  0.92982000  1.0
  H  H69  1  0.12700000  0.44262000  0.42982000  1.0
  H  H70  1  0.62700000  0.94262000  0.07018000  1.0
  H  H71  1  0.87300000  0.55738000  0.57018000  1.0
  H  H72  1  0.29097000  0.70853000  0.85952000  1.0
  H  H73  1  0.20903000  0.79147000  0.35952000  1.0
  H  H74  1  0.70903000  0.29147000  0.14048000  1.0
  H  H75  1  0.79097000  0.20853000  0.64048000  1.0
  H  H76  1  0.31543000  0.80841000  0.94806000  1.0
  H  H77  1  0.18457000  0.69159000  0.44806000  1.0
  H  H78  1  0.68456000  0.19159000  0.05194000  1.0
  H  H79  1  0.81544000  0.30841000  0.55194000  1.0
  H  H80  1  0.37195000  0.02600000  0.82158000  1.0
  H  H81  1  0.12805000  0.47400000  0.32158000  1.0
  H  H82  1  0.62805000  0.97400000  0.17842000  1.0
  H  H83  1  0.87195000  0.52600000  0.67842000  1.0
  H  H84  1  0.34263000  0.91487000  0.73762000  1.0
  H  H85  1  0.15738000  0.58514000  0.23762000  1.0
  H  H86  1  0.65737000  0.08513000  0.26238000  1.0
  H  H87  1  0.84262000  0.41487000  0.76238000  1.0
  H  H88  1  0.11409000  0.17826000  0.22353000  1.0
  H  H89  1  0.38591000  0.32174000  0.72353000  1.0
  H  H90  1  0.88591000  0.82175000  0.77647000  1.0
  H  H91  1  0.61409000  0.67825000  0.27647000  1.0
  H  H92  1  0.98641000  0.19557000  0.16934000  1.0
  H  H93  1  0.51360000  0.30442000  0.66934000  1.0
  H  H94  1  0.01360000  0.80443000  0.83066000  1.0
  H  H95  1  0.48640000  0.69557000  0.33066000  1.0
  H  H96  1  0.17340000  0.35263000  0.03103000  1.0
  H  H97  1  0.32660000  0.14737000  0.53103000  1.0
  H  H98  1  0.82660000  0.64737000  0.96897000  1.0
  H  H99  1  0.67340000  0.85263000  0.46897000  1.0
  H  H100  1  0.30079000  0.34067000  0.08811000  1.0
  H  H101  1  0.19921000  0.15933000  0.58811000  1.0
  H  H102  1  0.69921000  0.65933000  0.91189000  1.0
  H  H103  1  0.80079000  0.84067000  0.41189000  1.0
  H  H104  1  0.88365000  0.45331000  0.20149000  1.0
  H  H105  1  0.61635000  0.04668000  0.70149000  1.0
  H  H106  1  0.11635000  0.54669000  0.79850000  1.0
  H  H107  1  0.38365000  0.95331000  0.29851000  1.0
  H  H108  1  0.88190000  0.31436000  0.15621000  1.0
  H  H109  1  0.61810000  0.18564000  0.65621000  1.0
  H  H110  1  0.11810000  0.68564000  0.84379000  1.0
  H  H111  1  0.38190000  0.81436000  0.34379000  1.0
  H  H112  1  0.09493000  0.47558000  0.03305000  1.0
  H  H113  1  0.40507000  0.02442000  0.53305000  1.0
  H  H114  1  0.90507000  0.52443000  0.96695000  1.0
  H  H115  1  0.59493000  0.97558000  0.46695000  1.0
  H  H116  1  0.10367000  0.61507000  0.08467000  1.0
  H  H117  1  0.39633000  0.88493000  0.58467000  1.0
  H  H118  1  0.89633000  0.38493000  0.91533000  1.0
  H  H119  1  0.60367000  0.11507000  0.41533000  1.0
  H  H120  1  0.32317000  0.67032000  0.06595000  1.0
  H  H121  1  0.17683000  0.82968000  0.56595000  1.0
  H  H122  1  0.67683000  0.32969000  0.93405000  1.0
  H  H123  1  0.82317000  0.17031000  0.43405000  1.0
  H  H124  1  0.44174000  0.63755000  0.01151000  1.0
  H  H125  1  0.05826000  0.86244000  0.51151000  1.0
  H  H126  1  0.55826000  0.36245000  0.98849000  1.0
  H  H127  1  0.94174000  0.13755000  0.48849000  1.0
  H  H128  1  0.63682000  0.78737000  0.14790000  1.0
  H  H129  1  0.86318000  0.71263000  0.64789000  1.0
  H  H130  1  0.36318000  0.21263000  0.85211000  1.0
  H  H131  1  0.13682000  0.28737000  0.35211000  1.0
  H  H132  1  0.51759000  0.82087000  0.20064000  1.0
  H  H133  1  0.98241000  0.67913000  0.70064000  1.0
  H  H134  1  0.48241000  0.17913000  0.79936000  1.0
  H  H135  1  0.01759000  0.32086000  0.29936000  1.0
  H  H136  1  0.50919000  0.38814000  0.12879000  1.0
  H  H137  1  0.99081000  0.11186000  0.62879000  1.0
  H  H138  1  0.49081000  0.61186000  0.87121000  1.0
  H  H139  1  0.00919000  0.88814000  0.37121000  1.0
  H  H140  1  0.49995000  0.50488000  0.06254000  1.0
  H  H141  1  0.00005000  0.99512000  0.56254000  1.0
  H  H142  1  0.50006000  0.49512000  0.93746000  1.0
  H  H143  1  0.99995000  0.00488000  0.43746000  1.0
  H  H144  1  0.77204000  0.68794000  0.11368000  1.0
  H  H145  1  0.72796000  0.81206000  0.61368000  1.0
  H  H146  1  0.22796000  0.31206000  0.88632000  1.0
  H  H147  1  0.27204000  0.18794000  0.38632000  1.0
  H  H148  1  0.78426000  0.56585000  0.17554000  1.0
  H  H149  1  0.71574000  0.93415000  0.67553000  1.0
  H  H150  1  0.21574000  0.43415000  0.82446000  1.0
  H  H151  1  0.28426000  0.06585000  0.32446000  1.0
  C  C152  1  0.43887000  0.40784000  0.30288000  1.0
  C  C153  1  0.06113000  0.09216000  0.80288000  1.0
  C  C154  1  0.56113000  0.59216000  0.69712000  1.0
  C  C155  1  0.93887000  0.90784000  0.19712000  1.0
  C  C156  1  0.42268000  0.45928000  0.34682000  1.0
  C  C157  1  0.07732000  0.04072000  0.84682000  1.0
  C  C158  1  0.57732000  0.54072000  0.65318000  1.0
  C  C159  1  0.92268000  0.95928000  0.15318000  1.0
  C  C160  1  0.41367000  0.43275000  0.40804000  1.0
  C  C161  1  0.08633000  0.06725000  0.90804000  1.0
  C  C162  1  0.58633000  0.56725000  0.59196000  1.0
  C  C163  1  0.91367000  0.93275000  0.09196000  1.0
  C  C164  1  0.42704000  0.35628000  0.42185000  1.0
  C  C165  1  0.07296000  0.14371000  0.92185000  1.0
  C  C166  1  0.57296000  0.64372000  0.57815000  1.0
  C  C167  1  0.92704000  0.85628000  0.07815000  1.0
  C  C168  1  0.44476000  0.30948000  0.37550000  1.0
  C  C169  1  0.05524000  0.19052000  0.87550000  1.0
  C  C170  1  0.55524000  0.69052000  0.62450000  1.0
  C  C171  1  0.94476000  0.80948000  0.12450000  1.0
  C  C172  1  0.39136000  0.48422000  0.45313000  1.0
  C  C173  1  0.10864000  0.01578000  0.95313000  1.0
  C  C174  1  0.60864000  0.51578000  0.54687000  1.0
  C  C175  1  0.89136000  0.98422000  0.04687000  1.0
  C  C176  1  0.35965000  0.45485000  0.50937000  1.0
  C  C177  1  0.14035000  0.04514000  0.00937000  1.0
  C  C178  1  0.64035000  0.54514000  0.49063000  1.0
  C  C179  1  0.85965000  0.95486000  0.99063000  1.0
  C  C180  1  0.32503000  0.63866000  0.58929000  1.0
  C  C181  1  0.17497000  0.86134000  0.08929000  1.0
  C  C182  1  0.67497000  0.36134000  0.41071000  1.0
  C  C183  1  0.82503000  0.13866000  0.91071000  1.0
  C  C184  1  0.34050000  0.59105000  0.54266000  1.0
  C  C185  1  0.15950000  0.90895000  0.04266000  1.0
  C  C186  1  0.65950000  0.40895000  0.45735000  1.0
  C  C187  1  0.84050000  0.09105000  0.95734000  1.0
  C  C188  1  0.33814000  0.50660000  0.55469000  1.0
  C  C189  1  0.16186000  0.99339000  0.05469000  1.0
  C  C190  1  0.66186000  0.49340000  0.44531000  1.0
  C  C191  1  0.83814000  0.00660000  0.94531000  1.0
  C  C192  1  0.31555000  0.47317000  0.61396000  1.0
  C  C193  1  0.18445000  0.02683000  0.11396000  1.0
  C  C194  1  0.68446000  0.52683000  0.38604000  1.0
  C  C195  1  0.81555000  0.97317000  0.88604000  1.0
  C  C196  1  0.29935000  0.52448000  0.65803000  1.0
  C  C197  1  0.20065000  0.97552000  0.15803000  1.0
  C  C198  1  0.70065000  0.47552000  0.34197000  1.0
  C  C199  1  0.79935000  0.02448000  0.84197000  1.0
  C  C200  1  0.43009000  0.06420000  0.15833000  1.0
  C  C201  1  0.06991000  0.43580000  0.65833000  1.0
  C  C202  1  0.56991000  0.93580000  0.84167000  1.0
  C  C203  1  0.93010000  0.56420000  0.34167000  1.0
  C  C204  1  0.41546000  0.00755000  0.10891000  1.0
  C  C205  1  0.08454000  0.49245000  0.60891000  1.0
  C  C206  1  0.58454000  0.99245000  0.89109000  1.0
  C  C207  1  0.91546000  0.50755000  0.39109000  1.0
  C  C208  1  0.40426000  0.03626000  0.05086000  1.0
  C  C209  1  0.09574000  0.46374000  0.55086000  1.0
  C  C210  1  0.59574000  0.96374000  0.94914000  1.0
  C  C211  1  0.90427000  0.53626000  0.44914000  1.0
  C  C212  1  0.41088000  0.12361000  0.04588000  1.0
  C  C213  1  0.08912000  0.37638000  0.54588000  1.0
  C  C214  1  0.58912000  0.87639000  0.95412000  1.0
  C  C215  1  0.91088000  0.62362000  0.45412000  1.0
  C  C216  1  0.42679000  0.17640000  0.09730000  1.0
  C  C217  1  0.07321000  0.32360000  0.59730000  1.0
  C  C218  1  0.57321000  0.82360000  0.90270000  1.0
  C  C219  1  0.92679000  0.67640000  0.40270000  1.0
  C  C220  1  0.38471000  0.97509000  0.99985000  1.0
  C  C221  1  0.11528000  0.52491000  0.49984000  1.0
  C  C222  1  0.61529000  0.02491000  0.00015000  1.0
  C  C223  1  0.88472000  0.47509000  0.50016000  1.0
  C  C224  1  0.36905000  0.99177000  0.94205000  1.0
  C  C225  1  0.13095000  0.50823000  0.44205000  1.0
  C  C226  1  0.63095000  0.00823000  0.05795000  1.0
  C  C227  1  0.86905000  0.49177000  0.55795000  1.0
  C  C228  1  0.31005000  0.77971000  0.85334000  1.0
  C  C229  1  0.18995000  0.72029000  0.35334000  1.0
  C  C230  1  0.68995000  0.22029000  0.14666000  1.0
  C  C231  1  0.81005000  0.27971000  0.64666000  1.0
  C  C232  1  0.32449000  0.83620000  0.90247000  1.0
  C  C233  1  0.17551000  0.66380000  0.40247000  1.0
  C  C234  1  0.67551000  0.16380000  0.09753000  1.0
  C  C235  1  0.82449000  0.33620000  0.59753000  1.0
  C  C236  1  0.34882000  0.92769000  0.89267000  1.0
  C  C237  1  0.15118000  0.57231000  0.39267000  1.0
  C  C238  1  0.65119000  0.07231000  0.10733000  1.0
  C  C239  1  0.84882000  0.42769000  0.60733000  1.0
  C  C240  1  0.35388000  0.95597000  0.83200000  1.0
  C  C241  1  0.14613000  0.54403000  0.33200000  1.0
  C  C242  1  0.64613000  0.04403000  0.16800000  1.0
  C  C243  1  0.85388000  0.45597000  0.66800000  1.0
  C  C244  1  0.33821000  0.89480000  0.78513000  1.0
  C  C245  1  0.16179000  0.60520000  0.28514000  1.0
  C  C246  1  0.66179000  0.10520000  0.21487000  1.0
  C  C247  1  0.83821000  0.39480000  0.71486000  1.0
  C  C248  1  0.29084000  0.25062000  0.19145000  1.0
  C  C249  1  0.20917000  0.24938000  0.69145000  1.0
  C  C250  1  0.70917000  0.74938000  0.80855000  1.0
  C  C251  1  0.79083000  0.75061000  0.30855000  1.0
  C  C252  1  0.21438000  0.26003000  0.15932000  1.0
  C  C253  1  0.28562000  0.23997000  0.65932000  1.0
  C  C254  1  0.78562000  0.73997000  0.84068000  1.0
  C  C255  1  0.71438000  0.76003000  0.34068000  1.0
  C  C256  1  0.12597000  0.21780000  0.18214000  1.0
  C  C257  1  0.37403000  0.28220000  0.68214000  1.0
  C  C258  1  0.87403000  0.78219000  0.81786000  1.0
  C  C259  1  0.62597000  0.71780000  0.31786000  1.0
  C  C260  1  0.05542000  0.22645000  0.15196000  1.0
  C  C261  1  0.44458000  0.27355000  0.65196000  1.0
  C  C262  1  0.94458000  0.77355000  0.84804000  1.0
  C  C263  1  0.55542000  0.72645000  0.34804000  1.0
  C  C264  1  0.07398000  0.27536000  0.09784000  1.0
  C  C265  1  0.42602000  0.22464000  0.59784000  1.0
  C  C266  1  0.92602000  0.72464000  0.90216000  1.0
  C  C267  1  0.57398000  0.77536000  0.40216000  1.0
  C  C268  1  0.16143000  0.31641000  0.07387000  1.0
  C  C269  1  0.33857000  0.18360000  0.57387000  1.0
  C  C270  1  0.83857000  0.68359000  0.92613000  1.0
  C  C271  1  0.66143000  0.81641000  0.42613000  1.0
  C  C272  1  0.23184000  0.30952000  0.10537000  1.0
  C  C273  1  0.26816000  0.19048000  0.60537000  1.0
  C  C274  1  0.76816000  0.69048000  0.89463000  1.0
  C  C275  1  0.73184000  0.80952000  0.39463000  1.0
  C  C276  1  0.99701000  0.62484000  0.17577000  1.0
  C  C277  1  0.50299000  0.87516000  0.67576000  1.0
  C  C278  1  0.00300000  0.37516000  0.82423000  1.0
  C  C279  1  0.49700000  0.12484000  0.32424000  1.0
  C  C280  1  0.99419000  0.54195000  0.14585000  1.0
  C  C281  1  0.50581000  0.95805000  0.64585000  1.0
  C  C282  1  0.00582000  0.45805000  0.85415000  1.0
  C  C283  1  0.49419000  0.04195000  0.35415000  1.0
  C  C284  1  0.93133000  0.45774000  0.16594000  1.0
  C  C285  1  0.56868000  0.04226000  0.66594000  1.0
  C  C286  1  0.06868000  0.54226000  0.83406000  1.0
  C  C287  1  0.43132000  0.95774000  0.33406000  1.0
  C  C288  1  0.92899000  0.38013000  0.13992000  1.0
  C  C289  1  0.57101000  0.11987000  0.63992000  1.0
  C  C290  1  0.07102000  0.61987000  0.86007000  1.0
  C  C291  1  0.42898000  0.88012000  0.36008000  1.0
  C  C292  1  0.98792000  0.38808000  0.09213000  1.0
  C  C293  1  0.51208000  0.11192000  0.59213000  1.0
  C  C294  1  0.01208000  0.61192000  0.90787000  1.0
  C  C295  1  0.48792000  0.88808000  0.40787000  1.0
  C  C296  1  0.05062000  0.47170000  0.07091000  1.0
  C  C297  1  0.44938000  0.02830000  0.57092000  1.0
  C  C298  1  0.94938000  0.52830000  0.92908000  1.0
  C  C299  1  0.55062000  0.97170000  0.42908000  1.0
  C  C300  1  0.05454000  0.54883000  0.09879000  1.0
  C  C301  1  0.44546000  0.95117000  0.59879000  1.0
  C  C302  1  0.94546000  0.45117000  0.90121000  1.0
  C  C303  1  0.55454000  0.04883000  0.40121000  1.0
  C  C304  1  0.34365000  0.76801000  0.16708000  1.0
  C  C305  1  0.15635000  0.73199000  0.66708000  1.0
  C  C306  1  0.65635000  0.23199000  0.83292000  1.0
  C  C307  1  0.84365000  0.26801000  0.33292000  1.0
  C  C308  1  0.41455000  0.74792000  0.13570000  1.0
  C  C309  1  0.08544000  0.75207000  0.63570000  1.0
  C  C310  1  0.58545000  0.25208000  0.86430000  1.0
  C  C311  1  0.91455000  0.24792000  0.36430000  1.0
  C  C312  1  0.39233000  0.69586000  0.08280000  1.0
  C  C313  1  0.10767000  0.80413000  0.58280000  1.0
  C  C314  1  0.60767000  0.30414000  0.91720000  1.0
  C  C315  1  0.89233000  0.19586000  0.41721000  1.0
  C  C316  1  0.45724000  0.67713000  0.05306000  1.0
  C  C317  1  0.04276000  0.82287000  0.55306000  1.0
  C  C318  1  0.54276000  0.32287000  0.94694000  1.0
  C  C319  1  0.95724000  0.17713000  0.44694000  1.0
  C  C320  1  0.54457000  0.71083000  0.07718000  1.0
  C  C321  1  0.95543000  0.78917000  0.57718000  1.0
  C  C322  1  0.45543000  0.28917000  0.92283000  1.0
  C  C323  1  0.04457000  0.21083000  0.42282000  1.0
  C  C324  1  0.56808000  0.76238000  0.13021000  1.0
  C  C325  1  0.93192000  0.73762000  0.63021000  1.0
  C  C326  1  0.43192000  0.23762000  0.86979000  1.0
  C  C327  1  0.06808000  0.26238000  0.36979000  1.0
  C  C328  1  0.50257000  0.78100000  0.15922000  1.0
  C  C329  1  0.99743000  0.71899000  0.65922000  1.0
  C  C330  1  0.49743000  0.21900000  0.84078000  1.0
  C  C331  1  0.00256000  0.28100000  0.34078000  1.0
  C  C332  1  0.65556000  0.39902000  0.19423000  1.0
  C  C333  1  0.84444000  0.10098000  0.69422000  1.0
  C  C334  1  0.34444000  0.60098000  0.80577000  1.0
  C  C335  1  0.15556000  0.89902000  0.30577000  1.0
  C  C336  1  0.64790000  0.46994000  0.15550000  1.0
  C  C337  1  0.85210000  0.03006000  0.65550000  1.0
  C  C338  1  0.35210000  0.53006000  0.84450000  1.0
  C  C339  1  0.14790000  0.96994000  0.34450000  1.0
  C  C340  1  0.56743000  0.45272000  0.12427000  1.0
  C  C341  1  0.93257000  0.04728000  0.62426000  1.0
  C  C342  1  0.43257000  0.54728000  0.87573000  1.0
  C  C343  1  0.06743000  0.95272000  0.37573000  1.0
  C  C344  1  0.56159000  0.51877000  0.08794000  1.0
  C  C345  1  0.93841000  0.98123000  0.58794000  1.0
  C  C346  1  0.43841000  0.48123000  0.91206000  1.0
  C  C347  1  0.06159000  0.01877000  0.41206000  1.0
  C  C348  1  0.63610000  0.60256000  0.08477000  1.0
  C  C349  1  0.86391000  0.89744000  0.58477000  1.0
  C  C350  1  0.36391000  0.39744000  0.91523000  1.0
  C  C351  1  0.13609000  0.10256000  0.41523000  1.0
  C  C352  1  0.71605000  0.62145000  0.11646000  1.0
  C  C353  1  0.78396000  0.87855000  0.61646000  1.0
  C  C354  1  0.28395000  0.37855000  0.88354000  1.0
  C  C355  1  0.21605000  0.12145000  0.38354000  1.0
  C  C356  1  0.72222000  0.55392000  0.15118000  1.0
  C  C357  1  0.77778000  0.94608000  0.65118000  1.0
  C  C358  1  0.27779000  0.44608000  0.84882000  1.0
  C  C359  1  0.22222000  0.05392000  0.34882000  1.0
  S  S360  1  0.98499000  0.28873000  0.05962000  1.0
  S  S361  1  0.51501000  0.21127000  0.55962000  1.0
  S  S362  1  0.01501000  0.71127000  0.94038000  1.0
  S  S363  1  0.48499000  0.78873000  0.44038000  1.0
  S  S364  1  0.62788000  0.68721000  0.03936000  1.0
  S  S365  1  0.87212000  0.81279000  0.53936000  1.0
  S  S366  1  0.37212000  0.31279000  0.96064000  1.0
  S  S367  1  0.12788000  0.18721000  0.46064000  1.0
  N  N368  1  0.44886000  0.33338000  0.31670000  1.0
  N  N369  1  0.05114000  0.16662000  0.81670000  1.0
  N  N370  1  0.55114000  0.66666667  0.68330000  1.0
  N  N371  1  0.94886000  0.83338000  0.18330000  1.0
  N  N372  1  0.30529000  0.60663000  0.64629000  1.0
  N  N373  1  0.19471000  0.89337000  0.14629000  1.0
  N  N374  1  0.69471000  0.39337000  0.35372000  1.0
  N  N375  1  0.80529000  0.10663000  0.85371000  1.0
  N  N376  1  0.43562000  0.14733000  0.15297000  1.0
  N  N377  1  0.06438000  0.35267000  0.65297000  1.0
  N  N378  1  0.56438000  0.85267000  0.84702000  1.0
  N  N379  1  0.93562000  0.64733000  0.34703000  1.0
  N  N380  1  0.31736000  0.80802000  0.79543000  1.0
  N  N381  1  0.18264000  0.69198000  0.29543000  1.0
  N  N382  1  0.68264000  0.19198000  0.20457000  1.0
  N  N383  1  0.81736000  0.30802000  0.70457000  1.0
  O  O384  1  0.27242000  0.18772000  0.22954000  1.0
  O  O385  1  0.22758000  0.31228000  0.72953000  1.0
  O  O386  1  0.72758000  0.81227000  0.77046000  1.0
  O  O387  1  0.77242000  0.68772000  0.27047000  1.0
  O  O388  1  0.37132000  0.30643000  0.17733000  1.0
  O  O389  1  0.12868000  0.19357000  0.67733000  1.0
  O  O390  1  0.62868000  0.69357000  0.82267000  1.0
  O  O391  1  0.87133000  0.80643000  0.32267000  1.0
  O  O392  1  0.92690000  0.61468000  0.20653000  1.0
  O  O393  1  0.57310000  0.88532000  0.70652000  1.0
  O  O394  1  0.07311000  0.38532000  0.79348000  1.0
  O  O395  1  0.42689000  0.11468000  0.29348000  1.0
  O  O396  1  0.06608000  0.69830000  0.16913000  1.0
  O  O397  1  0.43392000  0.80170000  0.66913000  1.0
  O  O398  1  0.93393000  0.30170000  0.83087000  1.0
  O  O399  1  0.56607000  0.19830000  0.33087000  1.0
  O  O400  1  0.90016000  0.21452000  0.07753000  1.0
  O  O401  1  0.59984000  0.28547000  0.57753000  1.0
  O  O402  1  0.09984000  0.78548000  0.92246000  1.0
  O  O403  1  0.40016000  0.71452000  0.42247000  1.0
  O  O404  1  0.00877000  0.30461000  0.99581000  1.0
  O  O405  1  0.49123000  0.19539000  0.49581000  1.0
  O  O406  1  0.99123000  0.69539000  0.00419000  1.0
  O  O407  1  0.50877000  0.80461000  0.50419000  1.0
  O  O408  1  0.36810000  0.82650000  0.20888000  1.0
  O  O409  1  0.13190000  0.67350000  0.70888000  1.0
  O  O410  1  0.63190000  0.17350000  0.79112000  1.0
  O  O411  1  0.86810000  0.32650000  0.29112000  1.0
  O  O412  1  0.26205000  0.72491000  0.14900000  1.0
  O  O413  1  0.23795000  0.77509000  0.64900000  1.0
  O  O414  1  0.73795000  0.27509000  0.85100000  1.0
  O  O415  1  0.76205000  0.22490000  0.35100000  1.0
  O  O416  1  0.58541000  0.32813000  0.20713000  1.0
  O  O417  1  0.91459000  0.17187000  0.70712000  1.0
  O  O418  1  0.41459000  0.67187000  0.79287000  1.0
  O  O419  1  0.08541000  0.82813000  0.29287000  1.0
  O  O420  1  0.73421000  0.41263000  0.21261000  1.0
  O  O421  1  0.76579000  0.08737000  0.71261000  1.0
  O  O422  1  0.26579000  0.58737000  0.78739000  1.0
  O  O423  1  0.23421000  0.91263000  0.28739000  1.0
  O  O424  1  0.59010000  0.64857000  0.98080000  1.0
  O  O425  1  0.90990000  0.85143000  0.48080000  1.0
  O  O426  1  0.40990000  0.35143000  0.01920000  1.0
  O  O427  1  0.09010000  0.14857000  0.51920000  1.0
  O  O428  1  0.71341000  0.76672000  0.04190000  1.0
  O  O429  1  0.78659000  0.73328000  0.54190000  1.0
  O  O430  1  0.28659000  0.23328000  0.95810000  1.0
  O  O431  1  0.21340000  0.26672000  0.45810000  1.0
