# generated using pymatgen
data_Ni2H76C57(NO)12
_symmetry_space_group_name_H-M   'P 1'
_cell_length_a   9.28922000
_cell_length_b   18.62605547
_cell_length_c   22.45789514
_cell_angle_alpha   85.64986784
_cell_angle_beta   78.68531490
_cell_angle_gamma   76.44555820
_symmetry_Int_Tables_number   1
_chemical_formula_structural   Ni2H76C57(NO)12
_chemical_formula_sum   'Ni4 H152 C114 N24 O24'
_cell_volume   3702.23734108
_cell_formula_units_Z   2
loop_
 _symmetry_equiv_pos_site_id
 _symmetry_equiv_pos_as_xyz
  1  'x, y, z'
loop_
 _atom_site_type_symbol
 _atom_site_label
 _atom_site_symmetry_multiplicity
 _atom_site_fract_x
 _atom_site_fract_y
 _atom_site_fract_z
 _atom_site_occupancy
  Ni  Ni0  1  0.99999000  0.00000000  0.00000000  1.0
  Ni  Ni1  1  0.00000000  0.50000000  0.50000000  1.0
  Ni  Ni2  1  0.50000000  0.00000000  0.50000000  1.0
  Ni  Ni3  1  0.00001000  0.50000000  0.00000000  1.0
  H  H4  1  0.46220000  0.88154000  0.54986000  1.0
  H  H5  1  0.97648000  0.08698000  0.08099000  1.0
  H  H6  1  0.15946000  0.14240000  0.88215000  1.0
  H  H7  1  0.98131000  0.11509000  0.90507000  1.0
  H  H8  1  0.16471000  0.14343000  0.04723000  1.0
  H  H9  1  0.26076000  0.18732000  0.98370000  1.0
  H  H10  1  0.37606000  0.07530000  0.93669000  1.0
  H  H11  1  0.31214000  0.02834000  0.00563000  1.0
  H  H12  1  0.82060000  0.17634000  0.98792000  1.0
  H  H13  1  0.89182000  0.21034000  0.04560000  1.0
  H  H14  1  0.68424000  0.09561000  0.04354000  1.0
  H  H15  1  0.70426000  0.12696000  0.11402000  1.0
  H  H16  1  0.34200000  0.99926000  0.86965000  1.0
  H  H17  1  0.15477000  0.99993000  0.86102000  1.0
  H  H18  1  0.79605000  0.89789000  0.36456000  1.0
  H  H19  1  0.59300000  0.92033000  0.38669000  1.0
  H  H20  1  0.94734000  0.93884000  0.43456000  1.0
  H  H21  1  0.83673000  0.00687000  0.48706000  1.0
  H  H22  1  0.77613000  0.09105000  0.40424000  1.0
  H  H23  1  0.91901000  0.02785000  0.35693000  1.0
  H  H24  1  0.43599000  0.88781000  0.65694000  1.0
  H  H25  1  0.52657000  0.96359000  0.64607000  1.0
  H  H26  1  0.70256000  0.82724000  0.58070000  1.0
  H  H27  1  0.73960000  0.91769000  0.57294000  1.0
  H  H28  1  0.85842000  0.84138000  0.47968000  1.0
  H  H29  1  0.67617000  0.83356000  0.47187000  1.0
  H  H30  1  0.31361000  0.94789000  0.35060000  1.0
  H  H31  1  0.16778000  0.91695000  0.27712000  1.0
  H  H32  1  0.02556000  0.75123000  0.40492000  1.0
  H  H33  1  0.17882000  0.78036000  0.47585000  1.0
  H  H34  1  0.84631000  0.76842000  0.34706000  1.0
  H  H35  1  0.02049000  0.70888000  0.31382000  1.0
  H  H36  1  0.66282000  0.83032000  0.28421000  1.0
  H  H37  1  0.79471000  0.86982000  0.23024000  1.0
  H  H38  1  0.55070000  0.77170000  0.11602000  1.0
  H  H39  1  0.33424000  0.85222000  0.07498000  1.0
  H  H40  1  0.31160000  0.02054000  0.19829000  1.0
  H  H41  1  0.53166000  0.94219000  0.23878000  1.0
  H  H42  1  0.88347000  0.61532000  0.95590000  1.0
  H  H43  1  0.13957000  0.41335000  0.41935000  1.0
  H  H44  1  0.18217000  0.35911000  0.61861000  1.0
  H  H45  1  0.00112000  0.38485000  0.59477000  1.0
  H  H46  1  0.34872000  0.35873000  0.45378000  1.0
  H  H47  1  0.42551000  0.31553000  0.51755000  1.0
  H  H48  1  0.38557000  0.42758000  0.56503000  1.0
  H  H49  1  0.34416000  0.47424000  0.49581000  1.0
  H  H50  1  0.98169000  0.32237000  0.51172000  1.0
  H  H51  1  0.14155000  0.28963000  0.45447000  1.0
  H  H52  1  0.82124000  0.40215000  0.45583000  1.0
  H  H53  1  0.93967000  0.37139000  0.38558000  1.0
  H  H54  1  0.21307000  0.50338000  0.63116000  1.0
  H  H55  1  0.01927000  0.50096000  0.63913000  1.0
  H  H56  1  0.06410000  0.60054000  0.13551000  1.0
  H  H57  1  0.90327000  0.57468000  0.11559000  1.0
  H  H58  1  0.31843000  0.56355000  0.06122000  1.0
  H  H59  1  0.31899000  0.49349000  0.01073000  1.0
  H  H60  1  0.27754000  0.41004000  0.09626000  1.0
  H  H61  1  0.30893000  0.47773000  0.14140000  1.0
  H  H62  1  0.96763000  0.61759000  0.84898000  1.0
  H  H63  1  0.12460000  0.54306000  0.85696000  1.0
  H  H64  1  0.09076000  0.67682000  0.92382000  1.0
  H  H65  1  0.21689000  0.58894000  0.92999000  1.0
  H  H66  1  0.16911000  0.66064000  0.02609000  1.0
  H  H67  1  0.97306000  0.66508000  0.03292000  1.0
  H  H68  1  0.59659000  0.55855000  0.15432000  1.0
  H  H69  1  0.34925000  0.58937000  0.22658000  1.0
  H  H70  1  0.17531000  0.75144000  0.09570000  1.0
  H  H71  1  0.42553000  0.72174000  0.02589000  1.0
  H  H72  1  0.95484000  0.73426000  0.15352000  1.0
  H  H73  1  0.04013000  0.79471000  0.18642000  1.0
  H  H74  1  0.76937000  0.67277000  0.21650000  1.0
  H  H75  1  0.88727000  0.63374000  0.27060000  1.0
  H  H76  1  0.44039000  0.73145000  0.38411000  1.0
  H  H77  1  0.26263000  0.64992000  0.42513000  1.0
  H  H78  1  0.52149000  0.48106000  0.30342000  1.0
  H  H79  1  0.70429000  0.56046000  0.26297000  1.0
  H  H80  1  0.53781000  0.11845000  0.45014000  1.0
  H  H81  1  0.02352000  0.91301000  0.91900000  1.0
  H  H82  1  0.84052000  0.85759000  0.11784000  1.0
  H  H83  1  0.01867000  0.88490000  0.09493000  1.0
  H  H84  1  0.83527000  0.85657000  0.95276000  1.0
  H  H85  1  0.73923000  0.81267000  0.01629000  1.0
  H  H86  1  0.62394000  0.92469000  0.06330000  1.0
  H  H87  1  0.68785000  0.97165000  0.99436000  1.0
  H  H88  1  0.17939000  0.82365000  0.01207000  1.0
  H  H89  1  0.10817000  0.78966000  0.95439000  1.0
  H  H90  1  0.31576000  0.90438000  0.95645000  1.0
  H  H91  1  0.29574000  0.87303000  0.88598000  1.0
  H  H92  1  0.65799000  0.00073000  0.13035000  1.0
  H  H93  1  0.84523000  0.00006000  0.13897000  1.0
  H  H94  1  0.20395000  0.10210000  0.63545000  1.0
  H  H95  1  0.40701000  0.07966000  0.61331000  1.0
  H  H96  1  0.05268000  0.06115000  0.56544000  1.0
  H  H97  1  0.16327000  0.99312000  0.51295000  1.0
  H  H98  1  0.22386000  0.90895000  0.59576000  1.0
  H  H99  1  0.08099000  0.97215000  0.64307000  1.0
  H  H100  1  0.56401000  0.11218000  0.34306000  1.0
  H  H101  1  0.47342000  0.03640000  0.35394000  1.0
  H  H102  1  0.29745000  0.17275000  0.41930000  1.0
  H  H103  1  0.26042000  0.08230000  0.42706000  1.0
  H  H104  1  0.14161000  0.15861000  0.52032000  1.0
  H  H105  1  0.32384000  0.16643000  0.52814000  1.0
  H  H106  1  0.68639000  0.05211000  0.64941000  1.0
  H  H107  1  0.83223000  0.08305000  0.72289000  1.0
  H  H108  1  0.97442000  0.24878000  0.59508000  1.0
  H  H109  1  0.82115000  0.21964000  0.52416000  1.0
  H  H110  1  0.15368000  0.23159000  0.65293000  1.0
  H  H111  1  0.97951000  0.29112000  0.68618000  1.0
  H  H112  1  0.33719000  0.16969000  0.71578000  1.0
  H  H113  1  0.20529000  0.13019000  0.76975000  1.0
  H  H114  1  0.44930000  0.22830000  0.88398000  1.0
  H  H115  1  0.66576000  0.14779000  0.92502000  1.0
  H  H116  1  0.68838000  0.97947000  0.80171000  1.0
  H  H117  1  0.46834000  0.05782000  0.76122000  1.0
  H  H118  1  0.11654000  0.38468000  0.04411000  1.0
  H  H119  1  0.86043000  0.58665000  0.58066000  1.0
  H  H120  1  0.81781000  0.64090000  0.38139000  1.0
  H  H121  1  0.99887000  0.61516000  0.40523000  1.0
  H  H122  1  0.65127000  0.64127000  0.54623000  1.0
  H  H123  1  0.57448000  0.68447000  0.48245000  1.0
  H  H124  1  0.61442000  0.57243000  0.43497000  1.0
  H  H125  1  0.65584000  0.52575000  0.50419000  1.0
  H  H126  1  0.01830000  0.67764000  0.48828000  1.0
  H  H127  1  0.85843000  0.71037000  0.54554000  1.0
  H  H128  1  0.17876000  0.59785000  0.54418000  1.0
  H  H129  1  0.06033000  0.62861000  0.61442000  1.0
  H  H130  1  0.78693000  0.49662000  0.36884000  1.0
  H  H131  1  0.98072000  0.49905000  0.36087000  1.0
  H  H132  1  0.93593000  0.39946000  0.86449000  1.0
  H  H133  1  0.09675000  0.42533000  0.88441000  1.0
  H  H134  1  0.68158000  0.43645000  0.93878000  1.0
  H  H135  1  0.68102000  0.50651000  0.98927000  1.0
  H  H136  1  0.72248000  0.58996000  0.90374000  1.0
  H  H137  1  0.69108000  0.52228000  0.85860000  1.0
  H  H138  1  0.03238000  0.38242000  0.15102000  1.0
  H  H139  1  0.87540000  0.45695000  0.14305000  1.0
  H  H140  1  0.90925000  0.32318000  0.07618000  1.0
  H  H141  1  0.78312000  0.41106000  0.07001000  1.0
  H  H142  1  0.83093000  0.33936000  0.97390000  1.0
  H  H143  1  0.02697000  0.33492000  0.96708000  1.0
  H  H144  1  0.40341000  0.44147000  0.84569000  1.0
  H  H145  1  0.65076000  0.41065000  0.77343000  1.0
  H  H146  1  0.82468000  0.24856000  0.90429000  1.0
  H  H147  1  0.57448000  0.27825000  0.97410000  1.0
  H  H148  1  0.04517000  0.26573000  0.84648000  1.0
  H  H149  1  0.95987000  0.20529000  0.81357000  1.0
  H  H150  1  0.23063000  0.32723000  0.78350000  1.0
  H  H151  1  0.11273000  0.36627000  0.72940000  1.0
  H  H152  1  0.55961000  0.26855000  0.61588000  1.0
  H  H153  1  0.73736000  0.35008000  0.57487000  1.0
  H  H154  1  0.47853000  0.51894000  0.69659000  1.0
  H  H155  1  0.29573000  0.43954000  0.73703000  1.0
  C  C156  1  0.08395000  0.12038000  0.91958000  1.0
  C  C157  1  0.19207000  0.14608000  0.99746000  1.0
  C  C158  1  0.27665000  0.06969000  0.97110000  1.0
  C  C159  1  0.91295000  0.16502000  0.01374000  1.0
  C  C160  1  0.75650000  0.08644000  0.07809000  1.0
  C  C161  1  0.23100000  0.99182000  0.89402000  1.0
  C  C162  1  0.69720000  0.93691000  0.38884000  1.0
  C  C163  1  0.83912000  0.97932000  0.44549000  1.0
  C  C164  1  0.81378000  0.03340000  0.39049000  1.0
  C  C165  1  0.44889000  0.93782000  0.62854000  1.0
  C  C166  1  0.68029000  0.88114000  0.55586000  1.0
  C  C167  1  0.73833000  0.86949000  0.48787000  1.0
  C  C168  1  0.34483000  0.88286000  0.46174000  1.0
  C  C169  1  0.25530000  0.86574000  0.41786000  1.0
  C  C170  1  0.25093000  0.90451000  0.36180000  1.0
  C  C171  1  0.16942000  0.88804000  0.32112000  1.0
  C  C172  1  0.08795000  0.83261000  0.33664000  1.0
  C  C173  1  0.08999000  0.79367000  0.39245000  1.0
  C  C174  1  0.17429000  0.81034000  0.43234000  1.0
  C  C175  1  0.93612000  0.75948000  0.30644000  1.0
  C  C176  1  0.74692000  0.82059000  0.24199000  1.0
  C  C177  1  0.55488000  0.85215000  0.17896000  1.0
  C  C178  1  0.49761000  0.82645000  0.13351000  1.0
  C  C179  1  0.37721000  0.87100000  0.11126000  1.0
  C  C180  1  0.30898000  0.94148000  0.13404000  1.0
  C  C181  1  0.36505000  0.96585000  0.18049000  1.0
  C  C182  1  0.48812000  0.92189000  0.20322000  1.0
  C  C183  1  0.18041000  0.98871000  0.10731000  1.0
  C  C184  1  0.12238000  0.38048000  0.58079000  1.0
  C  C185  1  0.33041000  0.35603000  0.50356000  1.0
  C  C186  1  0.31499000  0.43263000  0.53014000  1.0
  C  C187  1  0.08737000  0.33471000  0.48632000  1.0
  C  C188  1  0.91750000  0.41206000  0.42154000  1.0
  C  C189  1  0.11907000  0.50981000  0.60646000  1.0
  C  C190  1  0.02564000  0.56031000  0.11240000  1.0
  C  C191  1  0.26000000  0.52142000  0.05257000  1.0
  C  C192  1  0.24192000  0.46818000  0.10878000  1.0
  C  C193  1  0.00462000  0.56570000  0.87450000  1.0
  C  C194  1  0.10457000  0.62253000  0.94817000  1.0
  C  C195  1  0.08640000  0.63197000  0.01590000  1.0
  C  C196  1  0.67580000  0.61876000  0.04378000  1.0
  C  C197  1  0.52574000  0.63841000  0.08579000  1.0
  C  C198  1  0.50323000  0.60102000  0.14243000  1.0
  C  C199  1  0.36642000  0.61741000  0.18222000  1.0
  C  C200  1  0.24777000  0.67168000  0.16522000  1.0
  C  C201  1  0.26763000  0.70961000  0.10900000  1.0
  C  C202  1  0.40684000  0.69275000  0.06983000  1.0
  C  C203  1  0.99693000  0.74393000  0.19413000  1.0
  C  C204  1  0.80413000  0.68281000  0.25868000  1.0
  C  C205  1  0.58296000  0.65076000  0.32197000  1.0
  C  C206  1  0.45724000  0.67637000  0.36696000  1.0
  C  C207  1  0.35870000  0.63124000  0.38923000  1.0
  C  C208  1  0.38070000  0.56032000  0.36689000  1.0
  C  C209  1  0.50494000  0.53605000  0.32091000  1.0
  C  C210  1  0.60712000  0.58056000  0.29822000  1.0
  C  C211  1  0.27230000  0.51248000  0.39346000  1.0
  C  C212  1  0.91604000  0.87961000  0.08041000  1.0
  C  C213  1  0.80792000  0.85391000  0.00253000  1.0
  C  C214  1  0.72334000  0.93030000  0.02889000  1.0
  C  C215  1  0.08703000  0.83497000  0.98626000  1.0
  C  C216  1  0.24349000  0.91356000  0.92191000  1.0
  C  C217  1  0.76902000  0.00816000  0.10597000  1.0
  C  C218  1  0.30281000  0.06308000  0.61117000  1.0
  C  C219  1  0.16087000  0.02068000  0.55452000  1.0
  C  C220  1  0.18622000  0.96660000  0.60952000  1.0
  C  C221  1  0.55111000  0.06217000  0.37147000  1.0
  C  C222  1  0.31971000  0.11886000  0.44414000  1.0
  C  C223  1  0.26169000  0.13050000  0.51213000  1.0
  C  C224  1  0.65515000  0.11714000  0.53827000  1.0
  C  C225  1  0.74469000  0.13426000  0.58215000  1.0
  C  C226  1  0.74906000  0.09550000  0.63821000  1.0
  C  C227  1  0.83059000  0.11196000  0.67888000  1.0
  C  C228  1  0.91204000  0.16740000  0.66336000  1.0
  C  C229  1  0.91001000  0.20633000  0.60755000  1.0
  C  C230  1  0.82571000  0.18966000  0.56766000  1.0
  C  C231  1  0.06388000  0.24053000  0.69355000  1.0
  C  C232  1  0.25307000  0.17942000  0.75801000  1.0
  C  C233  1  0.44511000  0.14785000  0.82104000  1.0
  C  C234  1  0.50237000  0.17356000  0.86649000  1.0
  C  C235  1  0.62278000  0.12900000  0.88874000  1.0
  C  C236  1  0.69101000  0.05852000  0.86596000  1.0
  C  C237  1  0.63492000  0.03416000  0.81951000  1.0
  C  C238  1  0.51187000  0.07811000  0.79678000  1.0
  C  C239  1  0.81957000  0.01129000  0.89269000  1.0
  C  C240  1  0.87760000  0.61953000  0.41921000  1.0
  C  C241  1  0.66957000  0.64397000  0.49645000  1.0
  C  C242  1  0.68502000  0.56736000  0.46986000  1.0
  C  C243  1  0.91263000  0.66529000  0.51368000  1.0
  C  C244  1  0.08250000  0.58794000  0.57846000  1.0
  C  C245  1  0.88093000  0.49019000  0.39354000  1.0
  C  C246  1  0.97440000  0.43969000  0.88759000  1.0
  C  C247  1  0.74002000  0.47858000  0.94743000  1.0
  C  C248  1  0.75810000  0.53182000  0.89122000  1.0
  C  C249  1  0.99539000  0.43430000  0.12550000  1.0
  C  C250  1  0.89545000  0.37747000  0.05183000  1.0
  C  C251  1  0.91361000  0.36804000  0.98410000  1.0
  C  C252  1  0.32422000  0.38123000  0.95622000  1.0
  C  C253  1  0.47427000  0.36160000  0.91421000  1.0
  C  C254  1  0.49679000  0.39899000  0.85758000  1.0
  C  C255  1  0.63358000  0.38261000  0.81779000  1.0
  C  C256  1  0.75223000  0.32834000  0.83478000  1.0
  C  C257  1  0.73237000  0.29039000  0.89099000  1.0
  C  C258  1  0.59319000  0.30724000  0.93016000  1.0
  C  C259  1  0.00307000  0.25607000  0.80587000  1.0
  C  C260  1  0.19587000  0.31720000  0.74132000  1.0
  C  C261  1  0.41704000  0.34924000  0.67803000  1.0
  C  C262  1  0.54275000  0.32363000  0.63304000  1.0
  C  C263  1  0.64129000  0.36876000  0.61077000  1.0
  C  C264  1  0.61930000  0.43968000  0.63311000  1.0
  C  C265  1  0.49508000  0.46394000  0.67909000  1.0
  C  C266  1  0.39289000  0.41944000  0.70178000  1.0
  C  C267  1  0.72771000  0.48752000  0.60654000  1.0
  C  C268  1  0.87130000  0.75176000  0.25025000  1.0
  C  C269  1  0.12869000  0.24825000  0.74975000  1.0
  N  N270  1  0.51883000  0.91671000  0.56521000  1.0
  N  N271  1  0.71340000  0.94065000  0.45333000  1.0
  N  N272  1  0.69733000  0.01088000  0.36394000  1.0
  N  N273  1  0.16528000  0.04731000  0.94124000  1.0
  N  N274  1  0.90808000  0.09440000  0.04822000  1.0
  N  N275  1  0.05209000  0.16719000  0.97133000  1.0
  N  N276  1  0.99100000  0.58271000  0.93935000  1.0
  N  N277  1  0.10164000  0.55824000  0.04703000  1.0
  N  N278  1  0.07933000  0.48683000  0.13631000  1.0
  N  N279  1  0.15352000  0.45402000  0.55929000  1.0
  N  N280  1  0.04707000  0.40525000  0.45189000  1.0
  N  N281  1  0.18655000  0.33370000  0.52922000  1.0
  N  N282  1  0.48117000  0.08328000  0.43480000  1.0
  N  N283  1  0.28661000  0.05934000  0.54667000  1.0
  N  N284  1  0.30267000  0.98912000  0.63606000  1.0
  N  N285  1  0.83471000  0.95268000  0.05875000  1.0
  N  N286  1  0.09192000  0.90559000  0.95178000  1.0
  N  N287  1  0.94788000  0.83281000  0.02867000  1.0
  N  N288  1  0.00901000  0.41729000  0.06065000  1.0
  N  N289  1  0.89838000  0.44176000  0.95297000  1.0
  N  N290  1  0.92068000  0.51318000  0.86369000  1.0
  N  N291  1  0.84648000  0.54598000  0.44071000  1.0
  N  N292  1  0.95292000  0.59476000  0.54811000  1.0
  N  N293  1  0.81344000  0.66630000  0.47079000  1.0
  O  O294  1  0.38928000  0.94382000  0.45037000  1.0
  O  O295  1  0.36904000  0.83790000  0.50570000  1.0
  O  O296  1  0.00714000  0.82098000  0.29497000  1.0
  O  O297  1  0.67927000  0.80460000  0.19413000  1.0
  O  O298  1  0.11169000  0.05002000  0.13019000  1.0
  O  O299  1  0.15196000  0.96098000  0.06106000  1.0
  O  O300  1  0.76480000  0.55952000  0.05839000  1.0
  O  O301  1  0.70335000  0.66062000  0.99753000  1.0
  O  O302  1  0.11510000  0.68296000  0.20616000  1.0
  O  O303  1  0.67595000  0.69879000  0.30652000  1.0
  O  O304  1  0.28524000  0.45081000  0.37070000  1.0
  O  O305  1  0.17251000  0.54001000  0.43936000  1.0
  O  O306  1  0.61073000  0.05618000  0.54963000  1.0
  O  O307  1  0.63092000  0.16211000  0.49431000  1.0
  O  O308  1  0.99285000  0.17903000  0.70503000  1.0
  O  O309  1  0.32073000  0.19540000  0.80587000  1.0
  O  O310  1  0.88829000  0.94997000  0.86981000  1.0
  O  O311  1  0.84803000  0.03901000  0.93894000  1.0
  O  O312  1  0.23520000  0.44047000  0.94162000  1.0
  O  O313  1  0.29668000  0.33938000  0.00248000  1.0
  O  O314  1  0.88491000  0.31705000  0.79383000  1.0
  O  O315  1  0.32405000  0.30122000  0.69347000  1.0
  O  O316  1  0.71476000  0.54919000  0.62931000  1.0
  O  O317  1  0.82750000  0.45999000  0.56063000  1.0
