# generated using pymatgen
data_CdH6C6(SN5)2
_symmetry_space_group_name_H-M   'P 1'
_cell_length_a   5.53708000
_cell_length_b   9.97338000
_cell_length_c   10.95610000
_cell_angle_alpha   101.89100000
_cell_angle_beta   89.99960000
_cell_angle_gamma   89.99970000
_symmetry_Int_Tables_number   1
_chemical_formula_structural   CdH6C6(SN5)2
_chemical_formula_sum   'Cd2 H12 C12 S4 N20'
_cell_volume   592.04993893
_cell_formula_units_Z   2
loop_
 _symmetry_equiv_pos_site_id
 _symmetry_equiv_pos_as_xyz
  1  'x, y, z'
loop_
 _atom_site_type_symbol
 _atom_site_label
 _atom_site_symmetry_multiplicity
 _atom_site_fract_x
 _atom_site_fract_y
 _atom_site_fract_z
 _atom_site_occupancy
  Cd  Cd0  1  0.49999000  0.50000000  0.50000000  1.0
  Cd  Cd1  1  0.00000000  0.99999000  0.00000000  1.0
  H  H2  1  0.97942000  0.54304000  0.28370000  1.0
  H  H3  1  0.47944000  0.95695000  0.21629000  1.0
  H  H4  1  0.02056000  0.45696000  0.71629000  1.0
  H  H5  1  0.52057000  0.04305000  0.78371000  1.0
  H  H6  1  0.14080000  0.61757000  0.95838000  1.0
  H  H7  1  0.64083000  0.88244000  0.54163000  1.0
  H  H8  1  0.85919000  0.38242000  0.04162000  1.0
  H  H9  1  0.35920000  0.11758000  0.45838000  1.0
  H  H10  1  0.88572000  0.63969000  0.05871000  1.0
  H  H11  1  0.38575000  0.86032000  0.44130000  1.0
  H  H12  1  0.11426000  0.36031000  0.94129000  1.0
  H  H13  1  0.61429000  0.13970000  0.55871000  1.0
  C  C14  1  0.15783000  0.55962000  0.24838000  1.0
  C  C15  1  0.65786000  0.94037000  0.25162000  1.0
  C  C16  1  0.84214000  0.44037000  0.75161000  1.0
  C  C17  1  0.34217000  0.05963000  0.74839000  1.0
  C  C18  1  0.04107000  0.57370000  0.02702000  1.0
  C  C19  1  0.54112000  0.92631000  0.47298000  1.0
  C  C20  1  0.95891000  0.42630000  0.97297000  1.0
  C  C21  1  0.45892000  0.07371000  0.52703000  1.0
  C  C22  1  0.00107000  0.33075000  0.43064000  1.0
  C  C23  1  0.50106000  0.16924000  0.06936000  1.0
  C  C24  1  0.99892000  0.66925000  0.56936000  1.0
  C  C25  1  0.49893000  0.83075000  0.93063000  1.0
  S  S26  1  0.75552000  0.29344000  0.34919000  1.0
  S  S27  1  0.25552000  0.20654000  0.15082000  1.0
  S  S28  1  0.24444000  0.70655000  0.65081000  1.0
  S  S29  1  0.74448000  0.79345000  0.84918000  1.0
  N  N30  1  0.36566000  0.56921000  0.31006000  1.0
  N  N31  1  0.86568000  0.93078000  0.18994000  1.0
  N  N32  1  0.63432000  0.43079000  0.68994000  1.0
  N  N33  1  0.13433000  0.06921000  0.81006000  1.0
  N  N34  1  0.53989000  0.59291000  0.22895000  1.0
  N  N35  1  0.03991000  0.90709000  0.27105000  1.0
  N  N36  1  0.46009000  0.40709000  0.77105000  1.0
  N  N37  1  0.96010000  0.09291000  0.72895000  1.0
  N  N38  1  0.44500000  0.59815000  0.12197000  1.0
  N  N39  1  0.94502000  0.90185000  0.37803000  1.0
  N  N40  1  0.55499000  0.40185000  0.87802000  1.0
  N  N41  1  0.05500000  0.09816000  0.62197000  1.0
  N  N42  1  0.20435000  0.57736000  0.13216000  1.0
  N  N43  1  0.70438000  0.92264000  0.36783000  1.0
  N  N44  1  0.79564000  0.42263000  0.86784000  1.0
  N  N45  1  0.29565000  0.07737000  0.63216000  1.0
  N  N46  1  0.17968000  0.35734000  0.49044000  1.0
  N  N47  1  0.67969000  0.14266000  0.00959000  1.0
  N  N48  1  0.82031000  0.64266000  0.50958000  1.0
  N  N49  1  0.32032000  0.85733000  0.99043000  1.0
