# generated using pymatgen
data_Ba2H10C12O13
_symmetry_space_group_name_H-M   'P 1'
_cell_length_a   9.12342000
_cell_length_b   9.55725817
_cell_length_c   10.10780000
_cell_angle_alpha   76.03738114
_cell_angle_beta   89.99380000
_cell_angle_gamma   61.50267335
_symmetry_Int_Tables_number   1
_chemical_formula_structural   Ba2H10C12O13
_chemical_formula_sum   'Ba4 H20 C24 O26'
_cell_volume   744.81151117
_cell_formula_units_Z   2
loop_
 _symmetry_equiv_pos_site_id
 _symmetry_equiv_pos_as_xyz
  1  'x, y, z'
loop_
 _atom_site_type_symbol
 _atom_site_label
 _atom_site_symmetry_multiplicity
 _atom_site_fract_x
 _atom_site_fract_y
 _atom_site_fract_z
 _atom_site_occupancy
  Ba  Ba0  1  0.80204000  0.77448000  0.49923000  1.0
  Ba  Ba1  1  0.57642000  0.22549000  0.00083000  1.0
  Ba  Ba2  1  0.19796000  0.22552000  0.50077000  1.0
  Ba  Ba3  1  0.42358000  0.77451000  0.99917000  1.0
  H  H4  1  0.95962000  0.14187000  0.86692000  1.0
  H  H5  1  0.10153000  0.85822000  0.63313000  1.0
  H  H6  1  0.04038000  0.85813000  0.13307000  1.0
  H  H7  1  0.89847000  0.14178000  0.36687000  1.0
  H  H8  1  0.49018000  0.08278000  0.27230000  1.0
  H  H9  1  0.57305000  0.91702000  0.22782000  1.0
  H  H10  1  0.50982000  0.91722000  0.72770000  1.0
  H  H11  1  0.42695000  0.08298000  0.77218000  1.0
  H  H12  1  0.35043000  0.41962000  0.47211000  1.0
  H  H13  1  0.77009000  0.58065000  0.02777000  1.0
  H  H14  1  0.64957000  0.58038000  0.52789000  1.0
  H  H15  1  0.22991000  0.41935000  0.97223000  1.0
  H  H16  1  0.69270000  0.37889000  0.40697000  1.0
  H  H17  1  0.07181000  0.62102000  0.09313000  1.0
  H  H18  1  0.30731000  0.62111000  0.59303000  1.0
  H  H19  1  0.92819000  0.37898000  0.90687000  1.0
  H  H20  1  0.54744000  0.32967000  0.67660000  1.0
  H  H21  1  0.87732000  0.67035000  0.82352000  1.0
  H  H22  1  0.45256000  0.67033000  0.32340000  1.0
  H  H23  1  0.12268000  0.32964000  0.17648000  1.0
  C  C24  1  0.40860000  0.40973000  0.26654000  1.0
  C  C25  1  0.81823000  0.59030000  0.23342000  1.0
  C  C26  1  0.59141000  0.59027000  0.73346000  1.0
  C  C27  1  0.18177000  0.40970000  0.76658000  1.0
  C  C28  1  0.67229000  0.15927000  0.48336000  1.0
  C  C29  1  0.83188000  0.84071000  0.01663000  1.0
  C  C30  1  0.32771000  0.84073000  0.51664000  1.0
  C  C31  1  0.16812000  0.15929000  0.98337000  1.0
  C  C32  1  0.80990000  0.26342000  0.68401000  1.0
  C  C33  1  0.07359000  0.73650000  0.81603000  1.0
  C  C34  1  0.19011000  0.73658000  0.31599000  1.0
  C  C35  1  0.92641000  0.26350000  0.18397000  1.0
  C  C36  1  0.42847000  0.45089000  0.40131000  1.0
  C  C37  1  0.87937000  0.54920000  0.09865000  1.0
  C  C38  1  0.57153000  0.54911000  0.59869000  1.0
  C  C39  1  0.12063000  0.45080000  0.90135000  1.0
  C  C40  1  0.61296000  0.34140000  0.47035000  1.0
  C  C41  1  0.95461000  0.65856000  0.02971000  1.0
  C  C42  1  0.38704000  0.65860000  0.52965000  1.0
  C  C43  1  0.04539000  0.34144000  0.97029000  1.0
  C  C44  1  0.62890000  0.36536000  0.61415000  1.0
  C  C45  1  0.99448000  0.63457000  0.88591000  1.0
  C  C46  1  0.37111000  0.63464000  0.38585000  1.0
  C  C47  1  0.00552000  0.36543000  0.11409000  1.0
  O  O48  1  0.45746000  0.46769000  0.16028000  1.0
  O  O49  1  0.92492000  0.53222000  0.33978000  1.0
  O  O50  1  0.54254000  0.53231000  0.83972000  1.0
  O  O51  1  0.07508000  0.46778000  0.66022000  1.0
  O  O52  1  0.35006000  0.31092000  0.27197000  1.0
  O  O53  1  0.66094000  0.68916000  0.22792000  1.0
  O  O54  1  0.64994000  0.68908000  0.72803000  1.0
  O  O55  1  0.33906000  0.31084000  0.77208000  1.0
  O  O56  1  0.58927000  0.09444000  0.54347000  1.0
  O  O57  1  0.68412000  0.90548000  0.95642000  1.0
  O  O58  1  0.41073000  0.90556000  0.45653000  1.0
  O  O59  1  0.31588000  0.09452000  0.04358000  1.0
  O  O60  1  0.80664000  0.07613000  0.43296000  1.0
  O  O61  1  0.88300000  0.92389000  0.06707000  1.0
  O  O62  1  0.19336000  0.92387000  0.56704000  1.0
  O  O63  1  0.11700000  0.07611000  0.93293000  1.0
  O  O64  1  0.82893000  0.19386000  0.81697000  1.0
  O  O65  1  0.02277000  0.80639000  0.68313000  1.0
  O  O66  1  0.17107000  0.80614000  0.18303000  1.0
  O  O67  1  0.97723000  0.19361000  0.31687000  1.0
  O  O68  1  0.92783000  0.25458000  0.61975000  1.0
  O  O69  1  0.18285000  0.74516000  0.88021000  1.0
  O  O70  1  0.07217000  0.74542000  0.38024000  1.0
  O  O71  1  0.81715000  0.25484000  0.11979000  1.0
  O  O72  1  0.59622000  0.99995000  0.25000000  1.0
  O  O73  1  0.40377000  0.00006000  0.75000000  1.0
