# generated using pymatgen
data_MoH9C13SN(O2F3)2
_symmetry_space_group_name_H-M   'P 1'
_cell_length_a   13.18702581
_cell_length_b   13.19540000
_cell_length_c   14.81091226
_cell_angle_alpha   74.66803037
_cell_angle_beta   63.59181273
_cell_angle_gamma   60.03904941
_symmetry_Int_Tables_number   1
_chemical_formula_structural   MoH9C13SN(O2F3)2
_chemical_formula_sum   'Mo4 H36 C52 S4 N4 O16 F24'
_cell_volume   1996.84364862
_cell_formula_units_Z   4
loop_
 _symmetry_equiv_pos_site_id
 _symmetry_equiv_pos_as_xyz
  1  'x, y, z'
loop_
 _atom_site_type_symbol
 _atom_site_label
 _atom_site_symmetry_multiplicity
 _atom_site_fract_x
 _atom_site_fract_y
 _atom_site_fract_z
 _atom_site_occupancy
  Mo  Mo0  1  0.54986000  0.55279000  0.47459000  1.0
  Mo  Mo1  1  0.57725000  0.94716000  0.02537000  1.0
  Mo  Mo2  1  0.45013000  0.44723000  0.52539000  1.0
  Mo  Mo3  1  0.42273000  0.05285000  0.97464000  1.0
  H  H4  1  0.93413000  0.85757000  0.45948000  1.0
  H  H5  1  0.25110000  0.64246000  0.04034000  1.0
  H  H6  1  0.06588000  0.14243000  0.54051000  1.0
  H  H7  1  0.74891000  0.35754000  0.95966000  1.0
  H  H8  1  0.84057000  0.87755000  0.39361000  1.0
  H  H9  1  0.11173000  0.62237000  0.10618000  1.0
  H  H10  1  0.15943000  0.12245000  0.60639000  1.0
  H  H11  1  0.88828000  0.37763000  0.89382000  1.0
  H  H12  1  0.98714000  0.88312000  0.32650000  1.0
  H  H13  1  0.19680000  0.61676000  0.17334000  1.0
  H  H14  1  0.01286000  0.11688000  0.67350000  1.0
  H  H15  1  0.80321000  0.38323000  0.82666000  1.0
  H  H16  1  0.95254000  0.43247000  0.33679000  1.0
  H  H17  1  0.72208000  0.06716000  0.16271000  1.0
  H  H18  1  0.04747000  0.56752000  0.66321000  1.0
  H  H19  1  0.27791000  0.93284000  0.83730000  1.0
  H  H20  1  0.11740000  0.34682000  0.30265000  1.0
  H  H21  1  0.76685000  0.15307000  0.19693000  1.0
  H  H22  1  0.88261000  0.65317000  0.69735000  1.0
  H  H23  1  0.23315000  0.84692000  0.80308000  1.0
  H  H24  1  0.05770000  0.45794000  0.21706000  1.0
  H  H25  1  0.73268000  0.04194000  0.28252000  1.0
  H  H26  1  0.94232000  0.54206000  0.78293000  1.0
  H  H27  1  0.26731000  0.95806000  0.71749000  1.0
  H  H28  1  0.19664000  0.30626000  0.41766000  1.0
  H  H29  1  0.92067000  0.19361000  0.08239000  1.0
  H  H30  1  0.80338000  0.69374000  0.58233000  1.0
  H  H31  1  0.07932000  0.80639000  0.91763000  1.0
  H  H32  1  0.23865000  0.37002000  0.47849000  1.0
  H  H33  1  0.08722000  0.12997000  0.02158000  1.0
  H  H34  1  0.76137000  0.62998000  0.52150000  1.0
  H  H35  1  0.91278000  0.87003000  0.97843000  1.0
  H  H36  1  0.31958000  0.35050000  0.34758000  1.0
  H  H37  1  0.01770000  0.14930000  0.15255000  1.0
  H  H38  1  0.68043000  0.64950000  0.65242000  1.0
  H  H39  1  0.98229000  0.85069000  0.84747000  1.0
  C  C40  1  0.00055000  0.70985000  0.37773000  1.0
  C  C41  1  0.08820000  0.79005000  0.12213000  1.0
  C  C42  1  0.99947000  0.29014000  0.62226000  1.0
  C  C43  1  0.91180000  0.20995000  0.87787000  1.0
  C  C44  1  0.97733000  0.64727000  0.33301000  1.0
  C  C45  1  0.95774000  0.85260000  0.16673000  1.0
  C  C46  1  0.02268000  0.35273000  0.66699000  1.0
  C  C47  1  0.04225000  0.14740000  0.83328000  1.0
  C  C48  1  0.05101000  0.52174000  0.34062000  1.0
  C  C49  1  0.91348000  0.97811000  0.15918000  1.0
  C  C50  1  0.94901000  0.47825000  0.65937000  1.0
  C  C51  1  0.08652000  0.02189000  0.84082000  1.0
  C  C52  1  0.13149000  0.49187000  0.38882000  1.0
  C  C53  1  0.01224000  0.00803000  0.11109000  1.0
  C  C54  1  0.86851000  0.50814000  0.61118000  1.0
  C  C55  1  0.98776000  0.99197000  0.88891000  1.0
  C  C56  1  0.88413000  0.70331000  0.28543000  1.0
  C  C57  1  0.87308000  0.79655000  0.21425000  1.0
  C  C58  1  0.11587000  0.29669000  0.71457000  1.0
  C  C59  1  0.12693000  0.20344000  0.78575000  1.0
  C  C60  1  0.79042000  0.66245000  0.32283000  1.0
  C  C61  1  0.77577000  0.83752000  0.17696000  1.0
  C  C62  1  0.20959000  0.33754000  0.67717000  1.0
  C  C63  1  0.22423000  0.16248000  0.82304000  1.0
  C  C64  1  0.93774000  0.83831000  0.39021000  1.0
  C  C65  1  0.16626000  0.66162000  0.10962000  1.0
  C  C66  1  0.06226000  0.16169000  0.60979000  1.0
  C  C67  1  0.83375000  0.33838000  0.89038000  1.0
  C  C68  1  0.04407000  0.43562000  0.29737000  1.0
  C  C69  1  0.77717000  0.06419000  0.20224000  1.0
  C  C70  1  0.95594000  0.56438000  0.70263000  1.0
  C  C71  1  0.22282000  0.93581000  0.79777000  1.0
  C  C72  1  0.22660000  0.37348000  0.40896000  1.0
  C  C73  1  0.00915000  0.12641000  0.09105000  1.0
  C  C74  1  0.77342000  0.62652000  0.59103000  1.0
  C  C75  1  0.99085000  0.87359000  0.90896000  1.0
  C  C76  1  0.51149000  0.47137000  0.68313000  1.0
  C  C77  1  0.66576000  0.02920000  0.81700000  1.0
  C  C78  1  0.48850000  0.52864000  0.31685000  1.0
  C  C79  1  0.33424000  0.97080000  0.18301000  1.0
  C  C80  1  0.51182000  0.45617000  0.78954000  1.0
  C  C81  1  0.75739000  0.04428000  0.71062000  1.0
  C  C82  1  0.48818000  0.54382000  0.21044000  1.0
  C  C83  1  0.24263000  0.95571000  0.28939000  1.0
  C  C84  1  0.28054000  0.69554000  0.55816000  1.0
  C  C85  1  0.53409000  0.80454000  0.94164000  1.0
  C  C86  1  0.71946000  0.30447000  0.44184000  1.0
  C  C87  1  0.46592000  0.19546000  0.05836000  1.0
  C  C88  1  0.15327000  0.80430000  0.59306000  1.0
  C  C89  1  0.55021000  0.69587000  0.90674000  1.0
  C  C90  1  0.84672000  0.19571000  0.40695000  1.0
  C  C91  1  0.44979000  0.30414000  0.09326000  1.0
  S  S92  1  0.11384000  0.61513000  0.42650000  1.0
  S  S93  1  0.15549000  0.88479000  0.07347000  1.0
  S  S94  1  0.88617000  0.38487000  0.57350000  1.0
  S  S95  1  0.84450000  0.11521000  0.92654000  1.0
  N  N96  1  0.70956000  0.63325000  0.36190000  1.0
  N  N97  1  0.70458000  0.86692000  0.13804000  1.0
  N  N98  1  0.29044000  0.36674000  0.63809000  1.0
  N  N99  1  0.29542000  0.13307000  0.86196000  1.0
  O  O100  1  0.56096000  0.53433000  0.61587000  1.0
  O  O101  1  0.71094000  0.96609000  0.88423000  1.0
  O  O102  1  0.43904000  0.46567000  0.38411000  1.0
  O  O103  1  0.28906000  0.03391000  0.11578000  1.0
  O  O104  1  0.45755000  0.42251000  0.66970000  1.0
  O  O105  1  0.54958000  0.07801000  0.83037000  1.0
  O  O106  1  0.54243000  0.57751000  0.33028000  1.0
  O  O107  1  0.45042000  0.92200000  0.16963000  1.0
  O  O108  1  0.38198000  0.70771000  0.51897000  1.0
  O  O109  1  0.60863000  0.79226000  0.98079000  1.0
  O  O110  1  0.61802000  0.29230000  0.48102000  1.0
  O  O111  1  0.39136000  0.20774000  0.01922000  1.0
  O  O112  1  0.27602000  0.59838000  0.57099000  1.0
  O  O113  1  0.44529000  0.90175000  0.92889000  1.0
  O  O114  1  0.72397000  0.40163000  0.42900000  1.0
  O  O115  1  0.55470000  0.09825000  0.07112000  1.0
  F  F116  1  0.60415000  0.47476000  0.78912000  1.0
  F  F117  1  0.86772000  0.02585000  0.71121000  1.0
  F  F118  1  0.39586000  0.52521000  0.21085000  1.0
  F  F119  1  0.13229000  0.97412000  0.28881000  1.0
  F  F120  1  0.39871000  0.53494000  0.85098000  1.0
  F  F121  1  0.78458000  0.96528000  0.64931000  1.0
  F  F122  1  0.60129000  0.46506000  0.14900000  1.0
  F  F123  1  0.21542000  0.03474000  0.35068000  1.0
  F  F124  1  0.52757000  0.34723000  0.83107000  1.0
  F  F125  1  0.70591000  0.15311000  0.66883000  1.0
  F  F126  1  0.47240000  0.65277000  0.16892000  1.0
  F  F127  1  0.29411000  0.84691000  0.33119000  1.0
  F  F128  1  0.07434000  0.77968000  0.68360000  1.0
  F  F129  1  0.53642000  0.72071000  0.81647000  1.0
  F  F130  1  0.92565000  0.22032000  0.31641000  1.0
  F  F131  1  0.46360000  0.27929000  0.18352000  1.0
  F  F132  1  0.16708000  0.89520000  0.60299000  1.0
  F  F133  1  0.66498000  0.60501000  0.89629000  1.0
  F  F134  1  0.83290000  0.10481000  0.39703000  1.0
  F  F135  1  0.33501000  0.39499000  0.10372000  1.0
  F  F136  1  0.09529000  0.83955000  0.52599000  1.0
  F  F137  1  0.46074000  0.66040000  0.97414000  1.0
  F  F138  1  0.90469000  0.16046000  0.47403000  1.0
  F  F139  1  0.53925000  0.33960000  0.02586000  1.0
