# generated using pymatgen
data_H14PbC13(NCl)2
_symmetry_space_group_name_H-M   'P 1'
_cell_length_a   4.27419000
_cell_length_b   10.66090000
_cell_length_c   15.50500000
_cell_angle_alpha   90.00340000
_cell_angle_beta   90.00240000
_cell_angle_gamma   82.89930000
_symmetry_Int_Tables_number   1
_chemical_formula_structural   H14PbC13(NCl)2
_chemical_formula_sum   'H28 Pb2 C26 N4 Cl4'
_cell_volume   701.09322669
_cell_formula_units_Z   2
loop_
 _symmetry_equiv_pos_site_id
 _symmetry_equiv_pos_as_xyz
  1  'x, y, z'
loop_
 _atom_site_type_symbol
 _atom_site_label
 _atom_site_symmetry_multiplicity
 _atom_site_fract_x
 _atom_site_fract_y
 _atom_site_fract_z
 _atom_site_occupancy
  H  H0  1  0.33438000  0.95339000  0.42268000  1.0
  H  H1  1  0.66583000  0.04667000  0.92265000  1.0
  H  H2  1  0.66572000  0.04666000  0.57732000  1.0
  H  H3  1  0.33450000  0.95342000  0.07729000  1.0
  H  H4  1  0.64488000  0.55515000  0.57691000  1.0
  H  H5  1  0.35511000  0.44486000  0.07697000  1.0
  H  H6  1  0.35525000  0.44491000  0.42309000  1.0
  H  H7  1  0.64473000  0.55511000  0.92308000  1.0
  H  H8  1  0.12223000  0.90816000  0.56933000  1.0
  H  H9  1  0.87778000  0.09185000  0.06933000  1.0
  H  H10  1  0.87774000  0.09186000  0.43066000  1.0
  H  H11  1  0.12227000  0.90816000  0.93065000  1.0
  H  H12  1  0.00450000  0.73738000  0.32739000  1.0
  H  H13  1  0.99557000  0.26266000  0.82739000  1.0
  H  H14  1  0.99555000  0.26265000  0.67260000  1.0
  H  H15  1  0.00453000  0.73737000  0.17261000  1.0
  H  H16  1  0.82180000  0.89627000  0.32834000  1.0
  H  H17  1  0.17826000  0.10377000  0.82833000  1.0
  H  H18  1  0.17827000  0.10376000  0.67165000  1.0
  H  H19  1  0.82188000  0.89627000  0.17167000  1.0
  H  H20  1  0.86586000  0.58284000  0.42906000  1.0
  H  H21  1  0.13412000  0.41718000  0.92910000  1.0
  H  H22  1  0.13413000  0.41720000  0.57092000  1.0
  H  H23  1  0.86579000  0.58282000  0.07093000  1.0
  H  H24  1  0.36076000  0.83287000  0.24998000  1.0
  H  H25  1  0.63932000  0.16717000  0.75000000  1.0
  H  H26  1  0.53518000  0.67197000  0.24998000  1.0
  H  H27  1  0.46490000  0.32806000  0.75000000  1.0
  Pb  Pb28  1  0.31040000  0.71556000  0.75003000  1.0
  Pb  Pb29  1  0.68812000  0.28404000  0.25006000  1.0
  C  C30  1  0.62241000  0.77196000  0.41451000  1.0
  C  C31  1  0.37765000  0.22808000  0.91451000  1.0
  C  C32  1  0.37764000  0.22809000  0.58549000  1.0
  C  C33  1  0.62247000  0.77197000  0.08547000  1.0
  C  C34  1  0.40490000  0.86301000  0.45446000  1.0
  C  C35  1  0.59523000  0.13703000  0.95445000  1.0
  C  C36  1  0.59518000  0.13703000  0.54554000  1.0
  C  C37  1  0.40498000  0.86303000  0.04552000  1.0
  C  C38  1  0.57668000  0.64108000  0.53964000  1.0
  C  C39  1  0.42329000  0.35894000  0.03967000  1.0
  C  C40  1  0.42341000  0.35898000  0.46037000  1.0
  C  C41  1  0.57661000  0.64105000  0.96035000  1.0
  C  C42  1  0.28762000  0.83853000  0.53561000  1.0
  C  C43  1  0.71239000  0.16150000  0.03562000  1.0
  C  C44  1  0.71242000  0.16151000  0.46439000  1.0
  C  C45  1  0.28765000  0.83853000  0.96437000  1.0
  C  C46  1  0.77592000  0.79687000  0.33045000  1.0
  C  C47  1  0.22414000  0.20317000  0.83046000  1.0
  C  C48  1  0.22412000  0.20316000  0.66954000  1.0
  C  C49  1  0.77597000  0.79688000  0.16953000  1.0
  C  C50  1  0.70138000  0.65738000  0.45815000  1.0
  C  C51  1  0.29865000  0.34265000  0.95818000  1.0
  C  C52  1  0.29867000  0.34267000  0.54185000  1.0
  C  C53  1  0.70135000  0.65737000  0.04184000  1.0
  C  C54  1  0.58546000  0.77077000  0.24999000  1.0
  C  C55  1  0.41461000  0.22927000  0.75000000  1.0
  N  N56  1  0.37447000  0.73009000  0.57840000  1.0
  N  N57  1  0.62544000  0.26991000  0.07843000  1.0
  N  N58  1  0.62558000  0.26996000  0.42161000  1.0
  N  N59  1  0.37443000  0.73007000  0.92159000  1.0
  Cl  Cl60  1  0.77642000  0.90338000  0.74997000  1.0
  Cl  Cl61  1  0.22381000  0.09638000  0.24996000  1.0
  Cl  Cl62  1  0.88240000  0.52805000  0.75003000  1.0
  Cl  Cl63  1  0.11729000  0.47161000  0.25003000  1.0
