# generated using pymatgen
data_CdH15C20N11O6
_symmetry_space_group_name_H-M   'P 1'
_cell_length_a   12.38350000
_cell_length_b   14.74910000
_cell_length_c   17.22000000
_cell_angle_alpha   106.85300000
_cell_angle_beta   104.98700000
_cell_angle_gamma   90.72760000
_symmetry_Int_Tables_number   1
_chemical_formula_structural   CdH15C20N11O6
_chemical_formula_sum   'Cd4 H60 C80 N44 O24'
_cell_volume   2894.58311431
_cell_formula_units_Z   4
loop_
 _symmetry_equiv_pos_site_id
 _symmetry_equiv_pos_as_xyz
  1  'x, y, z'
loop_
 _atom_site_type_symbol
 _atom_site_label
 _atom_site_symmetry_multiplicity
 _atom_site_fract_x
 _atom_site_fract_y
 _atom_site_fract_z
 _atom_site_occupancy
  Cd  Cd0  1  0.89667000  0.26352000  0.26027000  1.0
  Cd  Cd1  1  0.10332000  0.73649000  0.73974000  1.0
  Cd  Cd2  1  0.58441000  0.79199000  0.66337000  1.0
  Cd  Cd3  1  0.41559000  0.20801000  0.33663000  1.0
  H  H4  1  0.72155000  0.97339000  0.74911000  1.0
  H  H5  1  0.27844000  0.02663000  0.25088000  1.0
  H  H6  1  0.61907000  0.97848000  0.67567000  1.0
  H  H7  1  0.38092000  0.02153000  0.32432000  1.0
  H  H8  1  0.71593000  0.10530000  0.60439000  1.0
  H  H9  1  0.28407000  0.89471000  0.39561000  1.0
  H  H10  1  0.87286000  0.19497000  0.58387000  1.0
  H  H11  1  0.12714000  0.80504000  0.41613000  1.0
  H  H12  1  0.85828000  0.05862000  0.15532000  1.0
  H  H13  1  0.14169000  0.94138000  0.84465000  1.0
  H  H14  1  0.75647000  0.11330000  0.12229000  1.0
  H  H15  1  0.24351000  0.88672000  0.87770000  1.0
  H  H16  1  0.74443000  0.73142000  0.27511000  1.0
  H  H17  1  0.25560000  0.26856000  0.72492000  1.0
  H  H18  1  0.88468000  0.82941000  0.24355000  1.0
  H  H19  1  0.11536000  0.17057000  0.75648000  1.0
  H  H20  1  0.46335000  0.44485000  0.70462000  1.0
  H  H21  1  0.53666000  0.55516000  0.29538000  1.0
  H  H22  1  0.91781000  0.64137000  0.37779000  1.0
  H  H23  1  0.08221000  0.35865000  0.62222000  1.0
  H  H24  1  0.93250000  0.52270000  0.31783000  1.0
  H  H25  1  0.06752000  0.47731000  0.68217000  1.0
  H  H26  1  0.79773000  0.56706000  0.30441000  1.0
  H  H27  1  0.20229000  0.43295000  0.69559000  1.0
  H  H28  1  0.63362000  0.74810000  0.13462000  1.0
  H  H29  1  0.36636000  0.25189000  0.86538000  1.0
  H  H30  1  0.57277000  0.35747000  0.79852000  1.0
  H  H31  1  0.42724000  0.64253000  0.20147000  1.0
  H  H32  1  0.51366000  0.83282000  0.04117000  1.0
  H  H33  1  0.48631000  0.16716000  0.95884000  1.0
  H  H34  1  0.76489000  0.72263000  0.89178000  1.0
  H  H35  1  0.23510000  0.27737000  0.10822000  1.0
  H  H36  1  0.77108000  0.59689000  0.87017000  1.0
  H  H37  1  0.22891000  0.40311000  0.12983000  1.0
  H  H38  1  0.87037000  0.66361000  0.84658000  1.0
  H  H39  1  0.12963000  0.33639000  0.15342000  1.0
  H  H40  1  0.80940000  0.66312000  0.47200000  1.0
  H  H41  1  0.19060000  0.33688000  0.52800000  1.0
  H  H42  1  0.70810000  0.56442000  0.44797000  1.0
  H  H43  1  0.29190000  0.43558000  0.55204000  1.0
  H  H44  1  0.83108000  0.58688000  0.53623000  1.0
  H  H45  1  0.16893000  0.41312000  0.46377000  1.0
  H  H46  1  0.89550000  0.34092000  0.48402000  1.0
  H  H47  1  0.10450000  0.65908000  0.51596000  1.0
  H  H48  1  0.88404000  0.45718000  0.54814000  1.0
  H  H49  1  0.11597000  0.54282000  0.45185000  1.0
  H  H50  1  0.76492000  0.39265000  0.46732000  1.0
  H  H51  1  0.23509000  0.60735000  0.53266000  1.0
  H  H52  1  0.62540000  0.48043000  0.57690000  1.0
  H  H53  1  0.37461000  0.51957000  0.42310000  1.0
  H  H54  1  0.54325000  0.56940000  0.62106000  1.0
  H  H55  1  0.45675000  0.43060000  0.37894000  1.0
  H  H56  1  0.65394000  0.60073000  0.58159000  1.0
  H  H57  1  0.34606000  0.39927000  0.41841000  1.0
  H  H58  1  0.76504000  0.43466000  0.66224000  1.0
  H  H59  1  0.23497000  0.56534000  0.33776000  1.0
  H  H60  1  0.86609000  0.53348000  0.68321000  1.0
  H  H61  1  0.13391000  0.46652000  0.31679000  1.0
  H  H62  1  0.83189000  0.50568000  0.76795000  1.0
  H  H63  1  0.16811000  0.49432000  0.23205000  1.0
  C  C64  1  0.97759000  0.13964000  0.46199000  1.0
  C  C65  1  0.02242000  0.86036000  0.53801000  1.0
  C  C66  1  0.51518000  0.62119000  0.89300000  1.0
  C  C67  1  0.48480000  0.37880000  0.10700000  1.0
  C  C68  1  0.57953000  0.57200000  0.94633000  1.0
  C  C69  1  0.42045000  0.42799000  0.05367000  1.0
  C  C70  1  0.76219000  0.93869000  0.43432000  1.0
  C  C71  1  0.23783000  0.06130000  0.56569000  1.0
  C  C72  1  0.84840000  0.99141000  0.42035000  1.0
  C  C73  1  0.15162000  0.00858000  0.57966000  1.0
  C  C74  1  0.35895000  0.77569000  0.73222000  1.0
  C  C75  1  0.64104000  0.22432000  0.26779000  1.0
  C  C76  1  0.71443000  0.98102000  0.50115000  1.0
  C  C77  1  0.28558000  0.01898000  0.49885000  1.0
  C  C78  1  0.88907000  0.08372000  0.47633000  1.0
  C  C79  1  0.11094000  0.91627000  0.52367000  1.0
  C  C80  1  0.72608000  0.84479000  0.38092000  1.0
  C  C81  1  0.27394000  0.15520000  0.61909000  1.0
  C  C82  1  0.62035000  0.92880000  0.51277000  1.0
  C  C83  1  0.37965000  0.07121000  0.48723000  1.0
  C  C84  1  0.88850000  0.95143000  0.34898000  1.0
  C  C85  1  0.11152000  0.04855000  0.65103000  1.0
  C  C86  1  0.79453000  0.43342000  0.09942000  1.0
  C  C87  1  0.20546000  0.56658000  0.90058000  1.0
  C  C88  1  0.41489000  0.62521000  0.74818000  1.0
  C  C89  1  0.58511000  0.37479000  0.25181000  1.0
  C  C90  1  0.49157000  0.78459000  0.46174000  1.0
  C  C91  1  0.50843000  0.21543000  0.53826000  1.0
  C  C92  1  0.66666667  0.42409000  0.96492000  1.0
  C  C93  1  0.33333333  0.57590000  0.03507000  1.0
  C  C94  1  0.08635000  0.15327000  0.36641000  1.0
  C  C95  1  0.91365000  0.84673000  0.63358000  1.0
  C  C96  1  0.49263000  0.71588000  0.92877000  1.0
  C  C97  1  0.50733000  0.28411000  0.07123000  1.0
  C  C98  1  0.42634000  0.76757000  0.87403000  1.0
  C  C99  1  0.57363000  0.23242000  0.12597000  1.0
  C  C100  1  0.75480000  0.07206000  0.55449000  1.0
  C  C101  1  0.24521000  0.92794000  0.44551000  1.0
  C  C102  1  0.63898000  0.78818000  0.39558000  1.0
  C  C103  1  0.36104000  0.21182000  0.60442000  1.0
  C  C104  1  0.69667000  0.57199000  0.08914000  1.0
  C  C105  1  0.30333000  0.42800000  0.91085000  1.0
  C  C106  1  0.84294000  0.12292000  0.54272000  1.0
  C  C107  1  0.15707000  0.87709000  0.45728000  1.0
  C  C108  1  0.59916000  0.47621000  0.91074000  1.0
  C  C109  1  0.40083000  0.52379000  0.08926000  1.0
  C  C110  1  0.96543000  0.00993000  0.32636000  1.0
  C  C111  1  0.03459000  0.99005000  0.67365000  1.0
  C  C112  1  0.47481000  0.57383000  0.80536000  1.0
  C  C113  1  0.52518000  0.42617000  0.19463000  1.0
  C  C114  1  0.62320000  0.61996000  0.03373000  1.0
  C  C115  1  0.37679000  0.38003000  0.96627000  1.0
  C  C116  1  0.77206000  0.80448000  0.31462000  1.0
  C  C117  1  0.22798000  0.19550000  0.68541000  1.0
  C  C118  1  0.85142000  0.85885000  0.29744000  1.0
  C  C119  1  0.14862000  0.14113000  0.70259000  1.0
  C  C120  1  0.49542000  0.48029000  0.77197000  1.0
  C  C121  1  0.50458000  0.51971000  0.22802000  1.0
  C  C122  1  0.87848000  0.56802000  0.35026000  1.0
  C  C123  1  0.12153000  0.43199000  0.64975000  1.0
  C  C124  1  0.59974000  0.71288000  0.06719000  1.0
  C  C125  1  0.40023000  0.28710000  0.93281000  1.0
  C  C126  1  0.55679000  0.43104000  0.82472000  1.0
  C  C127  1  0.44322000  0.56896000  0.17527000  1.0
  C  C128  1  0.53346000  0.76045000  0.01504000  1.0
  C  C129  1  0.46650000  0.23954000  0.98496000  1.0
  C  C130  1  0.89070000  0.44633000  0.42165000  1.0
  C  C131  1  0.10931000  0.55368000  0.57834000  1.0
  C  C132  1  0.78218000  0.65814000  0.84780000  1.0
  C  C133  1  0.21782000  0.34186000  0.15220000  1.0
  C  C134  1  0.79799000  0.58930000  0.47153000  1.0
  C  C135  1  0.20201000  0.41070000  0.52847000  1.0
  C  C136  1  0.85674000  0.40712000  0.48412000  1.0
  C  C137  1  0.14326000  0.59288000  0.51587000  1.0
  C  C138  1  0.62757000  0.55459000  0.61473000  1.0
  C  C139  1  0.37243000  0.44541000  0.38527000  1.0
  C  C140  1  0.70312000  0.64526000  0.76214000  1.0
  C  C141  1  0.29688000  0.35474000  0.23786000  1.0
  C  C142  1  0.79745000  0.50703000  0.70315000  1.0
  C  C143  1  0.20256000  0.49297000  0.29685000  1.0
  N  N144  1  0.86695000  0.34957000  0.17385000  1.0
  N  N145  1  0.13304000  0.65044000  0.82615000  1.0
  N  N146  1  0.00988000  0.09855000  0.38708000  1.0
  N  N147  1  0.99013000  0.90145000  0.61292000  1.0
  N  N148  1  0.15117000  0.24435000  0.30841000  1.0
  N  N149  1  0.84882000  0.75565000  0.69158000  1.0
  N  N150  1  0.24551000  0.84922000  0.66064000  1.0
  N  N151  1  0.75449000  0.15078000  0.33936000  1.0
  N  N152  1  0.25129000  0.79100000  0.70905000  1.0
  N  N153  1  0.74871000  0.20901000  0.29096000  1.0
  N  N154  1  0.40273000  0.72180000  0.78657000  1.0
  N  N155  1  0.59726000  0.27821000  0.21343000  1.0
  N  N156  1  0.19717000  0.15112000  0.38896000  1.0
  N  N157  1  0.80283000  0.84889000  0.61104000  1.0
  N  N158  1  0.58434000  0.83729000  0.45624000  1.0
  N  N159  1  0.41566000  0.16272000  0.54377000  1.0
  N  N160  1  0.05610000  0.20980000  0.31698000  1.0
  N  N161  1  0.94390000  0.79020000  0.68301000  1.0
  N  N162  1  0.94962000  0.38851000  0.15376000  1.0
  N  N163  1  0.05038000  0.61148000  0.84623000  1.0
  N  N164  1  0.71566000  0.47802000  0.05039000  1.0
  N  N165  1  0.28434000  0.52197000  0.94961000  1.0
  N  N166  1  0.34608000  0.86727000  0.65425000  1.0
  N  N167  1  0.65392000  0.13273000  0.34575000  1.0
  N  N168  1  0.41968000  0.82172000  0.69907000  1.0
  N  N169  1  0.58032000  0.17829000  0.30093000  1.0
  N  N170  1  0.49103000  0.74898000  0.52526000  1.0
  N  N171  1  0.50897000  0.25103000  0.47475000  1.0
  N  N172  1  0.23458000  0.20880000  0.35182000  1.0
  N  N173  1  0.76542000  0.79121000  0.64818000  1.0
  N  N174  1  0.90497000  0.44232000  0.10597000  1.0
  N  N175  1  0.09502000  0.55766000  0.89401000  1.0
  N  N176  1  0.76716000  0.37667000  0.14070000  1.0
  N  N177  1  0.23284000  0.62333000  0.85930000  1.0
  N  N178  1  0.39612000  0.75854000  0.40011000  1.0
  N  N179  1  0.60389000  0.24147000  0.59989000  1.0
  N  N180  1  0.33364000  0.70517000  0.42744000  1.0
  N  N181  1  0.66636000  0.29484000  0.57256000  1.0
  N  N182  1  0.38933000  0.69926000  0.50191000  1.0
  N  N183  1  0.61066000  0.30075000  0.49810000  1.0
  N  N184  1  0.86079000  0.53227000  0.41714000  1.0
  N  N185  1  0.13922000  0.46774000  0.58286000  1.0
  N  N186  1  0.70637000  0.56914000  0.69780000  1.0
  N  N187  1  0.29364000  0.43085000  0.30220000  1.0
  O  O188  1  0.94729000  0.39938000  0.37430000  1.0
  O  O189  1  0.05272000  0.60063000  0.62569000  1.0
  O  O190  1  0.63163000  0.70557000  0.75332000  1.0
  O  O191  1  0.36837000  0.29443000  0.24668000  1.0
  O  O192  1  0.74044000  0.61075000  0.16483000  1.0
  O  O193  1  0.25957000  0.38924000  0.83516000  1.0
  O  O194  1  0.02243000  0.21776000  0.50951000  1.0
  O  O195  1  0.97758000  0.78224000  0.49049000  1.0
  O  O196  1  0.37816000  0.59043000  0.67140000  1.0
  O  O197  1  0.62184000  0.40958000  0.32860000  1.0
  O  O198  1  0.57252000  0.96190000  0.56828000  1.0
  O  O199  1  0.42747000  0.03812000  0.43172000  1.0
  O  O200  1  0.61270000  0.70321000  0.35827000  1.0
  O  O201  1  0.38730000  0.29679000  0.64174000  1.0
  O  O202  1  0.64050000  0.95828000  0.72738000  1.0
  O  O203  1  0.35949000  0.04173000  0.27261000  1.0
  O  O204  1  0.39509000  0.84695000  0.90050000  1.0
  O  O205  1  0.60488000  0.15304000  0.09951000  1.0
  O  O206  1  0.68197000  0.33999000  0.93951000  1.0
  O  O207  1  0.31801000  0.66000000  0.06048000  1.0
  O  O208  1  0.99068000  0.98647000  0.25907000  1.0
  O  O209  1  0.00934000  0.01352000  0.74094000  1.0
  O  O210  1  0.83905000  0.11587000  0.13942000  1.0
  O  O211  1  0.16093000  0.88414000  0.86057000  1.0
