# generated using pymatgen
data_SnPH5(C2O)3
_symmetry_space_group_name_H-M   'P 1'
_cell_length_a   4.83937000
_cell_length_b   6.78000000
_cell_length_c   12.60008348
_cell_angle_alpha   86.80442289
_cell_angle_beta   78.92970780
_cell_angle_gamma   73.15180000
_symmetry_Int_Tables_number   1
_chemical_formula_structural   SnPH5(C2O)3
_chemical_formula_sum   'Sn2 P2 H10 C12 O6'
_cell_volume   388.31220702
_cell_formula_units_Z   2
loop_
 _symmetry_equiv_pos_site_id
 _symmetry_equiv_pos_as_xyz
  1  'x, y, z'
loop_
 _atom_site_type_symbol
 _atom_site_label
 _atom_site_symmetry_multiplicity
 _atom_site_fract_x
 _atom_site_fract_y
 _atom_site_fract_z
 _atom_site_occupancy
  Sn  Sn0  1  0.44837000  0.90556000  0.89407000  1.0
  Sn  Sn1  1  0.34264000  0.40564000  0.10585000  1.0
  P  P2  1  0.72405000  0.76495000  0.12111000  1.0
  P  P3  1  0.84493000  0.26501000  0.87881000  1.0
  H  H4  1  0.99069000  0.08409000  0.15773000  1.0
  H  H5  1  0.14877000  0.58375000  0.84239000  1.0
  H  H6  1  0.95456000  0.28548000  0.32056000  1.0
  H  H7  1  0.27580000  0.78538000  0.67972000  1.0
  H  H8  1  0.66543000  0.21248000  0.49736000  1.0
  H  H9  1  0.16322000  0.71303000  0.50284000  1.0
  H  H10  1  0.42209000  0.93543000  0.51051000  1.0
  H  H11  1  0.93291000  0.43618000  0.48940000  1.0
  H  H12  1  0.45288000  0.73503000  0.34530000  1.0
  H  H13  1  0.79831000  0.23543000  0.65448000  1.0
  C  C14  1  0.71905000  0.89892000  0.24138000  1.0
  C  C15  1  0.96059000  0.39908000  0.75858000  1.0
  C  C16  1  0.86199000  0.05351000  0.23472000  1.0
  C  C17  1  0.09715000  0.55342000  0.76535000  1.0
  C  C18  1  0.84341000  0.16538000  0.32671000  1.0
  C  C19  1  0.17067000  0.66543000  0.67345000  1.0
  C  C20  1  0.68369000  0.12367000  0.42566000  1.0
  C  C21  1  0.10987000  0.62403000  0.57446000  1.0
  C  C22  1  0.54510000  0.96800000  0.43296000  1.0
  C  C23  1  0.97845000  0.46851000  0.56700000  1.0
  C  C24  1  0.56214000  0.85586000  0.34121000  1.0
  C  C25  1  0.90362000  0.35614000  0.65867000  1.0
  O  O26  1  0.53626000  0.92572000  0.05233000  1.0
  O  O27  1  0.58854000  0.42583000  0.94763000  1.0
  O  O28  1  0.04469000  0.69021000  0.05798000  1.0
  O  O29  1  0.10236000  0.18999000  0.94197000  1.0
  O  O30  1  0.59949000  0.58335000  0.16003000  1.0
  O  O31  1  0.75885000  0.08369000  0.83980000  1.0
