# generated using pymatgen
data_CuH23C23(NO3)2
_symmetry_space_group_name_H-M   'P 1'
_cell_length_a   7.85514000
_cell_length_b   11.44700000
_cell_length_c   13.46930000
_cell_angle_alpha   100.83500000
_cell_angle_beta   98.30870000
_cell_angle_gamma   105.51700000
_symmetry_Int_Tables_number   1
_chemical_formula_structural   CuH23C23(NO3)2
_chemical_formula_sum   'Cu2 H46 C46 N4 O12'
_cell_volume   1121.63771690
_cell_formula_units_Z   2
loop_
 _symmetry_equiv_pos_site_id
 _symmetry_equiv_pos_as_xyz
  1  'x, y, z'
loop_
 _atom_site_type_symbol
 _atom_site_label
 _atom_site_symmetry_multiplicity
 _atom_site_fract_x
 _atom_site_fract_y
 _atom_site_fract_z
 _atom_site_occupancy
  Cu  Cu0  1  0.13987000  0.56692000  0.97278000  1.0
  Cu  Cu1  1  0.86014000  0.43308000  0.02721000  1.0
  H  H2  1  0.25083000  0.89751000  0.20038000  1.0
  H  H3  1  0.74917000  0.10249000  0.79962000  1.0
  H  H4  1  0.69287000  0.74490000  0.20952000  1.0
  H  H5  1  0.30712000  0.25511000  0.79048000  1.0
  H  H6  1  0.70754000  0.93515000  0.33701000  1.0
  H  H7  1  0.29247000  0.06485000  0.66299000  1.0
  H  H8  1  0.26994000  0.09122000  0.33177000  1.0
  H  H9  1  0.73007000  0.90877000  0.66824000  1.0
  H  H10  1  0.81629000  0.07084000  0.49655000  1.0
  H  H11  1  0.18370000  0.92916000  0.50344000  1.0
  H  H12  1  0.76052000  0.15097000  0.39996000  1.0
  H  H13  1  0.23948000  0.84902000  0.60003000  1.0
  H  H14  1  0.99549000  0.34675000  0.50393000  1.0
  H  H15  1  0.00450000  0.65325000  0.49607000  1.0
  H  H16  1  0.05453000  0.26686000  0.59751000  1.0
  H  H17  1  0.94546000  0.73314000  0.40249000  1.0
  H  H18  1  0.75507000  0.23497000  0.64513000  1.0
  H  H19  1  0.24492000  0.76503000  0.35487000  1.0
  H  H20  1  0.86526000  0.39407000  0.65722000  1.0
  H  H21  1  0.13473000  0.60592000  0.34278000  1.0
  H  H22  1  0.54794000  0.21971000  0.48611000  1.0
  H  H23  1  0.45205000  0.78028000  0.51389000  1.0
  H  H24  1  0.55250000  0.35435000  0.57957000  1.0
  H  H25  1  0.44749000  0.64564000  0.42042000  1.0
  H  H26  1  0.32633000  0.31752000  0.44147000  1.0
  H  H27  1  0.67368000  0.68248000  0.55853000  1.0
  H  H28  1  0.78563000  0.49830000  0.32355000  1.0
  H  H29  1  0.21438000  0.50170000  0.67645000  1.0
  H  H30  1  0.57987000  0.54010000  0.18684000  1.0
  H  H31  1  0.42016000  0.45990000  0.81317000  1.0
  H  H32  1  0.12287000  0.35727000  0.30296000  1.0
  H  H33  1  0.87713000  0.64274000  0.69703000  1.0
  H  H34  1  0.59156000  0.66083000  0.99759000  1.0
  H  H35  1  0.40843000  0.33917000  0.00241000  1.0
  H  H36  1  0.19242000  0.78677000  0.84662000  1.0
  H  H37  1  0.80757000  0.21324000  0.15337000  1.0
  H  H38  1  0.53166000  0.92742000  0.82704000  1.0
  H  H39  1  0.46833000  0.07259000  0.17296000  1.0
  H  H40  1  0.83928000  0.85256000  0.84632000  1.0
  H  H41  1  0.16071000  0.14744000  0.15368000  1.0
  H  H42  1  0.86894000  0.78149000  0.95041000  1.0
  H  H43  1  0.13104000  0.21850000  0.04959000  1.0
  H  H44  1  0.87083000  0.97411000  0.07457000  1.0
  H  H45  1  0.12917000  0.02589000  0.92544000  1.0
  H  H46  1  0.83780000  0.04710000  0.97174000  1.0
  H  H47  1  0.16220000  0.95290000  0.02827000  1.0
  C  C48  1  0.96898000  0.69411000  0.12211000  1.0
  C  C49  1  0.03103000  0.30589000  0.87788000  1.0
  C  C50  1  0.97167000  0.80887000  0.19731000  1.0
  C  C51  1  0.02833000  0.19113000  0.80270000  1.0
  C  C52  1  0.13372000  0.90769000  0.23165000  1.0
  C  C53  1  0.86628000  0.09230000  0.76836000  1.0
  C  C54  1  0.81947000  0.82064000  0.23598000  1.0
  C  C55  1  0.18053000  0.17936000  0.76402000  1.0
  C  C56  1  0.82771000  0.92821000  0.30797000  1.0
  C  C57  1  0.17230000  0.07179000  0.69203000  1.0
  C  C58  1  0.14479000  0.01417000  0.30411000  1.0
  C  C59  1  0.85521000  0.98583000  0.69589000  1.0
  C  C60  1  0.99174000  0.02484000  0.34352000  1.0
  C  C61  1  0.00826000  0.97517000  0.65648000  1.0
  C  C62  1  0.86871000  0.14922000  0.46133000  1.0
  C  C63  1  0.13129000  0.85078000  0.53867000  1.0
  C  C64  1  0.94125000  0.27195000  0.54193000  1.0
  C  C65  1  0.05874000  0.72805000  0.45807000  1.0
  C  C66  1  0.80063000  0.30445000  0.60053000  1.0
  C  C67  1  0.19935000  0.69554000  0.39947000  1.0
  C  C68  1  0.63431000  0.31265000  0.53237000  1.0
  C  C69  1  0.36568000  0.68735000  0.46763000  1.0
  C  C70  1  0.57064000  0.40685000  0.39182000  1.0
  C  C71  1  0.42936000  0.59314000  0.60817000  1.0
  C  C72  1  0.38352000  0.36595000  0.38615000  1.0
  C  C73  1  0.61647000  0.63405000  0.61385000  1.0
  C  C74  1  0.64058000  0.47047000  0.31995000  1.0
  C  C75  1  0.35944000  0.52952000  0.68005000  1.0
  C  C76  1  0.52486000  0.49379000  0.24379000  1.0
  C  C77  1  0.47517000  0.50621000  0.75621000  1.0
  C  C78  1  0.26840000  0.38896000  0.30831000  1.0
  C  C79  1  0.73161000  0.61104000  0.69169000  1.0
  C  C80  1  0.33704000  0.45308000  0.23679000  1.0
  C  C81  1  0.66298000  0.54692000  0.76321000  1.0
  C  C82  1  0.21453000  0.47370000  0.15127000  1.0
  C  C83  1  0.78550000  0.52631000  0.84872000  1.0
  C  C84  1  0.52616000  0.71440000  0.95532000  1.0
  C  C85  1  0.47382000  0.28560000  0.04468000  1.0
  C  C86  1  0.32608000  0.78235000  0.87565000  1.0
  C  C87  1  0.67391000  0.21765000  0.12434000  1.0
  C  C88  1  0.49168000  0.85129000  0.86428000  1.0
  C  C89  1  0.50831000  0.14872000  0.13571000  1.0
  C  C90  1  0.81205000  0.85069000  0.92393000  1.0
  C  C91  1  0.18794000  0.14931000  0.07608000  1.0
  C  C92  1  0.89860000  0.97877000  0.99731000  1.0
  C  C93  1  0.10140000  0.02122000  0.00270000  1.0
  N  N94  1  0.34983000  0.69760000  0.93253000  1.0
  N  N95  1  0.65016000  0.30241000  0.06746000  1.0
  N  N96  1  0.61741000  0.80664000  0.91497000  1.0
  N  N97  1  0.38259000  0.19337000  0.08503000  1.0
  O  O98  1  0.09439000  0.70731000  0.07088000  1.0
  O  O99  1  0.90561000  0.29269000  0.92911000  1.0
  O  O100  1  0.84465000  0.59323000  0.11541000  1.0
  O  O101  1  0.15535000  0.40678000  0.88459000  1.0
  O  O102  1  0.01804000  0.13147000  0.41612000  1.0
  O  O103  1  0.98197000  0.86853000  0.58389000  1.0
  O  O104  1  0.69574000  0.38878000  0.46347000  1.0
  O  O105  1  0.30425000  0.61121000  0.53653000  1.0
  O  O106  1  0.04479000  0.42441000  0.14241000  1.0
  O  O107  1  0.95523000  0.57559000  0.85759000  1.0
  O  O108  1  0.28892000  0.53737000  0.09200000  1.0
  O  O109  1  0.71109000  0.46264000  0.90799000  1.0
