# generated using pymatgen
data_P2H20Pb(C9O4)2
_symmetry_space_group_name_H-M   'P 1'
_cell_length_a   5.17555000
_cell_length_b   8.49017000
_cell_length_c   12.12240575
_cell_angle_alpha   110.40138759
_cell_angle_beta   99.08327147
_cell_angle_gamma   90.03700000
_symmetry_Int_Tables_number   1
_chemical_formula_structural   P2H20Pb(C9O4)2
_chemical_formula_sum   'P2 H20 Pb1 C18 O8'
_cell_volume   492.10780602
_cell_formula_units_Z   1
loop_
 _symmetry_equiv_pos_site_id
 _symmetry_equiv_pos_as_xyz
  1  'x, y, z'
loop_
 _atom_site_type_symbol
 _atom_site_label
 _atom_site_symmetry_multiplicity
 _atom_site_fract_x
 _atom_site_fract_y
 _atom_site_fract_z
 _atom_site_occupancy
  P  P0  1  0.38770000  0.38948000  0.81835000  1.0
  P  P1  1  0.61244000  0.57030000  0.18149000  1.0
  H  H2  1  0.63356000  0.45260000  0.63701000  1.0
  H  H3  1  0.36627000  0.81413000  0.36251000  1.0
  H  H4  1  0.53213000  0.34550000  0.41665000  1.0
  H  H5  1  0.46734000  0.92716000  0.58289000  1.0
  H  H6  1  0.14359000  0.14177000  0.30991000  1.0
  H  H7  1  0.85606000  0.83079000  0.69001000  1.0
  H  H8  1  0.85523000  0.05689000  0.42668000  1.0
  H  H9  1  0.14426000  0.62938000  0.57363000  1.0
  H  H10  1  0.94882000  0.17189000  0.64818000  1.0
  H  H11  1  0.05141000  0.52321000  0.35214000  1.0
  H  H12  1  0.71234000  0.18580000  0.79453000  1.0
  H  H13  1  0.28848000  0.39060000  0.20631000  1.0
  H  H14  1  0.66233000  0.27064000  0.94287000  1.0
  H  H15  1  0.33674000  0.32736000  0.05768000  1.0
  H  H16  1  0.21760000  0.10494000  0.88542000  1.0
  H  H17  1  0.78240000  0.21947000  0.11461000  1.0
  H  H18  1  0.26220000  0.02309000  0.73645000  1.0
  H  H19  1  0.73843000  0.28568000  0.26364000  1.0
  H  H20  1  0.44766000  0.68793000  0.82767000  1.0
  H  H21  1  0.55278000  0.85933000  0.17203000  1.0
  Pb  Pb22  1  0.00014000  0.68197000  0.99980000  1.0
  C  C23  1  0.29992000  0.31794000  0.65738000  1.0
  C  C24  1  0.70012000  0.65963000  0.34249000  1.0
  C  C25  1  0.46228000  0.36665000  0.59095000  1.0
  C  C26  1  0.53752000  0.77439000  0.40872000  1.0
  C  C27  1  0.40473000  0.30510000  0.46650000  1.0
  C  C28  1  0.59479000  0.83717000  0.53318000  1.0
  C  C29  1  0.18797000  0.19248000  0.40722000  1.0
  C  C30  1  0.81156000  0.78407000  0.59269000  1.0
  C  C31  1  0.02514000  0.14385000  0.47286000  1.0
  C  C32  1  0.97445000  0.67005000  0.52728000  1.0
  C  C33  1  0.07945000  0.20747000  0.59737000  1.0
  C  C34  1  0.92052000  0.60930000  0.40272000  1.0
  C  C35  1  0.55857000  0.22008000  0.85026000  1.0
  C  C36  1  0.44150000  0.36917000  0.15012000  1.0
  C  C37  1  0.37008000  0.07026000  0.82856000  1.0
  C  C38  1  0.63017000  0.24109000  0.17160000  1.0
  C  C39  1  0.50169000  0.92411000  0.85202000  1.0
  C  C40  1  0.49868000  0.07143000  0.14811000  1.0
  O  O41  1  0.14037000  0.41749000  0.87567000  1.0
  O  O42  1  0.85962000  0.54100000  0.12407000  1.0
  O  O43  1  0.57719000  0.54626000  0.85656000  1.0
  O  O44  1  0.42301000  0.68866000  0.14302000  1.0
  O  O45  1  0.72924000  0.93258000  0.90454000  1.0
  O  O46  1  0.27102000  0.02755000  0.09572000  1.0
  O  O47  1  0.34540000  0.78412000  0.80984000  1.0
  O  O48  1  0.65509000  0.97337000  0.19005000  1.0
