# generated using pymatgen
data_CuH8C11N2Cl2O
_symmetry_space_group_name_H-M   'P 1'
_cell_length_a   7.35861000
_cell_length_b   8.54668000
_cell_length_c   9.83308000
_cell_angle_alpha   84.76700000
_cell_angle_beta   70.58150000
_cell_angle_gamma   73.39160000
_symmetry_Int_Tables_number   1
_chemical_formula_structural   CuH8C11N2Cl2O
_chemical_formula_sum   'Cu2 H16 C22 N4 Cl4 O2'
_cell_volume   558.90303568
_cell_formula_units_Z   2
loop_
 _symmetry_equiv_pos_site_id
 _symmetry_equiv_pos_as_xyz
  1  'x, y, z'
loop_
 _atom_site_type_symbol
 _atom_site_label
 _atom_site_symmetry_multiplicity
 _atom_site_fract_x
 _atom_site_fract_y
 _atom_site_fract_z
 _atom_site_occupancy
  Cu  Cu0  1  0.22737000  0.53495000  0.05594000  1.0
  Cu  Cu1  1  0.77263000  0.46506000  0.94406000  1.0
  H  H2  1  0.22842000  0.23186000  0.21680000  1.0
  H  H3  1  0.77158000  0.76814000  0.78319000  1.0
  H  H4  1  0.29017000  0.11303000  0.44296000  1.0
  H  H5  1  0.70983000  0.88697000  0.55703000  1.0
  H  H6  1  0.33355000  0.29791000  0.61272000  1.0
  H  H7  1  0.66644000  0.70209000  0.38728000  1.0
  H  H8  1  0.29524000  0.59172000  0.54751000  1.0
  H  H9  1  0.70474000  0.40827000  0.45249000  1.0
  H  H10  1  0.97196000  0.04211000  0.37503000  1.0
  H  H11  1  0.02805000  0.95789000  0.62498000  1.0
  H  H12  1  0.69084000  0.18075000  0.27784000  1.0
  H  H13  1  0.30917000  0.81925000  0.72217000  1.0
  H  H14  1  0.63176000  0.03017000  0.09506000  1.0
  H  H15  1  0.36824000  0.96984000  0.90494000  1.0
  H  H16  1  0.86887000  0.75714000  0.00819000  1.0
  H  H17  1  0.13113000  0.24287000  0.99181000  1.0
  C  C18  1  0.24380000  0.30721000  0.29351000  1.0
  C  C19  1  0.75621000  0.69279000  0.70648000  1.0
  C  C20  1  0.27942000  0.24189000  0.42031000  1.0
  C  C21  1  0.72058000  0.75811000  0.57968000  1.0
  C  C22  1  0.30213000  0.34332000  0.51332000  1.0
  C  C23  1  0.69786000  0.65667000  0.48669000  1.0
  C  C24  1  0.28380000  0.50702000  0.47673000  1.0
  C  C25  1  0.71619000  0.49297000  0.52328000  1.0
  C  C26  1  0.24717000  0.56454000  0.34796000  1.0
  C  C27  1  0.75283000  0.43545000  0.65204000  1.0
  C  C28  1  0.21154000  0.74500000  0.32011000  1.0
  C  C29  1  0.78845000  0.25500000  0.67989000  1.0
  C  C30  1  0.06440000  0.82859000  0.24326000  1.0
  C  C31  1  0.93561000  0.17141000  0.75675000  1.0
  C  C32  1  0.94407000  0.98447000  0.29258000  1.0
  C  C33  1  0.05594000  0.01553000  0.70742000  1.0
  C  C34  1  0.78578000  0.05949000  0.24054000  1.0
  C  C35  1  0.21423000  0.94052000  0.75947000  1.0
  C  C36  1  0.75369000  0.97684000  0.13894000  1.0
  C  C37  1  0.24631000  0.02316000  0.86106000  1.0
  C  C38  1  0.88414000  0.82444000  0.09032000  1.0
  C  C39  1  0.11587000  0.17556000  0.90969000  1.0
  N  N40  1  0.22981000  0.46463000  0.25732000  1.0
  N  N41  1  0.77019000  0.53537000  0.74267000  1.0
  N  N42  1  0.03560000  0.75147000  0.14117000  1.0
  N  N43  1  0.96440000  0.24853000  0.85883000  1.0
  Cl  Cl44  1  0.48275000  0.30322000  0.96822000  1.0
  Cl  Cl45  1  0.51725000  0.69678000  0.03177000  1.0
  Cl  Cl46  1  0.17281000  0.56946000  0.84039000  1.0
  Cl  Cl47  1  0.82720000  0.43055000  0.15961000  1.0
  O  O48  1  0.27079000  0.82739000  0.38428000  1.0
  O  O49  1  0.72921000  0.17261000  0.61573000  1.0
