# generated using pymatgen
data_Ag2H6C4N4O5
_symmetry_space_group_name_H-M   'P 1'
_cell_length_a   6.96023000
_cell_length_b   11.26540000
_cell_length_c   11.91530000
_cell_angle_alpha   89.99980000
_cell_angle_beta   90.00000000
_cell_angle_gamma   103.94600000
_symmetry_Int_Tables_number   1
_chemical_formula_structural   Ag2H6C4N4O5
_chemical_formula_sum   'Ag8 H24 C16 N16 O20'
_cell_volume   906.73662063
_cell_formula_units_Z   4
loop_
 _symmetry_equiv_pos_site_id
 _symmetry_equiv_pos_as_xyz
  1  'x, y, z'
loop_
 _atom_site_type_symbol
 _atom_site_label
 _atom_site_symmetry_multiplicity
 _atom_site_fract_x
 _atom_site_fract_y
 _atom_site_fract_z
 _atom_site_occupancy
  Ag  Ag0  1  0.41190000  0.72054000  0.09217000  1.0
  Ag  Ag1  1  0.08810000  0.77946000  0.59217000  1.0
  Ag  Ag2  1  0.58809000  0.27946000  0.90783000  1.0
  Ag  Ag3  1  0.91190000  0.22054000  0.40783000  1.0
  Ag  Ag4  1  0.07949000  0.71863000  0.23223000  1.0
  Ag  Ag5  1  0.42051000  0.78137000  0.73223000  1.0
  Ag  Ag6  1  0.92051000  0.28137000  0.76777000  1.0
  Ag  Ag7  1  0.57948000  0.21863000  0.26777000  1.0
  H  H8  1  0.71562000  0.61197000  0.03655000  1.0
  H  H9  1  0.78438000  0.88803000  0.53655000  1.0
  H  H10  1  0.28438000  0.38802000  0.96346000  1.0
  H  H11  1  0.21562000  0.11198000  0.46345000  1.0
  H  H12  1  0.56574000  0.52308000  0.11810000  1.0
  H  H13  1  0.93426000  0.97692000  0.61810000  1.0
  H  H14  1  0.43425000  0.47692000  0.88190000  1.0
  H  H15  1  0.06575000  0.02309000  0.38190000  1.0
  H  H16  1  0.16242000  0.37170000  0.52786000  1.0
  H  H17  1  0.33758000  0.12831000  0.02786000  1.0
  H  H18  1  0.83759000  0.62830000  0.47214000  1.0
  H  H19  1  0.66242000  0.87169000  0.97214000  1.0
  H  H20  1  0.35467000  0.39130000  0.62942000  1.0
  H  H21  1  0.14534000  0.10870000  0.12942000  1.0
  H  H22  1  0.64534000  0.60870000  0.37058000  1.0
  H  H23  1  0.85466000  0.89130000  0.87058000  1.0
  H  H24  1  0.47051000  0.59615000  0.56185000  1.0
  H  H25  1  0.02949000  0.90386000  0.06185000  1.0
  H  H26  1  0.52949000  0.40386000  0.43815000  1.0
  H  H27  1  0.97051000  0.09614000  0.93815000  1.0
  H  H28  1  0.25560000  0.58186000  0.47688000  1.0
  H  H29  1  0.24440000  0.91815000  0.97688000  1.0
  H  H30  1  0.74440000  0.41814000  0.52312000  1.0
  H  H31  1  0.75560000  0.08185000  0.02312000  1.0
  C  C32  1  0.97992000  0.58409000  0.80153000  1.0
  C  C33  1  0.52008000  0.91591000  0.30153000  1.0
  C  C34  1  0.02008000  0.41591000  0.19846000  1.0
  C  C35  1  0.47992000  0.08409000  0.69847000  1.0
  C  C36  1  0.10030000  0.54819000  0.71071000  1.0
  C  C37  1  0.39970000  0.95180000  0.21071000  1.0
  C  C38  1  0.89969000  0.45181000  0.28929000  1.0
  C  C39  1  0.60030000  0.04819000  0.78929000  1.0
  C  C40  1  0.23531000  0.43057000  0.59704000  1.0
  C  C41  1  0.26469000  0.06944000  0.09704000  1.0
  C  C42  1  0.76469000  0.56944000  0.40296000  1.0
  C  C43  1  0.73531000  0.93057000  0.90296000  1.0
  C  C44  1  0.30907000  0.56564000  0.56073000  1.0
  C  C45  1  0.19093000  0.93437000  0.06072000  1.0
  C  C46  1  0.69093000  0.43436000  0.43927000  1.0
  C  C47  1  0.80907000  0.06563000  0.93927000  1.0
  N  N48  1  0.78278000  0.58161000  0.77903000  1.0
  N  N49  1  0.71723000  0.91839000  0.27904000  1.0
  N  N50  1  0.21722000  0.41839000  0.22097000  1.0
  N  N51  1  0.28277000  0.08161000  0.72097000  1.0
  N  N52  1  0.06748000  0.62049000  0.90380000  1.0
  N  N53  1  0.43253000  0.87951000  0.40380000  1.0
  N  N54  1  0.93252000  0.37951000  0.09620000  1.0
  N  N55  1  0.56747000  0.12049000  0.59620000  1.0
  N  N56  1  0.09244000  0.43338000  0.68791000  1.0
  N  N57  1  0.40755000  0.06662000  0.18791000  1.0
  N  N58  1  0.90755000  0.56661000  0.31209000  1.0
  N  N59  1  0.59245000  0.93338000  0.81209000  1.0
  N  N60  1  0.22302000  0.63452000  0.64657000  1.0
  N  N61  1  0.27699000  0.86548000  0.14656000  1.0
  N  N62  1  0.77698000  0.36548000  0.35343000  1.0
  N  N63  1  0.72301000  0.13452000  0.85343000  1.0
  O  O64  1  0.66638000  0.60379000  0.85331000  1.0
  O  O65  1  0.83362000  0.89621000  0.35332000  1.0
  O  O66  1  0.33362000  0.39621000  0.14669000  1.0
  O  O67  1  0.16638000  0.10379000  0.64669000  1.0
  O  O68  1  0.72647000  0.55570000  0.67941000  1.0
  O  O69  1  0.77354000  0.94431000  0.17941000  1.0
  O  O70  1  0.27353000  0.44430000  0.32059000  1.0
  O  O71  1  0.22647000  0.05569000  0.82059000  1.0
  O  O72  1  0.97847000  0.65307000  0.98583000  1.0
  O  O73  1  0.52153000  0.84693000  0.48584000  1.0
  O  O74  1  0.02154000  0.34693000  0.01417000  1.0
  O  O75  1  0.47846000  0.15307000  0.51417000  1.0
  O  O76  1  0.25215000  0.62280000  0.91051000  1.0
  O  O77  1  0.24785000  0.87720000  0.41051000  1.0
  O  O78  1  0.74785000  0.37719000  0.08949000  1.0
  O  O79  1  0.75214000  0.12281000  0.58949000  1.0
  O  O80  1  0.62677000  0.60951000  0.10159000  1.0
  O  O81  1  0.87323000  0.89049000  0.60159000  1.0
  O  O82  1  0.37322000  0.39048000  0.89841000  1.0
  O  O83  1  0.12678000  0.10952000  0.39841000  1.0
