# generated using pymatgen
data_Zn4H30C33O13
_symmetry_space_group_name_H-M   'P 1'
_cell_length_a   16.10870000
_cell_length_b   16.24470000
_cell_length_c   16.29430000
_cell_angle_alpha   118.33200000
_cell_angle_beta   118.57700000
_cell_angle_gamma   90.65490000
_symmetry_Int_Tables_number   1
_chemical_formula_structural   Zn4H30C33O13
_chemical_formula_sum   'Zn8 H60 C66 O26'
_cell_volume   3135.19183660
_cell_formula_units_Z   2
loop_
 _symmetry_equiv_pos_site_id
 _symmetry_equiv_pos_as_xyz
  1  'x, y, z'
loop_
 _atom_site_type_symbol
 _atom_site_label
 _atom_site_symmetry_multiplicity
 _atom_site_fract_x
 _atom_site_fract_y
 _atom_site_fract_z
 _atom_site_occupancy
  Zn  Zn0  1  0.06242000  0.01035000  0.11761000  1.0
  Zn  Zn1  1  0.00631000  0.18295000  0.08765000  1.0
  Zn  Zn2  1  0.85390000  0.96990000  0.90334000  1.0
  Zn  Zn3  1  0.06180000  0.02353000  0.92688000  1.0
  Zn  Zn4  1  0.47076000  0.61256000  0.92003000  1.0
  Zn  Zn5  1  0.42378000  0.40656000  0.89627000  1.0
  Zn  Zn6  1  0.45591000  0.61052000  0.10917000  1.0
  Zn  Zn7  1  0.63506000  0.56150000  0.08199000  1.0
  H  H8  1  0.04343000  0.23324000  0.40468000  1.0
  H  H9  1  0.08438000  0.33400000  0.40127000  1.0
  H  H10  1  0.25869000  0.31450000  0.48617000  1.0
  H  H11  1  0.20111000  0.44517000  0.58344000  1.0
  H  H12  1  0.16074000  0.37252000  0.61851000  1.0
  H  H13  1  0.13161000  0.22214000  0.58496000  1.0
  H  H14  1  0.14967000  0.07575000  0.59447000  1.0
  H  H15  1  0.24488000  0.97539000  0.52603000  1.0
  H  H16  1  0.32237000  0.02430000  0.44876000  1.0
  H  H17  1  0.30652000  0.17285000  0.44208000  1.0
  H  H18  1  0.91870000  0.68794000  0.94158000  1.0
  H  H19  1  0.80579000  0.68317000  0.83363000  1.0
  H  H20  1  0.76018000  0.76464000  0.97970000  1.0
  H  H21  1  0.67817000  0.59638000  0.81523000  1.0
  H  H22  1  0.76349000  0.55150000  0.89083000  1.0
  H  H23  1  0.88992000  0.59411000  0.05107000  1.0
  H  H24  1  0.01088000  0.64363000  0.24408000  1.0
  H  H25  1  0.07018000  0.81848000  0.40166000  1.0
  H  H26  1  0.00491000  0.94233000  0.36206000  1.0
  H  H27  1  0.87928000  0.89163000  0.16818000  1.0
  H  H28  1  0.38114000  0.04155000  0.22748000  1.0
  H  H29  1  0.36841000  0.01875000  0.10224000  1.0
  H  H30  1  0.28005000  0.84043000  0.00683000  1.0
  H  H31  1  0.45678000  0.91130000  0.08474000  1.0
  H  H32  1  0.49233000  0.92690000  0.21416000  1.0
  H  H33  1  0.44045000  0.90654000  0.30388000  1.0
  H  H34  1  0.37592000  0.86017000  0.39034000  1.0
  H  H35  1  0.19359000  0.78368000  0.29120000  1.0
  H  H36  1  0.07906000  0.74695000  0.10070000  1.0
  H  H37  1  0.14413000  0.78935000  0.01054000  1.0
  H  H38  1  0.74349000  0.18282000  0.12637000  1.0
  H  H39  1  0.64864000  0.10647000  0.98056000  1.0
  H  H40  1  0.69069000  0.23869000  0.95628000  1.0
  H  H41  1  0.55859000  0.21468000  0.99155000  1.0
  H  H42  1  0.64245000  0.30995000  0.13481000  1.0
  H  H43  1  0.80075000  0.37756000  0.26839000  1.0
  H  H44  1  0.96674000  0.50160000  0.40817000  1.0
  H  H45  1  0.07208000  0.53547000  0.34788000  1.0
  H  H46  1  0.00718000  0.44636000  0.14577000  1.0
  H  H47  1  0.83926000  0.32405000  0.00518000  1.0
  H  H48  1  0.00871000  0.32579000  0.91573000  1.0
  H  H49  1  0.03411000  0.23095000  0.82303000  1.0
  H  H50  1  0.21326000  0.29831000  0.97547000  1.0
  H  H51  1  0.13345000  0.33903000  0.82930000  1.0
  H  H52  1  0.13504000  0.45313000  0.92963000  1.0
  H  H53  1  0.12647000  0.52238000  0.07103000  1.0
  H  H54  1  0.17723000  0.63302000  0.26547000  1.0
  H  H55  1  0.28175000  0.59616000  0.40851000  1.0
  H  H56  1  0.33538000  0.44591000  0.35285000  1.0
  H  H57  1  0.28485000  0.33437000  0.15642000  1.0
  H  H58  1  0.81347000  0.71354000  0.61038000  1.0
  H  H59  1  0.89888000  0.75864000  0.59024000  1.0
  H  H60  1  0.77672000  0.82618000  0.49621000  1.0
  H  H61  1  0.79506000  0.65923000  0.40335000  1.0
  H  H62  1  0.69607000  0.60844000  0.40267000  1.0
  H  H63  1  0.61374000  0.64121000  0.48030000  1.0
  H  H64  1  0.47724000  0.67318000  0.50789000  1.0
  H  H65  1  0.44726000  0.83562000  0.55962000  1.0
  H  H66  1  0.55422000  0.96462000  0.57919000  1.0
  H  H67  1  0.69059000  0.93165000  0.54932000  1.0
  C  C68  1  0.08778000  0.19765000  0.29039000  1.0
  C  C69  1  0.09866000  0.26752000  0.39978000  1.0
  C  C70  1  0.20400000  0.29527000  0.50155000  1.0
  C  C71  1  0.21641000  0.38881000  0.60280000  1.0
  C  C72  1  0.31621000  0.43454000  0.71250000  1.0
  C  C73  1  0.21834000  0.20842000  0.51324000  1.0
  C  C74  1  0.17384000  0.17924000  0.55496000  1.0
  C  C75  1  0.18391000  0.09656000  0.56049000  1.0
  C  C76  1  0.23782000  0.04067000  0.52284000  1.0
  C  C77  1  0.28185000  0.06847000  0.48036000  1.0
  C  C78  1  0.27236000  0.15201000  0.47619000  1.0
  C  C79  1  0.89928000  0.82815000  0.96917000  1.0
  C  C80  1  0.85860000  0.72120000  0.92435000  1.0
  C  C81  1  0.80285000  0.71196000  0.97665000  1.0
  C  C82  1  0.72642000  0.60851000  0.89803000  1.0
  C  C83  1  0.66265000  0.60133000  0.94004000  1.0
  C  C84  1  0.87585000  0.73951000  0.09512000  1.0
  C  C85  1  0.91498000  0.67096000  0.11837000  1.0
  C  C86  1  0.98385000  0.69891000  0.22789000  1.0
  C  C87  1  0.01629000  0.79650000  0.31603000  1.0
  C  C88  1  0.97891000  0.86573000  0.29401000  1.0
  C  C89  1  0.90868000  0.83705000  0.18452000  1.0
  C  C90  1  0.23272000  0.00676000  0.09458000  1.0
  C  C91  1  0.33539000  0.99503000  0.13586000  1.0
  C  C92  1  0.33299000  0.88668000  0.09812000  1.0
  C  C93  1  0.43762000  0.88146000  0.12351000  1.0
  C  C94  1  0.44566000  0.77825000  0.07991000  1.0
  C  C95  1  0.29680000  0.85253000  0.15083000  1.0
  C  C96  1  0.36079000  0.87211000  0.25828000  1.0
  C  C97  1  0.32440000  0.84599000  0.30773000  1.0
  C  C98  1  0.22290000  0.80121000  0.25144000  1.0
  C  C99  1  0.15851000  0.78027000  0.14415000  1.0
  C  C100  1  0.19552000  0.80501000  0.09414000  1.0
  C  C101  1  0.79738000  0.12670000  0.02027000  1.0
  C  C102  1  0.72054000  0.16449000  0.04279000  1.0
  C  C103  1  0.71047000  0.25806000  0.03941000  1.0
  C  C104  1  0.62198000  0.28199000  0.04941000  1.0
  C  C105  1  0.58993000  0.35794000  0.02278000  1.0
  C  C106  1  0.80772000  0.34160000  0.12616000  1.0
  C  C107  1  0.84501000  0.39278000  0.24035000  1.0
  C  C108  1  0.93895000  0.46272000  0.31964000  1.0
  C  C109  1  0.99780000  0.48237000  0.28609000  1.0
  C  C110  1  0.96114000  0.43281000  0.17265000  1.0
  C  C111  1  0.86656000  0.36377000  0.09369000  1.0
  C  C112  1  0.05211000  0.21769000  0.95395000  1.0
  C  C113  1  0.05821000  0.28039000  0.91064000  1.0
  C  C114  1  0.16618000  0.34693000  0.97815000  1.0
  C  C115  1  0.17157000  0.39570000  0.91871000  1.0
  C  C116  1  0.27800000  0.43939000  0.96101000  1.0
  C  C117  1  0.20154000  0.41953000  0.09917000  1.0
  C  C118  1  0.17182000  0.50417000  0.13174000  1.0
  C  C119  1  0.20061000  0.56727000  0.24216000  1.0
  C  C120  1  0.25939000  0.54669000  0.32221000  1.0
  C  C121  1  0.28967000  0.46282000  0.29107000  1.0
  C  C122  1  0.26109000  0.40003000  0.18045000  1.0
  C  C123  1  0.88275000  0.86725000  0.71739000  1.0
  C  C124  1  0.83911000  0.77260000  0.60456000  1.0
  C  C125  1  0.75054000  0.76802000  0.50290000  1.0
  C  C126  1  0.72618000  0.66751000  0.39994000  1.0
  C  C127  1  0.65287000  0.65281000  0.28840000  1.0
  C  C128  1  0.66286000  0.78458000  0.51374000  1.0
  C  C129  1  0.60170000  0.71272000  0.50243000  1.0
  C  C130  1  0.52453000  0.73063000  0.51835000  1.0
  C  C131  1  0.50728000  0.82139000  0.54651000  1.0
  C  C132  1  0.56708000  0.89344000  0.55716000  1.0
  C  C133  1  0.64370000  0.87465000  0.54010000  1.0
  O  O134  1  0.99525000  0.04348000  0.00455000  1.0
  O  O135  1  0.10674000  0.23626000  0.24609000  1.0
  O  O136  1  0.06230000  0.10566000  0.25029000  1.0
  O  O137  1  0.35368000  0.37839000  0.74418000  1.0
  O  O138  1  0.35336000  0.52755000  0.76604000  1.0
  O  O139  1  0.83515000  0.86759000  0.93219000  1.0
  O  O140  1  0.99235000  0.87062000  0.04131000  1.0
  O  O141  1  0.69084000  0.56664000  0.00151000  1.0
  O  O142  1  0.58853000  0.63361000  0.91383000  1.0
  O  O143  1  0.18623000  0.99546000  0.99869000  1.0
  O  O144  1  0.20059000  0.02482000  0.15719000  1.0
  O  O145  1  0.45247000  0.74166000  0.13586000  1.0
  O  O146  1  0.44454000  0.73685000  0.99007000  1.0
  O  O147  1  0.76583000  0.04756000  0.92571000  1.0
  O  O148  1  0.88775000  0.17781000  0.09664000  1.0
  O  O149  1  0.64718000  0.44613000  0.09462000  1.0
  O  O150  1  0.50839000  0.32685000  0.92949000  1.0
  O  O151  1  0.08708000  0.14591000  0.93032000  1.0
  O  O152  1  0.01460000  0.24374000  0.01276000  1.0
  O  O153  1  0.32135000  0.52984000  0.03995000  1.0
  O  O154  1  0.31514000  0.37992000  0.91395000  1.0
  O  O155  1  0.97428000  0.91375000  0.76924000  1.0
  O  O156  1  0.82538000  0.89126000  0.75186000  1.0
  O  O157  1  0.56061000  0.62767000  0.25087000  1.0
  O  O158  1  0.68913000  0.66545000  0.23886000  1.0
  O  O159  1  0.49314000  0.54750000  0.99994000  1.0
