# generated using pymatgen
data_Zn8H59C73N7O26
_symmetry_space_group_name_H-M   'P 1'
_cell_length_a   18.35716533
_cell_length_b   18.37480000
_cell_length_c   18.42240000
_cell_angle_alpha   119.64200000
_cell_angle_beta   119.86709228
_cell_angle_gamma   60.43036536
_symmetry_Int_Tables_number   1
_chemical_formula_structural   Zn8H59C73N7O26
_chemical_formula_sum   'Zn8 H59 C73 N7 O26'
_cell_volume   4424.46320468
_cell_formula_units_Z   1
loop_
 _symmetry_equiv_pos_site_id
 _symmetry_equiv_pos_as_xyz
  1  'x, y, z'
loop_
 _atom_site_type_symbol
 _atom_site_label
 _atom_site_symmetry_multiplicity
 _atom_site_fract_x
 _atom_site_fract_y
 _atom_site_fract_z
 _atom_site_occupancy
  Zn  Zn0  1  0.45651000  0.95406000  0.54011000  1.0
  Zn  Zn1  1  0.45071000  0.12881000  0.53889000  1.0
  Zn  Zn2  1  0.45561000  0.95577000  0.36730000  1.0
  Zn  Zn3  1  0.62885000  0.95441000  0.53690000  1.0
  Zn  Zn4  1  0.04262000  0.53948000  0.95115000  1.0
  Zn  Zn5  1  0.04239000  0.54150000  0.12801000  1.0
  Zn  Zn6  1  0.03968000  0.37027000  0.95496000  1.0
  Zn  Zn7  1  0.86803000  0.54542000  0.95321000  1.0
  H  H8  1  0.15941000  0.74110000  0.08747000  1.0
  H  H9  1  0.68193000  0.41224000  0.82174000  1.0
  H  H10  1  0.93254000  0.15041000  0.68512000  1.0
  H  H11  1  0.97214000  0.12399000  0.78214000  1.0
  H  H12  1  0.87516000  0.02970000  0.70134000  1.0
  H  H13  1  0.24071000  0.19532000  0.08914000  1.0
  H  H14  1  0.17499000  0.46367000  0.37938000  1.0
  H  H15  1  0.27944000  0.36332000  0.47136000  1.0
  H  H16  1  0.19594000  0.31572000  0.42910000  1.0
  H  H17  1  0.35314000  0.09290000  0.75143000  1.0
  H  H18  1  0.16376000  0.31997000  0.57089000  1.0
  H  H19  1  0.21507000  0.68377000  0.37268000  1.0
  H  H20  1  0.24530000  0.37294000  0.65498000  1.0
  H  H21  1  0.91677000  0.77182000  0.96177000  1.0
  H  H22  1  0.78710000  0.53670000  0.72379000  1.0
  H  H23  1  0.60839000  0.72417000  0.53011000  1.0
  H  H24  1  0.24938000  0.84241000  0.18362000  1.0
  H  H25  1  0.63495000  0.50292000  0.40648000  1.0
  H  H26  1  0.54269000  0.54172000  0.43932000  1.0
  H  H27  1  0.55793000  0.61106000  0.41019000  1.0
  H  H28  1  0.32435000  0.77075000  0.54424000  1.0
  H  H29  1  0.34079000  0.84929000  0.52895000  1.0
  H  H30  1  0.30660000  0.59627000  0.33888000  1.0
  H  H31  1  0.23353000  0.83871000  0.48018000  1.0
  H  H32  1  0.56784000  0.69813000  0.21831000  1.0
  H  H33  1  0.51980000  0.76906000  0.15708000  1.0
  H  H34  1  0.57630000  0.65446000  0.11116000  1.0
  H  H35  1  0.87866000  0.87604000  0.29210000  1.0
  H  H36  1  0.97537000  0.85983000  0.37190000  1.0
  H  H37  1  0.68782000  0.01988000  0.74752000  1.0
  H  H38  1  0.61044000  0.99212000  0.75193000  1.0
  H  H39  1  0.65715000  0.07171000  0.84334000  1.0
  H  H40  1  0.79662000  0.00484000  0.54908000  1.0
  H  H41  1  0.39941000  0.69472000  0.43151000  1.0
  H  H42  1  0.81392000  0.08435000  0.54961000  1.0
  H  H43  1  0.39736000  0.03693000  0.20453000  1.0
  H  H44  1  0.34922000  0.05955000  0.10564000  1.0
  H  H45  1  0.88002000  0.05860000  0.99327000  1.0
  H  H46  1  0.78477000  0.08880000  0.90473000  1.0
  H  H47  1  0.77321000  0.09888000  0.99951000  1.0
  H  H48  1  0.04453000  0.47434000  0.38525000  1.0
  H  H49  1  0.04615000  0.37495000  0.31108000  1.0
  H  H50  1  0.22587000  0.20798000  0.89787000  1.0
  H  H51  1  0.30683000  0.11236000  0.85909000  1.0
  H  H52  1  0.69898000  0.63445000  0.09560000  1.0
  H  H53  1  0.00612000  0.44095000  0.70120000  1.0
  H  H54  1  0.01145000  0.45419000  0.61475000  1.0
  H  H55  1  0.03173000  0.34637000  0.60910000  1.0
  H  H56  1  0.12575000  0.52943000  0.73552000  1.0
  H  H57  1  0.13528000  0.50709000  0.81659000  1.0
  H  H58  1  0.98780000  0.94729000  0.04344000  1.0
  H  H59  1  0.91019000  0.98790000  0.09562000  1.0
  H  H60  1  0.98125000  0.87562000  0.07673000  1.0
  H  H61  1  0.67443000  0.43053000  0.49601000  1.0
  H  H62  1  0.73731000  0.42031000  0.59820000  1.0
  H  H63  1  0.96211000  0.74061000  0.37656000  1.0
  H  H64  1  0.86112000  0.84079000  0.46718000  1.0
  H  H65  1  0.81342000  0.91849000  0.41144000  1.0
  H  H66  1  0.58536000  0.31749000  0.73278000  1.0
  C  C67  1  0.63196000  0.13971000  0.63833000  1.0
  C  C68  1  0.69721000  0.54506000  0.59542000  1.0
  C  C69  1  0.64642000  0.59906000  0.53898000  1.0
  C  C70  1  0.35338000  0.86834000  0.35684000  1.0
  C  C71  1  0.64787000  0.68410000  0.57363000  1.0
  C  C72  1  0.29257000  0.75873000  0.33323000  1.0
  C  C73  1  0.29708000  0.81036000  0.30084000  1.0
  C  C74  1  0.24720000  0.80287000  0.21077000  1.0
  C  C75  1  0.19690000  0.74609000  0.15692000  1.0
  C  C76  1  0.19326000  0.69352000  0.18997000  1.0
  C  C77  1  0.24203000  0.70191000  0.27912000  1.0
  C  C78  1  0.87050000  0.81716000  0.92385000  1.0
  C  C79  1  0.26938000  0.66752000  0.35169000  1.0
  C  C80  1  0.32750000  0.73148000  0.41372000  1.0
  C  C81  1  0.77405000  0.79820000  0.32649000  1.0
  C  C82  1  0.35536000  0.13246000  0.63040000  1.0
  C  C83  1  0.69073000  0.79131000  0.29778000  1.0
  C  C84  1  0.66370000  0.72938000  0.21195000  1.0
  C  C85  1  0.72031000  0.68113000  0.16144000  1.0
  C  C86  1  0.80398000  0.68886000  0.19108000  1.0
  C  C87  1  0.82972000  0.74826000  0.27567000  1.0
  C  C88  1  0.90282000  0.78848000  0.34584000  1.0
  C  C89  1  0.81017000  0.78617000  0.83846000  1.0
  C  C90  1  0.83705000  0.84771000  0.40234000  1.0
  C  C91  1  0.77857000  0.16353000  0.70285000  1.0
  C  C92  1  0.68900000  0.19711000  0.69399000  1.0
  C  C93  1  0.65524000  0.28861000  0.73829000  1.0
  C  C94  1  0.63468000  0.85052000  0.35545000  1.0
  C  C95  1  0.70938000  0.34175000  0.78811000  1.0
  C  C96  1  0.80011000  0.30694000  0.79629000  1.0
  C  C97  1  0.83253000  0.21673000  0.75162000  1.0
  C  C98  1  0.91257000  0.14210000  0.72708000  1.0
  C  C99  1  0.85260000  0.08057000  0.67280000  1.0
  C  C100  1  0.74975000  0.84596000  0.78753000  1.0
  C  C101  1  0.25641000  0.27470000  0.33072000  1.0
  C  C102  1  0.31426000  0.19030000  0.29947000  1.0
  C  C103  1  0.30800000  0.16144000  0.20915000  1.0
  C  C104  1  0.24533000  0.21810000  0.15793000  1.0
  C  C105  1  0.18933000  0.30232000  0.19165000  1.0
  C  C106  1  0.37329000  0.13515000  0.35692000  1.0
  C  C107  1  0.19624000  0.32972000  0.27987000  1.0
  C  C108  1  0.15873000  0.40311000  0.35308000  1.0
  C  C109  1  0.22791000  0.33879000  0.41113000  1.0
  C  C110  1  0.24184000  0.27459000  0.68849000  1.0
  C  C111  1  0.80706000  0.69968000  0.80405000  1.0
  C  C112  1  0.30077000  0.18937000  0.68948000  1.0
  C  C113  1  0.30749000  0.15917000  0.74961000  1.0
  C  C114  1  0.25820000  0.21097000  0.80835000  1.0
  C  C115  1  0.19773000  0.29824000  0.80654000  1.0
  C  C116  1  0.19252000  0.32577000  0.74499000  1.0
  C  C117  1  0.14054000  0.40045000  0.70455000  1.0
  C  C118  1  0.63998000  0.86224000  0.63664000  1.0
  C  C119  1  0.20037000  0.34180000  0.64246000  1.0
  C  C120  1  0.86078000  0.63472000  0.13410000  1.0
  C  C121  1  0.14266000  0.35621000  0.86396000  1.0
  C  C122  1  0.75101000  0.66608000  0.71811000  1.0
  C  C123  1  0.13986000  0.63267000  0.13212000  1.0
  C  C124  1  0.85722000  0.36424000  0.85005000  1.0
  C  C125  1  0.12802000  0.35944000  0.13468000  1.0
  C  C126  1  0.86449000  0.64090000  0.86006000  1.0
  C  C127  1  0.74670000  0.93755000  0.83005000  1.0
  C  C128  1  0.81019000  0.96310000  0.91167000  1.0
  C  C129  1  0.87381000  0.90154000  0.95908000  1.0
  C  C130  1  0.59278000  0.56195000  0.44411000  1.0
  C  C131  1  0.30526000  0.80179000  0.49661000  1.0
  C  C132  1  0.57739000  0.71169000  0.17242000  1.0
  C  C133  1  0.69757000  0.72203000  0.66356000  1.0
  C  C134  1  0.67213000  0.00847000  0.79068000  1.0
  C  C135  1  0.81190000  0.05690000  0.95391000  1.0
  C  C136  1  0.04159000  0.41072000  0.65429000  1.0
  C  C137  1  0.94158000  0.92939000  0.04821000  1.0
  C  C138  1  0.69698000  0.81035000  0.69949000  1.0
  C  C139  1  0.74834000  0.57856000  0.68197000  1.0
  N  N140  1  0.93144000  0.82918000  0.31881000  1.0
  N  N141  1  0.84133000  0.03748000  0.57891000  1.0
  N  N142  1  0.36272000  0.08156000  0.17181000  1.0
  N  N143  1  0.06373000  0.42861000  0.33155000  1.0
  N  N144  1  0.27208000  0.17744000  0.86781000  1.0
  N  N145  1  0.15920000  0.48310000  0.76661000  1.0
  N  N146  1  0.69091000  0.46140000  0.56246000  1.0
  O  O147  1  0.49882000  0.99903000  0.49679000  1.0
  O  O148  1  0.94109000  0.32398000  0.86735000  1.0
  O  O149  1  0.10652000  0.44278000  0.17475000  1.0
  O  O150  1  0.67256000  0.05662000  0.60893000  1.0
  O  O151  1  0.82441000  0.62500000  0.88805000  1.0
  O  O152  1  0.10366000  0.31994000  0.05084000  1.0
  O  O153  1  0.94789000  0.61072000  0.87444000  1.0
  O  O154  1  0.11069000  0.61787000  0.04864000  1.0
  O  O155  1  0.81825000  0.44783000  0.87417000  1.0
  O  O156  1  0.94387000  0.62215000  0.17382000  1.0
  O  O157  1  0.13229000  0.32135000  0.90261000  1.0
  O  O158  1  0.38825000  0.04925000  0.61815000  1.0
  O  O159  1  0.38985000  0.87599000  0.43905000  1.0
  O  O160  1  0.36513000  0.17210000  0.59682000  1.0
  O  O161  1  0.55125000  0.86238000  0.31991000  1.0
  O  O162  1  0.38151000  0.17372000  0.43904000  1.0
  O  O163  1  0.67972000  0.87919000  0.60928000  1.0
  O  O164  1  0.41184000  0.05184000  0.32154000  1.0
  O  O165  1  0.55614000  0.88198000  0.61311000  1.0
  O  O166  1  0.67462000  0.88714000  0.43720000  1.0
  O  O167  1  0.54844000  0.17736000  0.62378000  1.0
  O  O168  1  0.36200000  0.90487000  0.31906000  1.0
  O  O169  1  0.99829000  0.49951000  0.99738000  1.0
  O  O170  1  0.82115000  0.60572000  0.05070000  1.0
  O  O171  1  0.10724000  0.43853000  0.87150000  1.0
  O  O172  1  0.12795000  0.60041000  0.17130000  1.0
