# generated using pymatgen
data_CuH14C13IN4
_symmetry_space_group_name_H-M   'P 1'
_cell_length_a   4.11567000
_cell_length_b   11.35120000
_cell_length_c   14.70120000
_cell_angle_alpha   101.15100000
_cell_angle_beta   93.88090000
_cell_angle_gamma   96.60870000
_symmetry_Int_Tables_number   1
_chemical_formula_structural   CuH14C13IN4
_chemical_formula_sum   'Cu2 H28 C26 I2 N8'
_cell_volume   666.50748519
_cell_formula_units_Z   2
loop_
 _symmetry_equiv_pos_site_id
 _symmetry_equiv_pos_as_xyz
  1  'x, y, z'
loop_
 _atom_site_type_symbol
 _atom_site_label
 _atom_site_symmetry_multiplicity
 _atom_site_fract_x
 _atom_site_fract_y
 _atom_site_fract_z
 _atom_site_occupancy
  Cu  Cu0  1  0.21546000  0.98740000  0.56443000  1.0
  Cu  Cu1  1  0.78453000  0.01260000  0.43557000  1.0
  H  H2  1  0.66007000  0.19348000  0.66258000  1.0
  H  H3  1  0.33991000  0.80652000  0.33742000  1.0
  H  H4  1  0.92817000  0.27610000  0.82503000  1.0
  H  H5  1  0.07180000  0.72390000  0.17496000  1.0
  H  H6  1  0.34986000  0.98442000  0.91351000  1.0
  H  H7  1  0.65014000  0.01558000  0.08649000  1.0
  H  H8  1  0.09149000  0.91862000  0.74920000  1.0
  H  H9  1  0.90849000  0.08139000  0.25080000  1.0
  H  H10  1  0.12386000  0.15182000  0.12139000  1.0
  H  H11  1  0.87614000  0.84818000  0.87862000  1.0
  H  H12  1  0.48125000  0.23465000  0.26550000  1.0
  H  H13  1  0.51875000  0.76535000  0.73450000  1.0
  H  H14  1  0.61327000  0.58448000  0.18370000  1.0
  H  H15  1  0.38675000  0.41552000  0.81631000  1.0
  H  H16  1  0.23917000  0.50066000  0.04426000  1.0
  H  H17  1  0.76085000  0.49934000  0.95574000  1.0
  H  H18  1  0.73785000  0.39147000  0.43642000  1.0
  H  H19  1  0.26215000  0.60853000  0.56358000  1.0
  H  H20  1  0.14878000  0.42603000  0.40823000  1.0
  H  H21  1  0.85122000  0.57397000  0.59177000  1.0
  H  H22  1  0.89649000  0.29656000  0.34411000  1.0
  H  H23  1  0.10351000  0.70344000  0.65590000  1.0
  H  H24  1  0.10085000  0.60611000  0.27860000  1.0
  H  H25  1  0.89916000  0.39388000  0.72140000  1.0
  H  H26  1  0.08088000  0.61225000  0.40006000  1.0
  H  H27  1  0.91912000  0.38776000  0.59994000  1.0
  H  H28  1  0.74902000  0.65168000  0.33460000  1.0
  H  H29  1  0.25098000  0.34832000  0.66539000  1.0
  C  C30  1  0.59312000  0.15229000  0.72101000  1.0
  C  C31  1  0.40688000  0.84771000  0.27898000  1.0
  C  C32  1  0.74069000  0.19753000  0.81003000  1.0
  C  C33  1  0.25931000  0.80248000  0.18997000  1.0
  C  C34  1  0.65711000  0.13794000  0.88249000  1.0
  C  C35  1  0.34288000  0.86206000  0.11751000  1.0
  C  C36  1  0.42177000  0.03422000  0.85996000  1.0
  C  C37  1  0.57824000  0.96578000  0.14004000  1.0
  C  C38  1  0.28038000  0.99702000  0.76883000  1.0
  C  C39  1  0.71962000  0.00298000  0.23117000  1.0
  C  C40  1  0.15334000  0.32045000  0.07305000  1.0
  C  C41  1  0.84668000  0.67956000  0.92694000  1.0
  C  C42  1  0.22812000  0.24687000  0.13717000  1.0
  C  C43  1  0.77185000  0.75311000  0.86282000  1.0
  C  C44  1  0.43346000  0.29343000  0.21703000  1.0
  C  C45  1  0.56655000  0.70657000  0.78298000  1.0
  C  C46  1  0.58192000  0.41681000  0.23668000  1.0
  C  C47  1  0.41807000  0.58318000  0.76332000  1.0
  C  C48  1  0.50478000  0.49027000  0.17206000  1.0
  C  C49  1  0.49523000  0.50973000  0.82794000  1.0
  C  C50  1  0.29618000  0.44290000  0.09280000  1.0
  C  C51  1  0.70385000  0.55709000  0.90720000  1.0
  C  C52  1  0.89644000  0.39086000  0.37882000  1.0
  C  C53  1  0.10355000  0.60914000  0.62118000  1.0
  C  C54  1  0.93682000  0.58995000  0.33224000  1.0
  C  C55  1  0.06319000  0.41005000  0.66776000  1.0
  I  I56  1  0.67889000  0.83561000  0.52753000  1.0
  I  I57  1  0.32113000  0.16438000  0.47247000  1.0
  N  N58  1  0.36317000  0.05355000  0.69912000  1.0
  N  N59  1  0.63681000  0.94646000  0.30087000  1.0
  N  N60  1  0.81248000  0.17262000  0.97310000  1.0
  N  N61  1  0.18752000  0.82738000  0.02690000  1.0
  N  N62  1  0.95880000  0.28205000  0.99026000  1.0
  N  N63  1  0.04121000  0.71795000  0.00974000  1.0
  N  N64  1  0.79222000  0.46379000  0.31415000  1.0
  N  N65  1  0.20778000  0.53620000  0.68585000  1.0
