# generated using pymatgen
data_CdH14(C5N2)2
_symmetry_space_group_name_H-M   'P 1'
_cell_length_a   8.64554000
_cell_length_b   8.64552000
_cell_length_c   13.88310000
_cell_angle_alpha   89.99960000
_cell_angle_beta   89.99970000
_cell_angle_gamma   60.00022957
_symmetry_Int_Tables_number   1
_chemical_formula_structural   CdH14(C5N2)2
_chemical_formula_sum   'Cd3 H42 C30 N12'
_cell_volume   898.67225238
_cell_formula_units_Z   3
loop_
 _symmetry_equiv_pos_site_id
 _symmetry_equiv_pos_as_xyz
  1  'x, y, z'
loop_
 _atom_site_type_symbol
 _atom_site_label
 _atom_site_symmetry_multiplicity
 _atom_site_fract_x
 _atom_site_fract_y
 _atom_site_fract_z
 _atom_site_occupancy
  Cd  Cd0  1  0.53629000  0.00000000  0.00000000  1.0
  Cd  Cd1  1  0.00000000  0.46370000  0.33333333  1.0
  Cd  Cd2  1  0.46370000  0.53630000  0.66666667  1.0
  H  H3  1  0.77041000  0.70414000  0.86728000  1.0
  H  H4  1  0.70414000  0.52545000  0.20061000  1.0
  H  H5  1  0.52545000  0.77041000  0.53395000  1.0
  H  H6  1  0.47455000  0.29586000  0.13272000  1.0
  H  H7  1  0.22959000  0.47456000  0.79939000  1.0
  H  H8  1  0.29586000  0.22959000  0.46605000  1.0
  H  H9  1  0.75628000  0.55443000  0.78658000  1.0
  H  H10  1  0.55443000  0.68929000  0.11990000  1.0
  H  H11  1  0.68929000  0.75628000  0.45325000  1.0
  H  H12  1  0.31071000  0.44557000  0.21343000  1.0
  H  H13  1  0.24372000  0.31071000  0.88010000  1.0
  H  H14  1  0.44557000  0.24372000  0.54675000  1.0
  H  H15  1  0.91716000  0.69592000  0.71002000  1.0
  H  H16  1  0.69591000  0.38692000  0.04335000  1.0
  H  H17  1  0.38693000  0.91716000  0.37669000  1.0
  H  H18  1  0.61308000  0.30408000  0.28998000  1.0
  H  H19  1  0.08283000  0.61308000  0.95666000  1.0
  H  H20  1  0.30409000  0.08283000  0.62332000  1.0
  H  H21  1  0.73095000  0.91239000  0.73080000  1.0
  H  H22  1  0.91239000  0.35665000  0.06413000  1.0
  H  H23  1  0.35666000  0.73095000  0.39747000  1.0
  H  H24  1  0.64334000  0.08761000  0.26920000  1.0
  H  H25  1  0.26905000  0.64334000  0.93587000  1.0
  H  H26  1  0.08761000  0.26905000  0.60253000  1.0
  H  H27  1  0.71430000  0.76408000  0.64796000  1.0
  H  H28  1  0.76408000  0.52161000  0.98128000  1.0
  H  H29  1  0.52162000  0.71430000  0.31463000  1.0
  H  H30  1  0.47839000  0.23591000  0.35205000  1.0
  H  H31  1  0.28569000  0.47839000  0.01872000  1.0
  H  H32  1  0.23592000  0.28570000  0.68537000  1.0
  H  H33  1  0.10821000  0.90401000  0.75309000  1.0
  H  H34  1  0.90402000  0.98777000  0.08641000  1.0
  H  H35  1  0.98778000  0.10821000  0.41976000  1.0
  H  H36  1  0.01222000  0.09599000  0.24691000  1.0
  H  H37  1  0.89178000  0.01223000  0.91358000  1.0
  H  H38  1  0.09599000  0.89178000  0.58024000  1.0
  H  H39  1  0.14066000  0.07316000  0.91519000  1.0
  H  H40  1  0.07316000  0.78618000  0.24852000  1.0
  H  H41  1  0.78618000  0.14066000  0.58186000  1.0
  H  H42  1  0.21382000  0.92684000  0.08481000  1.0
  H  H43  1  0.85933000  0.21384000  0.75148000  1.0
  H  H44  1  0.92684000  0.85934000  0.41814000  1.0
  C  C45  1  0.24273000  0.97490000  0.86812000  1.0
  C  C46  1  0.97491000  0.78236000  0.20145000  1.0
  C  C47  1  0.78236000  0.24274000  0.53479000  1.0
  C  C48  1  0.21764000  0.02509000  0.13188000  1.0
  C  C49  1  0.75726000  0.21765000  0.79855000  1.0
  C  C50  1  0.02510000  0.75726000  0.46521000  1.0
  C  C51  1  0.51068000  0.79362000  0.81232000  1.0
  C  C52  1  0.79363000  0.69569000  0.14565000  1.0
  C  C53  1  0.69570000  0.51068000  0.47899000  1.0
  C  C54  1  0.30431000  0.20637000  0.18768000  1.0
  C  C55  1  0.48931000  0.30432000  0.85435000  1.0
  C  C56  1  0.20638000  0.48932000  0.52101000  1.0
  C  C57  1  0.22655000  0.89255000  0.78696000  1.0
  C  C58  1  0.89256000  0.88089000  0.12029000  1.0
  C  C59  1  0.88090000  0.22655000  0.45364000  1.0
  C  C60  1  0.11911000  0.10744000  0.21304000  1.0
  C  C61  1  0.77344000  0.11912000  0.87971000  1.0
  C  C62  1  0.10745000  0.77345000  0.54637000  1.0
  C  C63  1  0.70880000  0.69708000  0.79925000  1.0
  C  C64  1  0.69708000  0.59412000  0.13257000  1.0
  C  C65  1  0.59412000  0.70880000  0.46592000  1.0
  C  C66  1  0.40588000  0.30292000  0.20075000  1.0
  C  C67  1  0.29120000  0.40588000  0.86742000  1.0
  C  C68  1  0.30292000  0.29120000  0.53408000  1.0
  C  C69  1  0.77109000  0.77208000  0.71721000  1.0
  C  C70  1  0.77208000  0.45682000  0.05054000  1.0
  C  C71  1  0.45683000  0.77109000  0.38388000  1.0
  C  C72  1  0.54318000  0.22792000  0.28279000  1.0
  C  C73  1  0.22890000  0.54318000  0.94946000  1.0
  C  C74  1  0.22792000  0.22891000  0.61612000  1.0
  N  N75  1  0.42249000  0.91121000  0.88380000  1.0
  N  N76  1  0.91121000  0.66629000  0.21712000  1.0
  N  N77  1  0.66630000  0.42250000  0.55047000  1.0
  N  N78  1  0.33370000  0.08879000  0.11620000  1.0
  N  N79  1  0.57750000  0.33371000  0.78288000  1.0
  N  N80  1  0.08880000  0.57750000  0.44953000  1.0
  N  N81  1  0.39591000  0.77882000  0.75185000  1.0
  N  N82  1  0.77882000  0.82526000  0.08518000  1.0
  N  N83  1  0.82527000  0.39592000  0.41853000  1.0
  N  N84  1  0.17473000  0.22118000  0.24815000  1.0
  N  N85  1  0.60408000  0.17474000  0.91482000  1.0
  N  N86  1  0.22119000  0.60408000  0.58147000  1.0
