# generated using pymatgen
data_MnH5C5N2ClO3
_symmetry_space_group_name_H-M   'P 1'
_cell_length_a   8.71967000
_cell_length_b   8.71971000
_cell_length_c   11.80130000
_cell_angle_alpha   101.76800000
_cell_angle_beta   101.76800000
_cell_angle_gamma   110.16900000
_symmetry_Int_Tables_number   1
_chemical_formula_structural   MnH5C5N2ClO3
_chemical_formula_sum   'Mn4 H20 C20 N8 Cl4 O12'
_cell_volume   786.98137768
_cell_formula_units_Z   4
loop_
 _symmetry_equiv_pos_site_id
 _symmetry_equiv_pos_as_xyz
  1  'x, y, z'
loop_
 _atom_site_type_symbol
 _atom_site_label
 _atom_site_symmetry_multiplicity
 _atom_site_fract_x
 _atom_site_fract_y
 _atom_site_fract_z
 _atom_site_occupancy
  Mn  Mn0  1  0.04490000  0.29508000  0.72703000  1.0
  Mn  Mn1  1  0.29508000  0.04490000  0.22703000  1.0
  Mn  Mn2  1  0.95510000  0.70492000  0.27297000  1.0
  Mn  Mn3  1  0.70492000  0.95510000  0.77297000  1.0
  H  H4  1  0.00394000  0.31655000  0.50107000  1.0
  H  H5  1  0.31655000  0.00394000  0.00107000  1.0
  H  H6  1  0.99606000  0.68344000  0.49893000  1.0
  H  H7  1  0.68345000  0.99606000  0.99893000  1.0
  H  H8  1  0.66643000  0.31811000  0.60756000  1.0
  H  H9  1  0.31811000  0.66643000  0.10756000  1.0
  H  H10  1  0.33357000  0.68188000  0.39244000  1.0
  H  H11  1  0.68189000  0.33357000  0.89244000  1.0
  H  H12  1  0.56008000  0.55774000  0.62723000  1.0
  H  H13  1  0.55774000  0.56008000  0.12723000  1.0
  H  H14  1  0.43992000  0.44226000  0.37277000  1.0
  H  H15  1  0.44226000  0.43992000  0.87277000  1.0
  H  H16  1  0.03564000  0.89997000  0.86337000  1.0
  H  H17  1  0.89997000  0.03564000  0.36337000  1.0
  H  H18  1  0.96436000  0.10003000  0.13663000  1.0
  H  H19  1  0.10003000  0.96436000  0.63663000  1.0
  H  H20  1  0.15434000  0.48767000  0.58151000  1.0
  H  H21  1  0.48767000  0.15434000  0.08151000  1.0
  H  H22  1  0.84566000  0.51233000  0.41849000  1.0
  H  H23  1  0.51233000  0.84566000  0.91849000  1.0
  C  C24  1  0.74831000  0.44837000  0.66521000  1.0
  C  C25  1  0.44837000  0.74831000  0.16521000  1.0
  C  C26  1  0.25169000  0.55163000  0.33479000  1.0
  C  C27  1  0.55163000  0.25169000  0.83479000  1.0
  C  C28  1  0.69008000  0.57927000  0.67521000  1.0
  C  C29  1  0.57927000  0.69008000  0.17522000  1.0
  C  C30  1  0.30992000  0.42073000  0.32479000  1.0
  C  C31  1  0.42073000  0.30992000  0.82479000  1.0
  C  C32  1  0.95359000  0.76983000  0.80584000  1.0
  C  C33  1  0.76983000  0.95359000  0.30585000  1.0
  C  C34  1  0.04641000  0.23017000  0.19416000  1.0
  C  C35  1  0.23017000  0.04641000  0.69415000  1.0
  C  C36  1  0.01260000  0.63924000  0.79436000  1.0
  C  C37  1  0.63924000  0.01260000  0.29436000  1.0
  C  C38  1  0.98740000  0.36076000  0.20564000  1.0
  C  C39  1  0.36076000  0.98740000  0.70564000  1.0
  C  C40  1  0.19557000  0.67031000  0.85327000  1.0
  C  C41  1  0.67030000  0.19557000  0.35327000  1.0
  C  C42  1  0.80443000  0.32969000  0.14673000  1.0
  C  C43  1  0.32969000  0.80443000  0.64673000  1.0
  N  N44  1  0.90868000  0.47849000  0.72573000  1.0
  N  N45  1  0.47849000  0.90867000  0.22573000  1.0
  N  N46  1  0.09132000  0.52151000  0.27427000  1.0
  N  N47  1  0.52151000  0.09132000  0.77427000  1.0
  N  N48  1  0.79263000  0.73945000  0.74655000  1.0
  N  N49  1  0.73945000  0.79263000  0.24655000  1.0
  N  N50  1  0.20737000  0.26055000  0.25345000  1.0
  N  N51  1  0.26055000  0.20737000  0.75345000  1.0
  Cl  Cl52  1  0.79586000  0.03571000  0.59525000  1.0
  Cl  Cl53  1  0.03571000  0.79586000  0.09525000  1.0
  Cl  Cl54  1  0.20414000  0.96430000  0.40475000  1.0
  Cl  Cl55  1  0.96429000  0.20414000  0.90476000  1.0
  O  O56  1  0.23090000  0.53981000  0.84578000  1.0
  O  O57  1  0.53981000  0.23090000  0.34578000  1.0
  O  O58  1  0.76910000  0.46019000  0.15422000  1.0
  O  O59  1  0.46019000  0.76910000  0.65422000  1.0
  O  O60  1  0.30388000  0.82352000  0.90209000  1.0
  O  O61  1  0.82352000  0.30388000  0.40209000  1.0
  O  O62  1  0.69612000  0.17648000  0.09791000  1.0
  O  O63  1  0.17648000  0.69612000  0.59791000  1.0
  O  O64  1  0.11206000  0.36128000  0.56851000  1.0
  O  O65  1  0.36128000  0.11206000  0.06851000  1.0
  O  O66  1  0.88794000  0.63872000  0.43149000  1.0
  O  O67  1  0.63872000  0.88794000  0.93149000  1.0
