# generated using pymatgen
data_Zn2H21C32N5Cl3O8
_symmetry_space_group_name_H-M   'P 1'
_cell_length_a   11.13770000
_cell_length_b   14.02820000
_cell_length_c   26.46880000
_cell_angle_alpha   90.74450000
_cell_angle_beta   89.72080000
_cell_angle_gamma   89.75990000
_symmetry_Int_Tables_number   1
_chemical_formula_structural   Zn2H21C32N5Cl3O8
_chemical_formula_sum   'Zn4 H42 C64 N10 Cl6 O16'
_cell_volume   4135.09951565
_cell_formula_units_Z   2
loop_
 _symmetry_equiv_pos_site_id
 _symmetry_equiv_pos_as_xyz
  1  'x, y, z'
loop_
 _atom_site_type_symbol
 _atom_site_label
 _atom_site_symmetry_multiplicity
 _atom_site_fract_x
 _atom_site_fract_y
 _atom_site_fract_z
 _atom_site_occupancy
  Zn  Zn0  1  0.49578000  0.40179000  0.49755000  1.0
  Zn  Zn1  1  0.49422000  0.60107000  0.50449000  1.0
  Zn  Zn2  1  0.50358000  0.60019000  0.07982000  1.0
  Zn  Zn3  1  0.50437000  0.40153000  0.08194000  1.0
  H  H4  1  0.46790000  0.25064000  0.41794000  1.0
  H  H5  1  0.31184000  0.75070000  0.48232000  1.0
  H  H6  1  0.67367000  0.75731000  0.51681000  1.0
  H  H7  1  0.67849000  0.93683000  0.51188000  1.0
  H  H8  1  0.52124000  0.24507000  0.57246000  1.0
  H  H9  1  0.52162000  0.06512000  0.57258000  1.0
  H  H10  1  0.49262000  0.28200000  0.23457000  1.0
  H  H11  1  0.65025000  0.30281000  0.23793000  1.0
  H  H12  1  0.63999000  0.29110000  0.33287000  1.0
  H  H13  1  0.48155000  0.27328000  0.32902000  1.0
  H  H14  1  0.57914000  0.35286000  0.66036000  1.0
  H  H15  1  0.59754000  0.62892000  0.91705000  1.0
  H  H16  1  0.39016000  0.37196000  0.92230000  1.0
  H  H17  1  0.38682000  0.36563000  0.82777000  1.0
  H  H18  1  0.38459000  0.61780000  0.66309000  1.0
  H  H19  1  0.38857000  0.61831000  0.75755000  1.0
  H  H20  1  0.87547000  0.73541000  0.47416000  1.0
  H  H21  1  0.89058000  0.73185000  0.54141000  1.0
  H  H22  1  0.11473000  0.73235000  0.53190000  1.0
  H  H23  1  0.09906000  0.73416000  0.46474000  1.0
  H  H24  1  0.53350000  0.75822000  0.15654000  1.0
  H  H25  1  0.32248000  0.25018000  0.10055000  1.0
  H  H26  1  0.68240000  0.24775000  0.06101000  1.0
  H  H27  1  0.68818000  0.06775000  0.05782000  1.0
  H  H28  1  0.48844000  0.75243000  0.00128000  1.0
  H  H29  1  0.48465000  0.93232000  0.99796000  1.0
  H  H30  1  0.88623000  0.27210000  0.11382000  1.0
  H  H31  1  0.90060000  0.26954000  0.04646000  1.0
  H  H32  1  0.12457000  0.26896000  0.05438000  1.0
  H  H33  1  0.11046000  0.27379000  0.12167000  1.0
  H  H34  1  0.50983000  0.67048000  0.38436000  1.0
  H  H35  1  0.53596000  0.73300000  0.32995000  1.0
  H  H36  1  0.45701000  0.67831000  0.20941000  1.0
  H  H37  1  0.42178000  0.72440000  0.26800000  1.0
  H  H38  1  0.20461000  0.33857000  0.49633000  1.0
  H  H39  1  0.07257000  0.28382000  0.51359000  1.0
  H  H40  1  0.78480000  0.34075000  0.49372000  1.0
  H  H41  1  0.91593000  0.28760000  0.47274000  1.0
  H  H42  1  0.21168000  0.66506000  0.07691000  1.0
  H  H43  1  0.07845000  0.71850000  0.06037000  1.0
  H  H44  1  0.79249000  0.66445000  0.08584000  1.0
  H  H45  1  0.92428000  0.71925000  0.10321000  1.0
  C  C46  1  0.48144000  0.48570000  0.59939000  1.0
  C  C47  1  0.25866000  0.51254000  0.49529000  1.0
  C  C48  1  0.51508000  0.49404000  0.40156000  1.0
  C  C49  1  0.73126000  0.51364000  0.50578000  1.0
  C  C50  1  0.49554000  0.50620000  0.98190000  1.0
  C  C51  1  0.26758000  0.49239000  0.08423000  1.0
  C  C52  1  0.51375000  0.51269000  0.18013000  1.0
  C  C53  1  0.74012000  0.49073000  0.07821000  1.0
  C  C54  1  0.47796000  0.20654000  0.45131000  1.0
  C  C55  1  0.47599000  0.10711000  0.44824000  1.0
  C  C56  1  0.39103000  0.79491000  0.48807000  1.0
  C  C57  1  0.38642000  0.89399000  0.48418000  1.0
  C  C58  1  0.59400000  0.79921000  0.50797000  1.0
  C  C59  1  0.59550000  0.89800000  0.50493000  1.0
  C  C60  1  0.50949000  0.20287000  0.53798000  1.0
  C  C61  1  0.50920000  0.10385000  0.53754000  1.0
  C  C62  1  0.49097000  0.05342000  0.49221000  1.0
  C  C63  1  0.49052000  0.94793000  0.49273000  1.0
  C  C64  1  0.52042000  0.51249000  0.23606000  1.0
  C  C65  1  0.52063000  0.50268000  0.34589000  1.0
  C  C66  1  0.53984000  0.42738000  0.26219000  1.0
  C  C67  1  0.50837000  0.59108000  0.32083000  1.0
  C  C68  1  0.53670000  0.42233000  0.31435000  1.0
  C  C69  1  0.50256000  0.59506000  0.26676000  1.0
  C  C70  1  0.56282000  0.32154000  0.25491000  1.0
  C  C71  1  0.55707000  0.31539000  0.31452000  1.0
  C  C72  1  0.48105000  0.48525000  0.65604000  1.0
  C  C73  1  0.49331000  0.50103000  0.92530000  1.0
  C  C74  1  0.53687000  0.41089000  0.68169000  1.0
  C  C75  1  0.54156000  0.41289000  0.73434000  1.0
  C  C76  1  0.55120000  0.57132000  0.89741000  1.0
  C  C77  1  0.55168000  0.56608000  0.84481000  1.0
  C  C78  1  0.43497000  0.42626000  0.90010000  1.0
  C  C79  1  0.43389000  0.42286000  0.84757000  1.0
  C  C80  1  0.42783000  0.56033000  0.68352000  1.0
  C  C81  1  0.43092000  0.56050000  0.73598000  1.0
  C  C82  1  0.48876000  0.48768000  0.76268000  1.0
  C  C83  1  0.49236000  0.49217000  0.81863000  1.0
  C  C84  1  0.86414000  0.51033000  0.50288000  1.0
  C  C85  1  0.12562000  0.50963000  0.49544000  1.0
  C  C86  1  0.93297000  0.59404000  0.50283000  1.0
  C  C87  1  0.05929000  0.42342000  0.49573000  1.0
  C  C88  1  0.05676000  0.59377000  0.49832000  1.0
  C  C89  1  0.93026000  0.42387000  0.49797000  1.0
  C  C90  1  0.92425000  0.70188000  0.50538000  1.0
  C  C91  1  0.06565000  0.70156000  0.49967000  1.0
  C  C92  1  0.52001000  0.79906000  0.12231000  1.0
  C  C93  1  0.51617000  0.89840000  0.12384000  1.0
  C  C94  1  0.40143000  0.20674000  0.09170000  1.0
  C  C95  1  0.39763000  0.10733000  0.09132000  1.0
  C  C96  1  0.60329000  0.20479000  0.06887000  1.0
  C  C97  1  0.60537000  0.10570000  0.06734000  1.0
  C  C98  1  0.49612000  0.79687000  0.03522000  1.0
  C  C99  1  0.49414000  0.89598000  0.03388000  1.0
  C  C100  1  0.50301000  0.94909000  0.07882000  1.0
  C  C101  1  0.50135000  0.05470000  0.07896000  1.0
  C  C102  1  0.87302000  0.49409000  0.07969000  1.0
  C  C103  1  0.13453000  0.49501000  0.08452000  1.0
  C  C104  1  0.94257000  0.41039000  0.08112000  1.0
  C  C105  1  0.06738000  0.58110000  0.08228000  1.0
  C  C106  1  0.06649000  0.41084000  0.08466000  1.0
  C  C107  1  0.93839000  0.58077000  0.08163000  1.0
  C  C108  1  0.93452000  0.30258000  0.08151000  1.0
  C  C109  1  0.07608000  0.30307000  0.08616000  1.0
  N  N110  1  0.49390000  0.25287000  0.49544000  1.0
  N  N111  1  0.49293000  0.74915000  0.49984000  1.0
  N  N112  1  0.50848000  0.74963000  0.07888000  1.0
  N  N113  1  0.50279000  0.25369000  0.08084000  1.0
  N  N114  1  0.49346000  0.67743000  0.34660000  1.0
  N  N115  1  0.47997000  0.68455000  0.24662000  1.0
  N  N116  1  0.11348000  0.33431000  0.49235000  1.0
  N  N117  1  0.87602000  0.33489000  0.49707000  1.0
  N  N118  1  0.12095000  0.67033000  0.08255000  1.0
  N  N119  1  0.88334000  0.66979000  0.08080000  1.0
  Cl  Cl120  1  0.45883000  0.05341000  0.38992000  1.0
  Cl  Cl121  1  0.25077000  0.94732000  0.47122000  1.0
  Cl  Cl122  1  0.61839000  0.32175000  0.76437000  1.0
  Cl  Cl123  1  0.63102000  0.65223000  0.81200000  1.0
  Cl  Cl124  1  0.52862000  0.95658000  0.18117000  1.0
  Cl  Cl125  1  0.26495000  0.05113000  0.10595000  1.0
  O  O126  1  0.49177000  0.40574000  0.57640000  1.0
  O  O127  1  0.47217000  0.56693000  0.57882000  1.0
  O  O128  1  0.30911000  0.59398000  0.49584000  1.0
  O  O129  1  0.31691000  0.43293000  0.49543000  1.0
  O  O130  1  0.51549000  0.57077000  0.42865000  1.0
  O  O131  1  0.50902000  0.41045000  0.41990000  1.0
  O  O132  1  0.67391000  0.43440000  0.50223000  1.0
  O  O133  1  0.68003000  0.59470000  0.51133000  1.0
  O  O134  1  0.51146000  0.58837000  0.00198000  1.0
  O  O135  1  0.48197000  0.42855000  0.00541000  1.0
  O  O136  1  0.31927000  0.41200000  0.08994000  1.0
  O  O137  1  0.32429000  0.57114000  0.07752000  1.0
  O  O138  1  0.52618000  0.43284000  0.15720000  1.0
  O  O139  1  0.49523000  0.59243000  0.15768000  1.0
  O  O140  1  0.68208000  0.56994000  0.08303000  1.0
  O  O141  1  0.68959000  0.40989000  0.07260000  1.0
