# generated using pymatgen
data_CuH24C25N4O5
_symmetry_space_group_name_H-M   'P 1'
_cell_length_a   7.56496000
_cell_length_b   12.75970000
_cell_length_c   14.53740000
_cell_angle_alpha   78.29080000
_cell_angle_beta   84.40470000
_cell_angle_gamma   76.82440000
_symmetry_Int_Tables_number   1
_chemical_formula_structural   CuH24C25N4O5
_chemical_formula_sum   'Cu2 H48 C50 N8 O10'
_cell_volume   1335.94083253
_cell_formula_units_Z   2
loop_
 _symmetry_equiv_pos_site_id
 _symmetry_equiv_pos_as_xyz
  1  'x, y, z'
loop_
 _atom_site_type_symbol
 _atom_site_label
 _atom_site_symmetry_multiplicity
 _atom_site_fract_x
 _atom_site_fract_y
 _atom_site_fract_z
 _atom_site_occupancy
  Cu  Cu0  1  0.49999000  0.50000000  0.00000000  1.0
  Cu  Cu1  1  0.99999000  0.00000000  0.50000000  1.0
  H  H2  1  0.73066000  0.19330000  0.78504000  1.0
  H  H3  1  0.26932000  0.80671000  0.21496000  1.0
  H  H4  1  0.83210000  0.34583000  0.49871000  1.0
  H  H5  1  0.16792000  0.65417000  0.50129000  1.0
  H  H6  1  0.61150000  0.54525000  0.70763000  1.0
  H  H7  1  0.38851000  0.45475000  0.29237000  1.0
  H  H8  1  0.67484000  0.50943000  0.40608000  1.0
  H  H9  1  0.32516000  0.49057000  0.59391000  1.0
  H  H10  1  0.90273000  0.50822000  0.43116000  1.0
  H  H11  1  0.09728000  0.49177000  0.56884000  1.0
  H  H12  1  0.82280000  0.70966000  0.41994000  1.0
  H  H13  1  0.17723000  0.29032000  0.58007000  1.0
  H  H14  1  0.59648000  0.71317000  0.39395000  1.0
  H  H15  1  0.40355000  0.28683000  0.60605000  1.0
  H  H16  1  0.94269000  0.63962000  0.27222000  1.0
  H  H17  1  0.05733000  0.36039000  0.72778000  1.0
  H  H18  1  0.78369000  0.76595000  0.24704000  1.0
  H  H19  1  0.21632000  0.23406000  0.75296000  1.0
  H  H20  1  0.71729000  0.64200000  0.24451000  1.0
  H  H21  1  0.28272000  0.35800000  0.75549000  1.0
  H  H22  1  0.14611000  0.77228000  0.97034000  1.0
  H  H23  1  0.85389000  0.22772000  0.02966000  1.0
  H  H24  1  0.14532000  0.80236000  0.84519000  1.0
  H  H25  1  0.85468000  0.19764000  0.15480000  1.0
  H  H26  1  0.34960000  0.73476000  0.90437000  1.0
  H  H27  1  0.65041000  0.26524000  0.09563000  1.0
  H  H28  1  0.24230000  0.36921000  0.94527000  1.0
  H  H29  1  0.75768000  0.63078000  0.05475000  1.0
  H  H30  1  0.92222000  0.47350000  0.85286000  1.0
  H  H31  1  0.07775000  0.52650000  0.14714000  1.0
  H  H32  1  0.80805000  0.80159000  0.91342000  1.0
  H  H33  1  0.19193000  0.19839000  0.08659000  1.0
  H  H34  1  0.56805000  0.93177000  0.81698000  1.0
  H  H35  1  0.43194000  0.06821000  0.18303000  1.0
  H  H36  1  0.68531000  0.73138000  0.60346000  1.0
  H  H37  1  0.31470000  0.26865000  0.39653000  1.0
  H  H38  1  0.92935000  0.60447000  0.69774000  1.0
  H  H39  1  0.07067000  0.39554000  0.30225000  1.0
  H  H40  1  0.14520000  0.77628000  0.63663000  1.0
  H  H41  1  0.85481000  0.22372000  0.36337000  1.0
  H  H42  1  0.33911000  0.72876000  0.70733000  1.0
  H  H43  1  0.66089000  0.27125000  0.29267000  1.0
  H  H44  1  0.36065000  0.72216000  0.58588000  1.0
  H  H45  1  0.63935000  0.27785000  0.41412000  1.0
  H  H46  1  0.25062000  0.14295000  0.53651000  1.0
  H  H47  1  0.74939000  0.85705000  0.46348000  1.0
  H  H48  1  0.56178000  0.06066000  0.64214000  1.0
  H  H49  1  0.43821000  0.93935000  0.35786000  1.0
  C  C50  1  0.61087000  0.38188000  0.85719000  1.0
  C  C51  1  0.38911000  0.61812000  0.14281000  1.0
  C  C52  1  0.66810000  0.37067000  0.75688000  1.0
  C  C53  1  0.33189000  0.62934000  0.24312000  1.0
  C  C54  1  0.72846000  0.26733000  0.73218000  1.0
  C  C55  1  0.27154000  0.73268000  0.26782000  1.0
  C  C56  1  0.78797000  0.25979000  0.63927000  1.0
  C  C57  1  0.21205000  0.74022000  0.36073000  1.0
  C  C58  1  0.85478000  0.14872000  0.61270000  1.0
  C  C59  1  0.14523000  0.85127000  0.38731000  1.0
  C  C60  1  0.78352000  0.35484000  0.57017000  1.0
  C  C61  1  0.21649000  0.64516000  0.42983000  1.0
  C  C62  1  0.71669000  0.45765000  0.59463000  1.0
  C  C63  1  0.28331000  0.54235000  0.40538000  1.0
  C  C64  1  0.66072000  0.46526000  0.68818000  1.0
  C  C65  1  0.33930000  0.53474000  0.31182000  1.0
  C  C66  1  0.75960000  0.55282000  0.43582000  1.0
  C  C67  1  0.24040000  0.44718000  0.56417000  1.0
  C  C68  1  0.73925000  0.67060000  0.38538000  1.0
  C  C69  1  0.26077000  0.32940000  0.61462000  1.0
  C  C70  1  0.79889000  0.67966000  0.28144000  1.0
  C  C71  1  0.20113000  0.32035000  0.71857000  1.0
  C  C72  1  0.20230000  0.74175000  0.90574000  1.0
  C  C73  1  0.79770000  0.25824000  0.09426000  1.0
  C  C74  1  0.16267000  0.63311000  0.90550000  1.0
  C  C75  1  0.83732000  0.36689000  0.09450000  1.0
  C  C76  1  0.18178000  0.45524000  0.92377000  1.0
  C  C77  1  0.81820000  0.54475000  0.07624000  1.0
  C  C78  1  0.02935000  0.50438000  0.87566000  1.0
  C  C79  1  0.97062000  0.49562000  0.12434000  1.0
  C  C80  1  0.88309000  0.69522000  0.81103000  1.0
  C  C81  1  0.11690000  0.30478000  0.18897000  1.0
  C  C82  1  0.78326000  0.78747000  0.84485000  1.0
  C  C83  1  0.21673000  0.21253000  0.15515000  1.0
  C  C84  1  0.64735000  0.85971000  0.79147000  1.0
  C  C85  1  0.35264000  0.14029000  0.20853000  1.0
  C  C86  1  0.61045000  0.83851000  0.70549000  1.0
  C  C87  1  0.38955000  0.16151000  0.29451000  1.0
  C  C88  1  0.71202000  0.74718000  0.67108000  1.0
  C  C89  1  0.28800000  0.25284000  0.32891000  1.0
  C  C90  1  0.84873000  0.67585000  0.72386000  1.0
  C  C91  1  0.15127000  0.32417000  0.27613000  1.0
  C  C92  1  0.29119000  0.77154000  0.63789000  1.0
  C  C93  1  0.70881000  0.22845000  0.36211000  1.0
  C  C94  1  0.32773000  0.88375000  0.61670000  1.0
  C  C95  1  0.67226000  0.11625000  0.38331000  1.0
  C  C96  1  0.30837000  0.06083000  0.57140000  1.0
  C  C97  1  0.69164000  0.93917000  0.42859000  1.0
  C  C98  1  0.45797000  0.02321000  0.62387000  1.0
  C  C99  1  0.54202000  0.97680000  0.37612000  1.0
  N  N100  1  0.26293000  0.53550000  0.94140000  1.0
  N  N101  1  0.73706000  0.46450000  0.05860000  1.0
  N  N102  1  0.01745000  0.61642000  0.86456000  1.0
  N  N103  1  0.98254000  0.38359000  0.13544000  1.0
  N  N104  1  0.46985000  0.91132000  0.65161000  1.0
  N  N105  1  0.53014000  0.08870000  0.34838000  1.0
  N  N106  1  0.22822000  0.97459000  0.56771000  1.0
  N  N107  1  0.77178000  0.02541000  0.43229000  1.0
  O  O108  1  0.61575000  0.47707000  0.87544000  1.0
  O  O109  1  0.38425000  0.52292000  0.12457000  1.0
  O  O110  1  0.56398000  0.30505000  0.91504000  1.0
  O  O111  1  0.43600000  0.69495000  0.08496000  1.0
  O  O112  1  0.83109000  0.06399000  0.66862000  1.0
  O  O113  1  0.16892000  0.93600000  0.33140000  1.0
  O  O114  1  0.93274000  0.14997000  0.52876000  1.0
  O  O115  1  0.06725000  0.85002000  0.47125000  1.0
  O  O116  1  0.70239000  0.55538000  0.53292000  1.0
  O  O117  1  0.29760000  0.44462000  0.46708000  1.0
