# generated using pymatgen
data_CuH12C12(N4O3)2
_symmetry_space_group_name_H-M   'P 1'
_cell_length_a   6.77584000
_cell_length_b   7.35828000
_cell_length_c   9.24221000
_cell_angle_alpha   94.09090000
_cell_angle_beta   111.40100000
_cell_angle_gamma   112.27300000
_symmetry_Int_Tables_number   1
_chemical_formula_structural   CuH12C12(N4O3)2
_chemical_formula_sum   'Cu1 H12 C12 N8 O6'
_cell_volume   385.08766302
_cell_formula_units_Z   1
loop_
 _symmetry_equiv_pos_site_id
 _symmetry_equiv_pos_as_xyz
  1  'x, y, z'
loop_
 _atom_site_type_symbol
 _atom_site_label
 _atom_site_symmetry_multiplicity
 _atom_site_fract_x
 _atom_site_fract_y
 _atom_site_fract_z
 _atom_site_occupancy
  Cu  Cu0  1  0.00000000  0.50000000  0.50000000  1.0
  H  H1  1  0.88171000  0.70757000  0.72004000  1.0
  H  H2  1  0.11829000  0.29242000  0.27996000  1.0
  H  H3  1  0.48376000  0.28423000  0.27905000  1.0
  H  H4  1  0.51624000  0.71576000  0.72095000  1.0
  H  H5  1  0.74475000  0.28656000  0.14574000  1.0
  H  H6  1  0.25525000  0.71344000  0.85426000  1.0
  H  H7  1  0.66843000  0.39192000  0.88573000  1.0
  H  H8  1  0.33157000  0.60809000  0.11427000  1.0
  H  H9  1  0.07875000  0.89145000  0.39707000  1.0
  H  H10  1  0.92125000  0.10855000  0.60293000  1.0
  H  H11  1  0.99518000  0.99570000  0.13354000  1.0
  H  H12  1  0.00481000  0.00430000  0.86646000  1.0
  C  C13  1  0.71073000  0.61472000  0.62170000  1.0
  C  C14  1  0.28928000  0.38528000  0.37829000  1.0
  C  C15  1  0.49258000  0.38137000  0.37817000  1.0
  C  C16  1  0.50742000  0.61862000  0.62183000  1.0
  C  C17  1  0.80430000  0.44580000  0.14318000  1.0
  C  C18  1  0.19571000  0.55420000  0.85682000  1.0
  C  C19  1  0.76002000  0.50596000  0.99942000  1.0
  C  C20  1  0.23998000  0.49404000  0.00058000  1.0
  C  C21  1  0.98774000  0.78099000  0.28209000  1.0
  C  C22  1  0.01225000  0.21901000  0.71791000  1.0
  C  C23  1  0.93993000  0.83670000  0.13613000  1.0
  C  C24  1  0.06007000  0.16330000  0.86387000  1.0
  N  N25  1  0.70264000  0.49668000  0.50057000  1.0
  N  N26  1  0.29736000  0.50331000  0.49943000  1.0
  N  N27  1  0.92055000  0.58463000  0.28422000  1.0
  N  N28  1  0.07945000  0.41537000  0.71578000  1.0
  N  N29  1  0.82830000  0.70125000  0.99517000  1.0
  N  N30  1  0.17169000  0.29875000  0.00483000  1.0
  N  N31  1  0.60749000  0.98883000  0.29271000  1.0
  N  N32  1  0.39253000  0.01118000  0.70729000  1.0
  O  O33  1  0.81383000  0.13918000  0.35587000  1.0
  O  O34  1  0.18614000  0.86080000  0.64412000  1.0
  O  O35  1  0.44961000  0.99280000  0.16856000  1.0
  O  O36  1  0.55041000  0.00719000  0.83145000  1.0
  O  O37  1  0.56821000  0.84031000  0.35566000  1.0
  O  O38  1  0.43180000  0.15972000  0.64434000  1.0
