# generated using pymatgen
data_FeH14C16(ClO2)4
_symmetry_space_group_name_H-M   'P 1'
_cell_length_a   7.37671000
_cell_length_b   7.42452000
_cell_length_c   17.43640000
_cell_angle_alpha   89.99980000
_cell_angle_beta   88.47850000
_cell_angle_gamma   89.99330000
_symmetry_Int_Tables_number   1
_chemical_formula_structural   FeH14C16(ClO2)4
_chemical_formula_sum   'Fe2 H28 C32 Cl8 O16'
_cell_volume   954.62931552
_cell_formula_units_Z   2
loop_
 _symmetry_equiv_pos_site_id
 _symmetry_equiv_pos_as_xyz
  1  'x, y, z'
loop_
 _atom_site_type_symbol
 _atom_site_label
 _atom_site_symmetry_multiplicity
 _atom_site_fract_x
 _atom_site_fract_y
 _atom_site_fract_z
 _atom_site_occupancy
  Fe  Fe0  1  0.50001000  0.50000000  1.00000000  1.0
  Fe  Fe1  1  0.00000000  0.00000000  0.00000000  1.0
  H  H2  1  0.72130000  0.92859000  0.64486000  1.0
  H  H3  1  0.77865000  0.42858000  0.35513000  1.0
  H  H4  1  0.27870000  0.07140000  0.35514000  1.0
  H  H5  1  0.22135000  0.57142000  0.64487000  1.0
  H  H6  1  0.85717000  0.85409000  0.76858000  1.0
  H  H7  1  0.64284000  0.35410000  0.23140000  1.0
  H  H8  1  0.14285000  0.14591000  0.23142000  1.0
  H  H9  1  0.35718000  0.64590000  0.76860000  1.0
  H  H10  1  0.68137000  0.36457000  0.59059000  1.0
  H  H11  1  0.81861000  0.86455000  0.40942000  1.0
  H  H12  1  0.31858000  0.63541000  0.40942000  1.0
  H  H13  1  0.18140000  0.13545000  0.59058000  1.0
  H  H14  1  0.02277000  0.76881000  0.84698000  1.0
  H  H15  1  0.47720000  0.26885000  0.15302000  1.0
  H  H16  1  0.97725000  0.23119000  0.15302000  1.0
  H  H17  1  0.52280000  0.73115000  0.84698000  1.0
  H  H18  1  0.10834000  0.58261000  0.89764000  1.0
  H  H19  1  0.39171000  0.08266000  0.10234000  1.0
  H  H20  1  0.89167000  0.41739000  0.10236000  1.0
  H  H21  1  0.60830000  0.91735000  0.89766000  1.0
  H  H22  1  0.43982000  0.30853000  0.87676000  1.0
  H  H23  1  0.06019000  0.80857000  0.12323000  1.0
  H  H24  1  0.56019000  0.69147000  0.12323000  1.0
  H  H25  1  0.93982000  0.19143000  0.87676000  1.0
  H  H26  1  0.28413000  0.29409000  0.94181000  1.0
  H  H27  1  0.21583000  0.79401000  0.05818000  1.0
  H  H28  1  0.71587000  0.70591000  0.05818000  1.0
  H  H29  1  0.78417000  0.20600000  0.94182000  1.0
  C  C30  1  0.85426000  0.56585000  0.74956000  1.0
  C  C31  1  0.64576000  0.06585000  0.25044000  1.0
  C  C32  1  0.14574000  0.43414000  0.25044000  1.0
  C  C33  1  0.35424000  0.93415000  0.74956000  1.0
  C  C34  1  0.79890000  0.43043000  0.69883000  1.0
  C  C35  1  0.70110000  0.93043000  0.30117000  1.0
  C  C36  1  0.20108000  0.56956000  0.30118000  1.0
  C  C37  1  0.29890000  0.06957000  0.69883000  1.0
  C  C38  1  0.74343000  0.78858000  0.66032000  1.0
  C  C39  1  0.75655000  0.28856000  0.33968000  1.0
  C  C40  1  0.25656000  0.21141000  0.33968000  1.0
  C  C41  1  0.24345000  0.71143000  0.66032000  1.0
  C  C42  1  0.82027000  0.74536000  0.73019000  1.0
  C  C43  1  0.67973000  0.24535000  0.26980000  1.0
  C  C44  1  0.17974000  0.25463000  0.26981000  1.0
  C  C45  1  0.32027000  0.75464000  0.73020000  1.0
  C  C46  1  0.69723000  0.65231000  0.60971000  1.0
  C  C47  1  0.80275000  0.15229000  0.39029000  1.0
  C  C48  1  0.30274000  0.34768000  0.39029000  1.0
  C  C49  1  0.19725000  0.84770000  0.60971000  1.0
  C  C50  1  0.72088000  0.47183000  0.62920000  1.0
  C  C51  1  0.77910000  0.97182000  0.37081000  1.0
  C  C52  1  0.27908000  0.52815000  0.37082000  1.0
  C  C53  1  0.22091000  0.02818000  0.62919000  1.0
  C  C54  1  0.83779000  0.65311000  0.93155000  1.0
  C  C55  1  0.66227000  0.15315000  0.06845000  1.0
  C  C56  1  0.16221000  0.34689000  0.06845000  1.0
  C  C57  1  0.33773000  0.84686000  0.93155000  1.0
  C  C58  1  0.98684000  0.63591000  0.87031000  1.0
  C  C59  1  0.51319000  0.13594000  0.12969000  1.0
  C  C60  1  0.01317000  0.36410000  0.12969000  1.0
  C  C61  1  0.48681000  0.86407000  0.87031000  1.0
  Cl  Cl62  1  0.83061000  0.20810000  0.72382000  1.0
  Cl  Cl63  1  0.66939000  0.70812000  0.27619000  1.0
  Cl  Cl64  1  0.16938000  0.79189000  0.27619000  1.0
  Cl  Cl65  1  0.33061000  0.29189000  0.72381000  1.0
  Cl  Cl66  1  0.61071000  0.70844000  0.52168000  1.0
  Cl  Cl67  1  0.88923000  0.20842000  0.47832000  1.0
  Cl  Cl68  1  0.38926000  0.29154000  0.47833000  1.0
  Cl  Cl69  1  0.11075000  0.79159000  0.52169000  1.0
  O  O70  1  0.94476000  0.50880000  0.81252000  1.0
  O  O71  1  0.55527000  0.00883000  0.18747000  1.0
  O  O72  1  0.05525000  0.49120000  0.18748000  1.0
  O  O73  1  0.44474000  0.99118000  0.81252000  1.0
  O  O74  1  0.70336000  0.54692000  0.92771000  1.0
  O  O75  1  0.79669000  0.04693000  0.07229000  1.0
  O  O76  1  0.29664000  0.45308000  0.07228000  1.0
  O  O77  1  0.20332000  0.95308000  0.92771000  1.0
  O  O78  1  0.85776000  0.76850000  0.98566000  1.0
  O  O79  1  0.64230000  0.26854000  0.01435000  1.0
  O  O80  1  0.14225000  0.23151000  0.01433000  1.0
  O  O81  1  0.35771000  0.73147000  0.98565000  1.0
  O  O82  1  0.36725000  0.37991000  0.91334000  1.0
  O  O83  1  0.13274000  0.87989000  0.08664000  1.0
  O  O84  1  0.63276000  0.62009000  0.08665000  1.0
  O  O85  1  0.86726000  0.12012000  0.91336000  1.0
