# generated using pymatgen
data_MgH5C7NO5
_symmetry_space_group_name_H-M   'P 1'
_cell_length_a   8.53912000
_cell_length_b   8.88026000
_cell_length_c   10.00250000
_cell_angle_alpha   90.00000000
_cell_angle_beta   90.00010000
_cell_angle_gamma   97.23520000
_symmetry_Int_Tables_number   1
_chemical_formula_structural   MgH5C7NO5
_chemical_formula_sum   'Mg4 H20 C28 N4 O20'
_cell_volume   752.44620117
_cell_formula_units_Z   4
loop_
 _symmetry_equiv_pos_site_id
 _symmetry_equiv_pos_as_xyz
  1  'x, y, z'
loop_
 _atom_site_type_symbol
 _atom_site_label
 _atom_site_symmetry_multiplicity
 _atom_site_fract_x
 _atom_site_fract_y
 _atom_site_fract_z
 _atom_site_occupancy
  Mg  Mg0  1  0.20752000  0.85989000  0.55751000  1.0
  Mg  Mg1  1  0.29249000  0.14011000  0.05751000  1.0
  Mg  Mg2  1  0.79248000  0.14011000  0.44249000  1.0
  Mg  Mg3  1  0.70752000  0.85989000  0.94249000  1.0
  H  H4  1  0.10760000  0.49486000  0.47042000  1.0
  H  H5  1  0.39240000  0.50514000  0.97042000  1.0
  H  H6  1  0.89240000  0.50514000  0.52958000  1.0
  H  H7  1  0.60760000  0.49486000  0.02959000  1.0
  H  H8  1  0.43446000  0.25166000  0.68380000  1.0
  H  H9  1  0.06554000  0.74834000  0.18380000  1.0
  H  H10  1  0.56554000  0.74833000  0.31620000  1.0
  H  H11  1  0.93446000  0.25167000  0.81619000  1.0
  H  H12  1  0.58828000  0.50521000  0.73922000  1.0
  H  H13  1  0.91172000  0.49479000  0.23923000  1.0
  H  H14  1  0.41172000  0.49478000  0.26078000  1.0
  H  H15  1  0.08828000  0.50522000  0.76078000  1.0
  H  H16  1  0.41187000  0.96144000  0.36926000  1.0
  H  H17  1  0.08814000  0.03856000  0.86926000  1.0
  H  H18  1  0.58813000  0.03855000  0.63073000  1.0
  H  H19  1  0.91187000  0.96145000  0.13074000  1.0
  H  H20  1  0.26283000  0.90533000  0.28533000  1.0
  H  H21  1  0.23717000  0.09467000  0.78533000  1.0
  H  H22  1  0.73716000  0.09468000  0.71467000  1.0
  H  H23  1  0.76284000  0.90532000  0.21467000  1.0
  C  C24  1  0.14577000  0.20836000  0.55532000  1.0
  C  C25  1  0.35424000  0.79164000  0.05532000  1.0
  C  C26  1  0.85424000  0.79163000  0.44468000  1.0
  C  C27  1  0.64577000  0.20836000  0.94467000  1.0
  C  C28  1  0.25326000  0.35419000  0.57903000  1.0
  C  C29  1  0.24674000  0.64581000  0.07903000  1.0
  C  C30  1  0.74673000  0.64581000  0.42097000  1.0
  C  C31  1  0.75326000  0.35419000  0.92097000  1.0
  C  C32  1  0.21077000  0.49294000  0.53394000  1.0
  C  C33  1  0.28923000  0.50706000  0.03394000  1.0
  C  C34  1  0.78923000  0.50706000  0.46606000  1.0
  C  C35  1  0.71077000  0.49294000  0.96606000  1.0
  C  C36  1  0.39316000  0.35719000  0.65210000  1.0
  C  C37  1  0.10684000  0.64281000  0.15210000  1.0
  C  C38  1  0.60683000  0.64281000  0.34790000  1.0
  C  C39  1  0.89317000  0.35719000  0.84789000  1.0
  C  C40  1  0.42098000  0.62927000  0.64230000  1.0
  C  C41  1  0.07902000  0.37073000  0.14230000  1.0
  C  C42  1  0.57901000  0.37073000  0.35770000  1.0
  C  C43  1  0.92099000  0.62927000  0.85770000  1.0
  C  C44  1  0.47870000  0.49672000  0.68311000  1.0
  C  C45  1  0.02130000  0.50328000  0.18311000  1.0
  C  C46  1  0.52130000  0.50328000  0.31689000  1.0
  C  C47  1  0.97870000  0.49672000  0.81689000  1.0
  C  C48  1  0.50102000  0.78430000  0.68204000  1.0
  C  C49  1  0.99899000  0.21570000  0.18204000  1.0
  C  C50  1  0.49898000  0.21570000  0.31796000  1.0
  C  C51  1  0.00102000  0.78430000  0.81796000  1.0
  N  N52  1  0.28999000  0.62736000  0.56666000  1.0
  N  N53  1  0.21001000  0.37264000  0.06666000  1.0
  N  N54  1  0.71001000  0.37264000  0.43334000  1.0
  N  N55  1  0.78999000  0.62736000  0.93334000  1.0
  O  O56  1  0.43723000  0.89812000  0.63954000  1.0
  O  O57  1  0.06277000  0.10188000  0.13954000  1.0
  O  O58  1  0.56277000  0.10188000  0.36046000  1.0
  O  O59  1  0.93723000  0.89812000  0.86046000  1.0
  O  O60  1  0.19979000  0.08603000  0.58567000  1.0
  O  O61  1  0.30021000  0.91397000  0.08567000  1.0
  O  O62  1  0.80021000  0.91398000  0.41432000  1.0
  O  O63  1  0.69979000  0.08603000  0.91432000  1.0
  O  O64  1  0.00881000  0.22120000  0.51241000  1.0
  O  O65  1  0.49119000  0.77880000  0.01241000  1.0
  O  O66  1  0.99118000  0.77880000  0.48759000  1.0
  O  O67  1  0.50881000  0.22120000  0.98759000  1.0
  O  O68  1  0.31243000  0.88812000  0.37128000  1.0
  O  O69  1  0.18757000  0.11188000  0.87128000  1.0
  O  O70  1  0.68756000  0.11187000  0.62871000  1.0
  O  O71  1  0.81244000  0.88813000  0.12871000  1.0
  O  O72  1  0.62398000  0.79209000  0.75215000  1.0
  O  O73  1  0.87602000  0.20791000  0.25215000  1.0
  O  O74  1  0.37601000  0.20791000  0.24786000  1.0
  O  O75  1  0.12398000  0.79209000  0.74786000  1.0
