# generated using pymatgen
data_Co2H28C38N2O11
_symmetry_space_group_name_H-M   'P 1'
_cell_length_a   9.96343000
_cell_length_b   11.17622937
_cell_length_c   21.99760000
_cell_angle_alpha   86.24898109
_cell_angle_beta   89.98710000
_cell_angle_gamma   63.54440732
_symmetry_Int_Tables_number   1
_chemical_formula_structural   Co2H28C38N2O11
_chemical_formula_sum   'Co4 H56 C76 N4 O22'
_cell_volume   2187.15359429
_cell_formula_units_Z   2
loop_
 _symmetry_equiv_pos_site_id
 _symmetry_equiv_pos_as_xyz
  1  'x, y, z'
loop_
 _atom_site_type_symbol
 _atom_site_label
 _atom_site_symmetry_multiplicity
 _atom_site_fract_x
 _atom_site_fract_y
 _atom_site_fract_z
 _atom_site_occupancy
  Co  Co0  1  0.27851000  0.98598000  0.82939000  1.0
  Co  Co1  1  0.26434000  0.01389000  0.67042000  1.0
  Co  Co2  1  0.72150000  0.01402000  0.17061000  1.0
  Co  Co3  1  0.73566000  0.98611000  0.32958000  1.0
  H  H4  1  0.18197000  0.90719000  0.94072000  1.0
  H  H5  1  0.08859000  0.09265000  0.55936000  1.0
  H  H6  1  0.81804000  0.09282000  0.05927000  1.0
  H  H7  1  0.91139000  0.90736000  0.44064000  1.0
  H  H8  1  0.10136000  0.92051000  0.87797000  1.0
  H  H9  1  0.02193000  0.07860000  0.62217000  1.0
  H  H10  1  0.89862000  0.07952000  0.12202000  1.0
  H  H11  1  0.97806000  0.92138000  0.37783000  1.0
  H  H12  1  0.49006000  0.92051000  0.73699000  1.0
  H  H13  1  0.41030000  0.07977000  0.76273000  1.0
  H  H14  1  0.50996000  0.07949000  0.26301000  1.0
  H  H15  1  0.58970000  0.92023000  0.23727000  1.0
  H  H16  1  0.88498000  0.35912000  0.83296000  1.0
  H  H17  1  0.24457000  0.64050000  0.66707000  1.0
  H  H18  1  0.11503000  0.64086000  0.16704000  1.0
  H  H19  1  0.75541000  0.35951000  0.33293000  1.0
  H  H20  1  0.43495000  0.55189000  0.75411000  1.0
  H  H21  1  0.98739000  0.44770000  0.74612000  1.0
  H  H22  1  0.56504000  0.44811000  0.24591000  1.0
  H  H23  1  0.01261000  0.55230000  0.25387000  1.0
  H  H24  1  0.50722000  0.37935000  0.67949000  1.0
  H  H25  1  0.88680000  0.62053000  0.82056000  1.0
  H  H26  1  0.49276000  0.62066000  0.32052000  1.0
  H  H27  1  0.11319000  0.37947000  0.17943000  1.0
  H  H28  1  0.77311000  0.20347000  0.67796000  1.0
  H  H29  1  0.97645000  0.79674000  0.82189000  1.0
  H  H30  1  0.22686000  0.79655000  0.32204000  1.0
  H  H31  1  0.02355000  0.20325000  0.17812000  1.0
  H  H32  1  0.46868000  0.73176000  0.77680000  1.0
  H  H33  1  0.19992000  0.26782000  0.72310000  1.0
  H  H34  1  0.53135000  0.26823000  0.22320000  1.0
  H  H35  1  0.80006000  0.73218000  0.27690000  1.0
  H  H36  1  0.44506000  0.85756000  0.95092000  1.0
  H  H37  1  0.30232000  0.14282000  0.54883000  1.0
  H  H38  1  0.55494000  0.14245000  0.04908000  1.0
  H  H39  1  0.69772000  0.85716000  0.45117000  1.0
  H  H40  1  0.73487000  0.44337000  0.92074000  1.0
  H  H41  1  0.17929000  0.55653000  0.57954000  1.0
  H  H42  1  0.26513000  0.55664000  0.07927000  1.0
  H  H43  1  0.82071000  0.44347000  0.42046000  1.0
  H  H44  1  0.67145000  0.41215000  0.01276000  1.0
  H  H45  1  0.08415000  0.58813000  0.48737000  1.0
  H  H46  1  0.32855000  0.58785000  0.98724000  1.0
  H  H47  1  0.91587000  0.41185000  0.51263000  1.0
  H  H48  1  0.71892000  0.36803000  0.12453000  1.0
  H  H49  1  0.08628000  0.63195000  0.37548000  1.0
  H  H50  1  0.28108000  0.63196000  0.87548000  1.0
  H  H51  1  0.91371000  0.36805000  0.62451000  1.0
  H  H52  1  0.69130000  0.55460000  0.18826000  1.0
  H  H53  1  0.24472000  0.44531000  0.31176000  1.0
  H  H54  1  0.30869000  0.44540000  0.81174000  1.0
  H  H55  1  0.75529000  0.55469000  0.68824000  1.0
  H  H56  1  0.60388000  0.81889000  0.02769000  1.0
  H  H57  1  0.42310000  0.18153000  0.47242000  1.0
  H  H58  1  0.39610000  0.18112000  0.97231000  1.0
  H  H59  1  0.57694000  0.81847000  0.52759000  1.0
  C  C60  1  0.00573000  0.17447000  0.75240000  1.0
  C  C61  1  0.18047000  0.82534000  0.74750000  1.0
  C  C62  1  0.99426000  0.82553000  0.24759000  1.0
  C  C63  1  0.81955000  0.17465000  0.25249000  1.0
  C  C64  1  0.84404000  0.27294000  0.75509000  1.0
  C  C65  1  0.11720000  0.72691000  0.74487000  1.0
  C  C66  1  0.15594000  0.72707000  0.24491000  1.0
  C  C67  1  0.88279000  0.27309000  0.25513000  1.0
  C  C68  1  0.80041000  0.36597000  0.79960000  1.0
  C  C69  1  0.16685000  0.63368000  0.70045000  1.0
  C  C70  1  0.19959000  0.63402000  0.20040000  1.0
  C  C71  1  0.83314000  0.36632000  0.29955000  1.0
  C  C72  1  0.65382000  0.46889000  0.79900000  1.0
  C  C73  1  0.12323000  0.53067000  0.70116000  1.0
  C  C74  1  0.34619000  0.53110000  0.20101000  1.0
  C  C75  1  0.87675000  0.46933000  0.29884000  1.0
  C  C76  1  0.54971000  0.47315000  0.75473000  1.0
  C  C77  1  0.02335000  0.52649000  0.74545000  1.0
  C  C78  1  0.45028000  0.52685000  0.24528000  1.0
  C  C79  1  0.97664000  0.47351000  0.25455000  1.0
  C  C80  1  0.59068000  0.37660000  0.71235000  1.0
  C  C81  1  0.96749000  0.62329000  0.78769000  1.0
  C  C82  1  0.40928000  0.62342000  0.28766000  1.0
  C  C83  1  0.03250000  0.37671000  0.21231000  1.0
  C  C84  1  0.73829000  0.27761000  0.71181000  1.0
  C  C85  1  0.01594000  0.72242000  0.78812000  1.0
  C  C86  1  0.26168000  0.72241000  0.28819000  1.0
  C  C87  1  0.98406000  0.27757000  0.21188000  1.0
  C  C88  1  0.60684000  0.57251000  0.84331000  1.0
  C  C89  1  0.17962000  0.42718000  0.65680000  1.0
  C  C90  1  0.39317000  0.42749000  0.15669000  1.0
  C  C91  1  0.82038000  0.57281000  0.34320000  1.0
  C  C92  1  0.50508000  0.70429000  0.82446000  1.0
  C  C93  1  0.20913000  0.29543000  0.67548000  1.0
  C  C94  1  0.49494000  0.29570000  0.17554000  1.0
  C  C95  1  0.79085000  0.70458000  0.32452000  1.0
  C  C96  1  0.49501000  0.77434000  0.92175000  1.0
  C  C97  1  0.26952000  0.22574000  0.57817000  1.0
  C  C98  1  0.50501000  0.22566000  0.07825000  1.0
  C  C99  1  0.73048000  0.77426000  0.42183000  1.0
  C  C100  1  0.59800000  0.64611000  0.94542000  1.0
  C  C101  1  0.24460000  0.35402000  0.55466000  1.0
  C  C102  1  0.40201000  0.35389000  0.05459000  1.0
  C  C103  1  0.75542000  0.64597000  0.44533000  1.0
  C  C104  1  0.65527000  0.54496000  0.90454000  1.0
  C  C105  1  0.20095000  0.45496000  0.59564000  1.0
  C  C106  1  0.34473000  0.45505000  0.09546000  1.0
  C  C107  1  0.79904000  0.54504000  0.40436000  1.0
  C  C108  1  0.63315000  0.61880000  0.01160000  1.0
  C  C109  1  0.25211000  0.38146000  0.48848000  1.0
  C  C110  1  0.36685000  0.38120000  0.98840000  1.0
  C  C111  1  0.74790000  0.61854000  0.51152000  1.0
  C  C112  1  0.66792000  0.49147000  0.04007000  1.0
  C  C113  1  0.15946000  0.50873000  0.46001000  1.0
  C  C114  1  0.33207000  0.50854000  0.95994000  1.0
  C  C115  1  0.84054000  0.49127000  0.53999000  1.0
  C  C116  1  0.69177000  0.46720000  0.10304000  1.0
  C  C117  1  0.15863000  0.53288000  0.39700000  1.0
  C  C118  1  0.30823000  0.53280000  0.89697000  1.0
  C  C119  1  0.84137000  0.46711000  0.60299000  1.0
  C  C120  1  0.67687000  0.57051000  0.13890000  1.0
  C  C121  1  0.24672000  0.42943000  0.36114000  1.0
  C  C122  1  0.32312000  0.42949000  0.86110000  1.0
  C  C123  1  0.75330000  0.57056000  0.63886000  1.0
  C  C124  1  0.64336000  0.69760000  0.11137000  1.0
  C  C125  1  0.34060000  0.30246000  0.38870000  1.0
  C  C126  1  0.35664000  0.30240000  0.88864000  1.0
  C  C127  1  0.65942000  0.69754000  0.61130000  1.0
  C  C128  1  0.62480000  0.72030000  0.04801000  1.0
  C  C129  1  0.34508000  0.27993000  0.45206000  1.0
  C  C130  1  0.37519000  0.27971000  0.95199000  1.0
  C  C131  1  0.65495000  0.72007000  0.54795000  1.0
  C  C132  1  0.62791000  0.80874000  0.14993000  1.0
  C  C133  1  0.43654000  0.19113000  0.35027000  1.0
  C  C134  1  0.37209000  0.19126000  0.85007000  1.0
  C  C135  1  0.56348000  0.80886000  0.64973000  1.0
  N  N136  1  0.44986000  0.80280000  0.86273000  1.0
  N  N137  1  0.25253000  0.19707000  0.63713000  1.0
  N  N138  1  0.55016000  0.19720000  0.13727000  1.0
  N  N139  1  0.74747000  0.80293000  0.36287000  1.0
  O  O140  1  0.09105000  0.15884000  0.79812000  1.0
  O  O141  1  0.25002000  0.84103000  0.70173000  1.0
  O  O142  1  0.90894000  0.84115000  0.20187000  1.0
  O  O143  1  0.74997000  0.15897000  0.29826000  1.0
  O  O144  1  0.04790000  0.11703000  0.70250000  1.0
  O  O145  1  0.16535000  0.88273000  0.79741000  1.0
  O  O146  1  0.95210000  0.88297000  0.29750000  1.0
  O  O147  1  0.83466000  0.11726000  0.20258000  1.0
  O  O148  1  0.64761000  0.90569000  0.12340000  1.0
  O  O149  1  0.55327000  0.09442000  0.37682000  1.0
  O  O150  1  0.35240000  0.09431000  0.87660000  1.0
  O  O151  1  0.44674000  0.90557000  0.62318000  1.0
  O  O152  1  0.59671000  0.80036000  0.20538000  1.0
  O  O153  1  0.39697000  0.19914000  0.29484000  1.0
  O  O154  1  0.40329000  0.19964000  0.79462000  1.0
  O  O155  1  0.60305000  0.80085000  0.70516000  1.0
  O  O156  1  0.12915000  0.97082000  0.90646000  1.0
  O  O157  1  0.09988000  0.02867000  0.59355000  1.0
  O  O158  1  0.87085000  0.02920000  0.09354000  1.0
  O  O159  1  0.90013000  0.97132000  0.40645000  1.0
  O  O160  1  0.39264000  0.00010000  0.74987000  1.0
  O  O161  1  0.60738000  0.99990000  0.25013000  1.0
