# generated using pymatgen
data_Zr6H17C52S10(NO6)7
_symmetry_space_group_name_H-M   'P 1'
_cell_length_a   16.43009931
_cell_length_b   16.44810000
_cell_length_c   16.45670000
_cell_angle_alpha   119.78130000
_cell_angle_beta   119.67308786
_cell_angle_gamma   88.84648508
_symmetry_Int_Tables_number   1
_chemical_formula_structural   Zr6H17C52S10(NO6)7
_chemical_formula_sum   'Zr6 H17 C52 S10 N7 O42'
_cell_volume   3199.96558871
_cell_formula_units_Z   1
loop_
 _symmetry_equiv_pos_site_id
 _symmetry_equiv_pos_as_xyz
  1  'x, y, z'
loop_
 _atom_site_type_symbol
 _atom_site_label
 _atom_site_symmetry_multiplicity
 _atom_site_fract_x
 _atom_site_fract_y
 _atom_site_fract_z
 _atom_site_occupancy
  Zr  Zr0  1  0.59784000  0.09723000  0.48558000  1.0
  Zr  Zr1  1  0.39736000  0.89643000  0.50811000  1.0
  Zr  Zr2  1  0.60662000  0.10614000  0.70872000  1.0
  Zr  Zr3  1  0.38897000  0.88689000  0.28559000  1.0
  Zr  Zr4  1  0.38879000  0.10582000  0.49668000  1.0
  Zr  Zr5  1  0.60782000  0.88860000  0.49790000  1.0
  H  H6  1  0.57773000  0.24689000  0.65503000  1.0
  H  H7  1  0.24781000  0.91630000  0.33900000  1.0
  H  H8  1  0.58957000  0.91790000  0.67282000  1.0
  H  H9  1  0.57776000  0.90533000  0.32229000  1.0
  H  H10  1  0.36003000  0.38685000  0.48434000  1.0
  H  H11  1  0.89585000  0.86961000  0.50218000  1.0
  H  H12  1  0.11532000  0.87308000  0.98436000  1.0
  H  H13  1  0.36262000  0.60216000  0.98824000  1.0
  H  H14  1  0.86944000  0.35941000  0.96976000  1.0
  H  H15  1  0.84920000  0.34353000  0.69259000  1.0
  H  H16  1  0.13525000  0.62200000  0.02448000  1.0
  H  H17  1  0.14902000  0.64608000  0.30246000  1.0
  H  H18  1  0.61110000  0.12314000  0.23117000  1.0
  H  H19  1  0.92911000  0.44249000  0.13169000  1.0
  H  H20  1  0.02329000  0.53458000  0.26467000  1.0
  H  H21  1  0.04103000  0.56922000  0.86307000  1.0
  H  H22  1  0.95725000  0.47128000  0.73131000  1.0
  C  C23  1  0.48446000  0.26069000  0.47908000  1.0
  C  C24  1  0.23546000  0.01249000  0.51726000  1.0
  C  C25  1  0.50530000  0.72652000  0.50108000  1.0
  C  C26  1  0.76803000  0.99141000  0.49216000  1.0
  C  C27  1  0.76539000  0.25829000  0.74662000  1.0
  C  C28  1  0.48660000  0.99259000  0.21713000  1.0
  C  C29  1  0.23523000  0.72861000  0.24779000  1.0
  C  C30  1  0.49991000  0.00721000  0.77564000  1.0
  C  C31  1  0.49520000  0.26873000  0.76795000  1.0
  C  C32  1  0.77819000  0.00406000  0.76897000  1.0
  C  C33  1  0.49514000  0.71817000  0.22844000  1.0
  C  C34  1  0.22649000  0.99929000  0.22590000  1.0
  C  C35  1  0.56309000  0.57543000  0.48791000  1.0
  C  C36  1  0.42268000  0.40632000  0.48404000  1.0
  C  C37  1  0.50044000  0.63295000  0.49191000  1.0
  C  C38  1  0.48640000  0.35057000  0.48043000  1.0
  C  C39  1  0.45156000  0.48900000  0.48770000  1.0
  C  C40  1  0.53694000  0.49374000  0.48695000  1.0
  C  C41  1  0.08988000  0.07703000  0.51602000  1.0
  C  C42  1  0.91592000  0.93246000  0.50258000  1.0
  C  C43  1  0.14717000  0.01403000  0.51978000  1.0
  C  C44  1  0.86012000  0.99601000  0.49840000  1.0
  C  C45  1  0.99904000  0.96153000  0.50697000  1.0
  C  C46  1  0.00419000  0.04698000  0.50665000  1.0
  C  C47  1  0.92101000  0.07460000  0.97509000  1.0
  C  C48  1  0.09203000  0.93615000  0.02144000  1.0
  C  C49  1  0.87005000  0.00790000  0.85895000  1.0
  C  C50  1  0.14036000  0.00257000  0.13693000  1.0
  C  C51  1  0.01148000  0.96236000  0.96279000  1.0
  C  C52  1  0.00085000  0.04892000  0.03563000  1.0
  C  C53  1  0.56219000  0.40651000  0.97381000  1.0
  C  C54  1  0.42631000  0.57915000  0.02418000  1.0
  C  C55  1  0.49413000  0.35563000  0.85811000  1.0
  C  C56  1  0.49499000  0.62867000  0.13937000  1.0
  C  C57  1  0.45145000  0.49826000  0.96417000  1.0
  C  C58  1  0.53937000  0.48833000  0.03586000  1.0
  C  C59  1  0.89906000  0.39099000  0.94194000  1.0
  C  C60  1  0.88787000  0.38103000  0.78379000  1.0
  C  C61  1  0.96897000  0.46316000  0.85627000  1.0
  C  C62  1  0.01891000  0.51164000  0.97650000  1.0
  C  C63  1  0.10271000  0.59390000  0.05272000  1.0
  C  C64  1  0.11162000  0.60708000  0.21125000  1.0
  C  C65  1  0.02963000  0.52509000  0.13892000  1.0
  C  C66  1  0.98145000  0.47475000  0.01844000  1.0
  C  C67  1  0.85336000  0.34499000  0.82655000  1.0
  C  C68  1  0.14796000  0.64076000  0.16827000  1.0
  C  C69  1  0.42988000  0.94141000  0.84713000  1.0
  C  C70  1  0.55182000  0.06358000  0.14703000  1.0
  C  C71  1  0.49579000  0.00812000  0.86320000  1.0
  C  C72  1  0.48579000  0.99570000  0.12903000  1.0
  C  C73  1  0.53115000  0.04335000  0.04365000  1.0
  C  C74  1  0.44910000  0.95993000  0.94904000  1.0
  S  S75  1  0.40789000  0.58662000  0.49377000  1.0
  S  S76  1  0.58178000  0.39733000  0.48214000  1.0
  S  S77  1  0.09691000  0.91810000  0.51389000  1.0
  S  S78  1  0.90670000  0.09077000  0.49927000  1.0
  S  S79  1  0.92132000  0.91307000  0.82270000  1.0
  S  S80  1  0.08891000  0.09710000  0.17563000  1.0
  S  S81  1  0.39989000  0.40784000  0.82367000  1.0
  S  S82  1  0.59023000  0.57769000  0.17626000  1.0
  S  S83  1  0.58275000  0.09582000  0.00516000  1.0
  S  S84  1  0.39792000  0.90685000  0.98723000  1.0
  N  N85  1  0.64820000  0.59386000  0.48491000  1.0
  N  N86  1  0.11235000  0.16650000  0.52250000  1.0
  N  N87  1  0.89774000  0.16373000  0.03352000  1.0
  N  N88  1  0.65016000  0.38008000  0.02921000  1.0
  N  N89  1  0.34782000  0.85843000  0.73700000  1.0
  N  N90  1  0.99664000  0.49099000  0.18154000  1.0
  N  N91  1  0.00424000  0.49679000  0.81395000  1.0
  O  O92  1  0.55212000  0.22259000  0.47509000  1.0
  O  O93  1  0.27256000  0.94462000  0.52140000  1.0
  O  O94  1  0.43765000  0.76388000  0.50578000  1.0
  O  O95  1  0.72813000  0.05711000  0.48471000  1.0
  O  O96  1  0.73309000  0.22695000  0.78578000  1.0
  O  O97  1  0.42074000  0.92389000  0.18602000  1.0
  O  O98  1  0.26680000  0.75973000  0.20788000  1.0
  O  O99  1  0.56733000  0.07415000  0.80703000  1.0
  O  O100  1  0.42578000  0.23571000  0.66622000  1.0
  O  O101  1  0.74508000  0.93347000  0.66747000  1.0
  O  O102  1  0.56570000  0.75355000  0.33067000  1.0
  O  O103  1  0.25965000  0.06845000  0.32810000  1.0
  O  O104  1  0.73860000  0.07034000  0.80099000  1.0
  O  O105  1  0.42514000  0.75406000  0.19541000  1.0
  O  O106  1  0.25998000  0.92702000  0.19324000  1.0
  O  O107  1  0.56710000  0.23473000  0.80024000  1.0
  O  O108  1  0.72528000  0.22034000  0.64098000  1.0
  O  O109  1  0.43480000  0.93633000  0.67420000  1.0
  O  O110  1  0.27323000  0.76957000  0.35352000  1.0
  O  O111  1  0.55552000  0.05956000  0.31854000  1.0
  O  O112  1  0.73529000  0.92274000  0.49377000  1.0
  O  O113  1  0.41754000  0.22941000  0.48400000  1.0
  O  O114  1  0.26509000  0.07625000  0.50752000  1.0
  O  O115  1  0.57653000  0.76260000  0.50541000  1.0
  O  O116  1  0.55453000  0.93049000  0.37152000  1.0
  O  O117  1  0.56430000  0.94059000  0.62317000  1.0
  O  O118  1  0.31889000  0.94064000  0.38468000  1.0
  O  O119  1  0.55306000  0.17581000  0.60899000  1.0
  O  O120  1  0.45588000  0.04581000  0.58954000  1.0
  O  O121  1  0.44850000  0.03784000  0.40398000  1.0
  O  O122  1  0.45730000  0.86470000  0.41471000  1.0
  O  O123  1  0.62981000  0.03820000  0.58013000  1.0
  O  O124  1  0.72881000  0.60634000  0.56470000  1.0
  O  O125  1  0.63350000  0.59179000  0.40273000  1.0
  O  O126  1  0.04615000  0.17337000  0.44672000  1.0
  O  O127  1  0.19219000  0.22942000  0.60364000  1.0
  O  O128  1  0.87335000  0.16619000  0.09469000  1.0
  O  O129  1  0.90833000  0.23011000  0.02132000  1.0
  O  O130  1  0.72832000  0.42539000  0.05696000  1.0
  O  O131  1  0.63965000  0.31817000  0.04748000  1.0
  O  O132  1  0.36065000  0.77652000  0.70461000  1.0
  O  O133  1  0.27149000  0.87626000  0.68843000  1.0
