# generated using pymatgen
data_NiH48C24(N3O2)2
_symmetry_space_group_name_H-M   'P 1'
_cell_length_a   15.13740000
_cell_length_b   15.13740000
_cell_length_c   15.13710000
_cell_angle_alpha   64.95830000
_cell_angle_beta   64.95750000
_cell_angle_gamma   64.95870000
_symmetry_Int_Tables_number   1
_chemical_formula_structural   NiH48C24(N3O2)2
_chemical_formula_sum   'Ni3 H144 C72 N18 O12'
_cell_volume   2718.26657807
_cell_formula_units_Z   3
loop_
 _symmetry_equiv_pos_site_id
 _symmetry_equiv_pos_as_xyz
  1  'x, y, z'
loop_
 _atom_site_type_symbol
 _atom_site_label
 _atom_site_symmetry_multiplicity
 _atom_site_fract_x
 _atom_site_fract_y
 _atom_site_fract_z
 _atom_site_occupancy
  Ni  Ni0  1  0.50000000  0.50000000  0.00000000  1.0
  Ni  Ni1  1  0.00000000  0.50000000  0.50000000  1.0
  Ni  Ni2  1  0.50000000  0.00000000  0.50000000  1.0
  H  H3  1  0.56635000  0.61312000  0.02185000  1.0
  H  H4  1  0.02185000  0.56635000  0.61313000  1.0
  H  H5  1  0.61313000  0.02185000  0.56636000  1.0
  H  H6  1  0.43364000  0.38688000  0.97815000  1.0
  H  H7  1  0.97815000  0.43365000  0.38687000  1.0
  H  H8  1  0.38687000  0.97814000  0.43364000  1.0
  H  H9  1  0.36788000  0.62819000  0.91018000  1.0
  H  H10  1  0.91017000  0.36787000  0.62820000  1.0
  H  H11  1  0.62820000  0.91019000  0.36786000  1.0
  H  H12  1  0.63212000  0.37181000  0.08982000  1.0
  H  H13  1  0.08983000  0.63212000  0.37181000  1.0
  H  H14  1  0.37180000  0.08981000  0.63214000  1.0
  H  H15  1  0.67227000  0.58281000  0.81589000  1.0
  H  H16  1  0.81590000  0.67226000  0.58282000  1.0
  H  H17  1  0.58283000  0.81590000  0.67227000  1.0
  H  H18  1  0.32773000  0.41719000  0.18410000  1.0
  H  H19  1  0.18410000  0.32773000  0.41718000  1.0
  H  H20  1  0.41717000  0.18410000  0.32774000  1.0
  H  H21  1  0.71112000  0.64494000  0.86507000  1.0
  H  H22  1  0.86508000  0.71111000  0.64495000  1.0
  H  H23  1  0.64495000  0.86508000  0.71112000  1.0
  H  H24  1  0.28888000  0.35506000  0.13493000  1.0
  H  H25  1  0.13492000  0.28889000  0.35506000  1.0
  H  H26  1  0.35505000  0.13492000  0.28888000  1.0
  H  H27  1  0.51260000  0.70473000  0.82885000  1.0
  H  H28  1  0.82885000  0.51261000  0.70473000  1.0
  H  H29  1  0.70475000  0.82887000  0.51258000  1.0
  H  H30  1  0.48740000  0.29527000  0.17115000  1.0
  H  H31  1  0.17116000  0.48738000  0.29527000  1.0
  H  H32  1  0.29526000  0.17113000  0.48742000  1.0
  H  H33  1  0.51940000  0.77438000  0.89374000  1.0
  H  H34  1  0.89374000  0.51939000  0.77440000  1.0
  H  H35  1  0.77440000  0.89377000  0.51937000  1.0
  H  H36  1  0.48060000  0.22562000  0.10626000  1.0
  H  H37  1  0.10627000  0.48060000  0.22560000  1.0
  H  H38  1  0.22561000  0.10623000  0.48063000  1.0
  H  H39  1  0.38263000  0.70834000  0.04803000  1.0
  H  H40  1  0.04802000  0.38262000  0.70835000  1.0
  H  H41  1  0.70831000  0.04806000  0.38263000  1.0
  H  H42  1  0.61737000  0.29166000  0.95196000  1.0
  H  H43  1  0.95198000  0.61738000  0.29165000  1.0
  H  H44  1  0.29169000  0.95194000  0.61737000  1.0
  H  H45  1  0.33906000  0.78458000  0.93819000  1.0
  H  H46  1  0.93817000  0.33906000  0.78459000  1.0
  H  H47  1  0.78457000  0.93824000  0.33904000  1.0
  H  H48  1  0.66094000  0.21542000  0.06181000  1.0
  H  H49  1  0.06184000  0.66093000  0.21541000  1.0
  H  H50  1  0.21543000  0.06176000  0.66096000  1.0
  H  H51  1  0.28522000  0.59215000  0.13251000  1.0
  H  H52  1  0.13250000  0.28522000  0.59216000  1.0
  H  H53  1  0.59214000  0.13252000  0.28522000  1.0
  H  H54  1  0.71478000  0.40785000  0.86749000  1.0
  H  H55  1  0.86750000  0.71478000  0.40785000  1.0
  H  H56  1  0.40787000  0.86748000  0.71478000  1.0
  H  H57  1  0.20831000  0.66800000  0.04768000  1.0
  H  H58  1  0.04766000  0.20832000  0.66801000  1.0
  H  H59  1  0.66800000  0.04770000  0.20830000  1.0
  H  H60  1  0.79168000  0.33200000  0.95232000  1.0
  H  H61  1  0.95234000  0.79168000  0.33200000  1.0
  H  H62  1  0.33201000  0.95230000  0.79170000  1.0
  H  H63  1  0.22752000  0.43812000  0.00257000  1.0
  H  H64  1  0.00257000  0.22752000  0.43810000  1.0
  H  H65  1  0.43811000  0.00257000  0.22751000  1.0
  H  H66  1  0.77248000  0.56189000  0.99743000  1.0
  H  H67  1  0.99743000  0.77248000  0.56190000  1.0
  H  H68  1  0.56189000  0.99743000  0.77249000  1.0
  H  H69  1  0.29047000  0.52830000  0.91130000  1.0
  H  H70  1  0.91130000  0.29046000  0.52830000  1.0
  H  H71  1  0.52830000  0.91131000  0.29046000  1.0
  H  H72  1  0.70954000  0.47170000  0.08870000  1.0
  H  H73  1  0.08871000  0.70954000  0.47170000  1.0
  H  H74  1  0.47170000  0.08870000  0.70954000  1.0
  H  H75  1  0.06925000  0.57725000  0.05111000  1.0
  H  H76  1  0.05111000  0.06924000  0.57723000  1.0
  H  H77  1  0.57725000  0.05111000  0.06924000  1.0
  H  H78  1  0.93075000  0.42276000  0.94889000  1.0
  H  H79  1  0.94889000  0.93076000  0.42277000  1.0
  H  H80  1  0.42275000  0.94889000  0.93076000  1.0
  H  H81  1  0.12953000  0.67035000  0.95826000  1.0
  H  H82  1  0.95827000  0.12952000  0.67034000  1.0
  H  H83  1  0.67035000  0.95826000  0.12953000  1.0
  H  H84  1  0.87047000  0.32965000  0.04174000  1.0
  H  H85  1  0.04173000  0.87048000  0.32966000  1.0
  H  H86  1  0.32965000  0.04174000  0.87047000  1.0
  H  H87  1  0.15847000  0.59936000  0.82091000  1.0
  H  H88  1  0.82090000  0.15847000  0.59937000  1.0
  H  H89  1  0.59936000  0.82091000  0.15848000  1.0
  H  H90  1  0.84153000  0.40064000  0.17909000  1.0
  H  H91  1  0.17909000  0.84153000  0.40064000  1.0
  H  H92  1  0.40064000  0.17909000  0.84153000  1.0
  H  H93  1  0.09239000  0.51162000  0.91339000  1.0
  H  H94  1  0.91338000  0.09239000  0.51161000  1.0
  H  H95  1  0.51162000  0.91339000  0.09239000  1.0
  H  H96  1  0.90761000  0.48838000  0.08661000  1.0
  H  H97  1  0.08662000  0.90761000  0.48839000  1.0
  H  H98  1  0.48838000  0.08661000  0.90761000  1.0
  H  H99  1  0.00176000  0.74494000  0.86138000  1.0
  H  H100  1  0.86137000  0.00176000  0.74494000  1.0
  H  H101  1  0.74494000  0.86137000  0.00176000  1.0
  H  H102  1  0.99824000  0.25506000  0.13862000  1.0
  H  H103  1  0.13862000  0.99824000  0.25506000  1.0
  H  H104  1  0.25506000  0.13862000  0.99824000  1.0
  H  H105  1  0.93505000  0.65670000  0.95278000  1.0
  H  H106  1  0.95278000  0.93505000  0.65670000  1.0
  H  H107  1  0.65670000  0.95277000  0.93505000  1.0
  H  H108  1  0.06495000  0.34330000  0.04722000  1.0
  H  H109  1  0.04722000  0.06495000  0.34330000  1.0
  H  H110  1  0.34330000  0.04722000  0.06495000  1.0
  H  H111  1  0.02946000  0.67459000  0.72299000  1.0
  H  H112  1  0.72299000  0.02945000  0.67458000  1.0
  H  H113  1  0.67458000  0.72299000  0.02946000  1.0
  H  H114  1  0.97054000  0.32541000  0.27701000  1.0
  H  H115  1  0.27700000  0.97055000  0.32542000  1.0
  H  H116  1  0.32542000  0.27701000  0.97054000  1.0
  H  H117  1  0.89705000  0.72234000  0.78557000  1.0
  H  H118  1  0.78557000  0.89705000  0.72233000  1.0
  H  H119  1  0.72233000  0.78556000  0.89706000  1.0
  H  H120  1  0.10295000  0.27767000  0.21444000  1.0
  H  H121  1  0.21444000  0.10295000  0.27766000  1.0
  H  H122  1  0.27767000  0.21444000  0.10294000  1.0
  H  H123  1  0.96000000  0.58886000  0.81533000  1.0
  H  H124  1  0.81533000  0.96000000  0.58885000  1.0
  H  H125  1  0.58885000  0.81533000  0.96001000  1.0
  H  H126  1  0.04000000  0.41114000  0.18467000  1.0
  H  H127  1  0.18467000  0.04000000  0.41115000  1.0
  H  H128  1  0.41115000  0.18468000  0.04000000  1.0
  H  H129  1  0.50635000  0.48482000  0.65886000  1.0
  H  H130  1  0.65886000  0.50635000  0.48482000  1.0
  H  H131  1  0.48483000  0.65885000  0.50635000  1.0
  H  H132  1  0.49364000  0.51518000  0.34114000  1.0
  H  H133  1  0.34114000  0.49364000  0.51518000  1.0
  H  H134  1  0.51517000  0.34115000  0.49365000  1.0
  H  H135  1  0.68793000  0.51916000  0.66725000  1.0
  H  H136  1  0.66724000  0.68793000  0.51917000  1.0
  H  H137  1  0.51916000  0.66725000  0.68794000  1.0
  H  H138  1  0.31206000  0.48084000  0.33276000  1.0
  H  H139  1  0.33276000  0.31206000  0.48083000  1.0
  H  H140  1  0.48084000  0.33275000  0.31206000  1.0
  H  H141  1  0.68841000  0.40752000  0.65447000  1.0
  H  H142  1  0.65447000  0.68841000  0.40751000  1.0
  H  H143  1  0.40751000  0.65446000  0.68841000  1.0
  H  H144  1  0.31159000  0.59248000  0.34553000  1.0
  H  H145  1  0.34553000  0.31158000  0.59249000  1.0
  H  H146  1  0.59248000  0.34554000  0.31159000  1.0
  C  C147  1  0.67604000  0.58510000  0.88586000  1.0
  C  C148  1  0.88587000  0.67604000  0.58510000  1.0
  C  C149  1  0.58511000  0.88587000  0.67605000  1.0
  C  C150  1  0.32396000  0.41491000  0.11413000  1.0
  C  C151  1  0.11413000  0.32396000  0.41490000  1.0
  C  C152  1  0.41490000  0.11413000  0.32395000  1.0
  C  C153  1  0.50220000  0.70599000  0.90491000  1.0
  C  C154  1  0.90491000  0.50219000  0.70599000  1.0
  C  C155  1  0.70600000  0.90492000  0.50218000  1.0
  C  C156  1  0.49780000  0.29402000  0.09509000  1.0
  C  C157  1  0.09510000  0.49780000  0.29401000  1.0
  C  C158  1  0.29401000  0.09508000  0.49782000  1.0
  C  C159  1  0.39183000  0.71180000  0.97060000  1.0
  C  C160  1  0.97059000  0.39182000  0.71181000  1.0
  C  C161  1  0.71180000  0.97063000  0.39182000  1.0
  C  C162  1  0.60817000  0.28820000  0.02940000  1.0
  C  C163  1  0.02941000  0.60817000  0.28819000  1.0
  C  C164  1  0.28821000  0.02937000  0.60818000  1.0
  C  C165  1  0.27568000  0.60165000  0.06063000  1.0
  C  C166  1  0.06062000  0.27568000  0.60165000  1.0
  C  C167  1  0.60165000  0.06064000  0.27568000  1.0
  C  C168  1  0.72432000  0.39835000  0.93937000  1.0
  C  C169  1  0.93938000  0.72431000  0.39835000  1.0
  C  C170  1  0.39835000  0.93936000  0.72432000  1.0
  C  C171  1  0.23098000  0.51496000  0.98601000  1.0
  C  C172  1  0.98601000  0.23097000  0.51496000  1.0
  C  C173  1  0.51496000  0.98601000  0.23097000  1.0
  C  C174  1  0.76902000  0.48504000  0.01399000  1.0
  C  C175  1  0.01399000  0.76903000  0.48504000  1.0
  C  C176  1  0.48504000  0.01399000  0.76903000  1.0
  C  C177  1  0.12778000  0.59229000  0.97659000  1.0
  C  C178  1  0.97659000  0.12777000  0.59227000  1.0
  C  C179  1  0.59228000  0.97659000  0.12778000  1.0
  C  C180  1  0.87222000  0.40772000  0.02341000  1.0
  C  C181  1  0.02341000  0.87223000  0.40773000  1.0
  C  C182  1  0.40772000  0.02341000  0.87222000  1.0
  C  C183  1  0.09759000  0.58852000  0.89428000  1.0
  C  C184  1  0.89427000  0.09759000  0.58852000  1.0
  C  C185  1  0.58852000  0.89428000  0.09759000  1.0
  C  C186  1  0.90241000  0.41148000  0.10572000  1.0
  C  C187  1  0.10573000  0.90241000  0.41148000  1.0
  C  C188  1  0.41148000  0.10572000  0.90241000  1.0
  C  C189  1  0.99664000  0.66812000  0.87997000  1.0
  C  C190  1  0.87997000  0.99664000  0.66812000  1.0
  C  C191  1  0.66813000  0.87996000  0.99664000  1.0
  C  C192  1  0.00336000  0.33188000  0.12003000  1.0
  C  C193  1  0.12003000  0.00336000  0.33188000  1.0
  C  C194  1  0.33188000  0.12003000  0.00336000  1.0
  C  C195  1  0.96899000  0.66378000  0.79631000  1.0
  C  C196  1  0.79631000  0.96898000  0.66378000  1.0
  C  C197  1  0.66378000  0.79630000  0.96899000  1.0
  C  C198  1  0.03101000  0.33622000  0.20369000  1.0
  C  C199  1  0.20369000  0.03102000  0.33622000  1.0
  C  C200  1  0.33622000  0.20370000  0.03101000  1.0
  C  C201  1  0.51388000  0.47298000  0.80114000  1.0
  C  C202  1  0.80114000  0.51389000  0.47298000  1.0
  C  C203  1  0.47298000  0.80114000  0.51389000  1.0
  C  C204  1  0.48612000  0.52703000  0.19885000  1.0
  C  C205  1  0.19885000  0.48611000  0.52704000  1.0
  C  C206  1  0.52701000  0.19887000  0.48611000  1.0
  C  C207  1  0.53903000  0.51873000  0.68478000  1.0
  C  C208  1  0.68479000  0.53903000  0.51873000  1.0
  C  C209  1  0.51874000  0.68478000  0.53903000  1.0
  C  C210  1  0.46097000  0.48127000  0.31521000  1.0
  C  C211  1  0.31521000  0.46097000  0.48127000  1.0
  C  C212  1  0.48126000  0.31522000  0.46097000  1.0
  C  C213  1  0.65521000  0.49128000  0.63517000  1.0
  C  C214  1  0.63517000  0.65521000  0.49128000  1.0
  C  C215  1  0.49128000  0.63517000  0.65521000  1.0
  C  C216  1  0.34478000  0.50872000  0.36483000  1.0
  C  C217  1  0.36483000  0.34478000  0.50872000  1.0
  C  C218  1  0.50872000  0.36483000  0.34478000  1.0
  N  N219  1  0.57003000  0.61057000  0.95233000  1.0
  N  N220  1  0.95234000  0.57003000  0.61058000  1.0
  N  N221  1  0.61058000  0.95234000  0.57003000  1.0
  N  N222  1  0.42997000  0.38943000  0.04766000  1.0
  N  N223  1  0.04766000  0.42997000  0.38942000  1.0
  N  N224  1  0.38942000  0.04766000  0.42997000  1.0
  N  N225  1  0.36998000  0.62187000  0.97939000  1.0
  N  N226  1  0.97938000  0.36998000  0.62187000  1.0
  N  N227  1  0.62186000  0.97941000  0.36997000  1.0
  N  N228  1  0.63002000  0.37814000  0.02060000  1.0
  N  N229  1  0.02062000  0.63001000  0.37813000  1.0
  N  N230  1  0.37814000  0.02059000  0.63003000  1.0
  N  N231  1  0.25845000  0.51153000  0.06951000  1.0
  N  N232  1  0.06951000  0.25844000  0.51152000  1.0
  N  N233  1  0.51152000  0.06952000  0.25844000  1.0
  N  N234  1  0.74155000  0.48848000  0.93049000  1.0
  N  N235  1  0.93049000  0.74155000  0.48848000  1.0
  N  N236  1  0.48848000  0.93048000  0.74156000  1.0
  O  O237  1  0.54019000  0.51123000  0.84459000  1.0
  O  O238  1  0.84458000  0.54024000  0.51119000  1.0
  O  O239  1  0.51124000  0.84458000  0.54019000  1.0
  O  O240  1  0.45981000  0.48877000  0.15540000  1.0
  O  O241  1  0.15541000  0.45976000  0.48881000  1.0
  O  O242  1  0.48876000  0.15542000  0.45981000  1.0
  O  O243  1  0.47066000  0.40361000  0.84586000  1.0
  O  O244  1  0.84586000  0.47064000  0.40363000  1.0
  O  O245  1  0.40361000  0.84585000  0.47067000  1.0
  O  O246  1  0.52933000  0.59639000  0.15414000  1.0
  O  O247  1  0.15414000  0.52935000  0.59638000  1.0
  O  O248  1  0.59639000  0.15415000  0.52933000  1.0
