# generated using pymatgen
data_MgH12(CO2)4
_symmetry_space_group_name_H-M   'P 1'
_cell_length_a   7.43683000
_cell_length_b   7.66663000
_cell_length_c   14.32880000
_cell_angle_alpha   89.99980000
_cell_angle_beta   90.00000000
_cell_angle_gamma   98.68130000
_symmetry_Int_Tables_number   1
_chemical_formula_structural   MgH12(CO2)4
_chemical_formula_sum   'Mg4 H48 C16 O32'
_cell_volume   807.60283172
_cell_formula_units_Z   4
loop_
 _symmetry_equiv_pos_site_id
 _symmetry_equiv_pos_as_xyz
  1  'x, y, z'
loop_
 _atom_site_type_symbol
 _atom_site_label
 _atom_site_symmetry_multiplicity
 _atom_site_fract_x
 _atom_site_fract_y
 _atom_site_fract_z
 _atom_site_occupancy
  Mg  Mg0  1  0.07677000  0.81622000  0.64423000  1.0
  Mg  Mg1  1  0.07677000  0.31622000  0.85577000  1.0
  Mg  Mg2  1  0.92323000  0.18378000  0.35577000  1.0
  Mg  Mg3  1  0.92323000  0.68378000  0.14423000  1.0
  H  H4  1  0.38759000  0.73229000  0.63667000  1.0
  H  H5  1  0.38759000  0.23228000  0.86333000  1.0
  H  H6  1  0.61241000  0.26771000  0.36334000  1.0
  H  H7  1  0.61241000  0.76772000  0.13666000  1.0
  H  H8  1  0.27624000  0.58943000  0.56649000  1.0
  H  H9  1  0.27624000  0.08943000  0.93351000  1.0
  H  H10  1  0.72376000  0.41057000  0.43351000  1.0
  H  H11  1  0.72376000  0.91057000  0.06649000  1.0
  H  H12  1  0.75291000  0.95197000  0.64064000  1.0
  H  H13  1  0.75291000  0.45197000  0.85936000  1.0
  H  H14  1  0.24709000  0.04803000  0.35936000  1.0
  H  H15  1  0.24709000  0.54803000  0.14064000  1.0
  H  H16  1  0.88272000  0.03588000  0.72174000  1.0
  H  H17  1  0.88272000  0.53588000  0.77826000  1.0
  H  H18  1  0.11728000  0.96412000  0.27826000  1.0
  H  H19  1  0.11728000  0.46412000  0.22174000  1.0
  H  H20  1  0.19101000  0.73060000  0.82022000  1.0
  H  H21  1  0.19101000  0.23060000  0.67978000  1.0
  H  H22  1  0.80899000  0.26940000  0.17978000  1.0
  H  H23  1  0.80899000  0.76940000  0.32022000  1.0
  H  H24  1  0.19999000  0.94027000  0.81192000  1.0
  H  H25  1  0.19998000  0.44027000  0.68808000  1.0
  H  H26  1  0.80001000  0.05973000  0.18808000  1.0
  H  H27  1  0.80001000  0.55973000  0.31192000  1.0
  H  H28  1  0.04669000  0.87196000  0.44645000  1.0
  H  H29  1  0.04669000  0.37196000  0.05355000  1.0
  H  H30  1  0.95331000  0.12804000  0.55355000  1.0
  H  H31  1  0.95331000  0.62804000  0.94645000  1.0
  H  H32  1  0.92048000  0.70514000  0.49534000  1.0
  H  H33  1  0.92048000  0.20514000  0.00466000  1.0
  H  H34  1  0.07952000  0.29486000  0.50466000  1.0
  H  H35  1  0.07952000  0.79486000  0.99534000  1.0
  H  H36  1  0.74225000  0.27091000  0.69263000  1.0
  H  H37  1  0.74225000  0.77091000  0.80737000  1.0
  H  H38  1  0.25775000  0.72909000  0.30737000  1.0
  H  H39  1  0.25775000  0.22909000  0.19263000  1.0
  H  H40  1  0.55967000  0.38928000  0.70449000  1.0
  H  H41  1  0.55967000  0.88928000  0.79551000  1.0
  H  H42  1  0.44033000  0.61072000  0.29551000  1.0
  H  H43  1  0.44033000  0.11072000  0.20449000  1.0
  H  H44  1  0.44989000  0.29711000  0.54246000  1.0
  H  H45  1  0.44989000  0.79711000  0.95754000  1.0
  H  H46  1  0.55011000  0.70289000  0.45754000  1.0
  H  H47  1  0.55011000  0.20289000  0.04246000  1.0
  H  H48  1  0.64347000  0.18924000  0.52816000  1.0
  H  H49  1  0.64347000  0.68924000  0.97184000  1.0
  H  H50  1  0.35653000  0.81076000  0.47184000  1.0
  H  H51  1  0.35653000  0.31076000  0.02816000  1.0
  C  C52  1  0.76765000  0.50406000  0.61174000  1.0
  C  C53  1  0.76765000  0.00406000  0.88826000  1.0
  C  C54  1  0.23235000  0.49594000  0.38826000  1.0
  C  C55  1  0.23235000  0.99594000  0.11174000  1.0
  C  C56  1  0.65094000  0.34289000  0.65270000  1.0
  C  C57  1  0.65094000  0.84289000  0.84730000  1.0
  C  C58  1  0.34906000  0.65711000  0.34730000  1.0
  C  C59  1  0.34906000  0.15711000  0.15269000  1.0
  C  C60  1  0.54545000  0.22521000  0.57898000  1.0
  C  C61  1  0.54545000  0.72521000  0.92102000  1.0
  C  C62  1  0.45455000  0.77479000  0.42102000  1.0
  C  C63  1  0.45455000  0.27479000  0.07898000  1.0
  C  C64  1  0.44192000  0.05468000  0.61670000  1.0
  C  C65  1  0.44191000  0.55468000  0.88330000  1.0
  C  C66  1  0.55808000  0.94532000  0.38329000  1.0
  C  C67  1  0.55808000  0.44532000  0.11670000  1.0
  O  O68  1  0.87445000  0.60067000  0.66807000  1.0
  O  O69  1  0.87445000  0.10067000  0.83192000  1.0
  O  O70  1  0.12555000  0.39933000  0.33193000  1.0
  O  O71  1  0.12555000  0.89933000  0.16807000  1.0
  O  O72  1  0.75683000  0.54009000  0.52572000  1.0
  O  O73  1  0.75683000  0.04009000  0.97427000  1.0
  O  O74  1  0.24317000  0.45991000  0.47428000  1.0
  O  O75  1  0.24318000  0.95991000  0.02572000  1.0
  O  O76  1  0.26995000  0.04449000  0.62883000  1.0
  O  O77  1  0.26995000  0.54449000  0.87117000  1.0
  O  O78  1  0.73005000  0.95551000  0.37117000  1.0
  O  O79  1  0.73005000  0.45551000  0.12883000  1.0
  O  O80  1  0.52758000  0.92516000  0.63227000  1.0
  O  O81  1  0.52758000  0.42516000  0.86773000  1.0
  O  O82  1  0.47242000  0.07484000  0.36773000  1.0
  O  O83  1  0.47242000  0.57484000  0.13227000  1.0
  O  O84  1  0.27459000  0.64221000  0.63068000  1.0
  O  O85  1  0.27459000  0.14221000  0.86933000  1.0
  O  O86  1  0.72541000  0.35779000  0.36933000  1.0
  O  O87  1  0.72541000  0.85779000  0.13067000  1.0
  O  O88  1  0.88530000  0.98709000  0.65650000  1.0
  O  O89  1  0.88530000  0.48709000  0.84350000  1.0
  O  O90  1  0.11470000  0.01291000  0.34350000  1.0
  O  O91  1  0.11470000  0.51291000  0.15650000  1.0
  O  O92  1  0.14180000  0.82552000  0.78594000  1.0
  O  O93  1  0.14180000  0.32552000  0.71406000  1.0
  O  O94  1  0.85821000  0.17448000  0.21406000  1.0
  O  O95  1  0.85821000  0.67448000  0.28594000  1.0
  O  O96  1  0.03136000  0.79589000  0.50229000  1.0
  O  O97  1  0.03136000  0.29589000  0.99771000  1.0
  O  O98  1  0.96864000  0.20411000  0.49771000  1.0
  O  O99  1  0.96864000  0.70411000  0.00229000  1.0
