# generated using pymatgen
data_AgH4C5NO
_symmetry_space_group_name_H-M   'P 1'
_cell_length_a   10.75050000
_cell_length_b   11.03630000
_cell_length_c   11.51005847
_cell_angle_alpha   118.63366311
_cell_angle_beta   117.82264914
_cell_angle_gamma   90.01430000
_symmetry_Int_Tables_number   1
_chemical_formula_structural   AgH4C5NO
_chemical_formula_sum   'Ag8 H32 C40 N8 O8'
_cell_volume   1014.98289977
_cell_formula_units_Z   8
loop_
 _symmetry_equiv_pos_site_id
 _symmetry_equiv_pos_as_xyz
  1  'x, y, z'
loop_
 _atom_site_type_symbol
 _atom_site_label
 _atom_site_symmetry_multiplicity
 _atom_site_fract_x
 _atom_site_fract_y
 _atom_site_fract_z
 _atom_site_occupancy
  Ag  Ag0  1  0.46198000  0.50203000  0.83290000  1.0
  Ag  Ag1  1  0.53827000  0.66897000  0.16691000  1.0
  Ag  Ag2  1  0.37130000  0.00204000  0.83305000  1.0
  Ag  Ag3  1  0.62867000  0.16925000  0.16707000  1.0
  Ag  Ag4  1  0.33442000  0.83951000  0.93870000  1.0
  Ag  Ag5  1  0.66578000  0.90121000  0.06159000  1.0
  Ag  Ag6  1  0.60440000  0.33968000  0.93876000  1.0
  Ag  Ag7  1  0.39565000  0.40081000  0.06124000  1.0
  H  H8  1  0.40046000  0.46961000  0.54587000  1.0
  H  H9  1  0.59967000  0.92376000  0.45420000  1.0
  H  H10  1  0.14562000  0.96961000  0.54618000  1.0
  H  H11  1  0.85437000  0.42352000  0.45378000  1.0
  H  H12  1  0.46161000  0.49835000  0.37371000  1.0
  H  H13  1  0.53829000  0.12437000  0.62629000  1.0
  H  H14  1  0.91236000  0.99832000  0.37408000  1.0
  H  H15  1  0.08776000  0.62426000  0.62609000  1.0
  H  H16  1  0.47098000  0.73169000  0.38723000  1.0
  H  H17  1  0.52878000  0.34422000  0.61281000  1.0
  H  H18  1  0.91657000  0.23161000  0.38753000  1.0
  H  H19  1  0.08379000  0.84433000  0.61308000  1.0
  H  H20  1  0.42398000  0.92998000  0.57931000  1.0
  H  H21  1  0.57582000  0.35072000  0.42081000  1.0
  H  H22  1  0.15565000  0.42988000  0.57935000  1.0
  H  H23  1  0.84489000  0.85093000  0.42119000  1.0
  H  H24  1  0.94075000  0.82908000  0.13793000  1.0
  H  H25  1  0.05934000  0.69070000  0.86186000  1.0
  H  H26  1  0.19712000  0.32882000  0.13782000  1.0
  H  H27  1  0.80232000  0.19101000  0.86171000  1.0
  H  H28  1  0.17622000  0.78905000  0.28784000  1.0
  H  H29  1  0.82380000  0.50098000  0.71225000  1.0
  H  H30  1  0.11145000  0.28868000  0.28764000  1.0
  H  H31  1  0.88805000  0.00119000  0.71193000  1.0
  H  H32  1  0.16756000  0.56319000  0.29256000  1.0
  H  H33  1  0.83230000  0.27036000  0.70744000  1.0
  H  H34  1  0.12473000  0.06280000  0.29228000  1.0
  H  H35  1  0.87520000  0.77079000  0.70764000  1.0
  H  H36  1  0.92176000  0.38717000  0.14253000  1.0
  H  H37  1  0.07809000  0.24414000  0.85710000  1.0
  H  H38  1  0.22061000  0.88688000  0.14231000  1.0
  H  H39  1  0.77930000  0.74475000  0.85766000  1.0
  C  C40  1  0.38897000  0.68791000  0.66190000  1.0
  C  C41  1  0.61109000  0.02621000  0.33826000  1.0
  C  C42  1  0.27315000  0.18787000  0.66199000  1.0
  C  C43  1  0.72703000  0.52618000  0.33816000  1.0
  C  C44  1  0.41058000  0.57106000  0.55208000  1.0
  C  C45  1  0.58953000  0.01902000  0.44806000  1.0
  C  C46  1  0.14176000  0.07099000  0.55225000  1.0
  C  C47  1  0.85835000  0.51891000  0.44784000  1.0
  C  C48  1  0.44289000  0.58692000  0.45643000  1.0
  C  C49  1  0.55705000  0.13036000  0.54364000  1.0
  C  C50  1  0.01382000  0.08688000  0.45674000  1.0
  C  C51  1  0.98636000  0.63026000  0.54350000  1.0
  C  C52  1  0.44940000  0.71764000  0.46415000  1.0
  C  C53  1  0.55045000  0.25334000  0.53590000  1.0
  C  C54  1  0.01505000  0.21760000  0.46444000  1.0
  C  C55  1  0.98524000  0.75341000  0.53605000  1.0
  C  C56  1  0.42314000  0.82645000  0.56915000  1.0
  C  C57  1  0.57674000  0.25735000  0.43098000  1.0
  C  C58  1  0.14631000  0.32638000  0.56927000  1.0
  C  C59  1  0.85410000  0.75749000  0.43120000  1.0
  C  C60  1  0.80476000  0.62943000  0.05981000  1.0
  C  C61  1  0.19527000  0.56909000  0.93985000  1.0
  C  C62  1  0.25501000  0.12919000  0.05965000  1.0
  C  C63  1  0.74483000  0.06963000  0.94022000  1.0
  C  C64  1  0.94168000  0.73277000  0.14266000  1.0
  C  C65  1  0.05839000  0.58965000  0.85710000  1.0
  C  C66  1  0.20078000  0.23242000  0.14238000  1.0
  C  C67  1  0.79876000  0.09008000  0.85723000  1.0
  C  C68  1  0.07147000  0.70973000  0.22482000  1.0
  C  C69  1  0.92853000  0.48454000  0.77505000  1.0
  C  C70  1  0.15312000  0.20934000  0.22453000  1.0
  C  C71  1  0.84648000  0.98492000  0.77511000  1.0
  C  C72  1  0.06783000  0.58408000  0.22745000  1.0
  C  C73  1  0.93209000  0.35625000  0.77238000  1.0
  C  C74  1  0.15935000  0.08371000  0.22715000  1.0
  C  C75  1  0.84050000  0.85674000  0.77273000  1.0
  C  C76  1  0.93223000  0.48680000  0.14488000  1.0
  C  C77  1  0.06765000  0.34141000  0.85472000  1.0
  C  C78  1  0.21258000  0.98656000  0.14474000  1.0
  C  C79  1  0.78740000  0.84201000  0.85526000  1.0
  N  N80  1  0.39448000  0.81378000  0.66615000  1.0
  N  N81  1  0.60549000  0.14781000  0.33400000  1.0
  N  N82  1  0.27194000  0.31371000  0.66619000  1.0
  N  N83  1  0.72840000  0.64788000  0.33410000  1.0
  N  N84  1  0.80404000  0.50712000  0.06266000  1.0
  N  N85  1  0.19589000  0.44392000  0.93695000  1.0
  N  N86  1  0.25863000  0.00692000  0.06256000  1.0
  N  N87  1  0.74135000  0.94450000  0.93742000  1.0
  O  O88  1  0.36458000  0.67391000  0.75633000  1.0
  O  O89  1  0.63555000  0.91786000  0.24385000  1.0
  O  O90  1  0.39194000  0.17392000  0.75646000  1.0
  O  O91  1  0.60821000  0.41779000  0.24365000  1.0
  O  O92  1  0.68244000  0.65220000  0.98254000  1.0
  O  O93  1  0.31764000  0.66910000  0.01714000  1.0
  O  O94  1  0.30018000  0.15203000  0.98246000  1.0
  O  O95  1  0.69984000  0.16966000  0.01759000  1.0
