# generated using pymatgen
data_CuH5(C3N2)2
_symmetry_space_group_name_H-M   'P 1'
_cell_length_a   5.25007000
_cell_length_b   10.84450000
_cell_length_c   12.24599223
_cell_angle_alpha   76.78383065
_cell_angle_beta   77.62329767
_cell_angle_gamma   76.10500000
_symmetry_Int_Tables_number   1
_chemical_formula_structural   CuH5(C3N2)2
_chemical_formula_sum   'Cu4 H20 C24 N16'
_cell_volume   649.44511331
_cell_formula_units_Z   4
loop_
 _symmetry_equiv_pos_site_id
 _symmetry_equiv_pos_as_xyz
  1  'x, y, z'
loop_
 _atom_site_type_symbol
 _atom_site_label
 _atom_site_symmetry_multiplicity
 _atom_site_fract_x
 _atom_site_fract_y
 _atom_site_fract_z
 _atom_site_occupancy
  Cu  Cu0  1  0.03350000  0.07056000  0.08886000  1.0
  Cu  Cu1  1  0.19322000  0.43079000  0.41070000  1.0
  Cu  Cu2  1  0.96649000  0.92944000  0.91114000  1.0
  Cu  Cu3  1  0.80677000  0.56921000  0.58929000  1.0
  H  H4  1  0.34392000  0.16436000  0.42724000  1.0
  H  H5  1  0.93533000  0.33654000  0.07219000  1.0
  H  H6  1  0.65607000  0.83564000  0.57276000  1.0
  H  H7  1  0.06468000  0.66345000  0.92781000  1.0
  H  H8  1  0.98696000  0.88285000  0.45085000  1.0
  H  H9  1  0.32002000  0.61645000  0.04961000  1.0
  H  H10  1  0.01303000  0.11715000  0.54916000  1.0
  H  H11  1  0.67999000  0.38355000  0.95038000  1.0
  H  H12  1  0.74468000  0.18946000  0.28712000  1.0
  H  H13  1  0.22061000  0.31163000  0.21253000  1.0
  H  H14  1  0.25530000  0.81055000  0.71289000  1.0
  H  H15  1  0.77940000  0.68835000  0.78747000  1.0
  H  H16  1  0.33445000  0.82304000  0.30275000  1.0
  H  H17  1  0.45861000  0.67611000  0.19820000  1.0
  H  H18  1  0.66553000  0.17696000  0.69726000  1.0
  H  H19  1  0.54141000  0.32389000  0.80179000  1.0
  H  H20  1  0.75271000  0.85916000  0.16808000  1.0
  H  H21  1  0.77843000  0.64069000  0.33266000  1.0
  H  H22  1  0.24729000  0.14084000  0.83192000  1.0
  H  H23  1  0.22160000  0.35932000  0.66732000  1.0
  C  C24  1  0.42165000  0.09398000  0.37139000  1.0
  C  C25  1  0.88670000  0.40666000  0.12836000  1.0
  C  C26  1  0.57833000  0.90602000  0.62862000  1.0
  C  C27  1  0.11331000  0.59334000  0.87163000  1.0
  C  C28  1  0.29974000  0.98939000  0.37854000  1.0
  C  C29  1  0.66705000  0.51064000  0.12166000  1.0
  C  C30  1  0.70026000  0.01061000  0.62147000  1.0
  C  C31  1  0.33296000  0.48936000  0.87834000  1.0
  C  C32  1  0.06305000  0.96518000  0.45902000  1.0
  C  C33  1  0.48679000  0.53461000  0.04118000  1.0
  C  C34  1  0.93694000  0.03482000  0.54099000  1.0
  C  C35  1  0.51321000  0.46539000  0.95882000  1.0
  C  C36  1  0.64967000  0.10880000  0.29262000  1.0
  C  C37  1  0.05053000  0.39203000  0.20714000  1.0
  C  C38  1  0.35032000  0.89121000  0.70739000  1.0
  C  C39  1  0.94948000  0.60796000  0.79285000  1.0
  C  C40  1  0.42251000  0.90459000  0.30221000  1.0
  C  C41  1  0.62798000  0.59510000  0.19837000  1.0
  C  C42  1  0.57747000  0.09541000  0.69780000  1.0
  C  C43  1  0.37202000  0.40491000  0.80162000  1.0
  C  C44  1  0.65333000  0.92438000  0.22699000  1.0
  C  C45  1  0.80344000  0.57563000  0.27352000  1.0
  C  C46  1  0.34667000  0.07562000  0.77302000  1.0
  C  C47  1  0.19659000  0.42437000  0.72647000  1.0
  N  N48  1  0.76886000  0.02560000  0.22050000  1.0
  N  N49  1  0.01378000  0.47488000  0.27964000  1.0
  N  N50  1  0.23111000  0.97440000  0.77951000  1.0
  N  N51  1  0.98625000  0.52511000  0.72035000  1.0
  N  N52  1  0.55242000  0.14153000  0.99831000  1.0
  N  N53  1  0.69213000  0.35858000  0.50157000  1.0
  N  N54  1  0.44758000  0.85847000  0.00169000  1.0
  N  N55  1  0.30788000  0.64142000  0.49842000  1.0
  N  N56  1  0.32282000  0.15793000  0.03596000  1.0
  N  N57  1  0.51570000  0.34267000  0.46409000  1.0
  N  N58  1  0.67716000  0.84208000  0.96405000  1.0
  N  N59  1  0.48430000  0.65733000  0.53590000  1.0
  N  N60  1  0.78535000  0.12988000  0.96120000  1.0
  N  N61  1  0.87667000  0.36977000  0.53872000  1.0
  N  N62  1  0.21463000  0.87012000  0.03881000  1.0
  N  N63  1  0.12334000  0.63023000  0.46127000  1.0
