# generated using pymatgen
data_CdH13C15NO5
_symmetry_space_group_name_H-M   'P 1'
_cell_length_a   18.09287071
_cell_length_b   18.09290000
_cell_length_c   18.09290000
_cell_angle_alpha   63.40300000
_cell_angle_beta   83.99638351
_cell_angle_gamma   116.59594271
_symmetry_Int_Tables_number   1
_chemical_formula_structural   CdH13C15NO5
_chemical_formula_sum   'Cd8 H104 C120 N8 O40'
_cell_volume   4377.45203621
_cell_formula_units_Z   8
loop_
 _symmetry_equiv_pos_site_id
 _symmetry_equiv_pos_as_xyz
  1  'x, y, z'
loop_
 _atom_site_type_symbol
 _atom_site_label
 _atom_site_symmetry_multiplicity
 _atom_site_fract_x
 _atom_site_fract_y
 _atom_site_fract_z
 _atom_site_occupancy
  Cd  Cd0  1  0.67168000  0.52350000  0.16484000  1.0
  Cd  Cd1  1  0.81166000  0.97650000  0.85182000  1.0
  Cd  Cd2  1  0.14818000  0.33652000  0.32832000  1.0
  Cd  Cd3  1  0.83516000  0.16348000  0.18834000  1.0
  Cd  Cd4  1  0.32832000  0.47650000  0.83516000  1.0
  Cd  Cd5  1  0.18834000  0.02350000  0.14818000  1.0
  Cd  Cd6  1  0.85182000  0.66348000  0.67168000  1.0
  Cd  Cd7  1  0.16484000  0.83652000  0.81166000  1.0
  H  H8  1  0.71588000  0.64533000  0.24405000  1.0
  H  H9  1  0.62747000  0.62660000  0.23038000  1.0
  H  H10  1  0.63444000  0.55064000  0.00389000  1.0
  H  H11  1  0.69126000  0.58661000  0.89560000  1.0
  H  H12  1  0.74826000  0.65151000  0.94257000  1.0
  H  H13  1  0.73613000  0.37863000  0.25019000  1.0
  H  H14  1  0.68527000  0.26269000  0.26042000  1.0
  H  H15  1  0.62312000  0.31642000  0.25954000  1.0
  H  H16  1  0.97681000  0.53118000  0.91315000  1.0
  H  H17  1  0.07053000  0.51942000  0.81562000  1.0
  H  H18  1  0.99974000  0.39469000  0.77705000  1.0
  H  H19  1  0.83399000  0.27924000  0.84027000  1.0
  H  H20  1  0.73929000  0.29022000  0.93988000  1.0
  H  H21  1  0.61062000  0.85466000  0.92946000  1.0
  H  H22  1  0.64303000  0.87340000  0.99914000  1.0
  H  H23  1  0.94547000  0.94936000  0.91620000  1.0
  H  H24  1  0.01779000  0.91339000  0.89535000  1.0
  H  H25  1  0.90593000  0.84850000  0.90325000  1.0
  H  H26  1  0.87117000  0.12136000  0.64250000  1.0
  H  H27  1  0.97689000  0.23730000  0.57742000  1.0
  H  H28  1  0.92404000  0.18357000  0.69330000  1.0
  H  H29  1  0.05567000  0.96882000  0.55437000  1.0
  H  H30  1  0.16497000  0.98059000  0.44889000  1.0
  H  H31  1  0.32827000  0.10532000  0.39494000  1.0
  H  H32  1  0.38049000  0.22076000  0.44525000  1.0
  H  H33  1  0.26990000  0.20978000  0.55093000  1.0
  H  H34  1  0.07054000  0.45992000  0.28413000  1.0
  H  H35  1  0.00086000  0.35783000  0.37254000  1.0
  H  H36  1  0.08380000  0.13833000  0.36556000  1.0
  H  H37  1  0.10465000  0.08686000  0.30873000  1.0
  H  H38  1  0.09675000  0.19082000  0.25175000  1.0
  H  H39  1  0.35750000  0.48633000  0.26387000  1.0
  H  H40  1  0.42258000  0.44569000  0.31472000  1.0
  H  H41  1  0.30670000  0.38266000  0.37687000  1.0
  H  H42  1  0.44563000  0.38996000  0.02319000  1.0
  H  H43  1  0.55111000  0.38615000  0.92947000  1.0
  H  H44  1  0.60505000  0.27679000  0.00026000  1.0
  H  H45  1  0.55475000  0.17426000  0.16601000  1.0
  H  H46  1  0.44907000  0.17917000  0.26071000  1.0
  H  H47  1  0.75596000  0.04008000  0.38938000  1.0
  H  H48  1  0.76962000  0.14216000  0.35698000  1.0
  H  H49  1  0.99610000  0.36166000  0.05453000  1.0
  H  H50  1  0.10440000  0.41314000  0.98221000  1.0
  H  H51  1  0.05743000  0.30917000  0.09407000  1.0
  H  H52  1  0.74981000  0.01368000  0.12882000  1.0
  H  H53  1  0.73959000  0.05432000  0.02311000  1.0
  H  H54  1  0.74047000  0.11735000  0.07596000  1.0
  H  H55  1  0.08685000  0.11004000  0.94433000  1.0
  H  H56  1  0.18438000  0.11385000  0.83504000  1.0
  H  H57  1  0.22295000  0.22321000  0.67174000  1.0
  H  H58  1  0.15974000  0.32575000  0.61950000  1.0
  H  H59  1  0.06012000  0.32083000  0.73010000  1.0
  H  H60  1  0.28412000  0.35467000  0.75596000  1.0
  H  H61  1  0.37254000  0.37341000  0.76962000  1.0
  H  H62  1  0.36556000  0.44936000  0.99611000  1.0
  H  H63  1  0.30874000  0.41339000  0.10440000  1.0
  H  H64  1  0.25174000  0.34850000  0.05743000  1.0
  H  H65  1  0.26387000  0.62137000  0.74981000  1.0
  H  H66  1  0.31473000  0.73731000  0.73958000  1.0
  H  H67  1  0.37688000  0.68358000  0.74046000  1.0
  H  H68  1  0.02319000  0.46882000  0.08685000  1.0
  H  H69  1  0.92948000  0.48059000  0.18438000  1.0
  H  H70  1  0.00026000  0.60531000  0.22295000  1.0
  H  H71  1  0.16601000  0.72076000  0.15973000  1.0
  H  H72  1  0.26071000  0.70978000  0.06012000  1.0
  H  H73  1  0.38938000  0.14533000  0.07054000  1.0
  H  H74  1  0.35697000  0.12659000  0.00087000  1.0
  H  H75  1  0.05453000  0.05063000  0.08380000  1.0
  H  H76  1  0.98221000  0.08661000  0.10465000  1.0
  H  H77  1  0.09407000  0.15150000  0.09676000  1.0
  H  H78  1  0.12882000  0.87863000  0.35750000  1.0
  H  H79  1  0.02311000  0.76270000  0.42258000  1.0
  H  H80  1  0.07596000  0.81643000  0.30670000  1.0
  H  H81  1  0.94433000  0.03118000  0.44563000  1.0
  H  H82  1  0.83504000  0.01942000  0.55110000  1.0
  H  H83  1  0.67174000  0.89469000  0.60505000  1.0
  H  H84  1  0.61951000  0.77924000  0.55475000  1.0
  H  H85  1  0.73009000  0.79021000  0.44908000  1.0
  H  H86  1  0.92946000  0.54008000  0.71587000  1.0
  H  H87  1  0.99914000  0.64217000  0.62746000  1.0
  H  H88  1  0.91620000  0.86167000  0.63443000  1.0
  H  H89  1  0.89535000  0.91314000  0.69126000  1.0
  H  H90  1  0.90325000  0.80918000  0.74825000  1.0
  H  H91  1  0.64250000  0.51368000  0.73613000  1.0
  H  H92  1  0.57742000  0.55431000  0.68528000  1.0
  H  H93  1  0.69330000  0.61734000  0.62313000  1.0
  H  H94  1  0.55437000  0.61004000  0.97681000  1.0
  H  H95  1  0.44889000  0.61386000  0.07053000  1.0
  H  H96  1  0.39495000  0.72322000  0.99974000  1.0
  H  H97  1  0.44525000  0.82574000  0.83399000  1.0
  H  H98  1  0.55092000  0.82082000  0.73929000  1.0
  H  H99  1  0.24404000  0.95992000  0.61062000  1.0
  H  H100  1  0.23038000  0.85784000  0.64302000  1.0
  H  H101  1  0.00390000  0.63834000  0.94547000  1.0
  H  H102  1  0.89560000  0.58686000  0.01779000  1.0
  H  H103  1  0.94257000  0.69083000  0.90593000  1.0
  H  H104  1  0.25019000  0.98632000  0.87118000  1.0
  H  H105  1  0.26041000  0.94568000  0.97689000  1.0
  H  H106  1  0.25953000  0.88265000  0.92404000  1.0
  H  H107  1  0.91315000  0.88996000  0.05567000  1.0
  H  H108  1  0.81562000  0.88615000  0.16497000  1.0
  H  H109  1  0.77705000  0.77679000  0.32826000  1.0
  H  H110  1  0.84026000  0.67425000  0.38050000  1.0
  H  H111  1  0.93988000  0.67917000  0.26990000  1.0
  C  C112  1  0.78686000  0.29195000  0.13008000  1.0
  C  C113  1  0.80120000  0.54875000  0.84860000  1.0
  C  C114  1  0.77224000  0.49020000  0.94823000  1.0
  C  C115  1  0.72472000  0.50581000  0.99957000  1.0
  C  C116  1  0.69852000  0.57766000  0.95788000  1.0
  C  C117  1  0.72043000  0.38746000  0.13122000  1.0
  C  C118  1  0.68938000  0.33284000  0.23106000  1.0
  C  C119  1  0.76716000  0.36884000  0.08282000  1.0
  C  C120  1  0.79567000  0.42233000  0.98941000  1.0
  C  C121  1  0.85132000  0.41126000  0.93338000  1.0
  C  C122  1  0.94484000  0.47578000  0.89762000  1.0
  C  C123  1  0.99794000  0.46994000  0.84139000  1.0
  C  C124  1  0.95810000  0.39986000  0.82005000  1.0
  C  C125  1  0.86497000  0.33497000  0.85577000  1.0
  C  C126  1  0.81187000  0.34063000  0.91221000  1.0
  C  C127  1  0.07797000  0.20806000  0.50509000  1.0
  C  C128  1  0.10265000  0.95125000  0.74755000  1.0
  C  C129  1  0.06157000  0.00980000  0.71796000  1.0
  C  C130  1  0.99463000  0.99420000  0.78108000  1.0
  C  C131  1  0.96446000  0.92234000  0.87914000  1.0
  C  C132  1  0.98131000  0.11253000  0.66704000  1.0
  C  C133  1  0.93610000  0.16716000  0.64346000  1.0
  C  C134  1  0.04834000  0.13116000  0.60167000  1.0
  C  C135  1  0.08826000  0.07767000  0.62666000  1.0
  C  C136  1  0.15537000  0.08875000  0.55994000  1.0
  C  C137  1  0.12660000  0.02422000  0.53094000  1.0
  C  C138  1  0.18867000  0.03006000  0.47200000  1.0
  C  C139  1  0.28009000  0.10014000  0.44176000  1.0
  C  C140  1  0.30926000  0.16504000  0.46999000  1.0
  C  C141  1  0.24717000  0.15937000  0.52875000  1.0
  C  C142  1  0.49491000  0.41694000  0.21315000  1.0
  C  C143  1  0.25245000  0.14980000  0.19880000  1.0
  C  C144  1  0.28204000  0.22047000  0.22776000  1.0
  C  C145  1  0.21891000  0.22428000  0.27529000  1.0
  C  C146  1  0.12086000  0.15640000  0.30148000  1.0
  C  C147  1  0.33297000  0.35165000  0.27956000  1.0
  C  C148  1  0.35654000  0.42044000  0.31062000  1.0
  C  C149  1  0.39832000  0.34998000  0.23284000  1.0
  C  C150  1  0.37334000  0.28508000  0.20433000  1.0
  C  C151  1  0.44006000  0.28469000  0.14868000  1.0
  C  C152  1  0.46906000  0.34246000  0.05516000  1.0
  C  C153  1  0.52800000  0.33933000  0.00206000  1.0
  C  C154  1  0.55824000  0.27815000  0.04190000  1.0
  C  C155  1  0.53001000  0.22075000  0.13503000  1.0
  C  C156  1  0.47124000  0.22407000  0.18813000  1.0
  C  C157  1  0.86991000  0.08306000  0.92203000  1.0
  C  C158  1  0.15140000  0.35020000  0.89735000  1.0
  C  C159  1  0.05177000  0.27953000  0.93843000  1.0
  C  C160  1  0.00043000  0.27571000  0.00537000  1.0
  C  C161  1  0.04212000  0.34359000  0.03554000  1.0
  C  C162  1  0.86878000  0.14835000  0.01868000  1.0
  C  C163  1  0.76894000  0.07956000  0.06390000  1.0
  C  C164  1  0.91718000  0.15002000  0.95166000  1.0
  C  C165  1  0.01060000  0.21492000  0.91173000  1.0
  C  C166  1  0.06662000  0.21531000  0.84464000  1.0
  C  C167  1  0.10238000  0.15754000  0.87340000  1.0
  C  C168  1  0.15861000  0.16067000  0.81133000  1.0
  C  C169  1  0.17995000  0.22184000  0.71991000  1.0
  C  C170  1  0.14422000  0.27925000  0.69074000  1.0
  C  C171  1  0.08780000  0.27593000  0.75283000  1.0
  C  C172  1  0.21315000  0.70806000  0.86991000  1.0
  C  C173  1  0.19880000  0.45125000  0.15140000  1.0
  C  C174  1  0.22776000  0.50980000  0.05177000  1.0
  C  C175  1  0.27528000  0.49420000  0.00043000  1.0
  C  C176  1  0.30147000  0.42233000  0.04213000  1.0
  C  C177  1  0.27957000  0.61254000  0.86878000  1.0
  C  C178  1  0.31062000  0.66716000  0.76894000  1.0
  C  C179  1  0.23284000  0.63117000  0.91718000  1.0
  C  C180  1  0.20432000  0.57766000  0.01060000  1.0
  C  C181  1  0.14869000  0.58875000  0.06662000  1.0
  C  C182  1  0.05516000  0.52422000  0.10238000  1.0
  C  C183  1  0.00206000  0.53006000  0.15861000  1.0
  C  C184  1  0.04190000  0.60014000  0.17995000  1.0
  C  C185  1  0.13503000  0.66504000  0.14423000  1.0
  C  C186  1  0.18813000  0.65937000  0.08779000  1.0
  C  C187  1  0.92203000  0.79194000  0.49491000  1.0
  C  C188  1  0.89735000  0.04875000  0.25245000  1.0
  C  C189  1  0.93843000  0.99020000  0.28204000  1.0
  C  C190  1  0.00537000  0.00580000  0.21891000  1.0
  C  C191  1  0.03554000  0.07766000  0.12086000  1.0
  C  C192  1  0.01868000  0.88746000  0.33297000  1.0
  C  C193  1  0.06390000  0.83284000  0.35654000  1.0
  C  C194  1  0.95166000  0.86884000  0.39832000  1.0
  C  C195  1  0.91174000  0.92233000  0.37334000  1.0
  C  C196  1  0.84463000  0.91125000  0.44006000  1.0
  C  C197  1  0.87340000  0.97578000  0.46906000  1.0
  C  C198  1  0.81133000  0.96994000  0.52800000  1.0
  C  C199  1  0.71991000  0.89986000  0.55824000  1.0
  C  C200  1  0.69074000  0.83496000  0.53001000  1.0
  C  C201  1  0.75283000  0.84063000  0.47125000  1.0
  C  C202  1  0.50509000  0.58306000  0.78686000  1.0
  C  C203  1  0.74755000  0.85020000  0.80120000  1.0
  C  C204  1  0.71796000  0.77953000  0.77224000  1.0
  C  C205  1  0.78109000  0.77572000  0.72471000  1.0
  C  C206  1  0.87914000  0.84360000  0.69852000  1.0
  C  C207  1  0.66703000  0.64835000  0.72044000  1.0
  C  C208  1  0.64346000  0.57956000  0.68938000  1.0
  C  C209  1  0.60167000  0.65001000  0.76717000  1.0
  C  C210  1  0.62666000  0.71492000  0.79567000  1.0
  C  C211  1  0.55994000  0.71531000  0.85131000  1.0
  C  C212  1  0.53094000  0.65754000  0.94484000  1.0
  C  C213  1  0.47200000  0.66067000  0.99794000  1.0
  C  C214  1  0.44176000  0.72185000  0.95810000  1.0
  C  C215  1  0.46999000  0.77925000  0.86497000  1.0
  C  C216  1  0.52876000  0.77593000  0.81187000  1.0
  C  C217  1  0.13009000  0.91695000  0.07796000  1.0
  C  C218  1  0.84861000  0.64981000  0.10265000  1.0
  C  C219  1  0.94823000  0.72047000  0.06157000  1.0
  C  C220  1  0.99957000  0.72429000  0.99463000  1.0
  C  C221  1  0.95788000  0.65640000  0.96446000  1.0
  C  C222  1  0.13122000  0.85165000  0.98132000  1.0
  C  C223  1  0.23106000  0.92044000  0.93610000  1.0
  C  C224  1  0.08282000  0.84998000  0.04834000  1.0
  C  C225  1  0.98941000  0.78509000  0.08826000  1.0
  C  C226  1  0.93338000  0.78469000  0.15537000  1.0
  C  C227  1  0.89762000  0.84246000  0.12660000  1.0
  C  C228  1  0.84139000  0.83933000  0.18867000  1.0
  C  C229  1  0.82005000  0.77815000  0.28009000  1.0
  C  C230  1  0.85578000  0.72075000  0.30926000  1.0
  C  C231  1  0.91220000  0.72407000  0.24717000  1.0
  N  N232  1  0.70187000  0.45622000  0.08893000  1.0
  N  N233  1  0.95486000  0.04379000  0.75434000  1.0
  N  N234  1  0.24565000  0.29079000  0.29813000  1.0
  N  N235  1  0.91107000  0.20920000  0.04515000  1.0
  N  N236  1  0.29813000  0.54379000  0.91107000  1.0
  N  N237  1  0.04514000  0.95621000  0.24566000  1.0
  N  N238  1  0.75435000  0.70921000  0.70187000  1.0
  N  N239  1  0.08893000  0.79080000  0.95486000  1.0
  O  O240  1  0.85371000  0.31503000  0.15340000  1.0
  O  O241  1  0.73640000  0.20687000  0.14337000  1.0
  O  O242  1  0.87213000  0.63624000  0.80420000  1.0
  O  O243  1  0.75453000  0.50948000  0.81290000  1.0
  O  O244  1  0.65839000  0.59393000  0.25149000  1.0
  O  O245  1  0.03157000  0.18496000  0.46132000  1.0
  O  O246  1  0.14975000  0.29313000  0.47047000  1.0
  O  O247  1  0.05956000  0.86375000  0.76411000  1.0
  O  O248  1  0.17761000  0.99051000  0.75496000  1.0
  O  O249  1  0.65459000  0.90607000  0.93555000  1.0
  O  O250  1  0.53868000  0.50710000  0.14629000  1.0
  O  O251  1  0.52953000  0.37978000  0.26360000  1.0
  O  O252  1  0.23589000  0.17633000  0.12786000  1.0
  O  O253  1  0.24505000  0.06744000  0.24546000  1.0
  O  O254  1  0.06445000  0.40986000  0.34162000  1.0
  O  O255  1  0.84661000  0.99290000  0.96842000  1.0
  O  O256  1  0.85663000  0.12024000  0.85024000  1.0
  O  O257  1  0.19581000  0.32367000  0.94044000  1.0
  O  O258  1  0.18710000  0.43257000  0.82240000  1.0
  O  O259  1  0.74851000  0.09013000  0.34541000  1.0
  O  O260  1  0.14629000  0.68497000  0.84660000  1.0
  O  O261  1  0.26361000  0.79314000  0.85662000  1.0
  O  O262  1  0.12786000  0.36375000  0.19581000  1.0
  O  O263  1  0.24547000  0.49052000  0.18710000  1.0
  O  O264  1  0.34162000  0.40608000  0.74851000  1.0
  O  O265  1  0.96842000  0.81503000  0.53868000  1.0
  O  O266  1  0.85024000  0.70686000  0.52953000  1.0
  O  O267  1  0.94044000  0.13625000  0.23588000  1.0
  O  O268  1  0.82239000  0.00949000  0.24504000  1.0
  O  O269  1  0.34541000  0.09392000  0.06446000  1.0
  O  O270  1  0.46132000  0.49289000  0.85371000  1.0
  O  O271  1  0.47047000  0.62023000  0.73640000  1.0
  O  O272  1  0.76411000  0.82367000  0.87214000  1.0
  O  O273  1  0.75496000  0.93257000  0.75453000  1.0
  O  O274  1  0.93555000  0.59014000  0.65837000  1.0
  O  O275  1  0.15339000  0.00710000  0.03158000  1.0
  O  O276  1  0.14338000  0.87978000  0.14975000  1.0
  O  O277  1  0.80419000  0.67632000  0.05956000  1.0
  O  O278  1  0.81290000  0.56743000  0.17761000  1.0
  O  O279  1  0.25149000  0.90987000  0.65459000  1.0
