# generated using pymatgen
data_LaH15C16(NO5)2
_symmetry_space_group_name_H-M   'P 1'
_cell_length_a   7.23588000
_cell_length_b   10.68220000
_cell_length_c   12.06600000
_cell_angle_alpha   91.19030000
_cell_angle_beta   104.12500000
_cell_angle_gamma   95.66190000
_symmetry_Int_Tables_number   1
_chemical_formula_structural   LaH15C16(NO5)2
_chemical_formula_sum   'La2 H30 C32 N4 O20'
_cell_volume   899.06007569
_cell_formula_units_Z   2
loop_
 _symmetry_equiv_pos_site_id
 _symmetry_equiv_pos_as_xyz
  1  'x, y, z'
loop_
 _atom_site_type_symbol
 _atom_site_label
 _atom_site_symmetry_multiplicity
 _atom_site_fract_x
 _atom_site_fract_y
 _atom_site_fract_z
 _atom_site_occupancy
  La  La0  1  0.43650000  0.32594000  0.17154000  1.0
  La  La1  1  0.56350000  0.67406000  0.82846000  1.0
  H  H2  1  0.73762000  0.44026000  0.49510000  1.0
  H  H3  1  0.26238000  0.55974000  0.50490000  1.0
  H  H4  1  0.86576000  0.27294000  0.82378000  1.0
  H  H5  1  0.13425000  0.72706000  0.17621000  1.0
  H  H6  1  0.94415000  0.07511000  0.52634000  1.0
  H  H7  1  0.05586000  0.92489000  0.47365000  1.0
  H  H8  1  0.54279000  0.87210000  0.08860000  1.0
  H  H9  1  0.45719000  0.12790000  0.91140000  1.0
  H  H10  1  0.70471000  0.60808000  0.35168000  1.0
  H  H11  1  0.29529000  0.39193000  0.64833000  1.0
  H  H12  1  0.56219000  0.97467000  0.43788000  1.0
  H  H13  1  0.43781000  0.02533000  0.56212000  1.0
  H  H14  1  0.00753000  0.98308000  0.71681000  1.0
  H  H15  1  0.99248000  0.01692000  0.28319000  1.0
  H  H16  1  0.97596000  0.06560000  0.83468000  1.0
  H  H17  1  0.02404000  0.93440000  0.16533000  1.0
  H  H18  1  0.65192000  0.66794000  0.54533000  1.0
  H  H19  1  0.34809000  0.33207000  0.45468000  1.0
  H  H20  1  0.60645000  0.81375000  0.57448000  1.0
  H  H21  1  0.39356000  0.18625000  0.42552000  1.0
  H  H22  1  0.17177000  0.21167000  0.43107000  1.0
  H  H23  1  0.82824000  0.78833000  0.56893000  1.0
  H  H24  1  0.03886000  0.22152000  0.21735000  1.0
  H  H25  1  0.96114000  0.77848000  0.78266000  1.0
  H  H26  1  0.80560000  0.39544000  0.95351000  1.0
  H  H27  1  0.19439000  0.60455000  0.04648000  1.0
  H  H28  1  0.78188000  0.42870000  0.07529000  1.0
  H  H29  1  0.21812000  0.57129000  0.92471000  1.0
  H  H30  1  0.99130000  0.28960000  0.09978000  1.0
  H  H31  1  0.00870000  0.71040000  0.90022000  1.0
  C  C32  1  0.84524000  0.25822000  0.49933000  1.0
  C  C33  1  0.15476000  0.74178000  0.50066000  1.0
  C  C34  1  0.78804000  0.36336000  0.54797000  1.0
  C  C35  1  0.21196000  0.63664000  0.45203000  1.0
  C  C36  1  0.79735000  0.36731000  0.66543000  1.0
  C  C37  1  0.20265000  0.63268000  0.33457000  1.0
  C  C38  1  0.86003000  0.26792000  0.73281000  1.0
  C  C39  1  0.13997000  0.73208000  0.26719000  1.0
  C  C40  1  0.90982000  0.15886000  0.68429000  1.0
  C  C41  1  0.09018000  0.84114000  0.31571000  1.0
  C  C42  1  0.90237000  0.15670000  0.56619000  1.0
  C  C43  1  0.09763000  0.84330000  0.43380000  1.0
  C  C44  1  0.85060000  0.25582000  0.37571000  1.0
  C  C45  1  0.14940000  0.74418000  0.62429000  1.0
  C  C46  1  0.73137000  0.47545000  0.71973000  1.0
  C  C47  1  0.26863000  0.52455000  0.28026000  1.0
  C  C48  1  0.54193000  0.93489000  0.25956000  1.0
  C  C49  1  0.45807000  0.06511000  0.74044000  1.0
  C  C50  1  0.56693000  0.84761000  0.17789000  1.0
  C  C51  1  0.43306000  0.15239000  0.82211000  1.0
  C  C52  1  0.62318000  0.72951000  0.21154000  1.0
  C  C53  1  0.37682000  0.27049000  0.78846000  1.0
  C  C54  1  0.65753000  0.69952000  0.32665000  1.0
  C  C55  1  0.34247000  0.30049000  0.67336000  1.0
  C  C56  1  0.63465000  0.78808000  0.40693000  1.0
  C  C57  1  0.36535000  0.21192000  0.59307000  1.0
  C  C58  1  0.57720000  0.90487000  0.37458000  1.0
  C  C59  1  0.42279000  0.09513000  0.62543000  1.0
  C  C60  1  0.48422000  0.06215000  0.22684000  1.0
  C  C61  1  0.51577000  0.93785000  0.77317000  1.0
  C  C62  1  0.65248000  0.63466000  0.12589000  1.0
  C  C63  1  0.34751000  0.36534000  0.87411000  1.0
  N  N64  1  0.96191000  0.05962000  0.74925000  1.0
  N  N65  1  0.03810000  0.94039000  0.25075000  1.0
  N  N66  1  0.67962000  0.76206000  0.52744000  1.0
  N  N67  1  0.32038000  0.23795000  0.47256000  1.0
  O  O68  1  0.74911000  0.32515000  0.30778000  1.0
  O  O69  1  0.25089000  0.67485000  0.69222000  1.0
  O  O70  1  0.96474000  0.18474000  0.34496000  1.0
  O  O71  1  0.03526000  0.81526000  0.65504000  1.0
  O  O72  1  0.64594000  0.55907000  0.65722000  1.0
  O  O73  1  0.35406000  0.44093000  0.34278000  1.0
  O  O74  1  0.75326000  0.48232000  0.82790000  1.0
  O  O75  1  0.24674000  0.51768000  0.17210000  1.0
  O  O76  1  0.48332000  0.09908000  0.12736000  1.0
  O  O77  1  0.51667000  0.90092000  0.87264000  1.0
  O  O78  1  0.44231000  0.13402000  0.30221000  1.0
  O  O79  1  0.55770000  0.86599000  0.69779000  1.0
  O  O80  1  0.68009000  0.67373000  0.03195000  1.0
  O  O81  1  0.31990000  0.32627000  0.96805000  1.0
  O  O82  1  0.65224000  0.51966000  0.15222000  1.0
  O  O83  1  0.34774000  0.48034000  0.84779000  1.0
  O  O84  1  0.81023000  0.35916000  0.02875000  1.0
  O  O85  1  0.18976000  0.64084000  0.97125000  1.0
  O  O86  1  0.09243000  0.24362000  0.15107000  1.0
  O  O87  1  0.90757000  0.75638000  0.84893000  1.0
