# generated using pymatgen
data_Zn2FeH16C12(ClO3)2
_symmetry_space_group_name_H-M   'P 1'
_cell_length_a   9.63751000
_cell_length_b   10.85310000
_cell_length_c   10.86540000
_cell_angle_alpha   119.52800000
_cell_angle_beta   110.19700000
_cell_angle_gamma   94.53510000
_symmetry_Int_Tables_number   1
_chemical_formula_structural   Zn2FeH16C12(ClO3)2
_chemical_formula_sum   'Zn4 Fe2 H32 C24 Cl4 O12'
_cell_volume   883.79124750
_cell_formula_units_Z   2
loop_
 _symmetry_equiv_pos_site_id
 _symmetry_equiv_pos_as_xyz
  1  'x, y, z'
loop_
 _atom_site_type_symbol
 _atom_site_label
 _atom_site_symmetry_multiplicity
 _atom_site_fract_x
 _atom_site_fract_y
 _atom_site_fract_z
 _atom_site_occupancy
  Zn  Zn0  1  0.36268000  0.84801000  0.37162000  1.0
  Zn  Zn1  1  0.63731000  0.15198000  0.62837000  1.0
  Zn  Zn2  1  0.45558000  0.50917000  0.13280000  1.0
  Zn  Zn3  1  0.54441000  0.49083000  0.86720000  1.0
  Fe  Fe4  1  0.28728000  0.58397000  0.26048000  1.0
  Fe  Fe5  1  0.71272000  0.41602000  0.73953000  1.0
  H  H6  1  0.48024000  0.17203000  0.97883000  1.0
  H  H7  1  0.51976000  0.82797000  0.02116000  1.0
  H  H8  1  0.44303000  0.19520000  0.13866000  1.0
  H  H9  1  0.55697000  0.80480000  0.86133000  1.0
  H  H10  1  0.68927000  0.08532000  0.06780000  1.0
  H  H11  1  0.31074000  0.91469000  0.93220000  1.0
  H  H12  1  0.66575000  0.13890000  0.24038000  1.0
  H  H13  1  0.33424000  0.86110000  0.75961000  1.0
  H  H14  1  0.90586000  0.32705000  0.36147000  1.0
  H  H15  1  0.09414000  0.67296000  0.63854000  1.0
  H  H16  1  0.86262000  0.32612000  0.18776000  1.0
  H  H17  1  0.13738000  0.67389000  0.81226000  1.0
  H  H18  1  0.72334000  0.46403000  0.42151000  1.0
  H  H19  1  0.27665000  0.53598000  0.57849000  1.0
  H  H20  1  0.79792000  0.54550000  0.33851000  1.0
  H  H21  1  0.20207000  0.45451000  0.66149000  1.0
  H  H22  1  0.16393000  0.08420000  0.50506000  1.0
  H  H23  1  0.83607000  0.91580000  0.49493000  1.0
  H  H24  1  0.05007000  0.89430000  0.40266000  1.0
  H  H25  1  0.94993000  0.10571000  0.59734000  1.0
  H  H26  1  0.86704000  0.90364000  0.19097000  1.0
  H  H27  1  0.13296000  0.09637000  0.80903000  1.0
  H  H28  1  0.90999000  0.08758000  0.35373000  1.0
  H  H29  1  0.09002000  0.91243000  0.64626000  1.0
  H  H30  1  0.10622000  0.18740000  0.30551000  1.0
  H  H31  1  0.89379000  0.81260000  0.69447000  1.0
  H  H32  1  0.96338000  0.05282000  0.10971000  1.0
  H  H33  1  0.03663000  0.94717000  0.89027000  1.0
  H  H34  1  0.11032000  0.87921000  0.07517000  1.0
  H  H35  1  0.88969000  0.12078000  0.92482000  1.0
  H  H36  1  0.27041000  0.04659000  0.22597000  1.0
  H  H37  1  0.72961000  0.95340000  0.77403000  1.0
  C  C38  1  0.15921000  0.63183000  0.34713000  1.0
  C  C39  1  0.84079000  0.36817000  0.65288000  1.0
  C  C40  1  0.22306000  0.39037000  0.17197000  1.0
  C  C41  1  0.77696000  0.60963000  0.82806000  1.0
  C  C42  1  0.46970000  0.64476000  0.42194000  1.0
  C  C43  1  0.53031000  0.35524000  0.57807000  1.0
  C  C44  1  0.20518000  0.60138000  0.09860000  1.0
  C  C45  1  0.79481000  0.39861000  0.90141000  1.0
  C  C46  1  0.53233000  0.22053000  0.10616000  1.0
  C  C47  1  0.46767000  0.77947000  0.89384000  1.0
  C  C48  1  0.67602000  0.17633000  0.16581000  1.0
  C  C49  1  0.32398000  0.82367000  0.83419000  1.0
  C  C50  1  0.81356000  0.31925000  0.26209000  1.0
  C  C51  1  0.18644000  0.68075000  0.73792000  1.0
  C  C52  1  0.73901000  0.44159000  0.31734000  1.0
  C  C53  1  0.26099000  0.55842000  0.68266000  1.0
  C  C54  1  0.08947000  0.98186000  0.38838000  1.0
  C  C55  1  0.91054000  0.01814000  0.61161000  1.0
  C  C56  1  0.96002000  0.00851000  0.28573000  1.0
  C  C57  1  0.03999000  0.99150000  0.71426000  1.0
  C  C58  1  0.04333000  0.06835000  0.21989000  1.0
  C  C59  1  0.95667000  0.93165000  0.78010000  1.0
  C  C60  1  0.15759000  0.97988000  0.19493000  1.0
  C  C61  1  0.84242000  0.02011000  0.80507000  1.0
  Cl  Cl62  1  0.54732000  0.98311000  0.35181000  1.0
  Cl  Cl63  1  0.45267000  0.01688000  0.64819000  1.0
  Cl  Cl64  1  0.65707000  0.65958000  0.14668000  1.0
  Cl  Cl65  1  0.34292000  0.34042000  0.85332000  1.0
  O  O66  1  0.07172000  0.66044000  0.40225000  1.0
  O  O67  1  0.92827000  0.33956000  0.59776000  1.0
  O  O68  1  0.17735000  0.26239000  0.11377000  1.0
  O  O69  1  0.82268000  0.73761000  0.88627000  1.0
  O  O70  1  0.58745000  0.68184000  0.53074000  1.0
  O  O71  1  0.41256000  0.31816000  0.46925000  1.0
  O  O72  1  0.14392000  0.60996000  0.99039000  1.0
  O  O73  1  0.85606000  0.39002000  0.00961000  1.0
  O  O74  1  0.58701000  0.38158000  0.18408000  1.0
  O  O75  1  0.41298000  0.61843000  0.81592000  1.0
  O  O76  1  0.18215000  0.92965000  0.30198000  1.0
  O  O77  1  0.81785000  0.07034000  0.69800000  1.0
