# generated using pymatgen
data_CoH22C24(N2O5)2
_symmetry_space_group_name_H-M   'P 1'
_cell_length_a   7.70397000
_cell_length_b   7.90180000
_cell_length_c   11.03490000
_cell_angle_alpha   75.16580000
_cell_angle_beta   81.18390000
_cell_angle_gamma   62.28950000
_symmetry_Int_Tables_number   1
_chemical_formula_structural   CoH22C24(N2O5)2
_chemical_formula_sum   'Co1 H22 C24 N4 O10'
_cell_volume   574.42705410
_cell_formula_units_Z   1
loop_
 _symmetry_equiv_pos_site_id
 _symmetry_equiv_pos_as_xyz
  1  'x, y, z'
loop_
 _atom_site_type_symbol
 _atom_site_label
 _atom_site_symmetry_multiplicity
 _atom_site_fract_x
 _atom_site_fract_y
 _atom_site_fract_z
 _atom_site_occupancy
  Co  Co0  1  0.50000000  0.50000000  0.00000000  1.0
  H  H1  1  0.95028000  0.57998000  0.76720000  1.0
  H  H2  1  0.04972000  0.42002000  0.23280000  1.0
  H  H3  1  0.50634000  0.80222000  0.49939000  1.0
  H  H4  1  0.49366000  0.19778000  0.50061000  1.0
  H  H5  1  0.72369000  0.88745000  0.33054000  1.0
  H  H6  1  0.27631000  0.11255000  0.66946000  1.0
  H  H7  1  0.16535000  0.67680000  0.60388000  1.0
  H  H8  1  0.83465000  0.32319000  0.39612000  1.0
  H  H9  1  0.87387000  0.05168000  0.21996000  1.0
  H  H10  1  0.12612000  0.94832000  0.78005000  1.0
  H  H11  1  0.36256000  0.65861000  0.44641000  1.0
  H  H12  1  0.63744000  0.34138000  0.55359000  1.0
  H  H13  1  0.49016000  0.84576000  0.22418000  1.0
  H  H14  1  0.50984000  0.15424000  0.77582000  1.0
  H  H15  1  0.04046000  0.19978000  0.03717000  1.0
  H  H16  1  0.95954000  0.80022000  0.96283000  1.0
  H  H17  1  0.28297000  0.16489000  0.05985000  1.0
  H  H18  1  0.71704000  0.83511000  0.94015000  1.0
  H  H19  1  0.80333000  0.45792000  0.05882000  1.0
  H  H20  1  0.19667000  0.54208000  0.94118000  1.0
  H  H21  1  0.65767000  0.45081000  0.18132000  1.0
  H  H22  1  0.34232000  0.54919000  0.81868000  1.0
  C  C23  1  0.57828000  0.63540000  0.74131000  1.0
  C  C24  1  0.42172000  0.36461000  0.25869000  1.0
  C  C25  1  0.90051000  0.64977000  0.67198000  1.0
  C  C26  1  0.09949000  0.35024000  0.32802000  1.0
  C  C27  1  0.65235000  0.77201000  0.52046000  1.0
  C  C28  1  0.34765000  0.22799000  0.47954000  1.0
  C  C29  1  0.77246000  0.82262000  0.42657000  1.0
  C  C30  1  0.22755000  0.17738000  0.57343000  1.0
  C  C31  1  0.02234000  0.70144000  0.57969000  1.0
  C  C32  1  0.97766000  0.29856000  0.42031000  1.0
  C  C33  1  0.71327000  0.68611000  0.64381000  1.0
  C  C34  1  0.28673000  0.31390000  0.35619000  1.0
  C  C35  1  0.95711000  0.78799000  0.45722000  1.0
  C  C36  1  0.04290000  0.21201000  0.54278000  1.0
  C  C37  1  0.02305000  0.97149000  0.25213000  1.0
  C  C38  1  0.97695000  0.02850000  0.74787000  1.0
  C  C39  1  0.28301000  0.76932000  0.36809000  1.0
  C  C40  1  0.71699000  0.23068000  0.63191000  1.0
  C  C41  1  0.34611000  0.85827000  0.26028000  1.0
  C  C42  1  0.65389000  0.14173000  0.73972000  1.0
  C  C43  1  0.19063000  0.09213000  0.06313000  1.0
  C  C44  1  0.80937000  0.90787000  0.93687000  1.0
  C  C45  1  0.26729000  0.95954000  0.96596000  1.0
  C  C46  1  0.73271000  0.04046000  0.03405000  1.0
  N  N47  1  0.08136000  0.84122000  0.36215000  1.0
  N  N48  1  0.91864000  0.15877000  0.63785000  1.0
  N  N49  1  0.18211000  0.98358000  0.19044000  1.0
  N  N50  1  0.81788000  0.01643000  0.80956000  1.0
  O  O51  1  0.63464000  0.57668000  0.85448000  1.0
  O  O52  1  0.36535000  0.42332000  0.14552000  1.0
  O  O53  1  0.41948000  0.65063000  0.70717000  1.0
  O  O54  1  0.58052000  0.34937000  0.29283000  1.0
  O  O55  1  0.32661000  0.02858000  0.86169000  1.0
  O  O56  1  0.67340000  0.97142000  0.13831000  1.0
  O  O57  1  0.67484000  0.53498000  0.09464000  1.0
  O  O58  1  0.32516000  0.46502000  0.90535000  1.0
  O  O59  1  0.25331000  0.79986000  0.99902000  1.0
  O  O60  1  0.74668000  0.20014000  0.00098000  1.0
