# generated using pymatgen
data_CuH10C16(NO)4
_symmetry_space_group_name_H-M   'P 1'
_cell_length_a   4.70347000
_cell_length_b   19.67830000
_cell_length_c   19.67680000
_cell_angle_alpha   119.35800000
_cell_angle_beta   94.57600000
_cell_angle_gamma   94.57750000
_symmetry_Int_Tables_number   1
_chemical_formula_structural   CuH10C16(NO)4
_chemical_formula_sum   'Cu3 H30 C48 N12 O12'
_cell_volume   1567.36693075
_cell_formula_units_Z   3
loop_
 _symmetry_equiv_pos_site_id
 _symmetry_equiv_pos_as_xyz
  1  'x, y, z'
loop_
 _atom_site_type_symbol
 _atom_site_label
 _atom_site_symmetry_multiplicity
 _atom_site_fract_x
 _atom_site_fract_y
 _atom_site_fract_z
 _atom_site_occupancy
  Cu  Cu0  1  0.50000000  0.00000000  0.50000000  1.0
  Cu  Cu1  1  0.50000000  0.50000000  0.00000000  1.0
  Cu  Cu2  1  0.00000000  0.50000000  0.50000000  1.0
  H  H3  1  0.61195000  0.62092000  0.18415000  1.0
  H  H4  1  0.99104000  0.56309000  0.37886000  1.0
  H  H5  1  0.42839000  0.81582000  0.43680000  1.0
  H  H6  1  0.38805000  0.37908000  0.81585000  1.0
  H  H7  1  0.00896000  0.43691000  0.62114000  1.0
  H  H8  1  0.57161000  0.18418000  0.56320000  1.0
  H  H9  1  0.97467000  0.78228000  0.31218000  1.0
  H  H10  1  0.19277000  0.52976000  0.21759000  1.0
  H  H11  1  0.66297000  0.68785000  0.47018000  1.0
  H  H12  1  0.02533000  0.21772000  0.68782000  1.0
  H  H13  1  0.80723000  0.47024000  0.78241000  1.0
  H  H14  1  0.33704000  0.31215000  0.52982000  1.0
  H  H15  1  0.59717000  0.85960000  0.20728000  1.0
  H  H16  1  0.73767000  0.34752000  0.14044000  1.0
  H  H17  1  0.39065000  0.79276000  0.65233000  1.0
  H  H18  1  0.40282000  0.14041000  0.79273000  1.0
  H  H19  1  0.26233000  0.65248000  0.85956000  1.0
  H  H20  1  0.60935000  0.20724000  0.34767000  1.0
  H  H21  1  0.43282000  0.74082000  0.07312000  1.0
  H  H22  1  0.69152000  0.33210000  0.25917000  1.0
  H  H23  1  0.36014000  0.92694000  0.66780000  1.0
  H  H24  1  0.56717000  0.25918000  0.92689000  1.0
  H  H25  1  0.30848000  0.66790000  0.74083000  1.0
  H  H26  1  0.63986000  0.07306000  0.33220000  1.0
  H  H27  1  0.04019000  0.59946000  0.00103000  1.0
  H  H28  1  0.44018000  0.40147000  0.40055000  1.0
  H  H29  1  0.03932000  0.99903000  0.59855000  1.0
  H  H30  1  0.95981000  0.40054000  0.99898000  1.0
  H  H31  1  0.55982000  0.59853000  0.59945000  1.0
  H  H32  1  0.96068000  0.00097000  0.40145000  1.0
  C  C33  1  0.76847000  0.63768000  0.15562000  1.0
  C  C34  1  0.13057000  0.51778000  0.36216000  1.0
  C  C35  1  0.61327000  0.84441000  0.48213000  1.0
  C  C36  1  0.23153000  0.36233000  0.84438000  1.0
  C  C37  1  0.86943000  0.48222000  0.63784000  1.0
  C  C38  1  0.38673000  0.15559000  0.51787000  1.0
  C  C39  1  0.07354000  0.77177000  0.26024000  1.0
  C  C40  1  0.30185000  0.48829000  0.22811000  1.0
  C  C41  1  0.81375000  0.73980000  0.51162000  1.0
  C  C42  1  0.92646000  0.22824000  0.73976000  1.0
  C  C43  1  0.69816000  0.51171000  0.77189000  1.0
  C  C44  1  0.18625000  0.26020000  0.48838000  1.0
  C  C45  1  0.11259000  0.69503000  0.11962000  1.0
  C  C46  1  0.41708000  0.42437000  0.30488000  1.0
  C  C47  1  0.99320000  0.88045000  0.57555000  1.0
  C  C48  1  0.88741000  0.30497000  0.88038000  1.0
  C  C49  1  0.58292000  0.57563000  0.69513000  1.0
  C  C50  1  0.00681000  0.11955000  0.42445000  1.0
  C  C51  1  0.42289000  0.81494000  0.19836000  1.0
  C  C52  1  0.60789000  0.38325000  0.18503000  1.0
  C  C53  1  0.22506000  0.80167000  0.61663000  1.0
  C  C54  1  0.57711000  0.18506000  0.80164000  1.0
  C  C55  1  0.39211000  0.61675000  0.81497000  1.0
  C  C56  1  0.77494000  0.19833000  0.38337000  1.0
  C  C57  1  0.98152000  0.70453000  0.18615000  1.0
  C  C58  1  0.27675000  0.48141000  0.29533000  1.0
  C  C59  1  0.79577000  0.81390000  0.51848000  1.0
  C  C60  1  0.01848000  0.29547000  0.81385000  1.0
  C  C61  1  0.72325000  0.51859000  0.70467000  1.0
  C  C62  1  0.20424000  0.18610000  0.48152000  1.0
  C  C63  1  0.41241000  0.89782000  0.34279000  1.0
  C  C64  1  0.51491000  0.44488000  0.10213000  1.0
  C  C65  1  0.06990000  0.65721000  0.55508000  1.0
  C  C66  1  0.58759000  0.10218000  0.65721000  1.0
  C  C67  1  0.48508000  0.55512000  0.89787000  1.0
  C  C68  1  0.93010000  0.34279000  0.44492000  1.0
  C  C69  1  0.29483000  0.82625000  0.26572000  1.0
  C  C70  1  0.46875000  0.43930000  0.17367000  1.0
  C  C71  1  0.02962000  0.73431000  0.56060000  1.0
  C  C72  1  0.70517000  0.17375000  0.73428000  1.0
  C  C73  1  0.53125000  0.56070000  0.82633000  1.0
  C  C74  1  0.97038000  0.26569000  0.43940000  1.0
  C  C75  1  0.33508000  0.75009000  0.12481000  1.0
  C  C76  1  0.58461000  0.37451000  0.24986000  1.0
  C  C77  1  0.21066000  0.87524000  0.62538000  1.0
  C  C78  1  0.66491000  0.24991000  0.87519000  1.0
  C  C79  1  0.41539000  0.62549000  0.75014000  1.0
  C  C80  1  0.78934000  0.12476000  0.37462000  1.0
  N  N81  1  0.97822000  0.62715000  0.05658000  1.0
  N  N82  1  0.35048000  0.42927000  0.37278000  1.0
  N  N83  1  0.92172000  0.94348000  0.57071000  1.0
  N  N84  1  0.02178000  0.37285000  0.94342000  1.0
  N  N85  1  0.64952000  0.57073000  0.62722000  1.0
  N  N86  1  0.07828000  0.05652000  0.42929000  1.0
  N  N87  1  0.77207000  0.59239000  0.07830000  1.0
  N  N88  1  0.17928000  0.48579000  0.40751000  1.0
  N  N89  1  0.69399000  0.92174000  0.51417000  1.0
  N  N90  1  0.22793000  0.40761000  0.92171000  1.0
  N  N91  1  0.82072000  0.51421000  0.59249000  1.0
  N  N92  1  0.30601000  0.07826000  0.48583000  1.0
  O  O93  1  0.27628000  0.91141000  0.40223000  1.0
  O  O94  1  0.36494000  0.49067000  0.08852000  1.0
  O  O95  1  0.87422000  0.59781000  0.50919000  1.0
  O  O96  1  0.72372000  0.08859000  0.59777000  1.0
  O  O97  1  0.63505000  0.50933000  0.91148000  1.0
  O  O98  1  0.12578000  0.40219000  0.49081000  1.0
  O  O99  1  0.63436000  0.94051000  0.34711000  1.0
  O  O100  1  0.69447000  0.40664000  0.05952000  1.0
  O  O101  1  0.28739000  0.65283000  0.59344000  1.0
  O  O102  1  0.36565000  0.05949000  0.65289000  1.0
  O  O103  1  0.30552000  0.59336000  0.94048000  1.0
  O  O104  1  0.71261000  0.34717000  0.40657000  1.0
