# generated using pymatgen
data_CuH16C20S2(N2O3)2
_symmetry_space_group_name_H-M   'P 1'
_cell_length_a   10.69620000
_cell_length_b   10.83900000
_cell_length_c   11.12900000
_cell_angle_alpha   89.99980000
_cell_angle_beta   90.00000000
_cell_angle_gamma   102.68000000
_symmetry_Int_Tables_number   1
_chemical_formula_structural   CuH16C20S2(N2O3)2
_chemical_formula_sum   'Cu2 H32 C40 S4 N8 O12'
_cell_volume   1258.78529880
_cell_formula_units_Z   2
loop_
 _symmetry_equiv_pos_site_id
 _symmetry_equiv_pos_as_xyz
  1  'x, y, z'
loop_
 _atom_site_type_symbol
 _atom_site_label
 _atom_site_symmetry_multiplicity
 _atom_site_fract_x
 _atom_site_fract_y
 _atom_site_fract_z
 _atom_site_occupancy
  Cu  Cu0  1  0.75000000  0.75000000  0.65195000  1.0
  Cu  Cu1  1  0.25000000  0.25000000  0.34805000  1.0
  H  H2  1  0.88105000  0.32839000  0.69901000  1.0
  H  H3  1  0.61895000  0.17161000  0.69901000  1.0
  H  H4  1  0.11895000  0.67161000  0.30098000  1.0
  H  H5  1  0.38105000  0.82839000  0.30098000  1.0
  H  H6  1  0.11488000  0.41656000  0.66569000  1.0
  H  H7  1  0.38512000  0.08344000  0.66570000  1.0
  H  H8  1  0.88512000  0.58344000  0.33430000  1.0
  H  H9  1  0.61488000  0.91656000  0.33430000  1.0
  H  H10  1  0.18941000  0.64644000  0.61293000  1.0
  H  H11  1  0.31059000  0.85356000  0.61294000  1.0
  H  H12  1  0.81059000  0.35356000  0.38707000  1.0
  H  H13  1  0.68941000  0.14644000  0.38707000  1.0
  H  H14  1  0.02770000  0.78297000  0.61060000  1.0
  H  H15  1  0.47231000  0.71703000  0.61061000  1.0
  H  H16  1  0.97231000  0.21703000  0.38940000  1.0
  H  H17  1  0.52769000  0.28297000  0.38940000  1.0
  H  H18  1  0.89266000  0.91429000  0.46211000  1.0
  H  H19  1  0.60733000  0.58571000  0.46210000  1.0
  H  H20  1  0.10733000  0.08571000  0.53789000  1.0
  H  H21  1  0.39267000  0.41429000  0.53789000  1.0
  H  H22  1  0.89870000  0.92184000  0.23947000  1.0
  H  H23  1  0.60129000  0.57817000  0.23947000  1.0
  H  H24  1  0.10130000  0.07816000  0.76052000  1.0
  H  H25  1  0.39871000  0.42183000  0.76053000  1.0
  H  H26  1  0.95531000  0.82587000  0.06836000  1.0
  H  H27  1  0.54469000  0.67414000  0.06836000  1.0
  H  H28  1  0.04469000  0.17413000  0.93164000  1.0
  H  H29  1  0.45530000  0.32586000  0.93163000  1.0
  H  H30  1  0.94470000  0.82719000  0.84353000  1.0
  H  H31  1  0.55531000  0.67281000  0.84353000  1.0
  H  H32  1  0.05530000  0.17281000  0.15647000  1.0
  H  H33  1  0.44470000  0.32719000  0.15646000  1.0
  C  C34  1  0.83341000  0.51006000  0.67150000  1.0
  C  C35  1  0.66659000  0.98994000  0.67150000  1.0
  C  C36  1  0.16659000  0.48995000  0.32850000  1.0
  C  C37  1  0.33341000  0.01006000  0.32850000  1.0
  C  C38  1  0.91727000  0.42851000  0.68046000  1.0
  C  C39  1  0.58273000  0.07149000  0.68047000  1.0
  C  C40  1  0.08273000  0.57149000  0.31953000  1.0
  C  C41  1  0.41727000  0.92851000  0.31953000  1.0
  C  C42  1  0.04722000  0.47823000  0.66159000  1.0
  C  C43  1  0.45278000  0.02177000  0.66160000  1.0
  C  C44  1  0.95279000  0.52178000  0.33840000  1.0
  C  C45  1  0.54722000  0.97823000  0.33840000  1.0
  C  C46  1  0.08946000  0.60638000  0.63453000  1.0
  C  C47  1  0.41054000  0.89362000  0.63454000  1.0
  C  C48  1  0.91055000  0.39362000  0.36547000  1.0
  C  C49  1  0.58946000  0.10638000  0.36547000  1.0
  C  C50  1  0.00040000  0.68244000  0.63155000  1.0
  C  C51  1  0.49960000  0.81756000  0.63155000  1.0
  C  C52  1  0.99960000  0.31756000  0.36845000  1.0
  C  C53  1  0.50040000  0.18244000  0.36845000  1.0
  C  C54  1  0.83002000  0.84208000  0.40881000  1.0
  C  C55  1  0.66997000  0.65793000  0.40881000  1.0
  C  C56  1  0.16998000  0.15793000  0.59118000  1.0
  C  C57  1  0.33003000  0.34207000  0.59118000  1.0
  C  C58  1  0.83238000  0.84510000  0.28412000  1.0
  C  C59  1  0.66761000  0.65491000  0.28412000  1.0
  C  C60  1  0.16761000  0.15490000  0.71588000  1.0
  C  C61  1  0.33239000  0.34509000  0.71588000  1.0
  C  C62  1  0.75000000  0.75000000  0.21908000  1.0
  C  C63  1  0.25000000  0.25000000  0.78092000  1.0
  C  C64  1  0.75000000  0.75000000  0.08679000  1.0
  C  C65  1  0.25000000  0.24999000  0.91321000  1.0
  C  C66  1  0.86387000  0.79344000  0.02221000  1.0
  C  C67  1  0.63613000  0.70656000  0.02221000  1.0
  C  C68  1  0.13613000  0.20655000  0.97779000  1.0
  C  C69  1  0.36387000  0.29343000  0.97779000  1.0
  C  C70  1  0.85943000  0.79233000  0.89755000  1.0
  C  C71  1  0.64057000  0.70767000  0.89754000  1.0
  C  C72  1  0.14057000  0.20767000  0.10245000  1.0
  C  C73  1  0.35943000  0.29233000  0.10245000  1.0
  S  S74  1  0.66256000  0.44420000  0.67509000  1.0
  S  S75  1  0.83744000  0.05580000  0.67509000  1.0
  S  S76  1  0.33744000  0.55580000  0.32492000  1.0
  S  S77  1  0.16256000  0.94420000  0.32492000  1.0
  N  N78  1  0.87453000  0.63430000  0.65060000  1.0
  N  N79  1  0.62548000  0.86570000  0.65060000  1.0
  N  N80  1  0.12548000  0.36570000  0.34939000  1.0
  N  N81  1  0.37452000  0.13430000  0.34940000  1.0
  N  N82  1  0.74999000  0.75000000  0.46982000  1.0
  N  N83  1  0.25000000  0.25000000  0.53017000  1.0
  N  N84  1  0.75000000  0.75000000  0.83624000  1.0
  N  N85  1  0.25000000  0.25000000  0.16376000  1.0
  O  O86  1  0.60104000  0.55365000  0.66666667  1.0
  O  O87  1  0.89896000  0.94635000  0.66666667  1.0
  O  O88  1  0.39897000  0.44635000  0.33326000  1.0
  O  O89  1  0.10104000  0.05365000  0.33326000  1.0
  O  O90  1  0.63729000  0.37544000  0.78846000  1.0
  O  O91  1  0.86272000  0.12456000  0.78845000  1.0
  O  O92  1  0.36272000  0.62458000  0.21157000  1.0
  O  O93  1  0.13728000  0.87541000  0.21157000  1.0
  O  O94  1  0.64229000  0.36483000  0.56730000  1.0
  O  O95  1  0.85771000  0.13516000  0.56729000  1.0
  O  O96  1  0.35771000  0.63515000  0.43273000  1.0
  O  O97  1  0.14230000  0.86486000  0.43273000  1.0
