# generated using pymatgen
data_DyH20C18N7O12
_symmetry_space_group_name_H-M   'P 1'
_cell_length_a   10.75130000
_cell_length_b   10.94510000
_cell_length_c   13.92910652
_cell_angle_alpha   67.15688297
_cell_angle_beta   78.57129101
_cell_angle_gamma   65.36890000
_symmetry_Int_Tables_number   1
_chemical_formula_structural   DyH20C18N7O12
_chemical_formula_sum   'Dy2 H40 C36 N14 O24'
_cell_volume   1371.80464019
_cell_formula_units_Z   2
loop_
 _symmetry_equiv_pos_site_id
 _symmetry_equiv_pos_as_xyz
  1  'x, y, z'
loop_
 _atom_site_type_symbol
 _atom_site_label
 _atom_site_symmetry_multiplicity
 _atom_site_fract_x
 _atom_site_fract_y
 _atom_site_fract_z
 _atom_site_occupancy
  Dy  Dy0  1  0.38583000  0.64814000  0.63233000  1.0
  Dy  Dy1  1  0.61417000  0.35186000  0.36767000  1.0
  H  H2  1  0.04256000  0.15483000  0.91444000  1.0
  H  H3  1  0.95744000  0.84518000  0.08555000  1.0
  H  H4  1  0.80276000  0.23150000  0.18093000  1.0
  H  H5  1  0.19724000  0.76850000  0.81907000  1.0
  H  H6  1  0.41493000  0.12533000  0.54439000  1.0
  H  H7  1  0.58508000  0.87467000  0.45561000  1.0
  H  H8  1  0.33879000  0.68327000  0.36587000  1.0
  H  H9  1  0.66121000  0.31673000  0.63413000  1.0
  H  H10  1  0.16783000  0.02603000  0.39840000  1.0
  H  H11  1  0.83218000  0.97397000  0.60160000  1.0
  H  H12  1  0.01993000  0.05414000  0.33878000  1.0
  H  H13  1  0.98008000  0.94586000  0.66122000  1.0
  H  H14  1  0.14943000  0.11530000  0.26023000  1.0
  H  H15  1  0.85057000  0.88469000  0.73977000  1.0
  H  H16  1  0.24275000  0.77219000  0.21811000  1.0
  H  H17  1  0.75725000  0.22781000  0.78189000  1.0
  H  H18  1  0.18322000  0.96196000  0.15320000  1.0
  H  H19  1  0.81678000  0.03803000  0.84680000  1.0
  H  H20  1  0.06629000  0.88301000  0.23208000  1.0
  H  H21  1  0.93371000  0.11698000  0.76793000  1.0
  H  H22  1  0.21166000  0.39741000  0.72940000  1.0
  H  H23  1  0.78834000  0.60260000  0.27059000  1.0
  H  H24  1  0.75182000  0.65031000  0.03532000  1.0
  H  H25  1  0.24818000  0.34970000  0.96468000  1.0
  H  H26  1  0.14977000  0.00362000  0.80898000  1.0
  H  H27  1  0.85024000  0.99638000  0.19102000  1.0
  H  H28  1  0.01961000  0.64233000  0.73071000  1.0
  H  H29  1  0.98039000  0.35767000  0.26929000  1.0
  H  H30  1  0.81867000  0.56577000  0.62515000  1.0
  H  H31  1  0.18133000  0.43423000  0.37485000  1.0
  H  H32  1  0.74551000  0.75308000  0.59995000  1.0
  H  H33  1  0.25449000  0.24692000  0.40005000  1.0
  H  H34  1  0.82610000  0.63495000  0.72028000  1.0
  H  H35  1  0.17390000  0.36505000  0.27972000  1.0
  H  H36  1  0.93464000  0.64425000  0.45432000  1.0
  H  H37  1  0.06536000  0.35575000  0.54568000  1.0
  H  H38  1  0.10365000  0.62958000  0.46825000  1.0
  H  H39  1  0.89635000  0.37041000  0.53175000  1.0
  H  H40  1  0.96668000  0.79980000  0.43431000  1.0
  H  H41  1  0.03333000  0.20020000  0.56569000  1.0
  C  C42  1  0.31638000  0.91705000  0.65322000  1.0
  C  C43  1  0.68362000  0.08295000  0.34678000  1.0
  C  C44  1  0.28660000  0.05010000  0.67505000  1.0
  C  C45  1  0.71340000  0.94990000  0.32495000  1.0
  C  C46  1  0.37866000  0.38012000  0.55799000  1.0
  C  C47  1  0.62134000  0.61988000  0.44201000  1.0
  C  C48  1  0.31619000  0.27398000  0.62847000  1.0
  C  C49  1  0.68381000  0.72602000  0.37153000  1.0
  C  C50  1  0.93370000  0.38411000  0.94436000  1.0
  C  C51  1  0.06630000  0.61589000  0.05564000  1.0
  C  C52  1  0.34550000  0.14793000  0.60943000  1.0
  C  C53  1  0.65450000  0.85207000  0.39057000  1.0
  C  C54  1  0.29324000  0.78342000  0.38326000  1.0
  C  C55  1  0.70677000  0.21657000  0.61675000  1.0
  C  C56  1  0.13082000  0.03035000  0.32894000  1.0
  C  C57  1  0.86919000  0.96964000  0.67106000  1.0
  C  C58  1  0.17265000  0.87572000  0.22456000  1.0
  C  C59  1  0.82734000  0.12428000  0.77544000  1.0
  C  C60  1  0.22925000  0.30236000  0.71260000  1.0
  C  C61  1  0.77075000  0.69764000  0.28740000  1.0
  C  C62  1  0.16705000  0.20626000  0.77541000  1.0
  C  C63  1  0.83294000  0.79375000  0.22458000  1.0
  C  C64  1  0.90016000  0.27184000  0.03065000  1.0
  C  C65  1  0.09984000  0.72815000  0.96936000  1.0
  C  C66  1  0.76959000  0.44453000  0.11825000  1.0
  C  C67  1  0.23040000  0.55547000  0.88175000  1.0
  C  C68  1  0.87539000  0.53165000  0.94402000  1.0
  C  C69  1  0.12461000  0.46835000  0.05598000  1.0
  C  C70  1  0.19678000  0.07899000  0.75805000  1.0
  C  C71  1  0.80321000  0.92101000  0.24195000  1.0
  C  C72  1  0.05023000  0.66276000  0.64736000  1.0
  C  C73  1  0.94978000  0.33723000  0.35264000  1.0
  C  C74  1  0.83079000  0.65381000  0.63673000  1.0
  C  C75  1  0.16922000  0.34619000  0.36327000  1.0
  C  C76  1  0.99356000  0.68559000  0.48058000  1.0
  C  C77  1  0.00644000  0.31441000  0.51942000  1.0
  N  N78  1  0.07273000  0.23420000  0.85747000  1.0
  N  N79  1  0.92727000  0.76580000  0.14253000  1.0
  N  N80  1  0.01925000  0.36124000  0.86455000  1.0
  N  N81  1  0.98075000  0.63876000  0.13545000  1.0
  N  N82  1  0.82074000  0.31011000  0.11282000  1.0
  N  N83  1  0.17925000  0.68988000  0.88719000  1.0
  N  N84  1  0.20376000  0.89245000  0.31461000  1.0
  N  N85  1  0.79624000  0.10755000  0.68539000  1.0
  N  N86  1  0.79123000  0.55031000  0.03114000  1.0
  N  N87  1  0.20877000  0.44969000  0.96886000  1.0
  N  N88  1  0.58697000  0.50563000  0.79425000  1.0
  N  N89  1  0.41302000  0.49436000  0.20576000  1.0
  N  N90  1  0.96205000  0.66383000  0.59119000  1.0
  N  N91  1  0.03795000  0.33617000  0.40881000  1.0
  O  O92  1  0.23867000  0.84449000  0.69778000  1.0
  O  O93  1  0.76134000  0.15550000  0.30222000  1.0
  O  O94  1  0.41432000  0.87706000  0.59163000  1.0
  O  O95  1  0.58568000  0.12294000  0.40837000  1.0
  O  O96  1  0.40758000  0.38500000  0.46392000  1.0
  O  O97  1  0.59243000  0.61499000  0.53608000  1.0
  O  O98  1  0.70677000  0.47272000  0.19681000  1.0
  O  O99  1  0.29322000  0.52729000  0.80319000  1.0
  O  O100  1  0.39709000  0.45746000  0.59738000  1.0
  O  O101  1  0.60291000  0.54254000  0.40262000  1.0
  O  O102  1  0.94359000  0.14505000  0.03386000  1.0
  O  O103  1  0.05641000  0.85495000  0.96614000  1.0
  O  O104  1  0.89684000  0.63560000  0.87671000  1.0
  O  O105  1  0.10315000  0.36441000  0.12328000  1.0
  O  O106  1  0.15862000  0.68254000  0.60798000  1.0
  O  O107  1  0.84138000  0.31746000  0.39202000  1.0
  O  O108  1  0.32495000  0.79317000  0.46121000  1.0
  O  O109  1  0.67505000  0.20683000  0.53878000  1.0
  O  O110  1  0.51114000  0.63902000  0.76940000  1.0
  O  O111  1  0.48886000  0.36098000  0.23060000  1.0
  O  O112  1  0.67449000  0.44592000  0.86093000  1.0
  O  O113  1  0.32550000  0.55408000  0.13907000  1.0
  O  O114  1  0.56729000  0.43725000  0.74547000  1.0
  O  O115  1  0.43271000  0.56274000  0.25454000  1.0
