# generated using pymatgen
data_MnH10C11(NO3)2
_symmetry_space_group_name_H-M   'P 1'
_cell_length_a   7.61466000
_cell_length_b   8.29985000
_cell_length_c   8.80885000
_cell_angle_alpha   83.57960000
_cell_angle_beta   84.53170000
_cell_angle_gamma   88.28000000
_symmetry_Int_Tables_number   1
_chemical_formula_structural   MnH10C11(NO3)2
_chemical_formula_sum   'Mn2 H20 C22 N4 O12'
_cell_volume   550.60917041
_cell_formula_units_Z   2
loop_
 _symmetry_equiv_pos_site_id
 _symmetry_equiv_pos_as_xyz
  1  'x, y, z'
loop_
 _atom_site_type_symbol
 _atom_site_label
 _atom_site_symmetry_multiplicity
 _atom_site_fract_x
 _atom_site_fract_y
 _atom_site_fract_z
 _atom_site_occupancy
  Mn  Mn0  1  0.25709000  0.89693000  0.84986000  1.0
  Mn  Mn1  1  0.74291000  0.10307000  0.15014000  1.0
  H  H2  1  0.52819000  0.81698000  0.02953000  1.0
  H  H3  1  0.47181000  0.18300000  0.97047000  1.0
  H  H4  1  0.34391000  0.79746000  0.12995000  1.0
  H  H5  1  0.65609000  0.20253000  0.87005000  1.0
  H  H6  1  0.96790000  0.04594000  0.69911000  1.0
  H  H7  1  0.03211000  0.95405000  0.30089000  1.0
  H  H8  1  0.08483000  0.93679000  0.59338000  1.0
  H  H9  1  0.91516000  0.06318000  0.40664000  1.0
  H  H10  1  0.60387000  0.80283000  0.49699000  1.0
  H  H11  1  0.39615000  0.19718000  0.50300000  1.0
  H  H12  1  0.90054000  0.37781000  0.66503000  1.0
  H  H13  1  0.09946000  0.62219000  0.33497000  1.0
  H  H14  1  0.96301000  0.51247000  0.88641000  1.0
  H  H15  1  0.03698000  0.48753000  0.11360000  1.0
  H  H16  1  0.76812000  0.25656000  0.50529000  1.0
  H  H17  1  0.23189000  0.74345000  0.49470000  1.0
  H  H18  1  0.63848000  0.71795000  0.28156000  1.0
  H  H19  1  0.36152000  0.28206000  0.71843000  1.0
  H  H20  1  0.62410000  0.48402000  0.08116000  1.0
  H  H21  1  0.37590000  0.51598000  0.91884000  1.0
  C  C22  1  0.74768000  0.58133000  0.56520000  1.0
  C  C23  1  0.25233000  0.41868000  0.43479000  1.0
  C  C24  1  0.82076000  0.73422000  0.82004000  1.0
  C  C25  1  0.17923000  0.26579000  0.17996000  1.0
  C  C26  1  0.68150000  0.73749000  0.58247000  1.0
  C  C27  1  0.31852000  0.26251000  0.41753000  1.0
  C  C28  1  0.71697000  0.81362000  0.70922000  1.0
  C  C29  1  0.28303000  0.18639000  0.29077000  1.0
  C  C30  1  0.84786000  0.49963000  0.67620000  1.0
  C  C31  1  0.15214000  0.50038000  0.32379000  1.0
  C  C32  1  0.88349000  0.57660000  0.80181000  1.0
  C  C33  1  0.11651000  0.42341000  0.19819000  1.0
  C  C34  1  0.86453000  0.81577000  0.95509000  1.0
  C  C35  1  0.13547000  0.18423000  0.04491000  1.0
  C  C36  1  0.73805000  0.34766000  0.41245000  1.0
  C  C37  1  0.26196000  0.65234000  0.58754000  1.0
  C  C38  1  0.64955000  0.98500000  0.71614000  1.0
  C  C39  1  0.35046000  0.01500000  0.28386000  1.0
  C  C40  1  0.66425000  0.58837000  0.29632000  1.0
  C  C41  1  0.33575000  0.41163000  0.70368000  1.0
  C  C42  1  0.65933000  0.47203000  0.19812000  1.0
  C  C43  1  0.34067000  0.52797000  0.80188000  1.0
  N  N44  1  0.71547000  0.50829000  0.43259000  1.0
  N  N45  1  0.28453000  0.49172000  0.56741000  1.0
  N  N46  1  0.70575000  0.32258000  0.27145000  1.0
  N  N47  1  0.29426000  0.67742000  0.72855000  1.0
  O  O48  1  0.48532000  0.01452000  0.71615000  1.0
  O  O49  1  0.51469000  0.98548000  0.28385000  1.0
  O  O50  1  0.73642000  0.88658000  0.02878000  1.0
  O  O51  1  0.26358000  0.11341000  0.97123000  1.0
  O  O52  1  0.02220000  0.81125000  0.99017000  1.0
  O  O53  1  0.97780000  0.18875000  0.00983000  1.0
  O  O54  1  0.40631000  0.77479000  0.03023000  1.0
  O  O55  1  0.59369000  0.22521000  0.96977000  1.0
  O  O56  1  0.76296000  0.09586000  0.71735000  1.0
  O  O57  1  0.23705000  0.90415000  0.28264000  1.0
  O  O58  1  0.09511000  0.01317000  0.66811000  1.0
  O  O59  1  0.90490000  0.98682000  0.33189000  1.0
