# generated using pymatgen
data_AlH13(C2O)5
_symmetry_space_group_name_H-M   'P 1'
_cell_length_a   6.65604000
_cell_length_b   14.14210000
_cell_length_c   15.55130000
_cell_angle_alpha   90.00020000
_cell_angle_beta   90.00030000
_cell_angle_gamma   89.99890000
_symmetry_Int_Tables_number   1
_chemical_formula_structural   AlH13(C2O)5
_chemical_formula_sum   'Al4 H52 C40 O20'
_cell_volume   1463.84982927
_cell_formula_units_Z   4
loop_
 _symmetry_equiv_pos_site_id
 _symmetry_equiv_pos_as_xyz
  1  'x, y, z'
loop_
 _atom_site_type_symbol
 _atom_site_label
 _atom_site_symmetry_multiplicity
 _atom_site_fract_x
 _atom_site_fract_y
 _atom_site_fract_z
 _atom_site_occupancy
  Al  Al0  1  0.99772000  0.74830000  0.50000000  1.0
  Al  Al1  1  0.50846000  0.24706000  0.00000000  1.0
  Al  Al2  1  0.49772000  0.75169000  0.50000000  1.0
  Al  Al3  1  0.00847000  0.25292000  0.00000000  1.0
  H  H4  1  0.99909000  0.62697000  0.75079000  1.0
  H  H5  1  0.44776000  0.48507000  0.15856000  1.0
  H  H6  1  0.49909000  0.87302000  0.24921000  1.0
  H  H7  1  0.94786000  0.01482000  0.84151000  1.0
  H  H8  1  0.76407000  0.66728000  0.78908000  1.0
  H  H9  1  0.45587000  0.39347000  0.23432000  1.0
  H  H10  1  0.26405000  0.83271000  0.21092000  1.0
  H  H11  1  0.95575000  0.10645000  0.76578000  1.0
  H  H12  1  0.77654000  0.55573000  0.89938000  1.0
  H  H13  1  0.45269000  0.50451000  0.34579000  1.0
  H  H14  1  0.27652000  0.94426000  0.10063000  1.0
  H  H15  1  0.95262000  0.99549000  0.65424000  1.0
  H  H16  1  0.00768000  0.51239000  0.85992000  1.0
  H  H17  1  0.44189000  0.59617000  0.27004000  1.0
  H  H18  1  0.50768000  0.98760000  0.14008000  1.0
  H  H19  1  0.94195000  0.90380000  0.72997000  1.0
  H  H20  1  0.01508000  0.49504000  0.64174000  1.0
  H  H21  1  0.77648000  0.55573000  0.10063000  1.0
  H  H22  1  0.51510000  0.00494000  0.35825000  1.0
  H  H23  1  0.27672000  0.94425000  0.89937000  1.0
  H  H24  1  0.01849000  0.38188000  0.75217000  1.0
  H  H25  1  0.76404000  0.66728000  0.21092000  1.0
  H  H26  1  0.51852000  0.11811000  0.24783000  1.0
  H  H27  1  0.26423000  0.83272000  0.78907000  1.0
  H  H28  1  0.45267000  0.50451000  0.65422000  1.0
  H  H29  1  0.01855000  0.38190000  0.24782000  1.0
  H  H30  1  0.95268000  0.99549000  0.34579000  1.0
  H  H31  1  0.51839000  0.11817000  0.75214000  1.0
  H  H32  1  0.44190000  0.59619000  0.72997000  1.0
  H  H33  1  0.79447000  0.33248000  0.28888000  1.0
  H  H34  1  0.94189000  0.90382000  0.27003000  1.0
  H  H35  1  0.29419000  0.16752000  0.71112000  1.0
  H  H36  1  0.44777000  0.48511000  0.84146000  1.0
  H  H37  1  0.79235000  0.44434000  0.39908000  1.0
  H  H38  1  0.94778000  0.01491000  0.15855000  1.0
  H  H39  1  0.29214000  0.05568000  0.60091000  1.0
  H  H40  1  0.45583000  0.39349000  0.76571000  1.0
  H  H41  1  0.01511000  0.49506000  0.35825000  1.0
  H  H42  1  0.95585000  0.10651000  0.23430000  1.0
  H  H43  1  0.51499000  0.00501000  0.64170000  1.0
  H  H44  1  0.79229000  0.44433000  0.60092000  1.0
  H  H45  1  0.00766000  0.51240000  0.14007000  1.0
  H  H46  1  0.29233000  0.05565000  0.39909000  1.0
  H  H47  1  0.50780000  0.98765000  0.85988000  1.0
  H  H48  1  0.79438000  0.33248000  0.71113000  1.0
  H  H49  1  0.99909000  0.62698000  0.24920000  1.0
  H  H50  1  0.29442000  0.16751000  0.28888000  1.0
  H  H51  1  0.49918000  0.87307000  0.75073000  1.0
  H  H52  1  0.25230000  0.62462000  0.50002000  1.0
  H  H53  1  0.26639000  0.37542000  0.00000000  1.0
  H  H54  1  0.75229000  0.87538000  0.50000000  1.0
  H  H55  1  0.76639000  0.12458000  0.99997000  1.0
  C  C56  1  0.24616000  0.86536000  0.61563000  1.0
  C  C57  1  0.25552000  0.13500000  0.11593000  1.0
  C  C58  1  0.74616000  0.63464000  0.38437000  1.0
  C  C59  1  0.75552000  0.36500000  0.88408000  1.0
  C  C60  1  0.24615000  0.86535000  0.38437000  1.0
  C  C61  1  0.25551000  0.13499000  0.88408000  1.0
  C  C62  1  0.74615000  0.63464000  0.61564000  1.0
  C  C63  1  0.75552000  0.36499000  0.11593000  1.0
  C  C64  1  0.84692000  0.60389000  0.76837000  1.0
  C  C65  1  0.53098000  0.45932000  0.21494000  1.0
  C  C66  1  0.34692000  0.89610000  0.23164000  1.0
  C  C67  1  0.03097000  0.04062000  0.78511000  1.0
  C  C68  1  0.85251000  0.52919000  0.84128000  1.0
  C  C69  1  0.52791000  0.53299000  0.28841000  1.0
  C  C70  1  0.35251000  0.97080000  0.15872000  1.0
  C  C71  1  0.02790000  0.96700000  0.71161000  1.0
  C  C72  1  0.86204000  0.47345000  0.65943000  1.0
  C  C73  1  0.85250000  0.52920000  0.15872000  1.0
  C  C74  1  0.36207000  0.02654000  0.34058000  1.0
  C  C75  1  0.35263000  0.97081000  0.84126000  1.0
  C  C76  1  0.52790000  0.53299000  0.71160000  1.0
  C  C77  1  0.86421000  0.39901000  0.26744000  1.0
  C  C78  1  0.02790000  0.96701000  0.28841000  1.0
  C  C79  1  0.36406000  0.10102000  0.73253000  1.0
  C  C80  1  0.74331000  0.56210000  0.68787000  1.0
  C  C81  1  0.74846000  0.43705000  0.18853000  1.0
  C  C82  1  0.24331000  0.93790000  0.31214000  1.0
  C  C83  1  0.24846000  0.06293000  0.81148000  1.0
  C  C84  1  0.74844000  0.43705000  0.81148000  1.0
  C  C85  1  0.74332000  0.56210000  0.31214000  1.0
  C  C86  1  0.24846000  0.06294000  0.18853000  1.0
  C  C87  1  0.24331000  0.93791000  0.68785000  1.0
  C  C88  1  0.86415000  0.39900000  0.73256000  1.0
  C  C89  1  0.84691000  0.60389000  0.23164000  1.0
  C  C90  1  0.36419000  0.10099000  0.26746000  1.0
  C  C91  1  0.34702000  0.89613000  0.76834000  1.0
  C  C92  1  0.53097000  0.45934000  0.78508000  1.0
  C  C93  1  0.86208000  0.47346000  0.34057000  1.0
  C  C94  1  0.03098000  0.04067000  0.21493000  1.0
  C  C95  1  0.36196000  0.02657000  0.65940000  1.0
  O  O96  1  0.41781000  0.83963000  0.41212000  1.0
  O  O97  1  0.08845000  0.16498000  0.91261000  1.0
  O  O98  1  0.91781000  0.66035000  0.58787000  1.0
  O  O99  1  0.58845000  0.33499000  0.08741000  1.0
  O  O100  1  0.07790000  0.83655000  0.58733000  1.0
  O  O101  1  0.42813000  0.15896000  0.08790000  1.0
  O  O102  1  0.57793000  0.66345000  0.41268000  1.0
  O  O103  1  0.92810000  0.34103000  0.91211000  1.0
  O  O104  1  0.07792000  0.83654000  0.41268000  1.0
  O  O105  1  0.42812000  0.15895000  0.91211000  1.0
  O  O106  1  0.57792000  0.66346000  0.58734000  1.0
  O  O107  1  0.92811000  0.34103000  0.08789000  1.0
  O  O108  1  0.91782000  0.66036000  0.41213000  1.0
  O  O109  1  0.58845000  0.33500000  0.91261000  1.0
  O  O110  1  0.41780000  0.83965000  0.58786000  1.0
  O  O111  1  0.08847000  0.16500000  0.08741000  1.0
  O  O112  1  0.24894000  0.69295000  0.50000000  1.0
  O  O113  1  0.26055000  0.30713000  0.00000000  1.0
  O  O114  1  0.74893000  0.80705000  0.50000000  1.0
  O  O115  1  0.76056000  0.19287000  0.00000000  1.0
