# generated using pymatgen
data_CuH8C13SN7
_symmetry_space_group_name_H-M   'P 1'
_cell_length_a   5.64170000
_cell_length_b   5.75175000
_cell_length_c   20.28880000
_cell_angle_alpha   90.01180000
_cell_angle_beta   90.00600000
_cell_angle_gamma   81.01350000
_symmetry_Int_Tables_number   1
_chemical_formula_structural   CuH8C13SN7
_chemical_formula_sum   'Cu2 H16 C26 S2 N14'
_cell_volume   650.28309242
_cell_formula_units_Z   2
loop_
 _symmetry_equiv_pos_site_id
 _symmetry_equiv_pos_as_xyz
  1  'x, y, z'
loop_
 _atom_site_type_symbol
 _atom_site_label
 _atom_site_symmetry_multiplicity
 _atom_site_fract_x
 _atom_site_fract_y
 _atom_site_fract_z
 _atom_site_occupancy
  Cu  Cu0  1  0.27389000  0.15098000  0.25005000  1.0
  Cu  Cu1  1  0.72610000  0.84898000  0.74999000  1.0
  H  H2  1  0.86036000  0.43776000  0.19171000  1.0
  H  H3  1  0.13963000  0.56248000  0.69170000  1.0
  H  H4  1  0.13954000  0.56235000  0.80833000  1.0
  H  H5  1  0.86035000  0.43740000  0.30830000  1.0
  H  H6  1  0.24615000  0.78946000  0.14021000  1.0
  H  H7  1  0.75350000  0.21044000  0.64012000  1.0
  H  H8  1  0.75382000  0.21066000  0.85982000  1.0
  H  H9  1  0.24653000  0.78944000  0.35990000  1.0
  H  H10  1  0.59050000  0.04767000  0.03553000  1.0
  H  H11  1  0.40987000  0.95276000  0.53569000  1.0
  H  H12  1  0.40959000  0.95247000  0.96446000  1.0
  H  H13  1  0.59001000  0.04703000  0.46428000  1.0
  H  H14  1  0.54152000  0.40028000  0.10800000  1.0
  H  H15  1  0.45877000  0.60020000  0.60810000  1.0
  H  H16  1  0.45853000  0.59987000  0.89200000  1.0
  H  H17  1  0.54117000  0.39963000  0.39187000  1.0
  C  C18  1  0.92631000  0.89162000  0.08096000  1.0
  C  C19  1  0.07372000  0.10863000  0.58100000  1.0
  C  C20  1  0.07380000  0.10858000  0.91902000  1.0
  C  C21  1  0.92630000  0.89126000  0.41900000  1.0
  C  C22  1  0.96586000  0.68325000  0.03808000  1.0
  C  C23  1  0.03425000  0.31686000  0.53811000  1.0
  C  C24  1  0.03427000  0.31691000  0.96190000  1.0
  C  C25  1  0.96576000  0.68299000  0.46187000  1.0
  C  C26  1  0.87170000  0.28212000  0.16044000  1.0
  C  C27  1  0.12834000  0.71805000  0.66043000  1.0
  C  C28  1  0.12829000  0.71801000  0.83957000  1.0
  C  C29  1  0.87168000  0.28182000  0.33957000  1.0
  C  C30  1  0.09005000  0.92241000  0.13101000  1.0
  C  C31  1  0.90981000  0.07763000  0.63098000  1.0
  C  C32  1  0.90997000  0.07771000  0.86900000  1.0
  C  C33  1  0.09021000  0.92225000  0.36904000  1.0
  C  C34  1  0.72415000  0.06551000  0.07287000  1.0
  C  C35  1  0.27596000  0.93486000  0.57296000  1.0
  C  C36  1  0.27592000  0.93472000  0.92711000  1.0
  C  C37  1  0.72397000  0.06497000  0.42702000  1.0
  C  C38  1  0.69689000  0.26305000  0.11323000  1.0
  C  C39  1  0.30323000  0.73731000  0.61328000  1.0
  C  C40  1  0.30310000  0.73711000  0.88678000  1.0
  C  C41  1  0.69673000  0.26253000  0.38670000  1.0
  C  C42  1  0.45409000  0.62816000  0.24999000  1.0
  C  C43  1  0.54579000  0.37183000  0.75002000  1.0
  S  S44  1  0.59714000  0.85440000  0.24995000  1.0
  S  S45  1  0.40280000  0.14557000  0.75004000  1.0
  N  N46  1  0.06357000  0.11331000  0.17012000  1.0
  N  N47  1  0.93633000  0.88674000  0.67008000  1.0
  N  N48  1  0.93641000  0.88681000  0.82990000  1.0
  N  N49  1  0.06368000  0.11315000  0.32993000  1.0
  N  N50  1  0.79766000  0.66155000  0.99180000  1.0
  N  N51  1  0.20242000  0.33845000  0.49181000  1.0
  N  N52  1  0.20245000  0.33862000  0.00820000  1.0
  N  N53  1  0.79759000  0.66138000  0.50818000  1.0
  N  N54  1  0.16764000  0.52495000  0.04686000  1.0
  N  N55  1  0.83245000  0.47518000  0.54686000  1.0
  N  N56  1  0.83246000  0.47522000  0.95313000  1.0
  N  N57  1  0.16756000  0.52466000  0.45312000  1.0
  N  N58  1  0.35773000  0.45926000  0.25002000  1.0
  N  N59  1  0.64214000  0.54073000  0.75001000  1.0
