# generated using pymatgen
data_Zn4H4C24S4Br2N2O17
_symmetry_space_group_name_H-M   'P 1'
_cell_length_a   19.63790000
_cell_length_b   19.69790000
_cell_length_c   33.28160000
_cell_angle_alpha   79.18810000
_cell_angle_beta   79.36830000
_cell_angle_gamma   64.02890000
_symmetry_Int_Tables_number   1
_chemical_formula_structural   Zn4H4C24S4Br2N2O17
_chemical_formula_sum   'Zn16 H16 C96 S16 Br8 N8 O68'
_cell_volume   11291.99398319
_cell_formula_units_Z   4
loop_
 _symmetry_equiv_pos_site_id
 _symmetry_equiv_pos_as_xyz
  1  'x, y, z'
loop_
 _atom_site_type_symbol
 _atom_site_label
 _atom_site_symmetry_multiplicity
 _atom_site_fract_x
 _atom_site_fract_y
 _atom_site_fract_z
 _atom_site_occupancy
  Zn  Zn0  1  0.05823000  0.40006000  0.47806000  1.0
  Zn  Zn1  1  0.98396000  0.48373000  0.55999000  1.0
  Zn  Zn2  1  0.05903000  0.56101000  0.48186000  1.0
  Zn  Zn3  1  0.89936000  0.55400000  0.48018000  1.0
  Zn  Zn4  1  0.69396000  0.35114000  0.27009000  1.0
  Zn  Zn5  1  0.68968000  0.18945000  0.26743000  1.0
  Zn  Zn6  1  0.76803000  0.26753000  0.18967000  1.0
  Zn  Zn7  1  0.84663000  0.19276000  0.27311000  1.0
  Zn  Zn8  1  0.26631000  0.76839000  0.68946000  1.0
  Zn  Zn9  1  0.34924000  0.69546000  0.77161000  1.0
  Zn  Zn10  1  0.19265000  0.84935000  0.77094000  1.0
  Zn  Zn11  1  0.19376000  0.68615000  0.76768000  1.0
  Zn  Zn12  1  0.56223000  0.05875000  0.98245000  1.0
  Zn  Zn13  1  0.39986000  0.05584000  0.97910000  1.0
  Zn  Zn14  1  0.55753000  0.90226000  0.97781000  1.0
  Zn  Zn15  1  0.48068000  0.98356000  0.06029000  1.0
  H  H16  1  0.74845000  0.45210000  0.35011000  1.0
  H  H17  1  0.00152000  0.29702000  0.40018000  1.0
  H  H18  1  0.20171000  0.70064000  0.59864000  1.0
  H  H19  1  0.04989000  0.54972000  0.65047000  1.0
  H  H20  1  0.46359000  0.24093000  0.34008000  1.0
  H  H21  1  0.47913000  0.70363000  0.60085000  1.0
  H  H22  1  0.20274000  0.98019000  0.60066000  1.0
  H  H23  1  0.94736000  0.96929000  0.34951000  1.0
  H  H24  1  0.65127000  0.15109000  0.04912000  1.0
  H  H25  1  0.59906000  0.09861000  0.20073000  1.0
  H  H26  1  0.55031000  0.77189000  0.14802000  1.0
  H  H27  1  0.15987000  0.14083000  0.04085000  1.0
  H  H28  1  0.29671000  0.00203000  0.89997000  1.0
  H  H29  1  0.45139000  0.74970000  0.85045000  1.0
  H  H30  1  0.30099000  0.28004000  0.90189000  1.0
  H  H31  1  0.79118000  0.00828000  0.90925000  1.0
  C  C32  1  0.06308000  0.31701000  0.56162000  1.0
  C  C33  1  0.06948000  0.56940000  0.56853000  1.0
  C  C34  1  0.18429000  0.43951000  0.43779000  1.0
  C  C35  1  0.93579000  0.68287000  0.43930000  1.0
  C  C36  1  0.93126000  0.42867000  0.43210000  1.0
  C  C37  1  0.81642000  0.56033000  0.56300000  1.0
  C  C38  1  0.56660000  0.31159000  0.31123000  1.0
  C  C39  1  0.67986000  0.18171000  0.18131000  1.0
  C  C40  1  0.68980000  0.43498000  0.18725000  1.0
  C  C41  1  0.93344000  0.18808000  0.19031000  1.0
  C  C42  1  0.81737000  0.31911000  0.31955000  1.0
  C  C43  1  0.81079000  0.06428000  0.31202000  1.0
  C  C44  1  0.43305000  0.69049000  0.68803000  1.0
  C  C45  1  0.31921000  0.81991000  0.81846000  1.0
  C  C46  1  0.18736000  0.93444000  0.68762000  1.0
  C  C47  1  0.06778000  0.80835000  0.81078000  1.0
  C  C48  1  0.18337000  0.67967000  0.68064000  1.0
  C  C49  1  0.31514000  0.56511000  0.81213000  1.0
  C  C50  1  0.43861000  0.18285000  0.93855000  1.0
  C  C51  1  0.43009000  0.93302000  0.93071000  1.0
  C  C52  1  0.68681000  0.93869000  0.93845000  1.0
  C  C53  1  0.56007000  0.81754000  0.06097000  1.0
  C  C54  1  0.56855000  0.06998000  0.06852000  1.0
  C  C55  1  0.31351000  0.06190000  0.06156000  1.0
  C  C56  1  0.90189000  0.40270000  0.40209000  1.0
  C  C57  1  0.84896000  0.34727000  0.34735000  1.0
  C  C58  1  0.83094000  0.44595000  0.38720000  1.0
  C  C59  1  0.92065000  0.30478000  0.36149000  1.0
  C  C60  1  0.80425000  0.41859000  0.36087000  1.0
  C  C61  1  0.94635000  0.33115000  0.38881000  1.0
  C  C62  1  0.09772000  0.60012000  0.59669000  1.0
  C  C63  1  0.15162000  0.65249000  0.65244000  1.0
  C  C64  1  0.14004000  0.64351000  0.58269000  1.0
  C  C65  1  0.10792000  0.61049000  0.66642000  1.0
  C  C66  1  0.16766000  0.66822000  0.60987000  1.0
  C  C67  1  0.08251000  0.58358000  0.63925000  1.0
  C  C68  1  0.30578000  0.45493000  0.40096000  1.0
  C  C69  1  0.44689000  0.29733000  0.34843000  1.0
  C  C70  1  0.25932000  0.41614000  0.41337000  1.0
  C  C71  1  0.49208000  0.33700000  0.33639000  1.0
  C  C72  1  0.37894000  0.34014000  0.37215000  1.0
  C  C73  1  0.37405000  0.41155000  0.37751000  1.0
  C  C74  1  0.72528000  0.57584000  0.63107000  1.0
  C  C75  1  0.52365000  0.67478000  0.62114000  1.0
  C  C76  1  0.74246000  0.58509000  0.58848000  1.0
  C  C77  1  0.50817000  0.66511000  0.66358000  1.0
  C  C78  1  0.60304000  0.64260000  0.60914000  1.0
  C  C79  1  0.64586000  0.60884000  0.64291000  1.0
  C  C80  1  0.07600000  0.22611000  0.62980000  1.0
  C  C81  1  0.17324000  0.02477000  0.62067000  1.0
  C  C82  1  0.08605000  0.24310000  0.58719000  1.0
  C  C83  1  0.16237000  0.00953000  0.66311000  1.0
  C  C84  1  0.14120000  0.10392000  0.60838000  1.0
  C  C85  1  0.10715000  0.14682000  0.64192000  1.0
  C  C86  1  0.84138000  0.79941000  0.39706000  1.0
  C  C87  1  0.90313000  0.94867000  0.35362000  1.0
  C  C88  1  0.90939000  0.75741000  0.41442000  1.0
  C  C89  1  0.83485000  0.98951000  0.33688000  1.0
  C  C90  1  0.90554000  0.87931000  0.37583000  1.0
  C  C91  1  0.83903000  0.86901000  0.37519000  1.0
  C  C92  1  0.65381000  0.15159000  0.15171000  1.0
  C  C93  1  0.59865000  0.09601000  0.09815000  1.0
  C  C94  1  0.66878000  0.16486000  0.10878000  1.0
  C  C95  1  0.58540000  0.08104000  0.14108000  1.0
  C  C96  1  0.64076000  0.13892000  0.08241000  1.0
  C  C97  1  0.61113000  0.10925000  0.16745000  1.0
  C  C98  1  0.67239000  0.52562000  0.11887000  1.0
  C  C99  1  0.57738000  0.72719000  0.12796000  1.0
  C  C100  1  0.66498000  0.50881000  0.16158000  1.0
  C  C101  1  0.58528000  0.74238000  0.08543000  1.0
  C  C102  1  0.60898000  0.64804000  0.14025000  1.0
  C  C103  1  0.64041000  0.60495000  0.10669000  1.0
  C  C104  1  0.08117000  0.12447000  0.17909000  1.0
  C  C105  1  0.16783000  0.12469000  0.07330000  1.0
  C  C106  1  0.00876000  0.16239000  0.16616000  1.0
  C  C107  1  0.23920000  0.08657000  0.08692000  1.0
  C  C108  1  0.10990000  0.13831000  0.10689000  1.0
  C  C109  1  0.13884000  0.11052000  0.14532000  1.0
  C  C110  1  0.34541000  0.84919000  0.84838000  1.0
  C  C111  1  0.40169000  0.90160000  0.90297000  1.0
  C  C112  1  0.30228000  0.91986000  0.86320000  1.0
  C  C113  1  0.44396000  0.83006000  0.88903000  1.0
  C  C114  1  0.33012000  0.94637000  0.88938000  1.0
  C  C115  1  0.41727000  0.80468000  0.86173000  1.0
  C  C116  1  0.40970000  0.44732000  0.85379000  1.0
  C  C117  1  0.34586000  0.29981000  0.89767000  1.0
  C  C118  1  0.34121000  0.49061000  0.83712000  1.0
  C  C119  1  0.41447000  0.25786000  0.91393000  1.0
  C  C120  1  0.34382000  0.36925000  0.87581000  1.0
  C  C121  1  0.41123000  0.37821000  0.87594000  1.0
  C  C122  1  0.94636000  0.79354000  0.84847000  1.0
  C  C123  1  0.80733000  0.95176000  0.90124000  1.0
  C  C124  1  0.99342000  0.83167000  0.83583000  1.0
  C  C125  1  0.76160000  0.91268000  0.91360000  1.0
  C  C126  1  0.87509000  0.90818000  0.87765000  1.0
  C  C127  1  0.87896000  0.83706000  0.87243000  1.0
  S  S128  1  0.29964000  0.32655000  0.39641000  1.0
  S  S129  1  0.45285000  0.42601000  0.35367000  1.0
  S  S130  1  0.66112000  0.63413000  0.56304000  1.0
  S  S131  1  0.58903000  0.61720000  0.68925000  1.0
  S  S132  1  0.13356000  0.16170000  0.56211000  1.0
  S  S133  1  0.11373000  0.09030000  0.68840000  1.0
  S  S134  1  0.97019000  0.80345000  0.40389000  1.0
  S  S135  1  0.77341000  0.94449000  0.34775000  1.0
  S  S136  1  0.61853000  0.59038000  0.18662000  1.0
  S  S137  1  0.63076000  0.66139000  0.06011000  1.0
  S  S138  1  0.01164000  0.18072000  0.11264000  1.0
  S  S139  1  0.23678000  0.06720000  0.14026000  1.0
  S  S140  1  0.27882000  0.44639000  0.84864000  1.0
  S  S141  1  0.47674000  0.30194000  0.90302000  1.0
  S  S142  1  0.95494000  0.92067000  0.85337000  1.0
  S  S143  1  0.79999000  0.82336000  0.89674000  1.0
  Br  Br144  1  0.28621000  0.55153000  0.41308000  1.0
  Br  Br145  1  0.79442000  0.52686000  0.67043000  1.0
  Br  Br146  1  0.02750000  0.29525000  0.66889000  1.0
  Br  Br147  1  0.76019000  0.77186000  0.40046000  1.0
  Br  Br148  1  0.71658000  0.45600000  0.07994000  1.0
  Br  Br149  1  0.10493000  0.09362000  0.23352000  1.0
  Br  Br150  1  0.49284000  0.47247000  0.84933000  1.0
  Br  Br151  1  0.96499000  0.69710000  0.83661000  1.0
  N  N152  1  0.78102000  0.52421000  0.39735000  1.0
  N  N153  1  0.97461000  0.23059000  0.34726000  1.0
  N  N154  1  0.15570000  0.66800000  0.53833000  1.0
  N  N155  1  0.08381000  0.59421000  0.71074000  1.0
  N  N156  1  0.71705000  0.20524000  0.08881000  1.0
  N  N157  1  0.54529000  0.03262000  0.16113000  1.0
  N  N158  1  0.22378000  0.96968000  0.85294000  1.0
  N  N159  1  0.51835000  0.77612000  0.90342000  1.0
  O  O160  1  0.00066000  0.49881000  0.49965000  1.0
  O  O161  1  0.07434000  0.31522000  0.52253000  1.0
  O  O162  1  0.02380000  0.53962000  0.58560000  1.0
  O  O163  1  0.15261000  0.50714000  0.44733000  1.0
  O  O164  1  0.03456000  0.37615000  0.58023000  1.0
  O  O165  1  0.15701000  0.38930000  0.44722000  1.0
  O  O166  1  0.09422000  0.57516000  0.53059000  1.0
  O  O167  1  0.00021000  0.66013000  0.45305000  1.0
  O  O168  1  0.88388000  0.48747000  0.44854000  1.0
  O  O169  1  0.89353000  0.64709000  0.44508000  1.0
  O  O170  1  0.00044000  0.38876000  0.43853000  1.0
  O  O171  1  0.87595000  0.52148000  0.58124000  1.0
  O  O172  1  0.81423000  0.58030000  0.52414000  1.0
  O  O173  1  0.74880000  0.25072000  0.25016000  1.0
  O  O174  1  0.59947000  0.35692000  0.30464000  1.0
  O  O175  1  0.66926000  0.15831000  0.21927000  1.0
  O  O176  1  0.72850000  0.37563000  0.16917000  1.0
  O  O177  1  0.59158000  0.24690000  0.29820000  1.0
  O  O178  1  0.67029000  0.43683000  0.22621000  1.0
  O  O179  1  0.70915000  0.22819000  0.16577000  1.0
  O  O180  1  0.87608000  0.21817000  0.16948000  1.0
  O  O181  1  0.85343000  0.24939000  0.31424000  1.0
  O  O182  1  0.93104000  0.17879000  0.22942000  1.0
  O  O183  1  0.75695000  0.36750000  0.30445000  1.0
  O  O184  1  0.74349000  0.09327000  0.30110000  1.0
  O  O185  1  0.85888000  0.09380000  0.30346000  1.0
  O  O186  1  0.25040000  0.75013000  0.74973000  1.0
  O  O187  1  0.37470000  0.72144000  0.66828000  1.0
  O  O188  1  0.36054000  0.75142000  0.81155000  1.0
  O  O189  1  0.16804000  0.93394000  0.72652000  1.0
  O  O190  1  0.43328000  0.67905000  0.72721000  1.0
  O  O191  1  0.22591000  0.87664000  0.66808000  1.0
  O  O192  1  0.25912000  0.86614000  0.80254000  1.0
  O  O193  1  0.09932000  0.85485000  0.80563000  1.0
  O  O194  1  0.17917000  0.65323000  0.71840000  1.0
  O  O195  1  0.09462000  0.74499000  0.79625000  1.0
  O  O196  1  0.21246000  0.72600000  0.66377000  1.0
  O  O197  1  0.36154000  0.59641000  0.80192000  1.0
  O  O198  1  0.24692000  0.59221000  0.80266000  1.0
  O  O199  1  0.49984000  0.00069000  0.99985000  1.0
  O  O200  1  0.50393000  0.15662000  0.95159000  1.0
  O  O201  1  0.38178000  0.99382000  0.94523000  1.0
  O  O202  1  0.65637000  0.89123000  0.94756000  1.0
  O  O203  1  0.39281000  0.15074000  0.94467000  1.0
  O  O204  1  0.65858000  0.00587000  0.94880000  1.0
  O  O205  1  0.49977000  0.89668000  0.93659000  1.0
  O  O206  1  0.57231000  0.81792000  0.02176000  1.0
  O  O207  1  0.52102000  0.04182000  0.08389000  1.0
  O  O208  1  0.52846000  0.87551000  0.08079000  1.0
  O  O209  1  0.59301000  0.07955000  0.03066000  1.0
  O  O210  1  0.31336000  0.08019000  0.02261000  1.0
  O  O211  1  0.37216000  0.02395000  0.08091000  1.0
  O  O212  1  0.79999000  0.57505000  0.37920000  1.0
  O  O213  1  0.72262000  0.53243000  0.42126000  1.0
  O  O214  1  0.00846000  0.23285000  0.31224000  1.0
  O  O215  1  0.98427000  0.17338000  0.37242000  1.0
  O  O216  1  0.10220000  0.72094000  0.52206000  1.0
  O  O217  1  0.22177000  0.63623000  0.52210000  1.0
  O  O218  1  0.03195000  0.64765000  0.72737000  1.0
  O  O219  1  0.11473000  0.52773000  0.72659000  1.0
  O  O220  1  0.78658000  0.16825000  0.08866000  1.0
  O  O221  1  0.68396000  0.27073000  0.07218000  1.0
  O  O222  1  0.58175000  0.96336000  0.16050000  1.0
  O  O223  1  0.48048000  0.06534000  0.17863000  1.0
  O  O224  1  0.17285000  0.95100000  0.87134000  1.0
  O  O225  1  0.21561000  0.02755000  0.82857000  1.0
  O  O226  1  0.51621000  0.74314000  0.93872000  1.0
  O  O227  1  0.57547000  0.76593000  0.87816000  1.0
