# generated using pymatgen
data_Cu2H3C4SN2Cl
_symmetry_space_group_name_H-M   'P 1'
_cell_length_a   3.81103000
_cell_length_b   7.94459000
_cell_length_c   10.25430000
_cell_angle_alpha   97.02350000
_cell_angle_beta   91.38140000
_cell_angle_gamma   96.39980000
_symmetry_Int_Tables_number   1
_chemical_formula_structural   Cu2H3C4SN2Cl
_chemical_formula_sum   'Cu4 H6 C8 S2 N4 Cl2'
_cell_volume   305.99596846
_cell_formula_units_Z   2
loop_
 _symmetry_equiv_pos_site_id
 _symmetry_equiv_pos_as_xyz
  1  'x, y, z'
loop_
 _atom_site_type_symbol
 _atom_site_label
 _atom_site_symmetry_multiplicity
 _atom_site_fract_x
 _atom_site_fract_y
 _atom_site_fract_z
 _atom_site_occupancy
  Cu  Cu0  1  0.15053000  0.60761000  0.88722000  1.0
  Cu  Cu1  1  0.84948000  0.39240000  0.11278000  1.0
  Cu  Cu2  1  0.58151000  0.93252000  0.88120000  1.0
  Cu  Cu3  1  0.41848000  0.06748000  0.11881000  1.0
  H  H4  1  0.73352000  0.50777000  0.39093000  1.0
  H  H5  1  0.26646000  0.49223000  0.60907000  1.0
  H  H6  1  0.43020000  0.74892000  0.51258000  1.0
  H  H7  1  0.56982000  0.25108000  0.48741000  1.0
  H  H8  1  0.28033000  0.98349000  0.37948000  1.0
  H  H9  1  0.71968000  0.01651000  0.62053000  1.0
  C  C10  1  0.62511000  0.73499000  0.14981000  1.0
  C  C11  1  0.37486000  0.26502000  0.85018000  1.0
  C  C12  1  0.65111000  0.61291000  0.34301000  1.0
  C  C13  1  0.34888000  0.38709000  0.65699000  1.0
  C  C14  1  0.48874000  0.74511000  0.40886000  1.0
  C  C15  1  0.51127000  0.25490000  0.59116000  1.0
  C  C16  1  0.40599000  0.87357000  0.33713000  1.0
  C  C17  1  0.59403000  0.12642000  0.66286000  1.0
  S  S18  1  0.69686000  0.72068000  0.98250000  1.0
  S  S19  1  0.30312000  0.27932000  0.01750000  1.0
  N  N20  1  0.47644000  0.87052000  0.20864000  1.0
  N  N21  1  0.52355000  0.12948000  0.79136000  1.0
  N  N22  1  0.71651000  0.60618000  0.21413000  1.0
  N  N23  1  0.28350000  0.39381000  0.78587000  1.0
  Cl  Cl24  1  0.00613000  0.76716000  0.70616000  1.0
  Cl  Cl25  1  0.99388000  0.23283000  0.29384000  1.0
