# generated using pymatgen
data_Zn2H21C37Br2N3O8
_symmetry_space_group_name_H-M   'P 1'
_cell_length_a   11.62670000
_cell_length_b   12.64079717
_cell_length_c   13.19260000
_cell_angle_alpha   88.90505609
_cell_angle_beta   83.79690000
_cell_angle_gamma   68.86006054
_symmetry_Int_Tables_number   1
_chemical_formula_structural   Zn2H21C37Br2N3O8
_chemical_formula_sum   'Zn2 H21 C37 Br2 N3 O8'
_cell_volume   1797.44060900
_cell_formula_units_Z   1
loop_
 _symmetry_equiv_pos_site_id
 _symmetry_equiv_pos_as_xyz
  1  'x, y, z'
loop_
 _atom_site_type_symbol
 _atom_site_label
 _atom_site_symmetry_multiplicity
 _atom_site_fract_x
 _atom_site_fract_y
 _atom_site_fract_z
 _atom_site_occupancy
  Zn  Zn0  1  0.09809000  0.53749000  0.49945000  1.0
  Zn  Zn1  1  0.89654000  0.46253000  0.50481000  1.0
  H  H2  1  0.08068000  0.13069000  0.61208000  1.0
  H  H3  1  0.79079000  0.33203000  0.37996000  1.0
  H  H4  1  0.44371000  0.86168000  0.70870000  1.0
  H  H5  1  0.64921000  0.57792000  0.60969000  1.0
  H  H6  1  0.23350000  0.95519000  0.67808000  1.0
  H  H7  1  0.90486000  0.80871000  0.33297000  1.0
  H  H8  1  0.53665000  0.03799000  0.30095000  1.0
  H  H9  1  0.75435000  0.95363000  0.23180000  1.0
  H  H10  1  0.84772000  0.54596000  0.18048000  1.0
  H  H11  1  0.63623000  0.78885000  0.74701000  1.0
  H  H12  1  0.86035000  0.75373000  0.73287000  1.0
  H  H13  1  0.24356000  0.41445000  0.17733000  1.0
  H  H14  1  0.76501000  0.90041000  0.75505000  1.0
  H  H15  1  0.83594000  0.84919000  0.63069000  1.0
  H  H16  1  0.75237000  0.57483000  0.01945000  1.0
  H  H17  1  0.26898000  0.39263000  0.98849000  1.0
  H  H18  1  0.77523000  0.56098000  0.82907000  1.0
  H  H19  1  0.34134000  0.43547000  0.39478000  1.0
  H  H20  1  0.20038000  0.66757000  0.63524000  1.0
  H  H21  1  0.57815000  0.34146000  0.34660000  1.0
  H  H22  1  0.41204000  0.66409000  0.66431000  1.0
  C  C23  1  0.97907000  0.49789000  0.70003000  1.0
  C  C24  1  0.77007000  0.82297000  0.46059000  1.0
  C  C25  1  0.04337000  0.48185000  0.18979000  1.0
  C  C26  1  0.85785000  0.71142000  0.49423000  1.0
  C  C27  1  0.97498000  0.49446000  0.81433000  1.0
  C  C28  1  0.84391000  0.54222000  0.97606000  1.0
  C  C29  1  0.85617000  0.53529000  0.87141000  1.0
  C  C30  1  0.07995000  0.45701000  0.86568000  1.0
  C  C31  1  0.07202000  0.46198000  0.97417000  1.0
  C  C32  1  0.95035000  0.50684000  0.02985000  1.0
  C  C33  1  0.93956000  0.51376000  0.13763000  1.0
  C  C34  1  0.55996000  0.96390000  0.44975000  1.0
  C  C35  1  0.16296000  0.43911000  0.13478000  1.0
  C  C36  1  0.17678000  0.42754000  0.03014000  1.0
  C  C37  1  0.59010000  0.39493000  0.40533000  1.0
  C  C38  1  0.02948000  0.49302000  0.30361000  1.0
  C  C39  1  0.70663000  0.38857000  0.42349000  1.0
  C  C40  1  0.62857000  0.52594000  0.55440000  1.0
  C  C41  1  0.50487000  0.53780000  0.54311000  1.0
  C  C42  1  0.48575000  0.47098000  0.46535000  1.0
  C  C43  1  0.36202000  0.48387000  0.45313000  1.0
  C  C44  1  0.28403000  0.61546000  0.58835000  1.0
  C  C45  1  0.64711000  0.88099000  0.50778000  1.0
  C  C46  1  0.40031000  0.61162000  0.60461000  1.0
  C  C47  1  0.12930000  0.28380000  0.49794000  1.0
  C  C48  1  0.26236000  0.00185000  0.61625000  1.0
  C  C49  1  0.21818000  0.16440000  0.50787000  1.0
  C  C50  1  0.80952000  0.85403000  0.36509000  1.0
  C  C51  1  0.72516000  0.93410000  0.30901000  1.0
  C  C52  1  0.60251000  0.98379000  0.34925000  1.0
  C  C53  1  0.79156000  0.82759000  0.70121000  1.0
  C  C54  1  0.43016000  0.01891000  0.49190000  1.0
  C  C55  1  0.38951000  0.96566000  0.57873000  1.0
  C  C56  1  0.47819000  0.88638000  0.63502000  1.0
  C  C57  1  0.60452000  0.85611000  0.61028000  1.0
  C  C58  1  0.34032000  0.12136000  0.46156000  1.0
  C  C59  1  0.17796000  0.09877000  0.58089000  1.0
  Br  Br60  1  0.23992000  0.39178000  0.79012000  1.0
  Br  Br61  1  0.37566000  0.21382000  0.35342000  1.0
  N  N62  1  0.26609000  0.55254000  0.51268000  1.0
  N  N63  1  0.72446000  0.45407000  0.49696000  1.0
  N  N64  1  0.68396000  0.80049000  0.68123000  1.0
  O  O65  1  0.04414000  0.54990000  0.65459000  1.0
  O  O66  1  0.91351000  0.45214000  0.65957000  1.0
  O  O67  1  0.97330000  0.69594000  0.48260000  1.0
  O  O68  1  0.81146000  0.63762000  0.52259000  1.0
  O  O69  1  0.11924000  0.50411000  0.34434000  1.0
  O  O70  1  0.92874000  0.49136000  0.35094000  1.0
  O  O71  1  0.17025000  0.36164000  0.51479000  1.0
  O  O72  1  0.01829000  0.29844000  0.48243000  1.0
