# generated using pymatgen
data_Cu3H8C12I2N5
_symmetry_space_group_name_H-M   'P 1'
_cell_length_a   11.53560000
_cell_length_b   11.53760000
_cell_length_c   13.38400000
_cell_angle_alpha   68.62750000
_cell_angle_beta   68.62360000
_cell_angle_gamma   81.57390000
_symmetry_Int_Tables_number   1
_chemical_formula_structural   Cu3H8C12I2N5
_chemical_formula_sum   'Cu12 H32 C48 I8 N20'
_cell_volume   1544.50922132
_cell_formula_units_Z   4
loop_
 _symmetry_equiv_pos_site_id
 _symmetry_equiv_pos_as_xyz
  1  'x, y, z'
loop_
 _atom_site_type_symbol
 _atom_site_label
 _atom_site_symmetry_multiplicity
 _atom_site_fract_x
 _atom_site_fract_y
 _atom_site_fract_z
 _atom_site_occupancy
  Cu  Cu0  1  0.63740000  0.36260000  0.75000000  1.0
  Cu  Cu1  1  0.36260000  0.63740000  0.25000000  1.0
  Cu  Cu2  1  0.49554000  0.98684000  0.61552000  1.0
  Cu  Cu3  1  0.01316000  0.50443000  0.88457000  1.0
  Cu  Cu4  1  0.50446000  0.01316000  0.38448000  1.0
  Cu  Cu5  1  0.98684000  0.49556000  0.11543000  1.0
  Cu  Cu6  1  0.24726000  0.19175000  0.66308000  1.0
  Cu  Cu7  1  0.80827000  0.75274000  0.83685000  1.0
  Cu  Cu8  1  0.75274000  0.80825000  0.33692000  1.0
  Cu  Cu9  1  0.19173000  0.24726000  0.16315000  1.0
  Cu  Cu10  1  0.00000000  0.50000000  0.50000000  1.0
  Cu  Cu11  1  0.50000000  0.00000000  0.00000000  1.0
  H  H12  1  0.63175000  0.94197000  0.77476000  1.0
  H  H13  1  0.05804000  0.36822000  0.72524000  1.0
  H  H14  1  0.36825000  0.05803000  0.22524000  1.0
  H  H15  1  0.94196000  0.63178000  0.27476000  1.0
  H  H16  1  0.21607000  0.33129000  0.81980000  1.0
  H  H17  1  0.66874000  0.78392000  0.68019000  1.0
  H  H18  1  0.78393000  0.66871000  0.18020000  1.0
  H  H19  1  0.33126000  0.21608000  0.31981000  1.0
  H  H20  1  0.03324000  0.15005000  0.55206000  1.0
  H  H21  1  0.84990000  0.96684000  0.94794000  1.0
  H  H22  1  0.96676000  0.84995000  0.44794000  1.0
  H  H23  1  0.15011000  0.03316000  0.05206000  1.0
  H  H24  1  0.52669000  0.55480000  0.56229000  1.0
  H  H25  1  0.44518000  0.47336000  0.93768000  1.0
  H  H26  1  0.47331000  0.44520000  0.43771000  1.0
  H  H27  1  0.55482000  0.52664000  0.06232000  1.0
  H  H28  1  0.01833000  0.92449000  0.66647000  1.0
  H  H29  1  0.07551000  0.98173000  0.83352000  1.0
  H  H30  1  0.98167000  0.07551000  0.33354000  1.0
  H  H31  1  0.92450000  0.01827000  0.16648000  1.0
  H  H32  1  0.38848000  0.74439000  0.57085000  1.0
  H  H33  1  0.25555000  0.61156000  0.92916000  1.0
  H  H34  1  0.61152000  0.25560000  0.42915000  1.0
  H  H35  1  0.74446000  0.38844000  0.07084000  1.0
  H  H36  1  0.83606000  0.27745000  0.55060000  1.0
  H  H37  1  0.72249000  0.16398000  0.94943000  1.0
  H  H38  1  0.16395000  0.72255000  0.44940000  1.0
  H  H39  1  0.27751000  0.83602000  0.05057000  1.0
  H  H40  1  0.16863000  0.71522000  0.70236000  1.0
  H  H41  1  0.28474000  0.83136000  0.79767000  1.0
  H  H42  1  0.83136000  0.28479000  0.29764000  1.0
  H  H43  1  0.71526000  0.16864000  0.20233000  1.0
  C  C44  1  0.45021000  0.31534000  0.67633000  1.0
  C  C45  1  0.68467000  0.54981000  0.82364000  1.0
  C  C46  1  0.54979000  0.68466000  0.32368000  1.0
  C  C47  1  0.31533000  0.45019000  0.17636000  1.0
  C  C48  1  0.71942000  0.99014000  0.72281000  1.0
  C  C49  1  0.00986000  0.28058000  0.77720000  1.0
  C  C50  1  0.28058000  0.00986000  0.27719000  1.0
  C  C51  1  0.99014000  0.71942000  0.22280000  1.0
  C  C52  1  0.59978000  0.18090000  0.66245000  1.0
  C  C53  1  0.81908000  0.40023000  0.83758000  1.0
  C  C54  1  0.40023000  0.81910000  0.33755000  1.0
  C  C55  1  0.18092000  0.59977000  0.16242000  1.0
  C  C56  1  0.37844000  0.42846000  0.68545000  1.0
  C  C57  1  0.57154000  0.62158000  0.81453000  1.0
  C  C58  1  0.62156000  0.57154000  0.31455000  1.0
  C  C59  1  0.42847000  0.37842000  0.18547000  1.0
  C  C60  1  0.25596000  0.42112000  0.76045000  1.0
  C  C61  1  0.57890000  0.74405000  0.73954000  1.0
  C  C62  1  0.74404000  0.57889000  0.23956000  1.0
  C  C63  1  0.42110000  0.25595000  0.26046000  1.0
  C  C64  1  0.94201000  0.10750000  0.59954000  1.0
  C  C65  1  0.89247000  0.05804000  0.90047000  1.0
  C  C66  1  0.05799000  0.89250000  0.40046000  1.0
  C  C67  1  0.10754000  0.94196000  0.09953000  1.0
  C  C68  1  0.42966000  0.54635000  0.61793000  1.0
  C  C69  1  0.45363000  0.57037000  0.88204000  1.0
  C  C70  1  0.57033000  0.45365000  0.38207000  1.0
  C  C71  1  0.54637000  0.42963000  0.11796000  1.0
  C  C72  1  0.71902000  0.11684000  0.66026000  1.0
  C  C73  1  0.88314000  0.28099000  0.83977000  1.0
  C  C74  1  0.28098000  0.88316000  0.33974000  1.0
  C  C75  1  0.11686000  0.71901000  0.16023000  1.0
  C  C76  1  0.93439000  0.98104000  0.66344000  1.0
  C  C77  1  0.01894000  0.06565000  0.83656000  1.0
  C  C78  1  0.06561000  0.01896000  0.33656000  1.0
  C  C79  1  0.98106000  0.93436000  0.16344000  1.0
  C  C80  1  0.35343000  0.65086000  0.62254000  1.0
  C  C81  1  0.34910000  0.64659000  0.87745000  1.0
  C  C82  1  0.64657000  0.34914000  0.37746000  1.0
  C  C83  1  0.65090000  0.35341000  0.12255000  1.0
  C  C84  1  0.83320000  0.17788000  0.59891000  1.0
  C  C85  1  0.82207000  0.16683000  0.90113000  1.0
  C  C86  1  0.16680000  0.82211000  0.40109000  1.0
  C  C87  1  0.17793000  0.83317000  0.09887000  1.0
  C  C88  1  0.23068000  0.63525000  0.69606000  1.0
  C  C89  1  0.36472000  0.76933000  0.80395000  1.0
  C  C90  1  0.76932000  0.36475000  0.30394000  1.0
  C  C91  1  0.63528000  0.23067000  0.19605000  1.0
  I  I92  1  0.29155000  0.02119000  0.55832000  1.0
  I  I93  1  0.97881000  0.70846000  0.94168000  1.0
  I  I94  1  0.70845000  0.97881000  0.44168000  1.0
  I  I95  1  0.02119000  0.29154000  0.05832000  1.0
  I  I96  1  0.20464000  0.40643000  0.48260000  1.0
  I  I97  1  0.59354000  0.79538000  0.01739000  1.0
  I  I98  1  0.79536000  0.59357000  0.51740000  1.0
  I  I99  1  0.40646000  0.20462000  0.98261000  1.0
  N  N100  1  0.56877000  0.29312000  0.67790000  1.0
  N  N101  1  0.70687000  0.43125000  0.82209000  1.0
  N  N102  1  0.43123000  0.70688000  0.32210000  1.0
  N  N103  1  0.29313000  0.56875000  0.17791000  1.0
  N  N104  1  0.18308000  0.52239000  0.76723000  1.0
  N  N105  1  0.47760000  0.81692000  0.73278000  1.0
  N  N106  1  0.81692000  0.47761000  0.23277000  1.0
  N  N107  1  0.52241000  0.18308000  0.26722000  1.0
  N  N108  1  0.40993000  0.22196000  0.66068000  1.0
  N  N109  1  0.77807000  0.59006000  0.83929000  1.0
  N  N110  1  0.59007000  0.77804000  0.33932000  1.0
  N  N111  1  0.22193000  0.40994000  0.16071000  1.0
  N  N112  1  0.82440000  0.92272000  0.72713000  1.0
  N  N113  1  0.07728000  0.17561000  0.77286000  1.0
  N  N114  1  0.17559000  0.07729000  0.27287000  1.0
  N  N115  1  0.92272000  0.82439000  0.22714000  1.0
  N  N116  1  0.50583000  0.13623000  0.65115000  1.0
  N  N117  1  0.86378000  0.49415000  0.84887000  1.0
  N  N118  1  0.49417000  0.86377000  0.34885000  1.0
  N  N119  1  0.13622000  0.50585000  0.15113000  1.0
