# generated using pymatgen
data_CuH5C2SIN
_symmetry_space_group_name_H-M   'P 1'
_cell_length_a   7.95322000
_cell_length_b   11.66990000
_cell_length_c   11.66995000
_cell_angle_alpha   119.99957481
_cell_angle_beta   89.99989999
_cell_angle_gamma   89.99890000
_symmetry_Int_Tables_number   1
_chemical_formula_structural   CuH5C2SIN
_chemical_formula_sum   'Cu6 H30 C12 S6 I6 N6'
_cell_volume   938.01896298
_cell_formula_units_Z   6
loop_
 _symmetry_equiv_pos_site_id
 _symmetry_equiv_pos_as_xyz
  1  'x, y, z'
loop_
 _atom_site_type_symbol
 _atom_site_label
 _atom_site_symmetry_multiplicity
 _atom_site_fract_x
 _atom_site_fract_y
 _atom_site_fract_z
 _atom_site_occupancy
  Cu  Cu0  1  0.51169000  0.54131000  0.85830000  1.0
  Cu  Cu1  1  0.51169000  0.14170000  0.68301000  1.0
  Cu  Cu2  1  0.51170000  0.31698000  0.45869000  1.0
  Cu  Cu3  1  0.01170000  0.85830000  0.54131000  1.0
  Cu  Cu4  1  0.01170000  0.68303000  0.14172000  1.0
  Cu  Cu5  1  0.01170000  0.45870000  0.31700000  1.0
  H  H6  1  0.51336000  0.73790000  0.52329000  1.0
  H  H7  1  0.51333000  0.47669000  0.21460000  1.0
  H  H8  1  0.51334000  0.78539000  0.26209000  1.0
  H  H9  1  0.01333000  0.52331000  0.73792000  1.0
  H  H10  1  0.01334000  0.21462000  0.47670000  1.0
  H  H11  1  0.01336000  0.26211000  0.78540000  1.0
  H  H12  1  0.40046000  0.58406000  0.45624000  1.0
  H  H13  1  0.40045000  0.54374000  0.12779000  1.0
  H  H14  1  0.40046000  0.87217000  0.41595000  1.0
  H  H15  1  0.90047000  0.45624000  0.58405000  1.0
  H  H16  1  0.90046000  0.12783000  0.54377000  1.0
  H  H17  1  0.90045000  0.41595000  0.87219000  1.0
  H  H18  1  0.62292000  0.58288000  0.44841000  1.0
  H  H19  1  0.62292000  0.55156000  0.13446000  1.0
  H  H20  1  0.62295000  0.86551000  0.41710000  1.0
  H  H21  1  0.12296000  0.44842000  0.58291000  1.0
  H  H22  1  0.12295000  0.13449000  0.55159000  1.0
  H  H23  1  0.12293000  0.41712000  0.86554000  1.0
  H  H24  1  0.60014000  0.83622000  0.73609000  1.0
  H  H25  1  0.60015000  0.26389000  0.10012000  1.0
  H  H26  1  0.60015000  0.89986000  0.16377000  1.0
  H  H27  1  0.10013000  0.73610000  0.83623000  1.0
  H  H28  1  0.10015000  0.10015000  0.26391000  1.0
  H  H29  1  0.10015000  0.16378000  0.89987000  1.0
  H  H30  1  0.59252000  0.75819000  0.83232000  1.0
  H  H31  1  0.59253000  0.16765000  0.92586000  1.0
  H  H32  1  0.59253000  0.07413000  0.24180000  1.0
  H  H33  1  0.09252000  0.83234000  0.75820000  1.0
  H  H34  1  0.09252000  0.92588000  0.16767000  1.0
  H  H35  1  0.09254000  0.24180000  0.07414000  1.0
  C  C36  1  0.52626000  0.64246000  0.63921000  1.0
  C  C37  1  0.52621000  0.36076000  0.00324000  1.0
  C  C38  1  0.52626000  0.99675000  0.35754000  1.0
  C  C39  1  0.02623000  0.63924000  0.64248000  1.0
  C  C40  1  0.02623000  0.00328000  0.36079000  1.0
  C  C41  1  0.02625000  0.35754000  0.99676000  1.0
  C  C42  1  0.51393000  0.63779000  0.50949000  1.0
  C  C43  1  0.51392000  0.49049000  0.12829000  1.0
  C  C44  1  0.51392000  0.87168000  0.36219000  1.0
  C  C45  1  0.01393000  0.50949000  0.63781000  1.0
  C  C46  1  0.01394000  0.12833000  0.49051000  1.0
  C  C47  1  0.01392000  0.36220000  0.87170000  1.0
  S  S48  1  0.48540000  0.50574000  0.65154000  1.0
  S  S49  1  0.48538000  0.34845000  0.85420000  1.0
  S  S50  1  0.48538000  0.14578000  0.49425000  1.0
  S  S51  1  0.98539000  0.65155000  0.50575000  1.0
  S  S52  1  0.98539000  0.85421000  0.34846000  1.0
  S  S53  1  0.98538000  0.49424000  0.14578000  1.0
  I  I54  1  0.26454000  0.71050000  0.01061000  1.0
  I  I55  1  0.26454000  0.98940000  0.69989000  1.0
  I  I56  1  0.26454000  0.30012000  0.28952000  1.0
  I  I57  1  0.76454000  0.01060000  0.71049000  1.0
  I  I58  1  0.76454000  0.69989000  0.98939000  1.0
  I  I59  1  0.76454000  0.28951000  0.30011000  1.0
  N  N60  1  0.56939000  0.75498000  0.74435000  1.0
  N  N61  1  0.56940000  0.25563000  0.01062000  1.0
  N  N62  1  0.56940000  0.98937000  0.24502000  1.0
  N  N63  1  0.06939000  0.74436000  0.75499000  1.0
  N  N64  1  0.06940000  0.01065000  0.25565000  1.0
  N  N65  1  0.06940000  0.24500000  0.98936000  1.0
