# generated using pymatgen
data_NaCoH14C10(NO4)2
_symmetry_space_group_name_H-M   'P 1'
_cell_length_a   6.32879000
_cell_length_b   8.72647000
_cell_length_c   13.04650616
_cell_angle_alpha   95.51391187
_cell_angle_beta   104.00432767
_cell_angle_gamma   111.23430000
_symmetry_Int_Tables_number   1
_chemical_formula_structural   NaCoH14C10(NO4)2
_chemical_formula_sum   'Na2 Co2 H28 C20 N4 O16'
_cell_volume   638.06217904
_cell_formula_units_Z   2
loop_
 _symmetry_equiv_pos_site_id
 _symmetry_equiv_pos_as_xyz
  1  'x, y, z'
loop_
 _atom_site_type_symbol
 _atom_site_label
 _atom_site_symmetry_multiplicity
 _atom_site_fract_x
 _atom_site_fract_y
 _atom_site_fract_z
 _atom_site_occupancy
  Na  Na0  1  0.76415000  0.24984000  0.25007000  1.0
  Na  Na1  1  0.23585000  0.75016000  0.74993000  1.0
  Co  Co2  1  0.50000000  0.50000000  0.50000000  1.0
  Co  Co3  1  0.00000000  0.00000000  0.00000000  1.0
  H  H4  1  0.58007000  0.88901000  0.56658000  1.0
  H  H5  1  0.62466000  0.61094000  0.93351000  1.0
  H  H6  1  0.41993000  0.11099000  0.43342000  1.0
  H  H7  1  0.37534000  0.38906000  0.06649000  1.0
  H  H8  1  0.73480000  0.94239000  0.46850000  1.0
  H  H9  1  0.82420000  0.55756000  0.03143000  1.0
  H  H10  1  0.26520000  0.05761000  0.53150000  1.0
  H  H11  1  0.17580000  0.44244000  0.96857000  1.0
  H  H12  1  0.65365000  0.78576000  0.31976000  1.0
  H  H13  1  0.04807000  0.71410000  0.18014000  1.0
  H  H14  1  0.34634000  0.21424000  0.68024000  1.0
  H  H15  1  0.95193000  0.28590000  0.81986000  1.0
  H  H16  1  0.35854000  0.63352000  0.26298000  1.0
  H  H17  1  0.96245000  0.86680000  0.23698000  1.0
  H  H18  1  0.64145000  0.36648000  0.73702000  1.0
  H  H19  1  0.03755000  0.13320000  0.76302000  1.0
  H  H20  1  0.19888000  0.70148000  0.49453000  1.0
  H  H21  1  0.50314000  0.79847000  0.00570000  1.0
  H  H22  1  0.80111000  0.29852000  0.50546000  1.0
  H  H23  1  0.49686000  0.20153000  0.99430000  1.0
  H  H24  1  0.10466000  0.58708000  0.35959000  1.0
  H  H25  1  0.65807000  0.91279000  0.14063000  1.0
  H  H26  1  0.89535000  0.41291000  0.64041000  1.0
  H  H27  1  0.34193000  0.08721000  0.85937000  1.0
  H  H28  1  0.24463000  0.81144000  0.38632000  1.0
  H  H29  1  0.54742000  0.68845000  0.11385000  1.0
  H  H30  1  0.75537000  0.18856000  0.61368000  1.0
  H  H31  1  0.45257000  0.31155000  0.88615000  1.0
  C  C32  1  0.66157000  0.84339000  0.51172000  1.0
  C  C33  1  0.80661000  0.65655000  0.98821000  1.0
  C  C34  1  0.33843000  0.15661000  0.48828000  1.0
  C  C35  1  0.19339000  0.34345000  0.01179000  1.0
  C  C36  1  0.60567000  0.52631000  0.31211000  1.0
  C  C37  1  0.26741000  0.97336000  0.18760000  1.0
  C  C38  1  0.39433000  0.47369000  0.68789000  1.0
  C  C39  1  0.73260000  0.02664000  0.81241000  1.0
  C  C40  1  0.85708000  0.80678000  0.58314000  1.0
  C  C41  1  0.96688000  0.69302000  0.91655000  1.0
  C  C42  1  0.14292000  0.19322000  0.41686000  1.0
  C  C43  1  0.03312000  0.30698000  0.08345000  1.0
  C  C44  1  0.52391000  0.66745000  0.32836000  1.0
  C  C45  1  0.02830000  0.83253000  0.17153000  1.0
  C  C46  1  0.47609000  0.33255000  0.67164000  1.0
  C  C47  1  0.97170000  0.16747000  0.82847000  1.0
  C  C48  1  0.23967000  0.69820000  0.41778000  1.0
  C  C49  1  0.62399000  0.80174000  0.08240000  1.0
  C  C50  1  0.76033000  0.30181000  0.58222000  1.0
  C  C51  1  0.37601000  0.19826000  0.91760000  1.0
  N  N52  1  0.47543000  0.68951000  0.43439000  1.0
  N  N53  1  0.85172000  0.81047000  0.06560000  1.0
  N  N54  1  0.52457000  0.31049000  0.56561000  1.0
  N  N55  1  0.14828000  0.18953000  0.93440000  1.0
  O  O56  1  0.81408000  0.64914000  0.58275000  1.0
  O  O57  1  0.08172000  0.85066000  0.91690000  1.0
  O  O58  1  0.18593000  0.35086000  0.41726000  1.0
  O  O59  1  0.91829000  0.14934000  0.08311000  1.0
  O  O60  1  0.61373000  0.43974000  0.38749000  1.0
  O  O61  1  0.28659000  0.05991000  0.11220000  1.0
  O  O62  1  0.38627000  0.56026000  0.61251000  1.0
  O  O63  1  0.71341000  0.94009000  0.88780000  1.0
  O  O64  1  0.04526000  0.92184000  0.64174000  1.0
  O  O65  1  0.98123000  0.57792000  0.85782000  1.0
  O  O66  1  0.95474000  0.07816000  0.35826000  1.0
  O  O67  1  0.01878000  0.42208000  0.14218000  1.0
  O  O68  1  0.65843000  0.49430000  0.22878000  1.0
  O  O69  1  0.43547000  0.00521000  0.27082000  1.0
  O  O70  1  0.34156000  0.50571000  0.77121000  1.0
  O  O71  1  0.56453000  0.99479000  0.72919000  1.0
