# generated using pymatgen
data_MnH21C34N5O8
_symmetry_space_group_name_H-M   'P 1'
_cell_length_a   8.46297000
_cell_length_b   17.63040000
_cell_length_c   27.34890000
_cell_angle_alpha   79.92800000
_cell_angle_beta   89.99780000
_cell_angle_gamma   89.99960000
_symmetry_Int_Tables_number   1
_chemical_formula_structural   MnH21C34N5O8
_chemical_formula_sum   'Mn4 H84 C136 N20 O32'
_cell_volume   4017.72035065
_cell_formula_units_Z   4
loop_
 _symmetry_equiv_pos_site_id
 _symmetry_equiv_pos_as_xyz
  1  'x, y, z'
loop_
 _atom_site_type_symbol
 _atom_site_label
 _atom_site_symmetry_multiplicity
 _atom_site_fract_x
 _atom_site_fract_y
 _atom_site_fract_z
 _atom_site_occupancy
  Mn  Mn0  1  0.30932000  0.28535000  0.40541000  1.0
  Mn  Mn1  1  0.30933000  0.71465000  0.09459000  1.0
  Mn  Mn2  1  0.69068000  0.71464000  0.59459000  1.0
  Mn  Mn3  1  0.69064000  0.28535000  0.90540000  1.0
  H  H4  1  0.55368000  0.42696000  0.36802000  1.0
  H  H5  1  0.55367000  0.57303000  0.13197000  1.0
  H  H6  1  0.44633000  0.57304000  0.63199000  1.0
  H  H7  1  0.44630000  0.42697000  0.86800000  1.0
  H  H8  1  0.54779000  0.55276000  0.30630000  1.0
  H  H9  1  0.54774000  0.44724000  0.19370000  1.0
  H  H10  1  0.45223000  0.44723000  0.69371000  1.0
  H  H11  1  0.45227000  0.55278000  0.80628000  1.0
  H  H12  1  0.28270000  0.60165000  0.27059000  1.0
  H  H13  1  0.28264000  0.39834000  0.22941000  1.0
  H  H14  1  0.71732000  0.39832000  0.72942000  1.0
  H  H15  1  0.71740000  0.60167000  0.77059000  1.0
  H  H16  1  0.04271000  0.53040000  0.30074000  1.0
  H  H17  1  0.04266000  0.46960000  0.19926000  1.0
  H  H18  1  0.95730000  0.46958000  0.69925000  1.0
  H  H19  1  0.95737000  0.53041000  0.80076000  1.0
  H  H20  1  0.03454000  0.22479000  0.48271000  1.0
  H  H21  1  0.03457000  0.77522000  0.01728000  1.0
  H  H22  1  0.96548000  0.77519000  0.51728000  1.0
  H  H23  1  0.96543000  0.22480000  0.98271000  1.0
  H  H24  1  0.96773000  0.09844000  0.53305000  1.0
  H  H25  1  0.96777000  0.90156000  0.96694000  1.0
  H  H26  1  0.03229000  0.90154000  0.46695000  1.0
  H  H27  1  0.03221000  0.09845000  0.03306000  1.0
  H  H28  1  0.58768000  0.07332000  0.43172000  1.0
  H  H29  1  0.58768000  0.92667000  0.06827000  1.0
  H  H30  1  0.41230000  0.92667000  0.56828000  1.0
  H  H31  1  0.41228000  0.07334000  0.93173000  1.0
  H  H32  1  0.65273000  0.19953000  0.38214000  1.0
  H  H33  1  0.65275000  0.80048000  0.11786000  1.0
  H  H34  1  0.34726000  0.80046000  0.61786000  1.0
  H  H35  1  0.34721000  0.19953000  0.88214000  1.0
  H  H36  1  0.82011000  0.01197000  0.58575000  1.0
  H  H37  1  0.82012000  0.98803000  0.91424000  1.0
  H  H38  1  0.17989000  0.98801000  0.41425000  1.0
  H  H39  1  0.17987000  0.01197000  0.08575000  1.0
  H  H40  1  0.78016000  0.87408000  0.62324000  1.0
  H  H41  1  0.78013000  0.12591000  0.87676000  1.0
  H  H42  1  0.21987000  0.12590000  0.37676000  1.0
  H  H43  1  0.21987000  0.87410000  0.12324000  1.0
  H  H44  1  0.63439000  0.81979000  0.48928000  1.0
  H  H45  1  0.63435000  0.18020000  0.01070000  1.0
  H  H46  1  0.36557000  0.18019000  0.51072000  1.0
  H  H47  1  0.36564000  0.81981000  0.98929000  1.0
  H  H48  1  0.66296000  0.95450000  0.44622000  1.0
  H  H49  1  0.66293000  0.04550000  0.05376000  1.0
  H  H50  1  0.33698000  0.04548000  0.55378000  1.0
  H  H51  1  0.33704000  0.95452000  0.94623000  1.0
  H  H52  1  0.76489000  0.35361000  0.48270000  1.0
  H  H53  1  0.76488000  0.64641000  0.01731000  1.0
  H  H54  1  0.23513000  0.64640000  0.51731000  1.0
  H  H55  1  0.23515000  0.35361000  0.98269000  1.0
  H  H56  1  0.82503000  0.32300000  0.64141000  1.0
  H  H57  1  0.82511000  0.67703000  0.85859000  1.0
  H  H58  1  0.17496000  0.67701000  0.35859000  1.0
  H  H59  1  0.17491000  0.32300000  0.14141000  1.0
  H  H60  1  0.36487000  0.29381000  0.57644000  1.0
  H  H61  1  0.36491000  0.70621000  0.92355000  1.0
  H  H62  1  0.63512000  0.70617000  0.42356000  1.0
  H  H63  1  0.63511000  0.29380000  0.07644000  1.0
  H  H64  1  0.73783000  0.27881000  0.70743000  1.0
  H  H65  1  0.73789000  0.72121000  0.79256000  1.0
  H  H66  1  0.26218000  0.72118000  0.29257000  1.0
  H  H67  1  0.26211000  0.27881000  0.20743000  1.0
  H  H68  1  0.32999000  0.26066000  0.80071000  1.0
  H  H69  1  0.33004000  0.73932000  0.69929000  1.0
  H  H70  1  0.67002000  0.73934000  0.19929000  1.0
  H  H71  1  0.66994000  0.26067000  0.30071000  1.0
  H  H72  1  0.26933000  0.30474000  0.64185000  1.0
  H  H73  1  0.26940000  0.69528000  0.85816000  1.0
  H  H74  1  0.73067000  0.69526000  0.35815000  1.0
  H  H75  1  0.73063000  0.30473000  0.14184000  1.0
  H  H76  1  0.85032000  0.43157000  0.31452000  1.0
  H  H77  1  0.85026000  0.56842000  0.18547000  1.0
  H  H78  1  0.14970000  0.56843000  0.68548000  1.0
  H  H79  1  0.14972000  0.43158000  0.81453000  1.0
  H  H80  1  0.92481000  0.44379000  0.50333000  1.0
  H  H81  1  0.92483000  0.55622000  0.99666000  1.0
  H  H82  1  0.07517000  0.55622000  0.49666000  1.0
  H  H83  1  0.07521000  0.44380000  0.00333000  1.0
  H  H84  1  0.13578000  0.18818000  0.77578000  1.0
  H  H85  1  0.13586000  0.81182000  0.72421000  1.0
  H  H86  1  0.86426000  0.81182000  0.22422000  1.0
  H  H87  1  0.86415000  0.18817000  0.27579000  1.0
  C  C88  1  0.44410000  0.45184000  0.35124000  1.0
  C  C89  1  0.44407000  0.54815000  0.14876000  1.0
  C  C90  1  0.55589000  0.54815000  0.64877000  1.0
  C  C91  1  0.55592000  0.45186000  0.85122000  1.0
  C  C92  1  0.43941000  0.52073000  0.31711000  1.0
  C  C93  1  0.43936000  0.47925000  0.18289000  1.0
  C  C94  1  0.56060000  0.47926000  0.68290000  1.0
  C  C95  1  0.56065000  0.52076000  0.81709000  1.0
  C  C96  1  0.29376000  0.54878000  0.29788000  1.0
  C  C97  1  0.29370000  0.45121000  0.20212000  1.0
  C  C98  1  0.70625000  0.45120000  0.70213000  1.0
  C  C99  1  0.70632000  0.54880000  0.79787000  1.0
  C  C100  1  0.15779000  0.50742000  0.31374000  1.0
  C  C101  1  0.15774000  0.49257000  0.18626000  1.0
  C  C102  1  0.84222000  0.49257000  0.68625000  1.0
  C  C103  1  0.84227000  0.50743000  0.81374000  1.0
  C  C104  1  0.17329000  0.43769000  0.34642000  1.0
  C  C105  1  0.17326000  0.56230000  0.15358000  1.0
  C  C106  1  0.82673000  0.56230000  0.65357000  1.0
  C  C107  1  0.82674000  0.43770000  0.84642000  1.0
  C  C108  1  0.04171000  0.38600000  0.36146000  1.0
  C  C109  1  0.04171000  0.61399000  0.13854000  1.0
  C  C110  1  0.95829000  0.61399000  0.63854000  1.0
  C  C111  1  0.95828000  0.38601000  0.86146000  1.0
  C  C112  1  0.90202000  0.28967000  0.39544000  1.0
  C  C113  1  0.90203000  0.71033000  0.10456000  1.0
  C  C114  1  0.09799000  0.71031000  0.60456000  1.0
  C  C115  1  0.09796000  0.28968000  0.89544000  1.0
  C  C116  1  0.85454000  0.21830000  0.42747000  1.0
  C  C117  1  0.85455000  0.78170000  0.07253000  1.0
  C  C118  1  0.14545000  0.78168000  0.57253000  1.0
  C  C119  1  0.14543000  0.21830000  0.92747000  1.0
  C  C120  1  0.93781000  0.19088000  0.47138000  1.0
  C  C121  1  0.93785000  0.80912000  0.02861000  1.0
  C  C122  1  0.06218000  0.80910000  0.52862000  1.0
  C  C123  1  0.06214000  0.19089000  0.97139000  1.0
  C  C124  1  0.89826000  0.12023000  0.50002000  1.0
  C  C125  1  0.89829000  0.87977000  0.99997000  1.0
  C  C126  1  0.10172000  0.87975000  0.49998000  1.0
  C  C127  1  0.10169000  0.12024000  0.00002000  1.0
  C  C128  1  0.77595000  0.07513000  0.48537000  1.0
  C  C129  1  0.77597000  0.92487000  0.01463000  1.0
  C  C130  1  0.22401000  0.92484000  0.51463000  1.0
  C  C131  1  0.22403000  0.07515000  0.98537000  1.0
  C  C132  1  0.68798000  0.10537000  0.44266000  1.0
  C  C133  1  0.68799000  0.89463000  0.05735000  1.0
  C  C134  1  0.31199000  0.89461000  0.55734000  1.0
  C  C135  1  0.31197000  0.10538000  0.94264000  1.0
  C  C136  1  0.72517000  0.17620000  0.41425000  1.0
  C  C137  1  0.72518000  0.82380000  0.08575000  1.0
  C  C138  1  0.27481000  0.82378000  0.58575000  1.0
  C  C139  1  0.27479000  0.17621000  0.91425000  1.0
  C  C140  1  0.74616000  0.99626000  0.51185000  1.0
  C  C141  1  0.74615000  0.00373000  0.98814000  1.0
  C  C142  1  0.25382000  0.00373000  0.48815000  1.0
  C  C143  1  0.25384000  0.99628000  0.01186000  1.0
  C  C144  1  0.77852000  0.97160000  0.56262000  1.0
  C  C145  1  0.77852000  0.02839000  0.93738000  1.0
  C  C146  1  0.22146000  0.02838000  0.43739000  1.0
  C  C147  1  0.22147000  0.97162000  0.06262000  1.0
  C  C148  1  0.75697000  0.89462000  0.58388000  1.0
  C  C149  1  0.75694000  0.10538000  0.91612000  1.0
  C  C150  1  0.24305000  0.10537000  0.41613000  1.0
  C  C151  1  0.24305000  0.89464000  0.08388000  1.0
  C  C152  1  0.67239000  0.86437000  0.50963000  1.0
  C  C153  1  0.67236000  0.13563000  0.99036000  1.0
  C  C154  1  0.32760000  0.13562000  0.49038000  1.0
  C  C155  1  0.32761000  0.86438000  0.00964000  1.0
  C  C156  1  0.68903000  0.94001000  0.48576000  1.0
  C  C157  1  0.68905000  0.06000000  0.01422000  1.0
  C  C158  1  0.31092000  0.05998000  0.51424000  1.0
  C  C159  1  0.31093000  0.94002000  0.98577000  1.0
  C  C160  1  0.45811000  0.31655000  0.48189000  1.0
  C  C161  1  0.45810000  0.68346000  0.01812000  1.0
  C  C162  1  0.54189000  0.68344000  0.51812000  1.0
  C  C163  1  0.54191000  0.31656000  0.98188000  1.0
  C  C164  1  0.55674000  0.32296000  0.52639000  1.0
  C  C165  1  0.55676000  0.67706000  0.97360000  1.0
  C  C166  1  0.44326000  0.67703000  0.47361000  1.0
  C  C167  1  0.44325000  0.32295000  0.02640000  1.0
  C  C168  1  0.71666000  0.34215000  0.52027000  1.0
  C  C169  1  0.71672000  0.65787000  0.97972000  1.0
  C  C170  1  0.28334000  0.65785000  0.47973000  1.0
  C  C171  1  0.28332000  0.34216000  0.02028000  1.0
  C  C172  1  0.81113000  0.34237000  0.56217000  1.0
  C  C173  1  0.81120000  0.65766000  0.93783000  1.0
  C  C174  1  0.18887000  0.65764000  0.43784000  1.0
  C  C175  1  0.18883000  0.34236000  0.06217000  1.0
  C  C176  1  0.98257000  0.36226000  0.55731000  1.0
  C  C177  1  0.98262000  0.63775000  0.94269000  1.0
  C  C178  1  0.01743000  0.63776000  0.44269000  1.0
  C  C179  1  0.01741000  0.36226000  0.05731000  1.0
  C  C180  1  0.74647000  0.32278000  0.60987000  1.0
  C  C181  1  0.74653000  0.67726000  0.89012000  1.0
  C  C182  1  0.25353000  0.67722000  0.39013000  1.0
  C  C183  1  0.25350000  0.32278000  0.10987000  1.0
  C  C184  1  0.58478000  0.30574000  0.61658000  1.0
  C  C185  1  0.58485000  0.69428000  0.88342000  1.0
  C  C186  1  0.41523000  0.69426000  0.38343000  1.0
  C  C187  1  0.41517000  0.30574000  0.11658000  1.0
  C  C188  1  0.49113000  0.30628000  0.57395000  1.0
  C  C189  1  0.49120000  0.69375000  0.92605000  1.0
  C  C190  1  0.50886000  0.69371000  0.42605000  1.0
  C  C191  1  0.50882000  0.30626000  0.07395000  1.0
  C  C192  1  0.51406000  0.28995000  0.66707000  1.0
  C  C193  1  0.51413000  0.71006000  0.83293000  1.0
  C  C194  1  0.48594000  0.71005000  0.33293000  1.0
  C  C195  1  0.48589000  0.28995000  0.16707000  1.0
  C  C196  1  0.60918000  0.27783000  0.70991000  1.0
  C  C197  1  0.60925000  0.72217000  0.79009000  1.0
  C  C198  1  0.39082000  0.72216000  0.29009000  1.0
  C  C199  1  0.39076000  0.27783000  0.20991000  1.0
  C  C200  1  0.54370000  0.26898000  0.75757000  1.0
  C  C201  1  0.54375000  0.73102000  0.74243000  1.0
  C  C202  1  0.45631000  0.73101000  0.24244000  1.0
  C  C203  1  0.45624000  0.26898000  0.25757000  1.0
  C  C204  1  0.37965000  0.26624000  0.76340000  1.0
  C  C205  1  0.37970000  0.73373000  0.73661000  1.0
  C  C206  1  0.62036000  0.73375000  0.23660000  1.0
  C  C207  1  0.62030000  0.26626000  0.26340000  1.0
  C  C208  1  0.28317000  0.27809000  0.72110000  1.0
  C  C209  1  0.28324000  0.72189000  0.77891000  1.0
  C  C210  1  0.71683000  0.72190000  0.27891000  1.0
  C  C211  1  0.71677000  0.27811000  0.22109000  1.0
  C  C212  1  0.34927000  0.29196000  0.67345000  1.0
  C  C213  1  0.34933000  0.70806000  0.82656000  1.0
  C  C214  1  0.65073000  0.70804000  0.32656000  1.0
  C  C215  1  0.65067000  0.29195000  0.17344000  1.0
  C  C216  1  0.10746000  0.27746000  0.72579000  1.0
  C  C217  1  0.10754000  0.72253000  0.77420000  1.0
  C  C218  1  0.89255000  0.72253000  0.27422000  1.0
  C  C219  1  0.89247000  0.27746000  0.22580000  1.0
  C  C220  1  0.64982000  0.27294000  0.80144000  1.0
  C  C221  1  0.64992000  0.72707000  0.69856000  1.0
  C  C222  1  0.35017000  0.72705000  0.19856000  1.0
  C  C223  1  0.35008000  0.27294000  0.30144000  1.0
  N  N224  1  0.31379000  0.41055000  0.36523000  1.0
  N  N225  1  0.31377000  0.58944000  0.13477000  1.0
  N  N226  1  0.68620000  0.58944000  0.63478000  1.0
  N  N227  1  0.68621000  0.41055000  0.86522000  1.0
  N  N228  1  0.05045000  0.32159000  0.39546000  1.0
  N  N229  1  0.05045000  0.67840000  0.10454000  1.0
  N  N230  1  0.94958000  0.67839000  0.60454000  1.0
  N  N231  1  0.94954000  0.32160000  0.89545000  1.0
  N  N232  1  0.80407000  0.33087000  0.36245000  1.0
  N  N233  1  0.80407000  0.66913000  0.13754000  1.0
  N  N234  1  0.19594000  0.66911000  0.63755000  1.0
  N  N235  1  0.19592000  0.33087000  0.86246000  1.0
  N  N236  1  0.89487000  0.39112000  0.34194000  1.0
  N  N237  1  0.89483000  0.60887000  0.15806000  1.0
  N  N238  1  0.10513000  0.60887000  0.65807000  1.0
  N  N239  1  0.10515000  0.39113000  0.84194000  1.0
  N  N240  1  0.70683000  0.84086000  0.55798000  1.0
  N  N241  1  0.70679000  0.15913000  0.94201000  1.0
  N  N242  1  0.29317000  0.15913000  0.44203000  1.0
  N  N243  1  0.29320000  0.84088000  0.05799000  1.0
  O  O244  1  0.02111000  0.42109000  0.51958000  1.0
  O  O245  1  0.02113000  0.57892000  0.98042000  1.0
  O  O246  1  0.97887000  0.57892000  0.48041000  1.0
  O  O247  1  0.97890000  0.42109000  0.01958000  1.0
  O  O248  1  0.08533000  0.33045000  0.58461000  1.0
  O  O249  1  0.08539000  0.66957000  0.91539000  1.0
  O  O250  1  0.91466000  0.66957000  0.41538000  1.0
  O  O251  1  0.91464000  0.33045000  0.08461000  1.0
  O  O252  1  0.77891000  0.30735000  0.79340000  1.0
  O  O253  1  0.77900000  0.69264000  0.70661000  1.0
  O  O254  1  0.22109000  0.69262000  0.20661000  1.0
  O  O255  1  0.22100000  0.30737000  0.29339000  1.0
  O  O256  1  0.59491000  0.24375000  0.84494000  1.0
  O  O257  1  0.59498000  0.75624000  0.65506000  1.0
  O  O258  1  0.40506000  0.75625000  0.15506000  1.0
  O  O259  1  0.40500000  0.24376000  0.34494000  1.0
  O  O260  1  0.04752000  0.21938000  0.76040000  1.0
  O  O261  1  0.04761000  0.78062000  0.73959000  1.0
  O  O262  1  0.95248000  0.78061000  0.23961000  1.0
  O  O263  1  0.95239000  0.21938000  0.26041000  1.0
  O  O264  1  0.01916000  0.32342000  0.70077000  1.0
  O  O265  1  0.01921000  0.67656000  0.79923000  1.0
  O  O266  1  0.98086000  0.67657000  0.29923000  1.0
  O  O267  1  0.98079000  0.32344000  0.20078000  1.0
  O  O268  1  0.30925000  0.30710000  0.48629000  1.0
  O  O269  1  0.30923000  0.69289000  0.01371000  1.0
  O  O270  1  0.69074000  0.69291000  0.51371000  1.0
  O  O271  1  0.69077000  0.30709000  0.98629000  1.0
  O  O272  1  0.52872000  0.31663000  0.44040000  1.0
  O  O273  1  0.52872000  0.68336000  0.05960000  1.0
  O  O274  1  0.47128000  0.68335000  0.55960000  1.0
  O  O275  1  0.47130000  0.31665000  0.94040000  1.0
