# generated using pymatgen
data_PrH9C9(NO3)3
_symmetry_space_group_name_H-M   'P 1'
_cell_length_a   6.24909000
_cell_length_b   7.73952000
_cell_length_c   13.56030000
_cell_angle_alpha   81.23020000
_cell_angle_beta   85.67470000
_cell_angle_gamma   76.75820000
_symmetry_Int_Tables_number   1
_chemical_formula_structural   PrH9C9(NO3)3
_chemical_formula_sum   'Pr2 H18 C18 N6 O18'
_cell_volume   630.38290140
_cell_formula_units_Z   2
loop_
 _symmetry_equiv_pos_site_id
 _symmetry_equiv_pos_as_xyz
  1  'x, y, z'
loop_
 _atom_site_type_symbol
 _atom_site_label
 _atom_site_symmetry_multiplicity
 _atom_site_fract_x
 _atom_site_fract_y
 _atom_site_fract_z
 _atom_site_occupancy
  Pr  Pr0  1  0.22230000  0.70897000  0.23140000  1.0
  Pr  Pr1  1  0.77769000  0.29103000  0.76860000  1.0
  H  H2  1  0.89802000  0.40332000  0.50397000  1.0
  H  H3  1  0.10198000  0.59669000  0.49602000  1.0
  H  H4  1  0.11975000  0.60935000  0.83167000  1.0
  H  H5  1  0.88025000  0.39065000  0.16833000  1.0
  H  H6  1  0.43917000  0.29415000  0.31054000  1.0
  H  H7  1  0.56084000  0.70585000  0.68946000  1.0
  H  H8  1  0.49566000  0.33283000  0.19472000  1.0
  H  H9  1  0.50434000  0.66716000  0.80528000  1.0
  H  H10  1  0.80480000  0.00891000  0.13632000  1.0
  H  H11  1  0.19519000  0.99109000  0.86367000  1.0
  H  H12  1  0.76509000  0.81319000  0.16982000  1.0
  H  H13  1  0.23490000  0.18681000  0.83017000  1.0
  H  H14  1  0.35585000  0.09934000  0.15806000  1.0
  H  H15  1  0.64413000  0.90067000  0.84194000  1.0
  H  H16  1  0.14610000  0.10999000  0.23686000  1.0
  H  H17  1  0.85390000  0.89001000  0.76316000  1.0
  H  H18  1  0.84455000  0.79343000  0.54406000  1.0
  H  H19  1  0.15546000  0.20656000  0.45595000  1.0
  C  C20  1  0.74100000  0.59110000  0.32091000  1.0
  C  C21  1  0.25899000  0.40890000  0.67908000  1.0
  C  C22  1  0.61577000  0.53740000  0.41518000  1.0
  C  C23  1  0.38424000  0.46261000  0.58481000  1.0
  C  C24  1  0.72035000  0.44730000  0.50183000  1.0
  C  C25  1  0.27964000  0.55271000  0.49816000  1.0
  C  C26  1  0.32199000  0.71456000  0.98312000  1.0
  C  C27  1  0.67801000  0.28545000  0.01688000  1.0
  C  C28  1  0.15001000  0.60205000  0.99098000  1.0
  C  C29  1  0.84999000  0.39795000  0.00902000  1.0
  C  C30  1  0.06651000  0.55951000  0.90686000  1.0
  C  C31  1  0.93349000  0.44050000  0.09313000  1.0
  C  C32  1  0.87788000  0.02206000  0.36733000  1.0
  C  C33  1  0.12213000  0.97793000  0.63268000  1.0
  C  C34  1  0.67808000  0.01407000  0.43785000  1.0
  C  C35  1  0.32193000  0.98593000  0.56217000  1.0
  C  C36  1  0.68946000  0.88508000  0.52323000  1.0
  C  C37  1  0.31055000  0.11491000  0.47678000  1.0
  N  N38  1  0.39557000  0.58881000  0.41391000  1.0
  N  N39  1  0.60442000  0.41120000  0.58608000  1.0
  N  N40  1  0.08214000  0.54270000  0.08380000  1.0
  N  N41  1  0.91786000  0.45731000  0.91619000  1.0
  N  N42  1  0.48617000  0.12949000  0.41594000  1.0
  N  N43  1  0.51385000  0.87051000  0.58407000  1.0
  O  O44  1  0.62517000  0.68219000  0.24923000  1.0
  O  O45  1  0.37483000  0.31780000  0.75076000  1.0
  O  O46  1  0.94794000  0.54916000  0.32065000  1.0
  O  O47  1  0.05205000  0.45084000  0.67934000  1.0
  O  O48  1  0.39593000  0.73434000  0.06396000  1.0
  O  O49  1  0.60406000  0.26566000  0.93604000  1.0
  O  O50  1  0.38104000  0.78140000  0.89654000  1.0
  O  O51  1  0.61897000  0.21860000  0.10346000  1.0
  O  O52  1  0.01655000  0.87206000  0.36781000  1.0
  O  O53  1  0.98344000  0.12792000  0.63219000  1.0
  O  O54  1  0.89269000  0.16831000  0.31574000  1.0
  O  O55  1  0.10735000  0.83169000  0.68429000  1.0
  O  O56  1  0.39823000  0.38361000  0.24944000  1.0
  O  O57  1  0.60177000  0.61639000  0.75056000  1.0
  O  O58  1  0.88098000  0.88125000  0.14624000  1.0
  O  O59  1  0.11901000  0.11875000  0.85376000  1.0
  O  O60  1  0.25952000  0.03034000  0.19887000  1.0
  O  O61  1  0.74047000  0.96966000  0.80114000  1.0
