# generated using pymatgen
data_KBH6C6(N3O2)2
_symmetry_space_group_name_H-M   'P 1'
_cell_length_a   6.15390000
_cell_length_b   7.70294000
_cell_length_c   23.06800000
_cell_angle_alpha   90.00230000
_cell_angle_beta   90.00010000
_cell_angle_gamma   92.86110000
_symmetry_Int_Tables_number   1
_chemical_formula_structural   KBH6C6(N3O2)2
_chemical_formula_sum   'K4 B4 H24 C24 N24 O16'
_cell_volume   1092.13216035
_cell_formula_units_Z   4
loop_
 _symmetry_equiv_pos_site_id
 _symmetry_equiv_pos_as_xyz
  1  'x, y, z'
loop_
 _atom_site_type_symbol
 _atom_site_label
 _atom_site_symmetry_multiplicity
 _atom_site_fract_x
 _atom_site_fract_y
 _atom_site_fract_z
 _atom_site_occupancy
  K  K0  1  0.80690000  0.72882000  0.44539000  1.0
  K  K1  1  0.19310000  0.77125000  0.94541000  1.0
  K  K2  1  0.19309000  0.27120000  0.55458000  1.0
  K  K3  1  0.80691000  0.22880000  0.05460000  1.0
  B  B4  1  0.23331000  0.79300000  0.37094000  1.0
  B  B5  1  0.76672000  0.70696000  0.87096000  1.0
  B  B6  1  0.76666000  0.20695000  0.62905000  1.0
  B  B7  1  0.23334000  0.29304000  0.12905000  1.0
  H  H8  1  0.36131000  0.40124000  0.40385000  1.0
  H  H9  1  0.63867000  0.09875000  0.90386000  1.0
  H  H10  1  0.63858000  0.59874000  0.59612000  1.0
  H  H11  1  0.36135000  0.90124000  0.09613000  1.0
  H  H12  1  0.09375000  0.14275000  0.35405000  1.0
  H  H13  1  0.90621000  0.35720000  0.85406000  1.0
  H  H14  1  0.90618000  0.85717000  0.64593000  1.0
  H  H15  1  0.09379000  0.64279000  0.14593000  1.0
  H  H16  1  0.60368000  0.63115000  0.19953000  1.0
  H  H17  1  0.39633000  0.86887000  0.69955000  1.0
  H  H18  1  0.39633000  0.36889000  0.80046000  1.0
  H  H19  1  0.60371000  0.13113000  0.30047000  1.0
  H  H20  1  0.24824000  0.79376000  0.24600000  1.0
  H  H21  1  0.75180000  0.70625000  0.74601000  1.0
  H  H22  1  0.75176000  0.20625000  0.75400000  1.0
  H  H23  1  0.24821000  0.29373000  0.25400000  1.0
  H  H24  1  0.05818000  0.81257000  0.34868000  1.0
  H  H25  1  0.94184000  0.68739000  0.84869000  1.0
  H  H26  1  0.94178000  0.18737000  0.65131000  1.0
  H  H27  1  0.05823000  0.31263000  0.15131000  1.0
  H  H28  1  0.22671000  0.69818000  0.41301000  1.0
  H  H29  1  0.77331000  0.80181000  0.91302000  1.0
  H  H30  1  0.77324000  0.30179000  0.58699000  1.0
  H  H31  1  0.22674000  0.19820000  0.08699000  1.0
  C  C32  1  0.54041000  0.16570000  0.42966000  1.0
  C  C33  1  0.45960000  0.33432000  0.92968000  1.0
  C  C34  1  0.45951000  0.83431000  0.57031000  1.0
  C  C35  1  0.54044000  0.66569000  0.07033000  1.0
  C  C36  1  0.37458000  0.26163000  0.40490000  1.0
  C  C37  1  0.62541000  0.23837000  0.90492000  1.0
  C  C38  1  0.62534000  0.73835000  0.59507000  1.0
  C  C39  1  0.37463000  0.76163000  0.09508000  1.0
  C  C40  1  0.24062000  0.13334000  0.37954000  1.0
  C  C41  1  0.75936000  0.36663000  0.87955000  1.0
  C  C42  1  0.75927000  0.86661000  0.62044000  1.0
  C  C43  1  0.24068000  0.63335000  0.12044000  1.0
  C  C44  1  0.66456000  0.59115000  0.29420000  1.0
  C  C45  1  0.33547000  0.90883000  0.79421000  1.0
  C  C46  1  0.33543000  0.40883000  0.70580000  1.0
  C  C47  1  0.66459000  0.09119000  0.20580000  1.0
  C  C48  1  0.55774000  0.64855000  0.24433000  1.0
  C  C49  1  0.44229000  0.85145000  0.74435000  1.0
  C  C50  1  0.44228000  0.35144000  0.75567000  1.0
  C  C51  1  0.55773000  0.14856000  0.25567000  1.0
  C  C52  1  0.37999000  0.72875000  0.26677000  1.0
  C  C53  1  0.62004000  0.77126000  0.76679000  1.0
  C  C54  1  0.62000000  0.27124000  0.73323000  1.0
  C  C55  1  0.37998000  0.22875000  0.23323000  1.0
  N  N56  1  0.32630000  0.97595000  0.39015000  1.0
  N  N57  1  0.67372000  0.52403000  0.89016000  1.0
  N  N58  1  0.67366000  0.02405000  0.60984000  1.0
  N  N59  1  0.32635000  0.47597000  0.10985000  1.0
  N  N60  1  0.51080000  0.99317000  0.42085000  1.0
  N  N61  1  0.48924000  0.50684000  0.92087000  1.0
  N  N62  1  0.48915000  0.00683000  0.57914000  1.0
  N  N63  1  0.51084000  0.49317000  0.07915000  1.0
  N  N64  1  0.72539000  0.23013000  0.46139000  1.0
  N  N65  1  0.27460000  0.26990000  0.96140000  1.0
  N  N66  1  0.27451000  0.76991000  0.53859000  1.0
  N  N67  1  0.72545000  0.73011000  0.03861000  1.0
  N  N68  1  0.38874000  0.71678000  0.32594000  1.0
  N  N69  1  0.61129000  0.78320000  0.82595000  1.0
  N  N70  1  0.61124000  0.28318000  0.67405000  1.0
  N  N71  1  0.38879000  0.21680000  0.17407000  1.0
  N  N72  1  0.56284000  0.63235000  0.34352000  1.0
  N  N73  1  0.43720000  0.86760000  0.84353000  1.0
  N  N74  1  0.43715000  0.36760000  0.65648000  1.0
  N  N75  1  0.56287000  0.13241000  0.15649000  1.0
  N  N76  1  0.85609000  0.49449000  0.29651000  1.0
  N  N77  1  0.14395000  0.00551000  0.79653000  1.0
  N  N78  1  0.14393000  0.50550000  0.70349000  1.0
  N  N79  1  0.85610000  0.99452000  0.20351000  1.0
  O  O80  1  0.87029000  0.12858000  0.47395000  1.0
  O  O81  1  0.12973000  0.37149000  0.97398000  1.0
  O  O82  1  0.12966000  0.87152000  0.52601000  1.0
  O  O83  1  0.87034000  0.62853000  0.02603000  1.0
  O  O84  1  0.73401000  0.38670000  0.47581000  1.0
  O  O85  1  0.26590000  0.11333000  0.97580000  1.0
  O  O86  1  0.26578000  0.61335000  0.52419000  1.0
  O  O87  1  0.73413000  0.88669000  0.02420000  1.0
  O  O88  1  0.91590000  0.43627000  0.34415000  1.0
  O  O89  1  0.08410000  0.06369000  0.84417000  1.0
  O  O90  1  0.08406000  0.56371000  0.65585000  1.0
  O  O91  1  0.91597000  0.93628000  0.15586000  1.0
  O  O92  1  0.95337000  0.47158000  0.24989000  1.0
  O  O93  1  0.04672000  0.02843000  0.74990000  1.0
  O  O94  1  0.04668000  0.52843000  0.75012000  1.0
  O  O95  1  0.95334000  0.97160000  0.25014000  1.0
