# generated using pymatgen
data_CuH8C10(BrN)2
_symmetry_space_group_name_H-M   'P 1'
_cell_length_a   7.82296000
_cell_length_b   8.99307000
_cell_length_c   8.99744273
_cell_angle_alpha   62.35203316
_cell_angle_beta   73.43023161
_cell_angle_gamma   73.45900000
_symmetry_Int_Tables_number   1
_chemical_formula_structural   CuH8C10(BrN)2
_chemical_formula_sum   'Cu2 H16 C20 Br4 N4'
_cell_volume   528.70444786
_cell_formula_units_Z   2
loop_
 _symmetry_equiv_pos_site_id
 _symmetry_equiv_pos_as_xyz
  1  'x, y, z'
loop_
 _atom_site_type_symbol
 _atom_site_label
 _atom_site_symmetry_multiplicity
 _atom_site_fract_x
 _atom_site_fract_y
 _atom_site_fract_z
 _atom_site_occupancy
  Cu  Cu0  1  0.25009000  0.06919000  0.93087000  1.0
  Cu  Cu1  1  0.74991000  0.93080000  0.06914000  1.0
  H  H2  1  0.90620000  0.28519000  0.05066000  1.0
  H  H3  1  0.59378000  0.94917000  0.71491000  1.0
  H  H4  1  0.09379000  0.71481000  0.94933000  1.0
  H  H5  1  0.40622000  0.05083000  0.28509000  1.0
  H  H6  1  0.74106000  0.58887000  0.91957000  1.0
  H  H7  1  0.75896000  0.08007000  0.41120000  1.0
  H  H8  1  0.25892000  0.41111000  0.08043000  1.0
  H  H9  1  0.24104000  0.91993000  0.58880000  1.0
  H  H10  1  0.86995000  0.77881000  0.62105000  1.0
  H  H11  1  0.63023000  0.37855000  0.22118000  1.0
  H  H12  1  0.13002000  0.22118000  0.37895000  1.0
  H  H13  1  0.36978000  0.62147000  0.77882000  1.0
  H  H14  1  0.14093000  0.65874000  0.46201000  1.0
  H  H15  1  0.35929000  0.53774000  0.34113000  1.0
  H  H16  1  0.85906000  0.34126000  0.53799000  1.0
  H  H17  1  0.64073000  0.46227000  0.65888000  1.0
  C  C18  1  0.95304000  0.37346000  0.92115000  1.0
  C  C19  1  0.54703000  0.07866000  0.62664000  1.0
  C  C20  1  0.04696000  0.62655000  0.07884000  1.0
  C  C21  1  0.45297000  0.92134000  0.37337000  1.0
  C  C22  1  0.86346000  0.54115000  0.84766000  1.0
  C  C23  1  0.63662000  0.15204000  0.45889000  1.0
  C  C24  1  0.13652000  0.45884000  0.15233000  1.0
  C  C25  1  0.36339000  0.84797000  0.54111000  1.0
  C  C26  1  0.93335000  0.64576000  0.68170000  1.0
  C  C27  1  0.56681000  0.31796000  0.35425000  1.0
  C  C28  1  0.06664000  0.35424000  0.31829000  1.0
  C  C29  1  0.43320000  0.68204000  0.64576000  1.0
  C  C30  1  0.08700000  0.57843000  0.59285000  1.0
  C  C31  1  0.41319000  0.40693000  0.42146000  1.0
  C  C32  1  0.91299000  0.42157000  0.40715000  1.0
  C  C33  1  0.58683000  0.59309000  0.57853000  1.0
  C  C34  1  0.16955000  0.40888000  0.67398000  1.0
  C  C35  1  0.33064000  0.32590000  0.59106000  1.0
  C  C36  1  0.83045000  0.59113000  0.32602000  1.0
  C  C37  1  0.66937000  0.67411000  0.40894000  1.0
  Br  Br38  1  0.06570000  0.98426000  0.21373000  1.0
  Br  Br39  1  0.43439000  0.78621000  0.01585000  1.0
  Br  Br40  1  0.93432000  0.01575000  0.78628000  1.0
  Br  Br41  1  0.56559000  0.21378000  0.98413000  1.0
  N  N42  1  0.10381000  0.30952000  0.83771000  1.0
  N  N43  1  0.39633000  0.16221000  0.69050000  1.0
  N  N44  1  0.89619000  0.69048000  0.16229000  1.0
  N  N45  1  0.60367000  0.83780000  0.30950000  1.0
