# generated using pymatgen
data_Zn2H17C22Br(N4Cl)2
_symmetry_space_group_name_H-M   'P 1'
_cell_length_a   14.95416984
_cell_length_b   15.21590000
_cell_length_c   15.39420000
_cell_angle_alpha   67.41100000
_cell_angle_beta   64.21303152
_cell_angle_gamma   101.52218863
_symmetry_Int_Tables_number   1
_chemical_formula_structural   Zn2H17C22Br(N4Cl)2
_chemical_formula_sum   'Zn4 H34 C44 Br2 N16 Cl4'
_cell_volume   2613.17957312
_cell_formula_units_Z   2
loop_
 _symmetry_equiv_pos_site_id
 _symmetry_equiv_pos_as_xyz
  1  'x, y, z'
loop_
 _atom_site_type_symbol
 _atom_site_label
 _atom_site_symmetry_multiplicity
 _atom_site_fract_x
 _atom_site_fract_y
 _atom_site_fract_z
 _atom_site_occupancy
  Zn  Zn0  1  0.99664000  0.13089000  0.36726000  1.0
  Zn  Zn1  1  0.99495000  0.85282000  0.63199000  1.0
  Zn  Zn2  1  0.14743000  0.00299000  0.35074000  1.0
  Zn  Zn3  1  0.85150000  0.99039000  0.64944000  1.0
  H  H4  1  0.81275000  0.00454000  0.34823000  1.0
  H  H5  1  0.29611000  0.94888000  0.68195000  1.0
  H  H6  1  0.84396000  0.66493000  0.63455000  1.0
  H  H7  1  0.32735000  0.07192000  0.67227000  1.0
  H  H8  1  0.55908000  0.23654000  0.52585000  1.0
  H  H9  1  0.42877000  0.24415000  0.47986000  1.0
  H  H10  1  0.63688000  0.11719000  0.34797000  1.0
  H  H11  1  0.57680000  0.98608000  0.46344000  1.0
  H  H12  1  0.47313000  0.07512000  0.36085000  1.0
  H  H13  1  0.65007000  0.27152000  0.38467000  1.0
  H  H14  1  0.50803000  0.24379000  0.35564000  1.0
  H  H15  1  0.14273000  0.96768000  0.68731000  1.0
  H  H16  1  0.32184000  0.49265000  0.89749000  1.0
  H  H17  1  0.24557000  0.83797000  0.29361000  1.0
  H  H18  1  0.48374000  0.40449000  0.92008000  1.0
  H  H19  1  0.48204000  0.66317000  0.76551000  1.0
  H  H20  1  0.62269000  0.54032000  0.74854000  1.0
  H  H21  1  0.25015000  0.67254000  0.29933000  1.0
  H  H22  1  0.11692000  0.53754000  0.56146000  1.0
  H  H23  1  0.23575000  0.51208000  0.30098000  1.0
  H  H24  1  0.07805000  0.39497000  0.56204000  1.0
  H  H25  1  0.82745000  0.77667000  0.11224000  1.0
  H  H26  1  0.37808000  0.19199000  0.08859000  1.0
  H  H27  1  0.05060000  0.97757000  0.06921000  1.0
  H  H28  1  0.60808000  0.00280000  0.69844000  1.0
  H  H29  1  0.79738000  0.88232000  0.23108000  1.0
  H  H30  1  0.64129000  0.83202000  0.68552000  1.0
  H  H31  1  0.18344000  0.33241000  0.30670000  1.0
  H  H32  1  0.79730000  0.96325000  0.89413000  1.0
  H  H33  1  0.95039000  0.75113000  0.88793000  1.0
  H  H34  1  0.16129000  0.34486000  0.10356000  1.0
  H  H35  1  0.35677000  0.15094000  0.31817000  1.0
  H  H36  1  0.46885000  0.04868000  0.69171000  1.0
  H  H37  1  0.45699000  0.94549000  0.66424000  1.0
  C  C38  1  0.87602000  0.97664000  0.33695000  1.0
  C  C39  1  0.20010000  0.29234000  0.11666000  1.0
  C  C40  1  0.00444000  0.20677000  0.58273000  1.0
  C  C41  1  0.80958000  0.72065000  0.63998000  1.0
  C  C42  1  0.28954000  0.10047000  0.40813000  1.0
  C  C43  1  0.09122000  0.30515000  0.48357000  1.0
  C  C44  1  0.29201000  0.07247000  0.50511000  1.0
  C  C45  1  0.30937000  0.30931000  0.04612000  1.0
  C  C46  1  0.87086000  0.85119000  0.93514000  1.0
  C  C47  1  0.46382000  0.02648000  0.63331000  1.0
  C  C48  1  0.36162000  0.02982000  0.63239000  1.0
  C  C49  1  0.70099000  0.70810000  0.67673000  1.0
  C  C50  1  0.56975000  0.21166000  0.46506000  1.0
  C  C51  1  0.56706000  0.05957000  0.43725000  1.0
  C  C52  1  0.57090000  0.10235000  0.51253000  1.0
  C  C53  1  0.19402000  0.80495000  0.38469000  1.0
  C  C54  1  0.39233000  0.08643000  0.50937000  1.0
  C  C55  1  0.47482000  0.20392000  0.44709000  1.0
  C  C56  1  0.45795000  0.03967000  0.44573000  1.0
  C  C57  1  0.40208000  0.49280000  0.87518000  1.0
  C  C58  1  0.40350000  0.40368000  0.94128000  1.0
  C  C59  1  0.49864000  0.59360000  0.78540000  1.0
  C  C60  1  0.15448000  0.70204000  0.47564000  1.0
  C  C61  1  0.60577000  0.60952000  0.73456000  1.0
  C  C62  1  0.20538000  0.60014000  0.38367000  1.0
  C  C63  1  0.16039000  0.60852000  0.47643000  1.0
  C  C64  1  0.19223000  0.50278000  0.38464000  1.0
  C  C65  1  0.67533000  0.05149000  0.60858000  1.0
  C  C66  1  0.12313000  0.40339000  0.47897000  1.0
  C  C67  1  0.95040000  0.93125000  0.01366000  1.0
  C  C68  1  0.87855000  0.84936000  0.02733000  1.0
  C  C69  1  0.96470000  0.93938000  0.09790000  1.0
  C  C70  1  0.88386000  0.91109000  0.20332000  1.0
  C  C71  1  0.67132000  0.10619000  0.51417000  1.0
  C  C72  1  0.09182000  0.70768000  0.57153000  1.0
  C  C73  1  0.78292000  0.15426000  0.42307000  1.0
  C  C74  1  0.70572000  0.80546000  0.66674000  1.0
  C  C75  1  0.99700000  0.91297000  0.29019000  1.0
  C  C76  1  0.91195000  0.92677000  0.27736000  1.0
  C  C77  1  0.12089000  0.28133000  0.39795000  1.0
  C  C78  1  0.18071000  0.00711000  0.59605000  1.0
  C  C79  1  0.31056000  0.21450000  0.11009000  1.0
  C  C80  1  0.83455000  0.91269000  0.87655000  1.0
  C  C81  1  0.91195000  0.80391000  0.87418000  1.0
  Br  Br82  1  0.05753000  0.05728000  0.86311000  1.0
  Br  Br83  1  0.85387000  0.24516000  0.26448000  1.0
  N  N84  1  0.93709000  0.99329000  0.37780000  1.0
  N  N85  1  0.15669000  0.86398000  0.42370000  1.0
  N  N86  1  0.77927000  0.06565000  0.57592000  1.0
  N  N87  1  0.09259000  0.80328000  0.54101000  1.0
  N  N88  1  0.84680000  0.12981000  0.45936000  1.0
  N  N89  1  0.80763000  0.86800000  0.63029000  1.0
  N  N90  1  0.01099000  0.95219000  0.35050000  1.0
  N  N91  1  0.05628000  0.17899000  0.44362000  1.0
  N  N92  1  0.11755000  0.99494000  0.55587000  1.0
  N  N93  1  0.21106000  0.14744000  0.20930000  1.0
  N  N94  1  0.85333000  0.90357000  0.78736000  1.0
  N  N95  1  0.90209000  0.83601000  0.78554000  1.0
  N  N96  1  0.14246000  0.19621000  0.21367000  1.0
  N  N97  1  0.98435000  0.13216000  0.55854000  1.0
  N  N98  1  0.18496000  0.05223000  0.43995000  1.0
  N  N99  1  0.87165000  0.81605000  0.61370000  1.0
  Cl  Cl100  1  0.92614000  0.18183000  0.71718000  1.0
  Cl  Cl101  1  0.37535000  0.89911000  0.51285000  1.0
  Cl  Cl102  1  0.01709000  0.61025000  0.71281000  1.0
  Cl  Cl103  1  0.07404000  0.85257000  0.24240000  1.0
