# generated using pymatgen
data_ZnH16C24(NO)4
_symmetry_space_group_name_H-M   'P 1'
_cell_length_a   7.37272000
_cell_length_b   17.03620000
_cell_length_c   18.51601512
_cell_angle_alpha   62.60762911
_cell_angle_beta   88.26690479
_cell_angle_gamma   86.21040000
_symmetry_Int_Tables_number   1
_chemical_formula_structural   ZnH16C24(NO)4
_chemical_formula_sum   'Zn2 H32 C48 N8 O8'
_cell_volume   2060.39265995
_cell_formula_units_Z   2
loop_
 _symmetry_equiv_pos_site_id
 _symmetry_equiv_pos_as_xyz
  1  'x, y, z'
loop_
 _atom_site_type_symbol
 _atom_site_label
 _atom_site_symmetry_multiplicity
 _atom_site_fract_x
 _atom_site_fract_y
 _atom_site_fract_z
 _atom_site_occupancy
  Zn  Zn0  1  0.75026000  0.09180000  0.81656000  1.0
  Zn  Zn1  1  0.24974000  0.90820000  0.18344000  1.0
  H  H2  1  0.33020000  0.06160000  0.73677000  1.0
  H  H3  1  0.16930000  0.20139000  0.73674000  1.0
  H  H4  1  0.66980000  0.93840000  0.26323000  1.0
  H  H5  1  0.83070000  0.79861000  0.26326000  1.0
  H  H6  1  0.57012000  0.03681000  0.65065000  1.0
  H  H7  1  0.92970000  0.31238000  0.65042000  1.0
  H  H8  1  0.42988000  0.96319000  0.34935000  1.0
  H  H9  1  0.07030000  0.68763000  0.34958000  1.0
  H  H10  1  0.16160000  0.98272000  0.52075000  1.0
  H  H11  1  0.33877000  0.49605000  0.52061000  1.0
  H  H12  1  0.83840000  0.01728000  0.47925000  1.0
  H  H13  1  0.66123000  0.50395000  0.47939000  1.0
  H  H14  1  0.92007000  0.00138000  0.61161000  1.0
  H  H15  1  0.57992000  0.38647000  0.61171000  1.0
  H  H16  1  0.07993000  0.99862000  0.38839000  1.0
  H  H17  1  0.42008000  0.61353000  0.38829000  1.0
  H  H18  1  0.70672000  0.88252000  0.12118000  1.0
  H  H19  1  0.79287000  0.99665000  0.12117000  1.0
  H  H20  1  0.29329000  0.11748000  0.87882000  1.0
  H  H21  1  0.20713000  0.00336000  0.87882000  1.0
  H  H22  1  0.61963000  0.75110000  0.10995000  1.0
  H  H23  1  0.88035000  0.13925000  0.10999000  1.0
  H  H24  1  0.38037000  0.24890000  0.89005000  1.0
  H  H25  1  0.11965000  0.86075000  0.89001000  1.0
  H  H26  1  0.58368000  0.76080000  0.97080000  1.0
  H  H27  1  0.91647000  0.26868000  0.97080000  1.0
  H  H28  1  0.41632000  0.23920000  0.02920000  1.0
  H  H29  1  0.08354000  0.73133000  0.02919000  1.0
  H  H30  1  0.64218000  0.90610000  0.84769000  1.0
  H  H31  1  0.85802000  0.24653000  0.84770000  1.0
  H  H32  1  0.35782000  0.09390000  0.15231000  1.0
  H  H33  1  0.14198000  0.75347000  0.15230000  1.0
  C  C34  1  0.96596000  0.04661000  0.73122000  1.0
  C  C35  1  0.53363000  0.22173000  0.73133000  1.0
  C  C36  1  0.03404000  0.95339000  0.26878000  1.0
  C  C37  1  0.46637000  0.77827000  0.26867000  1.0
  C  C38  1  0.11037000  0.03194000  0.68005000  1.0
  C  C39  1  0.38935000  0.28763000  0.68009000  1.0
  C  C40  1  0.88962000  0.96806000  0.31995000  1.0
  C  C41  1  0.61065000  0.71237000  0.31991000  1.0
  C  C42  1  0.29322000  0.04209000  0.69103000  1.0
  C  C43  1  0.20649000  0.26658000  0.69098000  1.0
  C  C44  1  0.70678000  0.95791000  0.30897000  1.0
  C  C45  1  0.79351000  0.73342000  0.30902000  1.0
  C  C46  1  0.42740000  0.02991000  0.64200000  1.0
  C  C47  1  0.07248000  0.32785000  0.64183000  1.0
  C  C48  1  0.57260000  0.97009000  0.35800000  1.0
  C  C49  1  0.92752000  0.67214000  0.35818000  1.0
  C  C50  1  0.37879000  0.01002000  0.57980000  1.0
  C  C51  1  0.12124000  0.40993000  0.57964000  1.0
  C  C52  1  0.62121000  0.98999000  0.42019000  1.0
  C  C53  1  0.87876000  0.59007000  0.42036000  1.0
  C  C54  1  0.19537000  0.99926000  0.56877000  1.0
  C  C55  1  0.30476000  0.43156000  0.56869000  1.0
  C  C56  1  0.80463000  0.00074000  0.43123000  1.0
  C  C57  1  0.69524000  0.56844000  0.43131000  1.0
  C  C58  1  0.06279000  0.00951000  0.61899000  1.0
  C  C59  1  0.43716000  0.37105000  0.61901000  1.0
  C  C60  1  0.93721000  0.99049000  0.38101000  1.0
  C  C61  1  0.56284000  0.62895000  0.38099000  1.0
  C  C62  1  0.72353000  0.96378000  0.99010000  1.0
  C  C63  1  0.77644000  0.04643000  0.99009000  1.0
  C  C64  1  0.27646000  0.03622000  0.00990000  1.0
  C  C65  1  0.22356000  0.95357000  0.00991000  1.0
  C  C66  1  0.69525000  0.88584000  0.06134000  1.0
  C  C67  1  0.80462000  0.05315000  0.06134000  1.0
  C  C68  1  0.30475000  0.11416000  0.93866000  1.0
  C  C69  1  0.19538000  0.94685000  0.93866000  1.0
  C  C70  1  0.64415000  0.81197000  0.05484000  1.0
  C  C71  1  0.85584000  0.13349000  0.05487000  1.0
  C  C72  1  0.35585000  0.18803000  0.94516000  1.0
  C  C73  1  0.14416000  0.86651000  0.94513000  1.0
  C  C74  1  0.62402000  0.81710000  0.97812000  1.0
  C  C75  1  0.87604000  0.20507000  0.97814000  1.0
  C  C76  1  0.37598000  0.18290000  0.02188000  1.0
  C  C77  1  0.12396000  0.79494000  0.02185000  1.0
  C  C78  1  0.65495000  0.89703000  0.90972000  1.0
  C  C79  1  0.84521000  0.19359000  0.90972000  1.0
  C  C80  1  0.34505000  0.10297000  0.09028000  1.0
  C  C81  1  0.15479000  0.80641000  0.09028000  1.0
  N  N82  1  0.70257000  0.96804000  0.91607000  1.0
  N  N83  1  0.79760000  0.11621000  0.91605000  1.0
  N  N84  1  0.29743000  0.03196000  0.08393000  1.0
  N  N85  1  0.20240000  0.88378000  0.08395000  1.0
  N  N86  1  0.52412000  0.00146000  0.53191000  1.0
  N  N87  1  0.97591000  0.46645000  0.53175000  1.0
  N  N88  1  0.47588000  0.99854000  0.46809000  1.0
  N  N89  1  0.02410000  0.53356000  0.46825000  1.0
  O  O90  1  0.80307000  0.02867000  0.72824000  1.0
  O  O91  1  0.69655000  0.24266000  0.72845000  1.0
  O  O92  1  0.19693000  0.97133000  0.27176000  1.0
  O  O93  1  0.30345000  0.75734000  0.27155000  1.0
  O  O94  1  0.01003000  0.07924000  0.77882000  1.0
  O  O95  1  0.48962000  0.14150000  0.77893000  1.0
  O  O96  1  0.98996000  0.92077000  0.22117000  1.0
  O  O97  1  0.51037000  0.85850000  0.22107000  1.0
