# generated using pymatgen
data_AgH12C12N3ClF
_symmetry_space_group_name_H-M   'P 1'
_cell_length_a   4.47043000
_cell_length_b   14.47700000
_cell_length_c   18.63310000
_cell_angle_alpha   90.00000000
_cell_angle_beta   90.00000000
_cell_angle_gamma   90.00000000
_symmetry_Int_Tables_number   1
_chemical_formula_structural   AgH12C12N3ClF
_chemical_formula_sum   'Ag4 H48 C48 N12 Cl4 F4'
_cell_volume   1205.90470059
_cell_formula_units_Z   4
loop_
 _symmetry_equiv_pos_site_id
 _symmetry_equiv_pos_as_xyz
  1  'x, y, z'
loop_
 _atom_site_type_symbol
 _atom_site_label
 _atom_site_symmetry_multiplicity
 _atom_site_fract_x
 _atom_site_fract_y
 _atom_site_fract_z
 _atom_site_occupancy
  Ag  Ag0  1  0.80225000  0.31329000  0.56074000  1.0
  Ag  Ag1  1  0.30225000  0.18671000  0.43926000  1.0
  Ag  Ag2  1  0.19775000  0.81329000  0.93926000  1.0
  Ag  Ag3  1  0.69775000  0.68671000  0.06074000  1.0
  H  H4  1  0.34130000  0.36031000  0.70206000  1.0
  H  H5  1  0.84130000  0.13969000  0.29794000  1.0
  H  H6  1  0.65870000  0.86031000  0.79794000  1.0
  H  H7  1  0.15870000  0.63969000  0.20206000  1.0
  H  H8  1  0.09515000  0.39484000  0.84975000  1.0
  H  H9  1  0.59515000  0.10516000  0.15025000  1.0
  H  H10  1  0.90485000  0.89484000  0.65025000  1.0
  H  H11  1  0.40485000  0.60516000  0.34975000  1.0
  H  H12  1  0.44263000  0.43016000  0.81487000  1.0
  H  H13  1  0.94263000  0.06984000  0.18513000  1.0
  H  H14  1  0.55737000  0.93015000  0.68513000  1.0
  H  H15  1  0.05737000  0.56985000  0.31487000  1.0
  H  H16  1  0.94034000  0.55181000  0.83966000  1.0
  H  H17  1  0.44034000  0.94819000  0.16034000  1.0
  H  H18  1  0.05966000  0.05181000  0.66034000  1.0
  H  H19  1  0.55966000  0.44819000  0.33966000  1.0
  H  H20  1  0.24972000  0.57865000  0.78447000  1.0
  H  H21  1  0.74973000  0.92135000  0.21552000  1.0
  H  H22  1  0.75028000  0.07865000  0.71552000  1.0
  H  H23  1  0.25028000  0.42135000  0.28448000  1.0
  H  H24  1  0.93381000  0.24497000  0.69758000  1.0
  H  H25  1  0.43381000  0.25503000  0.30242000  1.0
  H  H26  1  0.06619000  0.74497000  0.80242000  1.0
  H  H27  1  0.56619000  0.75503000  0.19758000  1.0
  H  H28  1  0.15830000  0.23329000  0.77742000  1.0
  H  H29  1  0.65830000  0.26671000  0.22258000  1.0
  H  H30  1  0.84170000  0.73329000  0.72258000  1.0
  H  H31  1  0.34170000  0.76671000  0.27742000  1.0
  H  H32  1  0.41522000  0.41617000  0.51769000  1.0
  H  H33  1  0.91522000  0.08383000  0.48231000  1.0
  H  H34  1  0.58477000  0.91617000  0.98231000  1.0
  H  H35  1  0.08477000  0.58383000  0.01769000  1.0
  H  H36  1  0.04879000  0.47458000  0.43145000  1.0
  H  H37  1  0.54879000  0.02542000  0.56855000  1.0
  H  H38  1  0.95121000  0.97458000  0.06855000  1.0
  H  H39  1  0.45121000  0.52542000  0.93145000  1.0
  H  H40  1  0.85157000  0.63654000  0.44173000  1.0
  H  H41  1  0.35157000  0.86346000  0.55827000  1.0
  H  H42  1  0.14843000  0.13654000  0.05827000  1.0
  H  H43  1  0.64843000  0.36346000  0.94173000  1.0
  H  H44  1  0.01747000  0.73502000  0.54365000  1.0
  H  H45  1  0.51747000  0.76498000  0.45635000  1.0
  H  H46  1  0.98253000  0.23502000  0.95635000  1.0
  H  H47  1  0.48253000  0.26498000  0.04365000  1.0
  H  H48  1  0.38515000  0.67497000  0.63202000  1.0
  H  H49  1  0.88515000  0.82503000  0.36798000  1.0
  H  H50  1  0.61485000  0.17497000  0.86798000  1.0
  H  H51  1  0.11485000  0.32503000  0.13202000  1.0
  C  C52  1  0.77706000  0.42627000  0.63322000  1.0
  C  C53  1  0.27706000  0.07373000  0.36678000  1.0
  C  C54  1  0.22294000  0.92627000  0.86678000  1.0
  C  C55  1  0.72294000  0.57373000  0.13322000  1.0
  C  C56  1  0.89005000  0.51698000  0.72747000  1.0
  C  C57  1  0.39005000  0.98302000  0.27253000  1.0
  C  C58  1  0.10995000  0.01698000  0.77253000  1.0
  C  C59  1  0.60995000  0.48302000  0.22747000  1.0
  C  C60  1  0.13916000  0.37191000  0.73453000  1.0
  C  C61  1  0.63916000  0.12809000  0.26547000  1.0
  C  C62  1  0.86084000  0.87191000  0.76547000  1.0
  C  C63  1  0.36084000  0.62809000  0.23453000  1.0
  C  C64  1  0.20260000  0.42865000  0.80389000  1.0
  C  C65  1  0.70260000  0.07135000  0.19611000  1.0
  C  C66  1  0.79740000  0.92865000  0.69611000  1.0
  C  C67  1  0.29739000  0.57135000  0.30389000  1.0
  C  C68  1  0.07202000  0.52742000  0.79362000  1.0
  C  C69  1  0.57202000  0.97258000  0.20637000  1.0
  C  C70  1  0.92798000  0.02742000  0.70637000  1.0
  C  C71  1  0.42798000  0.47258000  0.29363000  1.0
  C  C72  1  0.00210000  0.27800000  0.74807000  1.0
  C  C73  1  0.50210000  0.22200000  0.25193000  1.0
  C  C74  1  0.99790000  0.77800000  0.75193000  1.0
  C  C75  1  0.49790000  0.72200000  0.24807000  1.0
  C  C76  1  0.42562000  0.54261000  0.58005000  1.0
  C  C77  1  0.92562000  0.95739000  0.41995000  1.0
  C  C78  1  0.57438000  0.04261000  0.91995000  1.0
  C  C79  1  0.07438000  0.45739000  0.08005000  1.0
  C  C80  1  0.33128000  0.48643000  0.52335000  1.0
  C  C81  1  0.83128000  0.01357000  0.47665000  1.0
  C  C82  1  0.66872000  0.98643000  0.97665000  1.0
  C  C83  1  0.16872000  0.51357000  0.02335000  1.0
  C  C84  1  0.12566000  0.52061000  0.47391000  1.0
  C  C85  1  0.62566000  0.97940000  0.52609000  1.0
  C  C86  1  0.87434000  0.02061000  0.02609000  1.0
  C  C87  1  0.37434000  0.47940000  0.97391000  1.0
  C  C88  1  0.01350000  0.61019000  0.48037000  1.0
  C  C89  1  0.51350000  0.88981000  0.51963000  1.0
  C  C90  1  0.98650000  0.11019000  0.01963000  1.0
  C  C91  1  0.48650000  0.38981000  0.98037000  1.0
  C  C92  1  0.10717000  0.66544000  0.53748000  1.0
  C  C93  1  0.60717000  0.83456000  0.46252000  1.0
  C  C94  1  0.89283000  0.16544000  0.96252000  1.0
  C  C95  1  0.39283000  0.33456000  0.03748000  1.0
  C  C96  1  0.31303000  0.63225000  0.58737000  1.0
  C  C97  1  0.81303000  0.86775000  0.41263000  1.0
  C  C98  1  0.68697000  0.13225000  0.91263000  1.0
  C  C99  1  0.18698000  0.36775000  0.08737000  1.0
  N  N100  1  0.93631000  0.43323000  0.69509000  1.0
  N  N101  1  0.43631000  0.06677000  0.30491000  1.0
  N  N102  1  0.06369000  0.93323000  0.80491000  1.0
  N  N103  1  0.56369000  0.56677000  0.19509000  1.0
  N  N104  1  0.70162000  0.56687000  0.69027000  1.0
  N  N105  1  0.20163000  0.93313000  0.30973000  1.0
  N  N106  1  0.29837000  0.06687000  0.80973000  1.0
  N  N107  1  0.79837000  0.43313000  0.19027000  1.0
  N  N108  1  0.63399000  0.50949000  0.63202000  1.0
  N  N109  1  0.13399000  0.99051000  0.36798000  1.0
  N  N110  1  0.36601000  0.00949000  0.86798000  1.0
  N  N111  1  0.86601000  0.49051000  0.13202000  1.0
  Cl  Cl112  1  0.79797000  0.29734000  0.42241000  1.0
  Cl  Cl113  1  0.29797000  0.20266000  0.57759000  1.0
  Cl  Cl114  1  0.20203000  0.79734000  0.07759000  1.0
  Cl  Cl115  1  0.70203000  0.70266000  0.92241000  1.0
  F  F116  1  0.74035000  0.28835000  0.79093000  1.0
  F  F117  1  0.24035000  0.21165000  0.20907000  1.0
  F  F118  1  0.25965000  0.78835000  0.70907000  1.0
  F  F119  1  0.75965000  0.71165000  0.29093000  1.0
