# generated using pymatgen
data_ZnH16C18(NO3)2
_symmetry_space_group_name_H-M   'P 1'
_cell_length_a   5.36081000
_cell_length_b   8.88641000
_cell_length_c   17.43790000
_cell_angle_alpha   83.95570000
_cell_angle_beta   89.99620000
_cell_angle_gamma   89.99820000
_symmetry_Int_Tables_number   1
_chemical_formula_structural   ZnH16C18(NO3)2
_chemical_formula_sum   'Zn2 H32 C36 N4 O12'
_cell_volume   826.09476217
_cell_formula_units_Z   2
loop_
 _symmetry_equiv_pos_site_id
 _symmetry_equiv_pos_as_xyz
  1  'x, y, z'
loop_
 _atom_site_type_symbol
 _atom_site_label
 _atom_site_symmetry_multiplicity
 _atom_site_fract_x
 _atom_site_fract_y
 _atom_site_fract_z
 _atom_site_occupancy
  Zn  Zn0  1  0.50000000  0.50000000  0.00000000  1.0
  Zn  Zn1  1  0.00001000  0.00001000  0.00000000  1.0
  H  H2  1  0.40562000  0.67028000  0.51122000  1.0
  H  H3  1  0.90554000  0.82969000  0.48879000  1.0
  H  H4  1  0.59431000  0.32968000  0.48879000  1.0
  H  H5  1  0.09448000  0.17032000  0.51120000  1.0
  H  H6  1  0.05558000  0.88861000  0.75377000  1.0
  H  H7  1  0.55553000  0.61137000  0.24625000  1.0
  H  H8  1  0.94442000  0.11138000  0.24624000  1.0
  H  H9  1  0.44448000  0.38866000  0.75374000  1.0
  H  H10  1  0.88702000  0.54112000  0.70637000  1.0
  H  H11  1  0.38693000  0.95886000  0.29362000  1.0
  H  H12  1  0.11296000  0.45884000  0.29363000  1.0
  H  H13  1  0.61311000  0.04115000  0.70638000  1.0
  H  H14  1  0.12813000  0.81472000  0.59132000  1.0
  H  H15  1  0.62806000  0.68525000  0.40871000  1.0
  H  H16  1  0.87180000  0.18523000  0.40870000  1.0
  H  H17  1  0.37194000  0.31477000  0.59129000  1.0
  H  H18  1  0.78178000  0.53754000  0.56807000  1.0
  H  H19  1  0.28168000  0.96244000  0.43194000  1.0
  H  H20  1  0.21816000  0.46243000  0.43194000  1.0
  H  H21  1  0.71834000  0.03756000  0.56806000  1.0
  H  H22  1  0.99116000  0.46645000  0.07475000  1.0
  H  H23  1  0.49123000  0.03355000  0.92525000  1.0
  H  H24  1  0.00884000  0.53355000  0.92525000  1.0
  H  H25  1  0.50878000  0.96646000  0.07475000  1.0
  H  H26  1  0.69041000  0.64581000  0.84469000  1.0
  H  H27  1  0.19034000  0.85417000  0.15531000  1.0
  H  H28  1  0.30960000  0.35418000  0.15531000  1.0
  H  H29  1  0.80967000  0.14584000  0.84468000  1.0
  H  H30  1  0.12225000  0.33536000  0.03357000  1.0
  H  H31  1  0.62227000  0.16466000  0.96642000  1.0
  H  H32  1  0.87776000  0.66465000  0.96643000  1.0
  H  H33  1  0.37773000  0.83535000  0.03358000  1.0
  C  C34  1  0.30312000  0.80934000  0.90144000  1.0
  C  C35  1  0.80307000  0.69066000  0.09856000  1.0
  C  C36  1  0.69690000  0.19066000  0.09856000  1.0
  C  C37  1  0.19693000  0.30936000  0.90144000  1.0
  C  C38  1  0.36086000  0.77741000  0.82315000  1.0
  C  C39  1  0.86081000  0.72258000  0.17685000  1.0
  C  C40  1  0.63914000  0.22258000  0.17685000  1.0
  C  C41  1  0.13920000  0.27744000  0.82314000  1.0
  C  C42  1  0.44825000  0.67518000  0.57202000  1.0
  C  C43  1  0.94816000  0.82479000  0.42799000  1.0
  C  C44  1  0.55172000  0.32480000  0.42799000  1.0
  C  C45  1  0.05186000  0.17522000  0.57200000  1.0
  C  C46  1  0.22432000  0.82131000  0.75662000  1.0
  C  C47  1  0.72425000  0.67867000  0.24339000  1.0
  C  C48  1  0.77568000  0.17868000  0.24338000  1.0
  C  C49  1  0.27575000  0.32135000  0.75661000  1.0
  C  C50  1  0.34541000  0.75772000  0.69509000  1.0
  C  C51  1  0.84532000  0.74226000  0.30492000  1.0
  C  C52  1  0.65457000  0.24227000  0.30491000  1.0
  C  C53  1  0.15469000  0.25775000  0.69508000  1.0
  C  C54  1  0.56047000  0.67809000  0.72725000  1.0
  C  C55  1  0.06037000  0.82189000  0.27276000  1.0
  C  C56  1  0.43953000  0.32189000  0.27275000  1.0
  C  C57  1  0.93965000  0.17813000  0.72724000  1.0
  C  C58  1  0.72213000  0.59993000  0.68199000  1.0
  C  C59  1  0.22203000  0.90005000  0.31802000  1.0
  C  C60  1  0.27786000  0.40005000  0.31802000  1.0
  C  C61  1  0.77799000  0.09996000  0.68198000  1.0
  C  C62  1  0.29179000  0.75552000  0.61609000  1.0
  C  C63  1  0.79171000  0.74445000  0.38392000  1.0
  C  C64  1  0.70817000  0.24445000  0.38392000  1.0
  C  C65  1  0.20829000  0.25557000  0.61607000  1.0
  C  C66  1  0.66149000  0.59879000  0.60460000  1.0
  C  C67  1  0.16141000  0.90119000  0.39541000  1.0
  C  C68  1  0.33848000  0.40119000  0.39541000  1.0
  C  C69  1  0.83860000  0.09881000  0.60459000  1.0
  N  N70  1  0.56420000  0.69232000  0.80465000  1.0
  N  N71  1  0.06412000  0.80767000  0.19536000  1.0
  N  N72  1  0.43581000  0.30767000  0.19536000  1.0
  N  N73  1  0.93591000  0.19234000  0.80464000  1.0
  O  O74  1  0.38771000  0.72804000  0.96130000  1.0
  O  O75  1  0.88769000  0.77195000  0.03871000  1.0
  O  O76  1  0.61229000  0.27196000  0.03871000  1.0
  O  O77  1  0.11231000  0.22806000  0.96129000  1.0
  O  O78  1  0.15351000  0.41902000  0.06728000  1.0
  O  O79  1  0.65356000  0.08099000  0.93271000  1.0
  O  O80  1  0.84649000  0.58098000  0.93272000  1.0
  O  O81  1  0.34645000  0.91902000  0.06728000  1.0
  O  O82  1  0.16909000  0.92828000  0.90727000  1.0
  O  O83  1  0.66907000  0.57171000  0.09273000  1.0
  O  O84  1  0.83094000  0.07172000  0.09273000  1.0
  O  O85  1  0.33095000  0.42830000  0.90727000  1.0
