# generated using pymatgen
data_H22PbC27(NO)4
_symmetry_space_group_name_H-M   'P 1'
_cell_length_a   11.39920000
_cell_length_b   11.48350000
_cell_length_c   12.73280000
_cell_angle_alpha   63.55610000
_cell_angle_beta   66.49540000
_cell_angle_gamma   61.18420000
_symmetry_Int_Tables_number   1
_chemical_formula_structural   H22PbC27(NO)4
_chemical_formula_sum   'H44 Pb2 C54 N8 O8'
_cell_volume   1271.02594617
_cell_formula_units_Z   2
loop_
 _symmetry_equiv_pos_site_id
 _symmetry_equiv_pos_as_xyz
  1  'x, y, z'
loop_
 _atom_site_type_symbol
 _atom_site_label
 _atom_site_symmetry_multiplicity
 _atom_site_fract_x
 _atom_site_fract_y
 _atom_site_fract_z
 _atom_site_occupancy
  H  H0  1  0.50709000  0.73494000  0.95053000  1.0
  H  H1  1  0.49290000  0.26507000  0.04947000  1.0
  H  H2  1  0.33791000  0.96522000  0.98228000  1.0
  H  H3  1  0.66208000  0.03479000  0.01772000  1.0
  H  H4  1  0.08819000  0.00474000  0.06557000  1.0
  H  H5  1  0.91179000  0.99527000  0.93442000  1.0
  H  H6  1  0.00691000  0.81842000  0.10661000  1.0
  H  H7  1  0.99307000  0.18159000  0.89338000  1.0
  H  H8  1  0.64640000  0.36205000  0.48686000  1.0
  H  H9  1  0.35360000  0.63794000  0.51315000  1.0
  H  H10  1  0.50172000  0.41212000  0.68117000  1.0
  H  H11  1  0.49828000  0.58788000  0.31884000  1.0
  H  H12  1  0.57740000  0.50429000  0.77563000  1.0
  H  H13  1  0.42260000  0.49572000  0.22437000  1.0
  H  H14  1  0.79998000  0.54311000  0.67869000  1.0
  H  H15  1  0.20001000  0.45690000  0.32131000  1.0
  H  H16  1  0.35768000  0.07743000  0.06232000  1.0
  H  H17  1  0.64231000  0.92256000  0.93769000  1.0
  H  H18  1  0.55627000  0.85901000  0.12723000  1.0
  H  H19  1  0.44373000  0.14098000  0.87277000  1.0
  H  H20  1  0.38626000  0.90068000  0.48320000  1.0
  H  H21  1  0.61376000  0.09932000  0.51680000  1.0
  H  H22  1  0.19264000  0.11571000  0.40386000  1.0
  H  H23  1  0.80736000  0.88429000  0.59614000  1.0
  H  H24  1  0.65658000  0.66866000  0.30039000  1.0
  H  H25  1  0.34342000  0.33133000  0.69961000  1.0
  H  H26  1  0.59640000  0.69254000  0.44385000  1.0
  H  H27  1  0.40360000  0.30746000  0.55615000  1.0
  H  H28  1  0.83355000  0.71142000  0.31394000  1.0
  H  H29  1  0.16646000  0.28858000  0.68606000  1.0
  H  H30  1  0.74158000  0.87178000  0.21875000  1.0
  H  H31  1  0.25841000  0.12822000  0.78125000  1.0
  H  H32  1  0.72706000  0.79703000  0.48532000  1.0
  H  H33  1  0.27294000  0.20298000  0.51467000  1.0
  H  H34  1  0.59881000  0.94514000  0.41397000  1.0
  H  H35  1  0.40119000  0.05486000  0.58603000  1.0
  H  H36  1  0.64311000  0.15276000  0.26149000  1.0
  H  H37  1  0.35689000  0.84724000  0.73851000  1.0
  H  H38  1  0.78745000  0.29408000  0.18693000  1.0
  H  H39  1  0.21256000  0.70593000  0.81308000  1.0
  H  H40  1  0.10363000  0.95167000  0.33523000  1.0
  H  H41  1  0.89638000  0.04833000  0.66477000  1.0
  H  H42  1  0.97014000  0.79757000  0.42141000  1.0
  H  H43  1  0.02986000  0.20242000  0.57858000  1.0
  Pb  Pb44  1  0.07122000  0.32847000  0.14098000  1.0
  Pb  Pb45  1  0.92880000  0.67151000  0.85903000  1.0
  C  C46  1  0.15715000  0.56333000  0.08020000  1.0
  C  C47  1  0.84284000  0.43668000  0.91979000  1.0
  C  C48  1  0.20868000  0.67465000  0.05216000  1.0
  C  C49  1  0.79131000  0.32535000  0.94784000  1.0
  C  C50  1  0.35035000  0.65121000  0.01083000  1.0
  C  C51  1  0.64964000  0.34880000  0.98916000  1.0
  C  C52  1  0.39695000  0.75578000  0.98603000  1.0
  C  C53  1  0.60304000  0.24423000  0.01397000  1.0
  C  C54  1  0.30197000  0.88300000  0.00429000  1.0
  C  C55  1  0.69802000  0.11701000  0.99570000  1.0
  C  C56  1  0.16170000  0.90604000  0.04916000  1.0
  C  C57  1  0.83828000  0.09397000  0.95083000  1.0
  C  C58  1  0.11588000  0.80235000  0.07198000  1.0
  C  C59  1  0.88411000  0.19766000  0.92801000  1.0
  C  C60  1  0.88540000  0.39552000  0.35672000  1.0
  C  C61  1  0.11460000  0.60448000  0.64329000  1.0
  C  C62  1  0.80363000  0.42227000  0.47499000  1.0
  C  C63  1  0.19637000  0.57773000  0.52502000  1.0
  C  C64  1  0.67979000  0.39949000  0.53099000  1.0
  C  C65  1  0.32021000  0.60051000  0.46902000  1.0
  C  C66  1  0.59941000  0.42748000  0.63930000  1.0
  C  C67  1  0.40059000  0.57252000  0.36070000  1.0
  C  C68  1  0.64213000  0.47954000  0.69250000  1.0
  C  C69  1  0.35787000  0.52047000  0.30751000  1.0
  C  C70  1  0.76629000  0.50068000  0.63922000  1.0
  C  C71  1  0.23371000  0.49932000  0.36078000  1.0
  C  C72  1  0.84809000  0.47139000  0.53074000  1.0
  C  C73  1  0.15191000  0.52862000  0.46927000  1.0
  C  C74  1  0.36857000  0.03494000  0.15499000  1.0
  C  C75  1  0.63143000  0.96505000  0.84501000  1.0
  C  C76  1  0.47936000  0.91488000  0.19076000  1.0
  C  C77  1  0.52064000  0.08511000  0.80924000  1.0
  C  C78  1  0.49190000  0.86504000  0.30971000  1.0
  C  C79  1  0.50810000  0.13496000  0.69028000  1.0
  C  C80  1  0.38536000  0.93724000  0.38836000  1.0
  C  C81  1  0.61465000  0.06275000  0.61164000  1.0
  C  C82  1  0.27692000  0.05645000  0.34558000  1.0
  C  C83  1  0.72309000  0.94354000  0.65443000  1.0
  C  C84  1  0.61890000  0.74617000  0.34612000  1.0
  C  C85  1  0.38110000  0.25383000  0.65388000  1.0
  C  C86  1  0.73415000  0.80000000  0.31204000  1.0
  C  C87  1  0.26586000  0.20000000  0.68796000  1.0
  C  C88  1  0.70792000  0.87546000  0.39772000  1.0
  C  C89  1  0.29208000  0.12454000  0.60227000  1.0
  C  C90  1  0.79447000  0.96211000  0.34839000  1.0
  C  C91  1  0.20554000  0.03789000  0.65161000  1.0
  C  C92  1  0.74478000  0.10372000  0.28036000  1.0
  C  C93  1  0.25522000  0.89629000  0.71963000  1.0
  C  C94  1  0.82551000  0.18285000  0.23740000  1.0
  C  C95  1  0.17449000  0.81716000  0.76260000  1.0
  C  C96  1  0.00084000  0.99291000  0.32068000  1.0
  C  C97  1  0.99917000  0.00708000  0.67932000  1.0
  C  C98  1  0.92643000  0.90647000  0.36785000  1.0
  C  C99  1  0.07358000  0.09353000  0.63215000  1.0
  N  N100  1  0.44498000  0.52619000  0.98324000  1.0
  N  N101  1  0.55501000  0.47382000  0.01676000  1.0
  N  N102  1  0.96715000  0.50607000  0.46681000  1.0
  N  N103  1  0.03285000  0.49394000  0.53320000  1.0
  N  N104  1  0.26946000  0.10605000  0.22995000  1.0
  N  N105  1  0.73055000  0.89395000  0.77005000  1.0
  N  N106  1  0.95194000  0.12909000  0.25676000  1.0
  N  N107  1  0.04807000  0.87091000  0.74325000  1.0
  O  O108  1  0.23383000  0.43542000  0.12013000  1.0
  O  O109  1  0.76617000  0.56458000  0.87987000  1.0
  O  O110  1  0.03840000  0.60251000  0.06401000  1.0
  O  O111  1  0.96159000  0.39749000  0.93599000  1.0
  O  O112  1  0.01572000  0.32546000  0.34460000  1.0
  O  O113  1  0.98428000  0.67454000  0.65540000  1.0
  O  O114  1  0.82357000  0.44090000  0.27480000  1.0
  O  O115  1  0.17643000  0.55909000  0.72521000  1.0
