# generated using pymatgen
data_CuH12C13SN7
_symmetry_space_group_name_H-M   'P 1'
_cell_length_a   5.48831000
_cell_length_b   10.31229831
_cell_length_c   15.19260000
_cell_angle_alpha   90.00021936
_cell_angle_beta   90.00100000
_cell_angle_gamma   79.40182518
_symmetry_Int_Tables_number   1
_chemical_formula_structural   CuH12C13SN7
_chemical_formula_sum   'Cu2 H24 C26 S2 N14'
_cell_volume   845.18882832
_cell_formula_units_Z   2
loop_
 _symmetry_equiv_pos_site_id
 _symmetry_equiv_pos_as_xyz
  1  'x, y, z'
loop_
 _atom_site_type_symbol
 _atom_site_label
 _atom_site_symmetry_multiplicity
 _atom_site_fract_x
 _atom_site_fract_y
 _atom_site_fract_z
 _atom_site_occupancy
  Cu  Cu0  1  0.92285000  0.59649000  0.25000000  1.0
  Cu  Cu1  1  0.07715000  0.40351000  0.75000000  1.0
  H  H2  1  0.41074000  0.54915000  0.38815000  1.0
  H  H3  1  0.58924000  0.45085000  0.88816000  1.0
  H  H4  1  0.58926000  0.45084000  0.61184000  1.0
  H  H5  1  0.41075000  0.54916000  0.11184000  1.0
  H  H6  1  0.79992000  0.35573000  0.37490000  1.0
  H  H7  1  0.20005000  0.64427000  0.87490000  1.0
  H  H8  1  0.20007000  0.64427000  0.62509000  1.0
  H  H9  1  0.79995000  0.35573000  0.12509000  1.0
  H  H10  1  0.91190000  0.19701000  0.49922000  1.0
  H  H11  1  0.08810000  0.80298000  0.99922000  1.0
  H  H12  1  0.08808000  0.80299000  0.50078000  1.0
  H  H13  1  0.91194000  0.19701000  0.00077000  1.0
  H  H14  1  0.07888000  0.26217000  0.58347000  1.0
  H  H15  1  0.92111000  0.73783000  0.08348000  1.0
  H  H16  1  0.92109000  0.73784000  0.41653000  1.0
  H  H17  1  0.07892000  0.26217000  0.91652000  1.0
  H  H18  1  0.15462000  0.02621000  0.39152000  1.0
  H  H19  1  0.84540000  0.97378000  0.89152000  1.0
  H  H20  1  0.84538000  0.97379000  0.60848000  1.0
  H  H21  1  0.15465000  0.02622000  0.10848000  1.0
  H  H22  1  0.50799000  0.83982000  0.37743000  1.0
  H  H23  1  0.49201000  0.16019000  0.87742000  1.0
  H  H24  1  0.49199000  0.16018000  0.62258000  1.0
  H  H25  1  0.50803000  0.83983000  0.12258000  1.0
  C  C26  1  0.36854000  0.71504000  0.25000000  1.0
  C  C27  1  0.63143000  0.28496000  0.75000000  1.0
  C  C28  1  0.28511000  0.48120000  0.40026000  1.0
  C  C29  1  0.71486000  0.51880000  0.90026000  1.0
  C  C30  1  0.71490000  0.51879000  0.59974000  1.0
  C  C31  1  0.28513000  0.48121000  0.09974000  1.0
  C  C32  1  0.97435000  0.38513000  0.39135000  1.0
  C  C33  1  0.02563000  0.61487000  0.89135000  1.0
  C  C34  1  0.02565000  0.61486000  0.60865000  1.0
  C  C35  1  0.97435000  0.38514000  0.10865000  1.0
  C  C36  1  0.09156000  0.22295000  0.51603000  1.0
  C  C37  1  0.90845000  0.77703000  0.01603000  1.0
  C  C38  1  0.90842000  0.77704000  0.48397000  1.0
  C  C39  1  0.09159000  0.22296000  0.98397000  1.0
  C  C40  1  0.30030000  0.10613000  0.50820000  1.0
  C  C41  1  0.69968000  0.89387000  0.00822000  1.0
  C  C42  1  0.69967000  0.89386000  0.49179000  1.0
  C  C43  1  0.30034000  0.10614000  0.99181000  1.0
  C  C44  1  0.30627000  0.01574000  0.43912000  1.0
  C  C45  1  0.69373000  0.98427000  0.93913000  1.0
  C  C46  1  0.69371000  0.98426000  0.56088000  1.0
  C  C47  1  0.30630000  0.01575000  0.06088000  1.0
  C  C48  1  0.50466000  0.91043000  0.43098000  1.0
  C  C49  1  0.49531000  0.08959000  0.93098000  1.0
  C  C50  1  0.49530000  0.08958000  0.56902000  1.0
  C  C51  1  0.50469000  0.91044000  0.06903000  1.0
  S  S52  1  0.08176000  0.79371000  0.25000000  1.0
  S  S53  1  0.91828000  0.20626000  0.75000000  1.0
  N  N54  1  0.57632000  0.65667000  0.25000000  1.0
  N  N55  1  0.42368000  0.34331000  0.75000000  1.0
  N  N56  1  0.07016000  0.48224000  0.35419000  1.0
  N  N57  1  0.92982000  0.51776000  0.85419000  1.0
  N  N58  1  0.92985000  0.51775000  0.64581000  1.0
  N  N59  1  0.07016000  0.48226000  0.14581000  1.0
  N  N60  1  0.12517000  0.32961000  0.45621000  1.0
  N  N61  1  0.87482000  0.67039000  0.95621000  1.0
  N  N62  1  0.87482000  0.67039000  0.54379000  1.0
  N  N63  1  0.12520000  0.32961000  0.04378000  1.0
  N  N64  1  0.32534000  0.38960000  0.46290000  1.0
  N  N65  1  0.67465000  0.61040000  0.96290000  1.0
  N  N66  1  0.67465000  0.61040000  0.53710000  1.0
  N  N67  1  0.32536000  0.38961000  0.03710000  1.0
