# generated using pymatgen
data_Zn3In2H36(C3N2)12
_symmetry_space_group_name_H-M   'P 1'
_cell_length_a   19.07507442
_cell_length_b   19.07480000
_cell_length_c   19.07500000
_cell_angle_alpha   109.47100000
_cell_angle_beta   109.47200765
_cell_angle_gamma   109.47115808
_symmetry_Int_Tables_number   1
_chemical_formula_structural   Zn3In2H36(C3N2)12
_chemical_formula_sum   'Zn12 In8 H144 C144 N96'
_cell_volume   5342.76644316
_cell_formula_units_Z   4
loop_
 _symmetry_equiv_pos_site_id
 _symmetry_equiv_pos_as_xyz
  1  'x, y, z'
loop_
 _atom_site_type_symbol
 _atom_site_label
 _atom_site_symmetry_multiplicity
 _atom_site_fract_x
 _atom_site_fract_y
 _atom_site_fract_z
 _atom_site_occupancy
  Zn  Zn0  1  0.87500000  0.12500000  0.25000000  1.0
  Zn  Zn1  1  0.12500000  0.25000000  0.87500000  1.0
  Zn  Zn2  1  0.25000000  0.87500000  0.12500000  1.0
  Zn  Zn3  1  0.37500000  0.62500000  0.25000000  1.0
  Zn  Zn4  1  0.12500000  0.87500000  0.75000000  1.0
  Zn  Zn5  1  0.75000000  0.12500000  0.87500000  1.0
  Zn  Zn6  1  0.25000000  0.37500000  0.62500000  1.0
  Zn  Zn7  1  0.87500000  0.75000000  0.12500000  1.0
  Zn  Zn8  1  0.62500000  0.25000000  0.37500000  1.0
  Zn  Zn9  1  0.62500000  0.37500000  0.75000000  1.0
  Zn  Zn10  1  0.37500000  0.75000000  0.62500000  1.0
  Zn  Zn11  1  0.75000000  0.62500000  0.37500000  1.0
  In  In12  1  0.00000000  0.00000000  0.00000000  1.0
  In  In13  1  0.00000000  0.50000000  0.00000000  1.0
  In  In14  1  0.00000000  0.00000000  0.50000000  1.0
  In  In15  1  0.50000000  0.00000000  0.00000000  1.0
  In  In16  1  0.50000000  0.50000000  0.50000000  1.0
  In  In17  1  0.00000000  0.50000000  0.50000000  1.0
  In  In18  1  0.50000000  0.00000000  0.50000000  1.0
  In  In19  1  0.50000000  0.50000000  0.00000000  1.0
  H  H20  1  0.07907000  0.88012000  0.05202000  1.0
  H  H21  1  0.88013000  0.05203000  0.07908000  1.0
  H  H22  1  0.05203000  0.07908000  0.88013000  1.0
  H  H23  1  0.97295000  0.67190000  0.05202000  1.0
  H  H24  1  0.88013000  0.82810000  0.30106000  1.0
  H  H25  1  0.52705000  0.07908000  0.19895000  1.0
  H  H26  1  0.19895000  0.52705000  0.07908000  1.0
  H  H27  1  0.30105000  0.88012000  0.82810000  1.0
  H  H28  1  0.05203000  0.97296000  0.67190000  1.0
  H  H29  1  0.82810000  0.30105000  0.88013000  1.0
  H  H30  1  0.07907000  0.19894000  0.52704000  1.0
  H  H31  1  0.67190000  0.05203000  0.97295000  1.0
  H  H32  1  0.61987000  0.42092000  0.44797000  1.0
  H  H33  1  0.44797000  0.61987000  0.42092000  1.0
  H  H34  1  0.42093000  0.44797000  0.61987000  1.0
  H  H35  1  0.82810000  0.52705000  0.44797000  1.0
  H  H36  1  0.42093000  0.97296000  0.30106000  1.0
  H  H37  1  0.67190000  0.61987000  0.19895000  1.0
  H  H38  1  0.52704000  0.44797000  0.82810000  1.0
  H  H39  1  0.97295000  0.30105000  0.42092000  1.0
  H  H40  1  0.61987000  0.19894000  0.67190000  1.0
  H  H41  1  0.44797000  0.82810000  0.52704000  1.0
  H  H42  1  0.30105000  0.42092000  0.97295000  1.0
  H  H43  1  0.19895000  0.67190000  0.61988000  1.0
  H  H44  1  0.92093000  0.11988000  0.94798000  1.0
  H  H45  1  0.11987000  0.94797000  0.92092000  1.0
  H  H46  1  0.94797000  0.92092000  0.11987000  1.0
  H  H47  1  0.02705000  0.32810000  0.94798000  1.0
  H  H48  1  0.11987000  0.17190000  0.69894000  1.0
  H  H49  1  0.47295000  0.92092000  0.80105000  1.0
  H  H50  1  0.80105000  0.47295000  0.92092000  1.0
  H  H51  1  0.69895000  0.11988000  0.17190000  1.0
  H  H52  1  0.94797000  0.02704000  0.32810000  1.0
  H  H53  1  0.17190000  0.69895000  0.11987000  1.0
  H  H54  1  0.92093000  0.80106000  0.47296000  1.0
  H  H55  1  0.32810000  0.94797000  0.02705000  1.0
  H  H56  1  0.38013000  0.57908000  0.55203000  1.0
  H  H57  1  0.55203000  0.38013000  0.57908000  1.0
  H  H58  1  0.57907000  0.55203000  0.38013000  1.0
  H  H59  1  0.17190000  0.47295000  0.55203000  1.0
  H  H60  1  0.57907000  0.02704000  0.69894000  1.0
  H  H61  1  0.32810000  0.38013000  0.80105000  1.0
  H  H62  1  0.47296000  0.55203000  0.17190000  1.0
  H  H63  1  0.02705000  0.69895000  0.57908000  1.0
  H  H64  1  0.38013000  0.80106000  0.32810000  1.0
  H  H65  1  0.55203000  0.17190000  0.47296000  1.0
  H  H66  1  0.69895000  0.57908000  0.02705000  1.0
  H  H67  1  0.80105000  0.32810000  0.38012000  1.0
  H  H68  1  0.22174000  0.13353000  0.10832000  1.0
  H  H69  1  0.13353000  0.10832000  0.22174000  1.0
  H  H70  1  0.10832000  0.22174000  0.13353000  1.0
  H  H71  1  0.88658000  0.47479000  0.10832000  1.0
  H  H72  1  0.13353000  0.02521000  0.41179000  1.0
  H  H73  1  0.61342000  0.22174000  0.08821000  1.0
  H  H74  1  0.08821000  0.61342000  0.22174000  1.0
  H  H75  1  0.41179000  0.13353000  0.02522000  1.0
  H  H76  1  0.10832000  0.88658000  0.47479000  1.0
  H  H77  1  0.02521000  0.41179000  0.13353000  1.0
  H  H78  1  0.22174000  0.08821000  0.61342000  1.0
  H  H79  1  0.47479000  0.10832000  0.88658000  1.0
  H  H80  1  0.36647000  0.27826000  0.39168000  1.0
  H  H81  1  0.39168000  0.36647000  0.27826000  1.0
  H  H82  1  0.27826000  0.39168000  0.36648000  1.0
  H  H83  1  0.02521000  0.61342000  0.39168000  1.0
  H  H84  1  0.27826000  0.88658000  0.41179000  1.0
  H  H85  1  0.47479000  0.36647000  0.08821000  1.0
  H  H86  1  0.61342000  0.39168000  0.02520000  1.0
  H  H87  1  0.88658000  0.41179000  0.27826000  1.0
  H  H88  1  0.36647000  0.08821000  0.47479000  1.0
  H  H89  1  0.39168000  0.02521000  0.61342000  1.0
  H  H90  1  0.41179000  0.27826000  0.88658000  1.0
  H  H91  1  0.08821000  0.47479000  0.36647000  1.0
  H  H92  1  0.77826000  0.86647000  0.89169000  1.0
  H  H93  1  0.86647000  0.89168000  0.77826000  1.0
  H  H94  1  0.89168000  0.77826000  0.86647000  1.0
  H  H95  1  0.11342000  0.52521000  0.89168000  1.0
  H  H96  1  0.86647000  0.97479000  0.58821000  1.0
  H  H97  1  0.38658000  0.77826000  0.91179000  1.0
  H  H98  1  0.91179000  0.38658000  0.77826000  1.0
  H  H99  1  0.58821000  0.86647000  0.97479000  1.0
  H  H100  1  0.89168000  0.11342000  0.52521000  1.0
  H  H101  1  0.97479000  0.58821000  0.86647000  1.0
  H  H102  1  0.77826000  0.91179000  0.38658000  1.0
  H  H103  1  0.52521000  0.89168000  0.11342000  1.0
  H  H104  1  0.63353000  0.72174000  0.60832000  1.0
  H  H105  1  0.60832000  0.63353000  0.72174000  1.0
  H  H106  1  0.72174000  0.60832000  0.63352000  1.0
  H  H107  1  0.97479000  0.38658000  0.60832000  1.0
  H  H108  1  0.72174000  0.11342000  0.58821000  1.0
  H  H109  1  0.52521000  0.63353000  0.91179000  1.0
  H  H110  1  0.38658000  0.60832000  0.97480000  1.0
  H  H111  1  0.11342000  0.58821000  0.72174000  1.0
  H  H112  1  0.63353000  0.91179000  0.52521000  1.0
  H  H113  1  0.60832000  0.97479000  0.38658000  1.0
  H  H114  1  0.58821000  0.72174000  0.11342000  1.0
  H  H115  1  0.91179000  0.52521000  0.63353000  1.0
  H  H116  1  0.33299000  0.07288000  0.15602000  1.0
  H  H117  1  0.07288000  0.15601000  0.33299000  1.0
  H  H118  1  0.15602000  0.33299000  0.07288000  1.0
  H  H119  1  0.82303000  0.58314000  0.15602000  1.0
  H  H120  1  0.07288000  0.91686000  0.23989000  1.0
  H  H121  1  0.67697000  0.33299000  0.26011000  1.0
  H  H122  1  0.26011000  0.67697000  0.33299000  1.0
  H  H123  1  0.23989000  0.07288000  0.91686000  1.0
  H  H124  1  0.15602000  0.82303000  0.58314000  1.0
  H  H125  1  0.91686000  0.23989000  0.07288000  1.0
  H  H126  1  0.33299000  0.26011000  0.67697000  1.0
  H  H127  1  0.58313000  0.15601000  0.82302000  1.0
  H  H128  1  0.42712000  0.16701000  0.34398000  1.0
  H  H129  1  0.34398000  0.42711000  0.16701000  1.0
  H  H130  1  0.16701000  0.34398000  0.42712000  1.0
  H  H131  1  0.91686000  0.67697000  0.34398000  1.0
  H  H132  1  0.16701000  0.82303000  0.23989000  1.0
  H  H133  1  0.58313000  0.42711000  0.26010000  1.0
  H  H134  1  0.67697000  0.34398000  0.91686000  1.0
  H  H135  1  0.82303000  0.23989000  0.16701000  1.0
  H  H136  1  0.42712000  0.26011000  0.58314000  1.0
  H  H137  1  0.34398000  0.91686000  0.67697000  1.0
  H  H138  1  0.23989000  0.16701000  0.82303000  1.0
  H  H139  1  0.26011000  0.58314000  0.42712000  1.0
  H  H140  1  0.66701000  0.92712000  0.84398000  1.0
  H  H141  1  0.92712000  0.84399000  0.66701000  1.0
  H  H142  1  0.84398000  0.66701000  0.92712000  1.0
  H  H143  1  0.17697000  0.41686000  0.84398000  1.0
  H  H144  1  0.92712000  0.08314000  0.76011000  1.0
  H  H145  1  0.32303000  0.66701000  0.73989000  1.0
  H  H146  1  0.73989000  0.32303000  0.66701000  1.0
  H  H147  1  0.76011000  0.92712000  0.08314000  1.0
  H  H148  1  0.84398000  0.17697000  0.41686000  1.0
  H  H149  1  0.08314000  0.76011000  0.92712000  1.0
  H  H150  1  0.66701000  0.73989000  0.32303000  1.0
  H  H151  1  0.41687000  0.84399000  0.17698000  1.0
  H  H152  1  0.57288000  0.83299000  0.65602000  1.0
  H  H153  1  0.65602000  0.57289000  0.83299000  1.0
  H  H154  1  0.83299000  0.65602000  0.57288000  1.0
  H  H155  1  0.08314000  0.32303000  0.65602000  1.0
  H  H156  1  0.83299000  0.17697000  0.76011000  1.0
  H  H157  1  0.41687000  0.57289000  0.73990000  1.0
  H  H158  1  0.32303000  0.65602000  0.08314000  1.0
  H  H159  1  0.17697000  0.76011000  0.83299000  1.0
  H  H160  1  0.57288000  0.73989000  0.41686000  1.0
  H  H161  1  0.65602000  0.08314000  0.32303000  1.0
  H  H162  1  0.76011000  0.83299000  0.17697000  1.0
  H  H163  1  0.73989000  0.41686000  0.57288000  1.0
  C  C164  1  0.13325000  0.94114000  0.07442000  1.0
  C  C165  1  0.94113000  0.07441000  0.13324000  1.0
  C  C166  1  0.07442000  0.13325000  0.94114000  1.0
  C  C167  1  0.94117000  0.63328000  0.07442000  1.0
  C  C168  1  0.94113000  0.86671000  0.30788000  1.0
  C  C169  1  0.55883000  0.13325000  0.19211000  1.0
  C  C170  1  0.19211000  0.55883000  0.13324000  1.0
  C  C171  1  0.30789000  0.94114000  0.86672000  1.0
  C  C172  1  0.07442000  0.94118000  0.63329000  1.0
  C  C173  1  0.86671000  0.30788000  0.94113000  1.0
  C  C174  1  0.13325000  0.19212000  0.55883000  1.0
  C  C175  1  0.63328000  0.07441000  0.94117000  1.0
  C  C176  1  0.55886000  0.36675000  0.42558000  1.0
  C  C177  1  0.42558000  0.55887000  0.36675000  1.0
  C  C178  1  0.36675000  0.42558000  0.55886000  1.0
  C  C179  1  0.86672000  0.55883000  0.42559000  1.0
  C  C180  1  0.36675000  0.94117000  0.30788000  1.0
  C  C181  1  0.63329000  0.55887000  0.19212000  1.0
  C  C182  1  0.55883000  0.42558000  0.86672000  1.0
  C  C183  1  0.94117000  0.30788000  0.36675000  1.0
  C  C184  1  0.55887000  0.19212000  0.63329000  1.0
  C  C185  1  0.42558000  0.86671000  0.55883000  1.0
  C  C186  1  0.30789000  0.36675000  0.94117000  1.0
  C  C187  1  0.19211000  0.63328000  0.55886000  1.0
  C  C188  1  0.86675000  0.05886000  0.92558000  1.0
  C  C189  1  0.05887000  0.92559000  0.86676000  1.0
  C  C190  1  0.92558000  0.86675000  0.05887000  1.0
  C  C191  1  0.05883000  0.36672000  0.92558000  1.0
  C  C192  1  0.05887000  0.13329000  0.69212000  1.0
  C  C193  1  0.44117000  0.86675000  0.80789000  1.0
  C  C194  1  0.80789000  0.44117000  0.86676000  1.0
  C  C195  1  0.69211000  0.05886000  0.13328000  1.0
  C  C196  1  0.92558000  0.05882000  0.36671000  1.0
  C  C197  1  0.13328000  0.69211000  0.05886000  1.0
  C  C198  1  0.86675000  0.80788000  0.44117000  1.0
  C  C199  1  0.36672000  0.92559000  0.05883000  1.0
  C  C200  1  0.44114000  0.63325000  0.57442000  1.0
  C  C201  1  0.57442000  0.44113000  0.63325000  1.0
  C  C202  1  0.63324000  0.57441000  0.44113000  1.0
  C  C203  1  0.13328000  0.44117000  0.57441000  1.0
  C  C204  1  0.63324000  0.05882000  0.69211000  1.0
  C  C205  1  0.36671000  0.44113000  0.80788000  1.0
  C  C206  1  0.44117000  0.57442000  0.13328000  1.0
  C  C207  1  0.05883000  0.69211000  0.63325000  1.0
  C  C208  1  0.44113000  0.80788000  0.36671000  1.0
  C  C209  1  0.57442000  0.13329000  0.44117000  1.0
  C  C210  1  0.69211000  0.63325000  0.05883000  1.0
  C  C211  1  0.80789000  0.36672000  0.44114000  1.0
  C  C212  1  0.20866000  0.07196000  0.10410000  1.0
  C  C213  1  0.07196000  0.10410000  0.20866000  1.0
  C  C214  1  0.10410000  0.20866000  0.07196000  1.0
  C  C215  1  0.89544000  0.53214000  0.10410000  1.0
  C  C216  1  0.07196000  0.96786000  0.36330000  1.0
  C  C217  1  0.60456000  0.20866000  0.13670000  1.0
  C  C218  1  0.13670000  0.60456000  0.20866000  1.0
  C  C219  1  0.36330000  0.07196000  0.96786000  1.0
  C  C220  1  0.10410000  0.89544000  0.53214000  1.0
  C  C221  1  0.96786000  0.36330000  0.07196000  1.0
  C  C222  1  0.20866000  0.13670000  0.60456000  1.0
  C  C223  1  0.53214000  0.10410000  0.89544000  1.0
  C  C224  1  0.42804000  0.29134000  0.39590000  1.0
  C  C225  1  0.39590000  0.42804000  0.29134000  1.0
  C  C226  1  0.29134000  0.39590000  0.42804000  1.0
  C  C227  1  0.96786000  0.60456000  0.39590000  1.0
  C  C228  1  0.29134000  0.89544000  0.36330000  1.0
  C  C229  1  0.53214000  0.42804000  0.13670000  1.0
  C  C230  1  0.60456000  0.39590000  0.96786000  1.0
  C  C231  1  0.89544000  0.36330000  0.29134000  1.0
  C  C232  1  0.42804000  0.13670000  0.53214000  1.0
  C  C233  1  0.39590000  0.96786000  0.60456000  1.0
  C  C234  1  0.36330000  0.29134000  0.89544000  1.0
  C  C235  1  0.13670000  0.53214000  0.42804000  1.0
  C  C236  1  0.79134000  0.92804000  0.89590000  1.0
  C  C237  1  0.92804000  0.89590000  0.79134000  1.0
  C  C238  1  0.89590000  0.79134000  0.92804000  1.0
  C  C239  1  0.10456000  0.46786000  0.89590000  1.0
  C  C240  1  0.92804000  0.03214000  0.63670000  1.0
  C  C241  1  0.39544000  0.79134000  0.86330000  1.0
  C  C242  1  0.86330000  0.39544000  0.79134000  1.0
  C  C243  1  0.63670000  0.92804000  0.03214000  1.0
  C  C244  1  0.89590000  0.10456000  0.46786000  1.0
  C  C245  1  0.03214000  0.63670000  0.92804000  1.0
  C  C246  1  0.79134000  0.86330000  0.39544000  1.0
  C  C247  1  0.46786000  0.89590000  0.10456000  1.0
  C  C248  1  0.57196000  0.70866000  0.60410000  1.0
  C  C249  1  0.60410000  0.57196000  0.70866000  1.0
  C  C250  1  0.70866000  0.60410000  0.57196000  1.0
  C  C251  1  0.03214000  0.39544000  0.60410000  1.0
  C  C252  1  0.70866000  0.10456000  0.63670000  1.0
  C  C253  1  0.46786000  0.57196000  0.86330000  1.0
  C  C254  1  0.39544000  0.60410000  0.03214000  1.0
  C  C255  1  0.10456000  0.63670000  0.70866000  1.0
  C  C256  1  0.57196000  0.86330000  0.46786000  1.0
  C  C257  1  0.60410000  0.03214000  0.39544000  1.0
  C  C258  1  0.63670000  0.70866000  0.10456000  1.0
  C  C259  1  0.86330000  0.46786000  0.57196000  1.0
  C  C260  1  0.26370000  0.04162000  0.12762000  1.0
  C  C261  1  0.04162000  0.12763000  0.26370000  1.0
  C  C262  1  0.12762000  0.26369000  0.04161000  1.0
  C  C263  1  0.86393000  0.58601000  0.12763000  1.0
  C  C264  1  0.04162000  0.91400000  0.27792000  1.0
  C  C265  1  0.63607000  0.26369000  0.22208000  1.0
  C  C266  1  0.22208000  0.63607000  0.26369000  1.0
  C  C267  1  0.27792000  0.04162000  0.91399000  1.0
  C  C268  1  0.12762000  0.86392000  0.58601000  1.0
  C  C269  1  0.91399000  0.27792000  0.04162000  1.0
  C  C270  1  0.26370000  0.22208000  0.63607000  1.0
  C  C271  1  0.58601000  0.12763000  0.86393000  1.0
  C  C272  1  0.45838000  0.23630000  0.37237000  1.0
  C  C273  1  0.37238000  0.45839000  0.23631000  1.0
  C  C274  1  0.23630000  0.37237000  0.45838000  1.0
  C  C275  1  0.91399000  0.63607000  0.37237000  1.0
  C  C276  1  0.23630000  0.86393000  0.27791000  1.0
  C  C277  1  0.58601000  0.45838000  0.22208000  1.0
  C  C278  1  0.63607000  0.37237000  0.91398000  1.0
  C  C279  1  0.86393000  0.27792000  0.23631000  1.0
  C  C280  1  0.45838000  0.22208000  0.58601000  1.0
  C  C281  1  0.37238000  0.91400000  0.63608000  1.0
  C  C282  1  0.27792000  0.23630000  0.86393000  1.0
  C  C283  1  0.22208000  0.58601000  0.45838000  1.0
  C  C284  1  0.73630000  0.95838000  0.87238000  1.0
  C  C285  1  0.95838000  0.87237000  0.73630000  1.0
  C  C286  1  0.87237000  0.73630000  0.95838000  1.0
  C  C287  1  0.13607000  0.41399000  0.87237000  1.0
  C  C288  1  0.95838000  0.08600000  0.72208000  1.0
  C  C289  1  0.36393000  0.73631000  0.77792000  1.0
  C  C290  1  0.77792000  0.36393000  0.73631000  1.0
  C  C291  1  0.72208000  0.95838000  0.08600000  1.0
  C  C292  1  0.87238000  0.13608000  0.41399000  1.0
  C  C293  1  0.08601000  0.72208000  0.95839000  1.0
  C  C294  1  0.73630000  0.77792000  0.36393000  1.0
  C  C295  1  0.41399000  0.87237000  0.13607000  1.0
  C  C296  1  0.54162000  0.76370000  0.62763000  1.0
  C  C297  1  0.62763000  0.54162000  0.76370000  1.0
  C  C298  1  0.76370000  0.62763000  0.54161000  1.0
  C  C299  1  0.08601000  0.36393000  0.62762000  1.0
  C  C300  1  0.76370000  0.13607000  0.72209000  1.0
  C  C301  1  0.41399000  0.54161000  0.77792000  1.0
  C  C302  1  0.36392000  0.62762000  0.08601000  1.0
  C  C303  1  0.13607000  0.72208000  0.76369000  1.0
  C  C304  1  0.54162000  0.77792000  0.41399000  1.0
  C  C305  1  0.62762000  0.08600000  0.36392000  1.0
  C  C306  1  0.72208000  0.76370000  0.13607000  1.0
  C  C307  1  0.77792000  0.41399000  0.54162000  1.0
  N  N308  1  0.21527000  0.95848000  0.10830000  1.0
  N  N309  1  0.95848000  0.10830000  0.21527000  1.0
  N  N310  1  0.10830000  0.21527000  0.95848000  1.0
  N  N311  1  0.89303000  0.64982000  0.10830000  1.0
  N  N312  1  0.95848000  0.85018000  0.24321000  1.0
  N  N313  1  0.60697000  0.21527000  0.25679000  1.0
  N  N314  1  0.25679000  0.60697000  0.21527000  1.0
  N  N315  1  0.24321000  0.95848000  0.85018000  1.0
  N  N316  1  0.10830000  0.89303000  0.64982000  1.0
  N  N317  1  0.85018000  0.24321000  0.95848000  1.0
  N  N318  1  0.21527000  0.25679000  0.60697000  1.0
  N  N319  1  0.64982000  0.10830000  0.89303000  1.0
  N  N320  1  0.54152000  0.28473000  0.39170000  1.0
  N  N321  1  0.39170000  0.54152000  0.28473000  1.0
  N  N322  1  0.28473000  0.39170000  0.54152000  1.0
  N  N323  1  0.85018000  0.60697000  0.39170000  1.0
  N  N324  1  0.28473000  0.89303000  0.24321000  1.0
  N  N325  1  0.64982000  0.54152000  0.25679000  1.0
  N  N326  1  0.60697000  0.39170000  0.85018000  1.0
  N  N327  1  0.89303000  0.24321000  0.28473000  1.0
  N  N328  1  0.54152000  0.25679000  0.64982000  1.0
  N  N329  1  0.39170000  0.85018000  0.60697000  1.0
  N  N330  1  0.24321000  0.28473000  0.89303000  1.0
  N  N331  1  0.25679000  0.64982000  0.54152000  1.0
  N  N332  1  0.78473000  0.04152000  0.89170000  1.0
  N  N333  1  0.04152000  0.89170000  0.78473000  1.0
  N  N334  1  0.89170000  0.78473000  0.04152000  1.0
  N  N335  1  0.10697000  0.35018000  0.89170000  1.0
  N  N336  1  0.04152000  0.14982000  0.75679000  1.0
  N  N337  1  0.39303000  0.78473000  0.74321000  1.0
  N  N338  1  0.74321000  0.39303000  0.78473000  1.0
  N  N339  1  0.75679000  0.04152000  0.14982000  1.0
  N  N340  1  0.89170000  0.10697000  0.35018000  1.0
  N  N341  1  0.14982000  0.75679000  0.04152000  1.0
  N  N342  1  0.78473000  0.74321000  0.39303000  1.0
  N  N343  1  0.35018000  0.89170000  0.10697000  1.0
  N  N344  1  0.45848000  0.71527000  0.60830000  1.0
  N  N345  1  0.60830000  0.45848000  0.71527000  1.0
  N  N346  1  0.71527000  0.60830000  0.45848000  1.0
  N  N347  1  0.14982000  0.39303000  0.60830000  1.0
  N  N348  1  0.71527000  0.10697000  0.75679000  1.0
  N  N349  1  0.35018000  0.45848000  0.74321000  1.0
  N  N350  1  0.39303000  0.60830000  0.14982000  1.0
  N  N351  1  0.10697000  0.75679000  0.71527000  1.0
  N  N352  1  0.45848000  0.74321000  0.35018000  1.0
  N  N353  1  0.60830000  0.14982000  0.39303000  1.0
  N  N354  1  0.75679000  0.71527000  0.10697000  1.0
  N  N355  1  0.74321000  0.35018000  0.45848000  1.0
  N  N356  1  0.12604000  0.00769000  0.07044000  1.0
  N  N357  1  0.00769000  0.07043000  0.12604000  1.0
  N  N358  1  0.07044000  0.12604000  0.00770000  1.0
  N  N359  1  0.94440000  0.56275000  0.07044000  1.0
  N  N360  1  0.00769000  0.93725000  0.38165000  1.0
  N  N361  1  0.55560000  0.12604000  0.11834000  1.0
  N  N362  1  0.11835000  0.55561000  0.12604000  1.0
  N  N363  1  0.38165000  0.00769000  0.93725000  1.0
  N  N364  1  0.07044000  0.94440000  0.56275000  1.0
  N  N365  1  0.93726000  0.38166000  0.00769000  1.0
  N  N366  1  0.12604000  0.11835000  0.55560000  1.0
  N  N367  1  0.56274000  0.07043000  0.94440000  1.0
  N  N368  1  0.49231000  0.37396000  0.42957000  1.0
  N  N369  1  0.42956000  0.49230000  0.37396000  1.0
  N  N370  1  0.37396000  0.42956000  0.49231000  1.0
  N  N371  1  0.93726000  0.55561000  0.42957000  1.0
  N  N372  1  0.37396000  0.94440000  0.38165000  1.0
  N  N373  1  0.56274000  0.49230000  0.11834000  1.0
  N  N374  1  0.55560000  0.42956000  0.93725000  1.0
  N  N375  1  0.94440000  0.38166000  0.37397000  1.0
  N  N376  1  0.49231000  0.11835000  0.56275000  1.0
  N  N377  1  0.42956000  0.93725000  0.55560000  1.0
  N  N378  1  0.38165000  0.37396000  0.94439000  1.0
  N  N379  1  0.11835000  0.56275000  0.49231000  1.0
  N  N380  1  0.87396000  0.99231000  0.92956000  1.0
  N  N381  1  0.99231000  0.92957000  0.87397000  1.0
  N  N382  1  0.92956000  0.87396000  0.99230000  1.0
  N  N383  1  0.05560000  0.43725000  0.92956000  1.0
  N  N384  1  0.99231000  0.06275000  0.61835000  1.0
  N  N385  1  0.44440000  0.87396000  0.88166000  1.0
  N  N386  1  0.88165000  0.44439000  0.87396000  1.0
  N  N387  1  0.61835000  0.99231000  0.06275000  1.0
  N  N388  1  0.92956000  0.05560000  0.43725000  1.0
  N  N389  1  0.06274000  0.61834000  0.99231000  1.0
  N  N390  1  0.87396000  0.88165000  0.44439000  1.0
  N  N391  1  0.43726000  0.92957000  0.05560000  1.0
  N  N392  1  0.50769000  0.62604000  0.57043000  1.0
  N  N393  1  0.57044000  0.50770000  0.62604000  1.0
  N  N394  1  0.62604000  0.57044000  0.50769000  1.0
  N  N395  1  0.06274000  0.44439000  0.57043000  1.0
  N  N396  1  0.62604000  0.05560000  0.61835000  1.0
  N  N397  1  0.43726000  0.50770000  0.88166000  1.0
  N  N398  1  0.44440000  0.57044000  0.06275000  1.0
  N  N399  1  0.05560000  0.61834000  0.62604000  1.0
  N  N400  1  0.50769000  0.88165000  0.43725000  1.0
  N  N401  1  0.57044000  0.06275000  0.44440000  1.0
  N  N402  1  0.61835000  0.62604000  0.05561000  1.0
  N  N403  1  0.88165000  0.43725000  0.50769000  1.0
