# generated using pymatgen
data_ZnH9C9NO3
_symmetry_space_group_name_H-M   'P 1'
_cell_length_a   8.10127000
_cell_length_b   10.45149630
_cell_length_c   10.71780000
_cell_angle_alpha   84.14549337
_cell_angle_beta   89.99360000
_cell_angle_gamma   67.20539170
_symmetry_Int_Tables_number   1
_chemical_formula_structural   ZnH9C9NO3
_chemical_formula_sum   'Zn4 H36 C36 N4 O12'
_cell_volume   831.47346624
_cell_formula_units_Z   4
loop_
 _symmetry_equiv_pos_site_id
 _symmetry_equiv_pos_as_xyz
  1  'x, y, z'
loop_
 _atom_site_type_symbol
 _atom_site_label
 _atom_site_symmetry_multiplicity
 _atom_site_fract_x
 _atom_site_fract_y
 _atom_site_fract_z
 _atom_site_occupancy
  Zn  Zn0  1  0.03526000  0.00004000  0.49993000  1.0
  Zn  Zn1  1  0.65371000  0.99998000  0.50002000  1.0
  Zn  Zn2  1  0.99453000  0.99995000  0.99999000  1.0
  Zn  Zn3  1  0.60970000  0.00001000  0.00001000  1.0
  H  H4  1  0.04022000  0.25704000  0.48254000  1.0
  H  H5  1  0.29716000  0.74307000  0.51742000  1.0
  H  H6  1  0.24595000  0.14045000  0.50016000  1.0
  H  H7  1  0.38637000  0.85964000  0.49970000  1.0
  H  H8  1  0.23936000  0.19682000  0.69951000  1.0
  H  H9  1  0.43617000  0.80309000  0.30038000  1.0
  H  H10  1  0.32535000  0.24649000  0.97424000  1.0
  H  H11  1  0.57169000  0.75356000  0.02583000  1.0
  H  H12  1  0.26442000  0.12309000  0.03981000  1.0
  H  H13  1  0.38743000  0.87696000  0.96024000  1.0
  H  H14  1  0.48168000  0.25381000  0.15493000  1.0
  H  H15  1  0.73542000  0.74620000  0.84513000  1.0
  H  H16  1  0.18929000  0.68001000  0.93063000  1.0
  H  H17  1  0.86935000  0.32001000  0.06941000  1.0
  H  H18  1  0.75611000  0.71121000  0.39986000  1.0
  H  H19  1  0.46714000  0.28885000  0.60011000  1.0
  H  H20  1  0.33845000  0.43757000  0.02327000  1.0
  H  H21  1  0.77604000  0.56248000  0.97679000  1.0
  H  H22  1  0.76111000  0.74173000  0.18424000  1.0
  H  H23  1  0.50307000  0.25815000  0.81580000  1.0
  H  H24  1  0.90270000  0.49308000  0.27071000  1.0
  H  H25  1  0.39588000  0.50683000  0.72945000  1.0
  H  H26  1  0.07818000  0.71573000  0.71587000  1.0
  H  H27  1  0.79382000  0.28433000  0.28409000  1.0
  H  H28  1  0.10518000  0.47659000  0.79670000  1.0
  H  H29  1  0.58178000  0.52348000  0.20323000  1.0
  H  H30  1  0.77417000  0.47543000  0.48313000  1.0
  H  H31  1  0.24961000  0.52465000  0.51687000  1.0
  H  H32  1  0.83107000  0.30206000  0.66285000  1.0
  H  H33  1  0.13306000  0.69790000  0.33726000  1.0
  H  H34  1  0.94521000  0.31136000  0.79928000  1.0
  H  H35  1  0.25628000  0.68865000  0.20072000  1.0
  H  H36  1  0.11954000  0.24779000  0.22839000  1.0
  H  H37  1  0.36732000  0.75212000  0.77167000  1.0
  H  H38  1  0.25322000  0.30712000  0.31716000  1.0
  H  H39  1  0.56035000  0.69285000  0.68293000  1.0
  C  C40  1  0.96204000  0.72783000  0.04854000  1.0
  C  C41  1  0.69004000  0.27211000  0.95148000  1.0
  C  C42  1  0.91931000  0.72800000  0.55031000  1.0
  C  C43  1  0.64718000  0.27203000  0.44962000  1.0
  C  C44  1  0.10619000  0.05931000  0.74954000  1.0
  C  C45  1  0.16555000  0.94066000  0.25035000  1.0
  C  C46  1  0.48993000  0.06794000  0.25223000  1.0
  C  C47  1  0.55801000  0.93202000  0.74783000  1.0
  C  C48  1  0.11647000  0.18587000  0.66838000  1.0
  C  C49  1  0.30230000  0.81412000  0.33153000  1.0
  C  C50  1  0.38644000  0.20153000  0.16483000  1.0
  C  C51  1  0.58792000  0.79850000  0.83522000  1.0
  C  C52  1  0.12536000  0.63860000  0.00473000  1.0
  C  C53  1  0.76410000  0.36138000  0.99527000  1.0
  C  C54  1  0.83490000  0.65754000  0.48593000  1.0
  C  C55  1  0.49232000  0.34249000  0.51403000  1.0
  C  C56  1  0.20805000  0.49988000  0.05732000  1.0
  C  C57  1  0.70801000  0.50013000  0.94272000  1.0
  C  C58  1  0.88301000  0.67218000  0.14508000  1.0
  C  C59  1  0.55537000  0.32772000  0.85495000  1.0
  C  C60  1  0.96544000  0.53299000  0.19472000  1.0
  C  C61  1  0.49854000  0.46693000  0.80539000  1.0
  C  C62  1  0.01865000  0.65964000  0.66260000  1.0
  C  C63  1  0.67816000  0.34043000  0.33733000  1.0
  C  C64  1  0.03218000  0.52537000  0.70734000  1.0
  C  C65  1  0.55747000  0.47470000  0.29258000  1.0
  C  C66  1  0.84792000  0.52452000  0.53237000  1.0
  C  C67  1  0.37239000  0.47552000  0.46759000  1.0
  C  C68  1  0.94774000  0.45499000  0.64346000  1.0
  C  C69  1  0.40267000  0.54506000  0.35648000  1.0
  C  C70  1  0.95124000  0.31491000  0.69688000  1.0
  C  C71  1  0.26603000  0.68509000  0.30311000  1.0
  C  C72  1  0.12966000  0.44399000  0.15302000  1.0
  C  C73  1  0.57367000  0.55599000  0.84707000  1.0
  C  C74  1  0.21664000  0.29835000  0.22042000  1.0
  C  C75  1  0.51498000  0.70163000  0.77966000  1.0
  N  N76  1  0.12019000  0.16584000  0.53389000  1.0
  N  N77  1  0.28600000  0.83422000  0.46601000  1.0
  N  N78  1  0.36319000  0.16144000  0.04003000  1.0
  N  N79  1  0.52455000  0.83859000  0.96002000  1.0
  O  O80  1  0.88412000  0.86322000  0.00021000  1.0
  O  O81  1  0.74747000  0.13672000  0.99986000  1.0
  O  O82  1  0.07112000  0.96783000  0.70111000  1.0
  O  O83  1  0.03897000  0.03213000  0.29876000  1.0
  O  O84  1  0.89742000  0.85961000  0.50555000  1.0
  O  O85  1  0.75691000  0.14046000  0.49438000  1.0
  O  O86  1  0.60209000  0.96488000  0.20630000  1.0
  O  O87  1  0.56738000  0.03501000  0.79372000  1.0
  O  O88  1  0.45868000  0.07080000  0.37003000  1.0
  O  O89  1  0.52958000  0.92915000  0.63004000  1.0
  O  O90  1  0.13149000  0.05835000  0.86880000  1.0
  O  O91  1  0.18993000  0.94162000  0.13110000  1.0
