# generated using pymatgen
data_Zn4H24C54O13
_symmetry_space_group_name_H-M   'P 1'
_cell_length_a   24.42260000
_cell_length_b   24.42256309
_cell_length_c   24.42256309
_cell_angle_alpha   60.00000000
_cell_angle_beta   60.00005000
_cell_angle_gamma   60.00005000
_symmetry_Int_Tables_number   1
_chemical_formula_structural   Zn4H24C54O13
_chemical_formula_sum   'Zn8 H48 C108 O26'
_cell_volume   10300.53322022
_cell_formula_units_Z   2
loop_
 _symmetry_equiv_pos_site_id
 _symmetry_equiv_pos_as_xyz
  1  'x, y, z'
loop_
 _atom_site_type_symbol
 _atom_site_label
 _atom_site_symmetry_multiplicity
 _atom_site_fract_x
 _atom_site_fract_y
 _atom_site_fract_z
 _atom_site_occupancy
  Zn  Zn0  1  0.78280000  0.78280000  0.65160000  1.0
  Zn  Zn1  1  0.78280000  0.78280000  0.78280000  1.0
  Zn  Zn2  1  0.78280000  0.65160000  0.78280000  1.0
  Zn  Zn3  1  0.65160000  0.78280000  0.78280000  1.0
  Zn  Zn4  1  0.21720000  0.21720000  0.21720000  1.0
  Zn  Zn5  1  0.21720000  0.21720000  0.34840000  1.0
  Zn  Zn6  1  0.21720000  0.34840000  0.21720000  1.0
  Zn  Zn7  1  0.34840000  0.21720000  0.21720000  1.0
  H  H8  1  0.90169000  0.90170000  0.68613000  1.0
  H  H9  1  0.96420000  0.96420000  0.67539000  1.0
  H  H10  1  0.90169000  0.90170000  0.51048000  1.0
  H  H11  1  0.96420000  0.96420000  0.39621000  1.0
  H  H12  1  0.51048000  0.68613000  0.90169000  1.0
  H  H13  1  0.39621000  0.67539000  0.96420000  1.0
  H  H14  1  0.68612000  0.51048000  0.90170000  1.0
  H  H15  1  0.67539000  0.39621000  0.96420000  1.0
  H  H16  1  0.90169000  0.68613000  0.90170000  1.0
  H  H17  1  0.96420000  0.67539000  0.96420000  1.0
  H  H18  1  0.90170000  0.51048000  0.90169000  1.0
  H  H19  1  0.96420000  0.39621000  0.96420000  1.0
  H  H20  1  0.68613000  0.90169000  0.51048000  1.0
  H  H21  1  0.67539000  0.96420000  0.39621000  1.0
  H  H22  1  0.51048000  0.90170000  0.68613000  1.0
  H  H23  1  0.39621000  0.96420000  0.67539000  1.0
  H  H24  1  0.68613000  0.90169000  0.90170000  1.0
  H  H25  1  0.67539000  0.96420000  0.96420000  1.0
  H  H26  1  0.51048000  0.90170000  0.90169000  1.0
  H  H27  1  0.39621000  0.96420000  0.96420000  1.0
  H  H28  1  0.90170000  0.51048000  0.68613000  1.0
  H  H29  1  0.96420000  0.39621000  0.67539000  1.0
  H  H30  1  0.90169000  0.68613000  0.51048000  1.0
  H  H31  1  0.96420000  0.67539000  0.39621000  1.0
  H  H32  1  0.09830000  0.09831000  0.48952000  1.0
  H  H33  1  0.03580000  0.03580000  0.60379000  1.0
  H  H34  1  0.09830000  0.09831000  0.31387000  1.0
  H  H35  1  0.03580000  0.03580000  0.32461000  1.0
  H  H36  1  0.48953000  0.31387000  0.09830000  1.0
  H  H37  1  0.60379000  0.32461000  0.03580000  1.0
  H  H38  1  0.31387000  0.48952000  0.09830000  1.0
  H  H39  1  0.32461000  0.60379000  0.03580000  1.0
  H  H40  1  0.09831000  0.31387000  0.48952000  1.0
  H  H41  1  0.03580000  0.32461000  0.60379000  1.0
  H  H42  1  0.09831000  0.48952000  0.31387000  1.0
  H  H43  1  0.03580000  0.60379000  0.32461000  1.0
  H  H44  1  0.31388000  0.09830000  0.09830000  1.0
  H  H45  1  0.32461000  0.03580000  0.03580000  1.0
  H  H46  1  0.48952000  0.09830000  0.09831000  1.0
  H  H47  1  0.60379000  0.03580000  0.03580000  1.0
  H  H48  1  0.31388000  0.09830000  0.48952000  1.0
  H  H49  1  0.32461000  0.03580000  0.60379000  1.0
  H  H50  1  0.48952000  0.09830000  0.31387000  1.0
  H  H51  1  0.60379000  0.03580000  0.32461000  1.0
  H  H52  1  0.09830000  0.48952000  0.09831000  1.0
  H  H53  1  0.03580000  0.60379000  0.03580000  1.0
  H  H54  1  0.09830000  0.31387000  0.09831000  1.0
  H  H55  1  0.03580000  0.32461000  0.03580000  1.0
  C  C56  1  0.91816000  0.91816000  0.63160000  1.0
  C  C57  1  0.95874000  0.95873000  0.59203000  1.0
  C  C58  1  0.98024000  0.98024000  0.62083000  1.0
  C  C59  1  0.91817000  0.91816000  0.53207000  1.0
  C  C60  1  0.95874000  0.95873000  0.49050000  1.0
  C  C61  1  0.98024000  0.98024000  0.41869000  1.0
  C  C62  1  0.53208000  0.63160000  0.91816000  1.0
  C  C63  1  0.49051000  0.59203000  0.95873000  1.0
  C  C64  1  0.41869000  0.62083000  0.98024000  1.0
  C  C65  1  0.63160000  0.53208000  0.91816000  1.0
  C  C66  1  0.59204000  0.49050000  0.95873000  1.0
  C  C67  1  0.62083000  0.41869000  0.98024000  1.0
  C  C68  1  0.91816000  0.63160000  0.91816000  1.0
  C  C69  1  0.95874000  0.59203000  0.95873000  1.0
  C  C70  1  0.98024000  0.62083000  0.98024000  1.0
  C  C71  1  0.91816000  0.53208000  0.91816000  1.0
  C  C72  1  0.95874000  0.49050000  0.95873000  1.0
  C  C73  1  0.98024000  0.41869000  0.98024000  1.0
  C  C74  1  0.63159000  0.91817000  0.53208000  1.0
  C  C75  1  0.59204000  0.95873000  0.49050000  1.0
  C  C76  1  0.62083000  0.98024000  0.41869000  1.0
  C  C77  1  0.53208000  0.91816000  0.63160000  1.0
  C  C78  1  0.49051000  0.95873000  0.59203000  1.0
  C  C79  1  0.41869000  0.98024000  0.62083000  1.0
  C  C80  1  0.63159000  0.91817000  0.91816000  1.0
  C  C81  1  0.59204000  0.95873000  0.95873000  1.0
  C  C82  1  0.62083000  0.98024000  0.98024000  1.0
  C  C83  1  0.53208000  0.91816000  0.91816000  1.0
  C  C84  1  0.49051000  0.95873000  0.95873000  1.0
  C  C85  1  0.41869000  0.98024000  0.98024000  1.0
  C  C86  1  0.91816000  0.53208000  0.63160000  1.0
  C  C87  1  0.95874000  0.49050000  0.59203000  1.0
  C  C88  1  0.98024000  0.41869000  0.62083000  1.0
  C  C89  1  0.91816000  0.63160000  0.53208000  1.0
  C  C90  1  0.95874000  0.59203000  0.49050000  1.0
  C  C91  1  0.98024000  0.62083000  0.41869000  1.0
  C  C92  1  0.08184000  0.08184000  0.46792000  1.0
  C  C93  1  0.04126000  0.04127000  0.50950000  1.0
  C  C94  1  0.01976000  0.01976000  0.58131000  1.0
  C  C95  1  0.08184000  0.08184000  0.36840000  1.0
  C  C96  1  0.04126000  0.04127000  0.40797000  1.0
  C  C97  1  0.01976000  0.01976000  0.37917000  1.0
  C  C98  1  0.46792000  0.36840000  0.08184000  1.0
  C  C99  1  0.50949000  0.40797000  0.04127000  1.0
  C  C100  1  0.58131000  0.37917000  0.01976000  1.0
  C  C101  1  0.36840000  0.46792000  0.08184000  1.0
  C  C102  1  0.40796000  0.50950000  0.04127000  1.0
  C  C103  1  0.37917000  0.58131000  0.01976000  1.0
  C  C104  1  0.08183000  0.36840000  0.46793000  1.0
  C  C105  1  0.04126000  0.40797000  0.50950000  1.0
  C  C106  1  0.01976000  0.37917000  0.58131000  1.0
  C  C107  1  0.08184000  0.46792000  0.36840000  1.0
  C  C108  1  0.04126000  0.50950000  0.40797000  1.0
  C  C109  1  0.01976000  0.58131000  0.37917000  1.0
  C  C110  1  0.36841000  0.08183000  0.08184000  1.0
  C  C111  1  0.40796000  0.04127000  0.04127000  1.0
  C  C112  1  0.37917000  0.01976000  0.01976000  1.0
  C  C113  1  0.46793000  0.08184000  0.08183000  1.0
  C  C114  1  0.50949000  0.04127000  0.04127000  1.0
  C  C115  1  0.58131000  0.01976000  0.01976000  1.0
  C  C116  1  0.36840000  0.08184000  0.46792000  1.0
  C  C117  1  0.40796000  0.04127000  0.50950000  1.0
  C  C118  1  0.37917000  0.01976000  0.58131000  1.0
  C  C119  1  0.46792000  0.08184000  0.36840000  1.0
  C  C120  1  0.50949000  0.04127000  0.40797000  1.0
  C  C121  1  0.58131000  0.01976000  0.37917000  1.0
  C  C122  1  0.08184000  0.46792000  0.08184000  1.0
  C  C123  1  0.04126000  0.50950000  0.04127000  1.0
  C  C124  1  0.01976000  0.58131000  0.01976000  1.0
  C  C125  1  0.08184000  0.36840000  0.08184000  1.0
  C  C126  1  0.04126000  0.40797000  0.04127000  1.0
  C  C127  1  0.01976000  0.37917000  0.01976000  1.0
  C  C128  1  0.89806000  0.89806000  0.60194000  1.0
  C  C129  1  0.85480000  0.85480000  0.64520000  1.0
  C  C130  1  0.97943000  0.97943000  0.52057000  1.0
  C  C131  1  0.60194000  0.60194000  0.89806000  1.0
  C  C132  1  0.64520000  0.64520000  0.85480000  1.0
  C  C133  1  0.52057000  0.52057000  0.97943000  1.0
  C  C134  1  0.89806000  0.60194000  0.89806000  1.0
  C  C135  1  0.85480000  0.64520000  0.85480000  1.0
  C  C136  1  0.97943000  0.52057000  0.97943000  1.0
  C  C137  1  0.60194000  0.89806000  0.60194000  1.0
  C  C138  1  0.64520000  0.85480000  0.64520000  1.0
  C  C139  1  0.52057000  0.97943000  0.52057000  1.0
  C  C140  1  0.60194000  0.89806000  0.89806000  1.0
  C  C141  1  0.64520000  0.85480000  0.85480000  1.0
  C  C142  1  0.52057000  0.97943000  0.97943000  1.0
  C  C143  1  0.89806000  0.60194000  0.60194000  1.0
  C  C144  1  0.85480000  0.64520000  0.64520000  1.0
  C  C145  1  0.97943000  0.52057000  0.52057000  1.0
  C  C146  1  0.10194000  0.10194000  0.39806000  1.0
  C  C147  1  0.14520000  0.14520000  0.35480000  1.0
  C  C148  1  0.02057000  0.02057000  0.47943000  1.0
  C  C149  1  0.39806000  0.39806000  0.10194000  1.0
  C  C150  1  0.35480000  0.35480000  0.14520000  1.0
  C  C151  1  0.47943000  0.47943000  0.02057000  1.0
  C  C152  1  0.10194000  0.39806000  0.39806000  1.0
  C  C153  1  0.14520000  0.35480000  0.35480000  1.0
  C  C154  1  0.02057000  0.47943000  0.47943000  1.0
  C  C155  1  0.39806000  0.10194000  0.10194000  1.0
  C  C156  1  0.35480000  0.14520000  0.14520000  1.0
  C  C157  1  0.47943000  0.02057000  0.02057000  1.0
  C  C158  1  0.39806000  0.10194000  0.39806000  1.0
  C  C159  1  0.35480000  0.14520000  0.35480000  1.0
  C  C160  1  0.47943000  0.02057000  0.47943000  1.0
  C  C161  1  0.10194000  0.39806000  0.10194000  1.0
  C  C162  1  0.14520000  0.35480000  0.14520000  1.0
  C  C163  1  0.02057000  0.47943000  0.02057000  1.0
  O  O164  1  0.75000000  0.75000000  0.75000000  1.0
  O  O165  1  0.25000000  0.25000000  0.25000000  1.0
  O  O166  1  0.83806000  0.83805000  0.61530000  1.0
  O  O167  1  0.83806000  0.83805000  0.70859000  1.0
  O  O168  1  0.70858000  0.61530000  0.83806000  1.0
  O  O169  1  0.61531000  0.70859000  0.83805000  1.0
  O  O170  1  0.83806000  0.61530000  0.83805000  1.0
  O  O171  1  0.83805000  0.70859000  0.83806000  1.0
  O  O172  1  0.61531000  0.83805000  0.70859000  1.0
  O  O173  1  0.70859000  0.83806000  0.61530000  1.0
  O  O174  1  0.61531000  0.83805000  0.83805000  1.0
  O  O175  1  0.70859000  0.83806000  0.83805000  1.0
  O  O176  1  0.83805000  0.70859000  0.61530000  1.0
  O  O177  1  0.83806000  0.61530000  0.70859000  1.0
  O  O178  1  0.16195000  0.16194000  0.29141000  1.0
  O  O179  1  0.16195000  0.16194000  0.38470000  1.0
  O  O180  1  0.29141000  0.38470000  0.16194000  1.0
  O  O181  1  0.38469000  0.29141000  0.16195000  1.0
  O  O182  1  0.16194000  0.38470000  0.29141000  1.0
  O  O183  1  0.16195000  0.29141000  0.38470000  1.0
  O  O184  1  0.38469000  0.16195000  0.16195000  1.0
  O  O185  1  0.29142000  0.16194000  0.16194000  1.0
  O  O186  1  0.38469000  0.16195000  0.29141000  1.0
  O  O187  1  0.29141000  0.16194000  0.38470000  1.0
  O  O188  1  0.16195000  0.29141000  0.16194000  1.0
  O  O189  1  0.16194000  0.38470000  0.16195000  1.0
