# generated using pymatgen
data_ZnH19C26N7O6
_symmetry_space_group_name_H-M   'P 1'
_cell_length_a   14.18820000
_cell_length_b   15.25660000
_cell_length_c   23.60360000
_cell_angle_alpha   90.77400000
_cell_angle_beta   89.81470000
_cell_angle_gamma   89.74450000
_symmetry_Int_Tables_number   1
_chemical_formula_structural   ZnH19C26N7O6
_chemical_formula_sum   'Zn2 H38 C52 N14 O12'
_cell_volume   5108.77768930
_cell_formula_units_Z   2
loop_
 _symmetry_equiv_pos_site_id
 _symmetry_equiv_pos_as_xyz
  1  'x, y, z'
loop_
 _atom_site_type_symbol
 _atom_site_label
 _atom_site_symmetry_multiplicity
 _atom_site_fract_x
 _atom_site_fract_y
 _atom_site_fract_z
 _atom_site_occupancy
  Zn  Zn0  1  0.61049000  0.50013000  0.50015000  1.0
  Zn  Zn1  1  0.40298000  0.50051000  0.49988000  1.0
  H  H2  1  0.44203000  0.71908000  0.96044000  1.0
  H  H3  1  0.34330000  0.06371000  0.54517000  1.0
  H  H4  1  0.60981000  0.05409000  0.45801000  1.0
  H  H5  1  0.34451000  0.93864000  0.45263000  1.0
  H  H6  1  0.07248000  0.52719000  0.40951000  1.0
  H  H7  1  0.94218000  0.38147000  0.54806000  1.0
  H  H8  1  0.07113000  0.47200000  0.58821000  1.0
  H  H9  1  0.94126000  0.61803000  0.44997000  1.0
  H  H10  1  0.32716000  0.50781000  0.39986000  1.0
  H  H11  1  0.22249000  0.53146000  0.36586000  1.0
  H  H12  1  0.68750000  0.36165000  0.54254000  1.0
  H  H13  1  0.56183000  0.28009000  0.04013000  1.0
  H  H14  1  0.79291000  0.31844000  0.56496000  1.0
  H  H15  1  0.32520000  0.49046000  0.59882000  1.0
  H  H16  1  0.21998000  0.46697000  0.63228000  1.0
  H  H17  1  0.79160000  0.68211000  0.43477000  1.0
  H  H18  1  0.68647000  0.63918000  0.45764000  1.0
  H  H19  1  0.41815000  0.78021000  0.05402000  1.0
  H  H20  1  0.43311000  0.71566000  0.11570000  1.0
  H  H21  1  0.56176000  0.28111000  0.88493000  1.0
  H  H22  1  0.57916000  0.21743000  0.94675000  1.0
  H  H23  1  0.64674000  0.53427000  0.32042000  1.0
  H  H24  1  0.64175000  0.53855000  0.21402000  1.0
  H  H25  1  0.36816000  0.58054000  0.67874000  1.0
  H  H26  1  0.63916000  0.71249000  0.54516000  1.0
  H  H27  1  0.67232000  0.81454000  0.57165000  1.0
  H  H28  1  0.28082000  0.19980000  0.57138000  1.0
  H  H29  1  0.33787000  0.29951000  0.55876000  1.0
  H  H30  1  0.64167000  0.28699000  0.45570000  1.0
  H  H31  1  0.67576000  0.18479000  0.42917000  1.0
  H  H32  1  0.33850000  0.70257000  0.44021000  1.0
  H  H33  1  0.28192000  0.80256000  0.42675000  1.0
  H  H34  1  0.36357000  0.57579000  0.78453000  1.0
  H  H35  1  0.38246000  0.39871000  0.32207000  1.0
  H  H36  1  0.65617000  0.49369000  0.67970000  1.0
  H  H37  1  0.37812000  0.40102000  0.21582000  1.0
  H  H38  1  0.65303000  0.49091000  0.78580000  1.0
  H  H39  1  0.60795000  0.94551000  0.54208000  1.0
  C  C40  1  0.49559000  0.67021000  0.48634000  1.0
  C  C41  1  0.59270000  0.51190000  0.70319000  1.0
  C  C42  1  0.43622000  0.43080000  0.23908000  1.0
  C  C43  1  0.59081000  0.51030000  0.76206000  1.0
  C  C44  1  0.50896000  0.47124000  0.20955000  1.0
  C  C45  1  0.50746000  0.53113000  0.79093000  1.0
  C  C46  1  0.55310000  0.90796000  0.52063000  1.0
  C  C47  1  0.40350000  0.09732000  0.52665000  1.0
  C  C48  1  0.55422000  0.09224000  0.47889000  1.0
  C  C49  1  0.40405000  0.90442000  0.47156000  1.0
  C  C50  1  0.56126000  0.81646000  0.51725000  1.0
  C  C51  1  0.49657000  0.33045000  0.51345000  1.0
  C  C52  1  0.40967000  0.18921000  0.53236000  1.0
  C  C53  1  0.56264000  0.18365000  0.48256000  1.0
  C  C54  1  0.40985000  0.81239000  0.46633000  1.0
  C  C55  1  0.48950000  0.76617000  0.48923000  1.0
  C  C56  1  0.49025000  0.23462000  0.51018000  1.0
  C  C57  1  0.47578000  0.95191000  0.49784000  1.0
  C  C58  1  0.47590000  0.04911000  0.50088000  1.0
  C  C59  1  0.51498000  0.47264000  0.39075000  1.0
  C  C60  1  0.51304000  0.52907000  0.60941000  1.0
  C  C61  1  0.10910000  0.51650000  0.44931000  1.0
  C  C62  1  0.58554000  0.50772000  0.23810000  1.0
  C  C63  1  0.90512000  0.43457000  0.52713000  1.0
  C  C64  1  0.10834000  0.48277000  0.54850000  1.0
  C  C65  1  0.90455000  0.56506000  0.47110000  1.0
  C  C66  1  0.20812000  0.51500000  0.45049000  1.0
  C  C67  1  0.80604000  0.43560000  0.52621000  1.0
  C  C68  1  0.20730000  0.48418000  0.54767000  1.0
  C  C69  1  0.80546000  0.56451000  0.47280000  1.0
  C  C70  1  0.05889000  0.49969000  0.49884000  1.0
  C  C71  1  0.95456000  0.49971000  0.49894000  1.0
  C  C72  1  0.52220000  0.43848000  0.87372000  1.0
  C  C73  1  0.42731000  0.55739000  0.76139000  1.0
  C  C74  1  0.47924000  0.56021000  0.12685000  1.0
  C  C75  1  0.48240000  0.59816000  0.88452000  1.0
  C  C76  1  0.52693000  0.40241000  0.11619000  1.0
  C  C77  1  0.48029000  0.58574000  0.94662000  1.0
  C  C78  1  0.52393000  0.41351000  0.05395000  1.0
  C  C79  1  0.50170000  0.50284000  0.97033000  1.0
  C  C80  1  0.50108000  0.49614000  0.03027000  1.0
  C  C81  1  0.52278000  0.42945000  0.93506000  1.0
  C  C82  1  0.47853000  0.56922000  0.06549000  1.0
  C  C83  1  0.45801000  0.65697000  0.98080000  1.0
  C  C84  1  0.58822000  0.50567000  0.29696000  1.0
  C  C85  1  0.54471000  0.34195000  0.01976000  1.0
  C  C86  1  0.45580000  0.65116000  0.04078000  1.0
  C  C87  1  0.54408000  0.34710000  0.95974000  1.0
  C  C88  1  0.42993000  0.55972000  0.70244000  1.0
  C  C89  1  0.51401000  0.46804000  0.32734000  1.0
  C  C90  1  0.51177000  0.53501000  0.67283000  1.0
  C  C91  1  0.43873000  0.42958000  0.29806000  1.0
  N  N92  1  0.50428000  0.52291000  0.85169000  1.0
  N  N93  1  0.56401000  0.27486000  0.92795000  1.0
  N  N94  1  0.63984000  0.77872000  0.54112000  1.0
  N  N95  1  0.33994000  0.23296000  0.56139000  1.0
  N  N96  1  0.64207000  0.22071000  0.45944000  1.0
  N  N97  1  0.34082000  0.76903000  0.43708000  1.0
  N  N98  1  0.50466000  0.47765000  0.14863000  1.0
  N  N99  1  0.25672000  0.49975000  0.49920000  1.0
  N  N100  1  0.75669000  0.50017000  0.49970000  1.0
  N  N101  1  0.25898000  0.53084000  0.40260000  1.0
  N  N102  1  0.75647000  0.37226000  0.55315000  1.0
  N  N103  1  0.25726000  0.46775000  0.59569000  1.0
  N  N104  1  0.75537000  0.62828000  0.44640000  1.0
  N  N105  1  0.43290000  0.72257000  0.07267000  1.0
  O  O106  1  0.57456000  0.63255000  0.49893000  1.0
  O  O107  1  0.45922000  0.62083000  0.16069000  1.0
  O  O108  1  0.46680000  0.66917000  0.86217000  1.0
  O  O109  1  0.54785000  0.33296000  0.13902000  1.0
  O  O110  1  0.42385000  0.37617000  0.52782000  1.0
  O  O111  1  0.57571000  0.36770000  0.50103000  1.0
  O  O112  1  0.42301000  0.62492000  0.47212000  1.0
  O  O113  1  0.59209000  0.49400000  0.41400000  1.0
  O  O114  1  0.43568000  0.54387000  0.58327000  1.0
  O  O115  1  0.59083000  0.50815000  0.58615000  1.0
  O  O116  1  0.43787000  0.45614000  0.41684000  1.0
  O  O117  1  0.53661000  0.37614000  0.84021000  1.0
