# generated using pymatgen
data_ZnH10(C2O)5
_symmetry_space_group_name_H-M   'P 1'
_cell_length_a   5.71721000
_cell_length_b   8.79013000
_cell_length_c   20.79690000
_cell_angle_alpha   90.00020000
_cell_angle_beta   89.99870000
_cell_angle_gamma   89.99710000
_symmetry_Int_Tables_number   1
_chemical_formula_structural   ZnH10(C2O)5
_chemical_formula_sum   'Zn4 H40 C40 O20'
_cell_volume   1045.14860588
_cell_formula_units_Z   4
loop_
 _symmetry_equiv_pos_site_id
 _symmetry_equiv_pos_as_xyz
  1  'x, y, z'
loop_
 _atom_site_type_symbol
 _atom_site_label
 _atom_site_symmetry_multiplicity
 _atom_site_fract_x
 _atom_site_fract_y
 _atom_site_fract_z
 _atom_site_occupancy
  Zn  Zn0  1  0.04407000  0.04557000  0.97599000  1.0
  Zn  Zn1  1  0.45594000  0.95443000  0.47599000  1.0
  Zn  Zn2  1  0.54405000  0.45442000  0.02401000  1.0
  Zn  Zn3  1  0.95593000  0.54558000  0.52401000  1.0
  H  H4  1  0.84581000  0.80310000  0.02782000  1.0
  H  H5  1  0.65418000  0.19691000  0.52782000  1.0
  H  H6  1  0.34581000  0.69692000  0.97218000  1.0
  H  H7  1  0.15417000  0.30308000  0.47218000  1.0
  H  H8  1  0.67078000  0.86919000  0.97300000  1.0
  H  H9  1  0.82923000  0.13081000  0.47300000  1.0
  H  H10  1  0.17076000  0.63083000  0.02700000  1.0
  H  H11  1  0.32922000  0.36918000  0.52700000  1.0
  H  H12  1  0.03446000  0.74729000  0.65413000  1.0
  H  H13  1  0.46552000  0.25271000  0.15414000  1.0
  H  H14  1  0.53442000  0.75269000  0.34586000  1.0
  H  H15  1  0.96557000  0.24731000  0.84586000  1.0
  H  H16  1  0.80563000  0.81654000  0.60679000  1.0
  H  H17  1  0.69436000  0.18347000  0.10679000  1.0
  H  H18  1  0.30560000  0.68344000  0.39321000  1.0
  H  H19  1  0.19438000  0.31654000  0.89321000  1.0
  H  H20  1  0.16268000  0.01963000  0.67636000  1.0
  H  H21  1  0.33734000  0.98036000  0.17637000  1.0
  H  H22  1  0.66267000  0.48034000  0.32363000  1.0
  H  H23  1  0.83735000  0.51966000  0.82364000  1.0
  H  H24  1  0.92102000  0.08573000  0.63111000  1.0
  H  H25  1  0.57900000  0.91428000  0.13112000  1.0
  H  H26  1  0.42101000  0.41425000  0.36888000  1.0
  H  H27  1  0.07900000  0.58574000  0.86889000  1.0
  H  H28  1  0.04907000  0.81464000  0.76777000  1.0
  H  H29  1  0.45094000  0.18536000  0.26778000  1.0
  H  H30  1  0.54903000  0.68535000  0.23222000  1.0
  H  H31  1  0.95097000  0.31464000  0.73223000  1.0
  H  H32  1  0.79289000  0.78921000  0.86351000  1.0
  H  H33  1  0.70713000  0.21079000  0.36352000  1.0
  H  H34  1  0.29284000  0.71077000  0.13648000  1.0
  H  H35  1  0.20714000  0.28922000  0.63648000  1.0
  H  H36  1  0.32606000  0.12605000  0.78588000  1.0
  H  H37  1  0.17398000  0.87397000  0.28587000  1.0
  H  H38  1  0.82603000  0.37396000  0.21413000  1.0
  H  H39  1  0.67396000  0.62603000  0.71413000  1.0
  H  H40  1  0.57541000  0.14561000  0.68827000  1.0
  H  H41  1  0.92461000  0.85441000  0.18827000  1.0
  H  H42  1  0.07541000  0.35439000  0.31173000  1.0
  H  H43  1  0.42461000  0.64560000  0.81174000  1.0
  C  C44  1  0.14257000  0.84490000  0.56619000  1.0
  C  C45  1  0.35742000  0.15510000  0.06620000  1.0
  C  C46  1  0.64256000  0.65508000  0.43380000  1.0
  C  C47  1  0.85743000  0.34491000  0.93380000  1.0
  C  C48  1  0.98271000  0.84442000  0.62388000  1.0
  C  C49  1  0.51728000  0.15558000  0.12389000  1.0
  C  C50  1  0.48268000  0.65556000  0.37611000  1.0
  C  C51  1  0.01731000  0.34443000  0.87611000  1.0
  C  C52  1  0.98186000  0.99284000  0.66222000  1.0
  C  C53  1  0.51815000  0.00716000  0.16223000  1.0
  C  C54  1  0.48185000  0.50714000  0.33777000  1.0
  C  C55  1  0.01816000  0.49286000  0.83778000  1.0
  C  C56  1  0.82999000  0.98191000  0.72115000  1.0
  C  C57  1  0.67002000  0.01810000  0.22115000  1.0
  C  C58  1  0.32997000  0.51808000  0.27885000  1.0
  C  C59  1  0.17003000  0.48191000  0.77885000  1.0
  C  C60  1  0.88952000  0.88240000  0.77136000  1.0
  C  C61  1  0.61050000  0.11760000  0.27137000  1.0
  C  C62  1  0.38949000  0.61758000  0.22864000  1.0
  C  C63  1  0.11051000  0.38241000  0.72864000  1.0
  C  C64  1  0.74757000  0.86861000  0.82529000  1.0
  C  C65  1  0.75245000  0.13140000  0.32529000  1.0
  C  C66  1  0.24753000  0.63138000  0.17471000  1.0
  C  C67  1  0.25245000  0.36861000  0.67471000  1.0
  C  C68  1  0.54278000  0.95603000  0.83097000  1.0
  C  C69  1  0.95724000  0.04398000  0.33097000  1.0
  C  C70  1  0.04274000  0.54397000  0.16903000  1.0
  C  C71  1  0.45724000  0.45603000  0.66903000  1.0
  C  C72  1  0.48402000  0.05749000  0.78153000  1.0
  C  C73  1  0.01601000  0.94252000  0.28153000  1.0
  C  C74  1  0.98399000  0.44251000  0.21847000  1.0
  C  C75  1  0.51600000  0.55748000  0.71847000  1.0
  C  C76  1  0.62514000  0.06873000  0.72711000  1.0
  C  C77  1  0.87488000  0.93128000  0.22710000  1.0
  C  C78  1  0.12512000  0.43127000  0.27290000  1.0
  C  C79  1  0.37489000  0.56872000  0.77290000  1.0
  C  C80  1  0.39013000  0.93728000  0.88853000  1.0
  C  C81  1  0.10989000  0.06272000  0.38853000  1.0
  C  C82  1  0.89011000  0.56272000  0.11147000  1.0
  C  C83  1  0.60988000  0.43728000  0.61147000  1.0
  O  O84  1  0.20998000  0.02349000  0.89335000  1.0
  O  O85  1  0.29004000  0.97651000  0.39335000  1.0
  O  O86  1  0.70996000  0.47652000  0.10664000  1.0
  O  O87  1  0.79001000  0.52350000  0.60664000  1.0
  O  O88  1  0.44478000  0.83702000  0.93012000  1.0
  O  O89  1  0.05524000  0.16297000  0.43013000  1.0
  O  O90  1  0.94475000  0.66299000  0.06988000  1.0
  O  O91  1  0.55524000  0.33703000  0.56988000  1.0
  O  O92  1  0.15801000  0.72767000  0.53007000  1.0
  O  O93  1  0.34199000  0.27233000  0.03007000  1.0
  O  O94  1  0.65801000  0.77232000  0.46992000  1.0
  O  O95  1  0.84200000  0.22768000  0.96993000  1.0
  O  O96  1  0.26340000  0.96400000  0.55491000  1.0
  O  O97  1  0.23659000  0.03600000  0.05491000  1.0
  O  O98  1  0.76338000  0.53597000  0.44509000  1.0
  O  O99  1  0.73658000  0.46401000  0.94508000  1.0
  O  O100  1  0.80299000  0.89576000  0.00261000  1.0
  O  O101  1  0.69701000  0.10425000  0.50261000  1.0
  O  O102  1  0.30297000  0.60426000  0.99738000  1.0
  O  O103  1  0.19700000  0.39574000  0.49739000  1.0
