# generated using pymatgen
data_CoH7C10N2ClO2
_symmetry_space_group_name_H-M   'P 1'
_cell_length_a   8.35770000
_cell_length_b   8.57012000
_cell_length_c   15.00970000
_cell_angle_alpha   89.99970000
_cell_angle_beta   89.99980000
_cell_angle_gamma   70.25700000
_symmetry_Int_Tables_number   1
_chemical_formula_structural   CoH7C10N2ClO2
_chemical_formula_sum   'Co4 H28 C40 N8 Cl4 O8'
_cell_volume   1011.89532814
_cell_formula_units_Z   4
loop_
 _symmetry_equiv_pos_site_id
 _symmetry_equiv_pos_as_xyz
  1  'x, y, z'
loop_
 _atom_site_type_symbol
 _atom_site_label
 _atom_site_symmetry_multiplicity
 _atom_site_fract_x
 _atom_site_fract_y
 _atom_site_fract_z
 _atom_site_occupancy
  Co  Co0  1  0.57499000  0.52134000  0.40270000  1.0
  Co  Co1  1  0.92501000  0.47865000  0.90270000  1.0
  Co  Co2  1  0.42501000  0.47866000  0.59730000  1.0
  Co  Co3  1  0.07498000  0.52135000  0.09730000  1.0
  H  H4  1  0.69515000  0.92696000  0.47270000  1.0
  H  H5  1  0.80485000  0.07305000  0.97271000  1.0
  H  H6  1  0.30484000  0.07305000  0.52730000  1.0
  H  H7  1  0.19515000  0.92695000  0.02729000  1.0
  H  H8  1  0.81224000  0.13530000  0.52868000  1.0
  H  H9  1  0.68777000  0.86470000  0.02868000  1.0
  H  H10  1  0.18776000  0.86471000  0.47132000  1.0
  H  H11  1  0.31223000  0.13529000  0.97132000  1.0
  H  H12  1  0.82982000  0.93163000  0.79459000  1.0
  H  H13  1  0.67017000  0.06837000  0.29460000  1.0
  H  H14  1  0.17019000  0.06837000  0.20540000  1.0
  H  H15  1  0.32983000  0.93163000  0.70540000  1.0
  H  H16  1  0.70518000  0.73072000  0.73760000  1.0
  H  H17  1  0.79481000  0.26929000  0.23760000  1.0
  H  H18  1  0.29482000  0.26928000  0.26240000  1.0
  H  H19  1  0.20519000  0.73072000  0.76239000  1.0
  H  H20  1  0.84985000  0.16312000  0.83974000  1.0
  H  H21  1  0.65015000  0.83688000  0.33974000  1.0
  H  H22  1  0.15014000  0.83688000  0.16026000  1.0
  H  H23  1  0.34986000  0.16312000  0.66026000  1.0
  H  H24  1  0.96134000  0.26861000  0.57462000  1.0
  H  H25  1  0.53867000  0.73139000  0.07462000  1.0
  H  H26  1  0.03867000  0.73139000  0.42538000  1.0
  H  H27  1  0.46133000  0.26861000  0.92538000  1.0
  H  H28  1  0.03129000  0.48639000  0.69091000  1.0
  H  H29  1  0.46871000  0.51361000  0.19092000  1.0
  H  H30  1  0.96871000  0.51361000  0.30909000  1.0
  H  H31  1  0.53129000  0.48639000  0.80909000  1.0
  C  C32  1  0.69272000  0.81412000  0.60070000  1.0
  C  C33  1  0.80727000  0.18588000  0.10071000  1.0
  C  C34  1  0.30727000  0.18589000  0.39930000  1.0
  C  C35  1  0.19273000  0.81411000  0.89929000  1.0
  C  C36  1  0.72582000  0.92828000  0.54307000  1.0
  C  C37  1  0.77418000  0.07172000  0.04307000  1.0
  C  C38  1  0.27417000  0.07172000  0.45693000  1.0
  C  C39  1  0.22582000  0.92828000  0.95693000  1.0
  C  C40  1  0.79308000  0.04491000  0.57473000  1.0
  C  C41  1  0.70692000  0.95509000  0.07474000  1.0
  C  C42  1  0.20692000  0.95509000  0.42526000  1.0
  C  C43  1  0.29308000  0.04490000  0.92526000  1.0
  C  C44  1  0.82974000  0.04791000  0.66552000  1.0
  C  C45  1  0.67026000  0.95209000  0.16552000  1.0
  C  C46  1  0.17026000  0.95210000  0.33448000  1.0
  C  C47  1  0.32975000  0.04790000  0.83448000  1.0
  C  C48  1  0.79965000  0.93320000  0.72397000  1.0
  C  C49  1  0.70034000  0.06680000  0.22397000  1.0
  C  C50  1  0.20035000  0.06681000  0.27603000  1.0
  C  C51  1  0.29965000  0.93319000  0.77603000  1.0
  C  C52  1  0.73048000  0.81793000  0.69162000  1.0
  C  C53  1  0.76952000  0.18208000  0.19162000  1.0
  C  C54  1  0.26953000  0.18208000  0.30838000  1.0
  C  C55  1  0.23048000  0.81793000  0.80838000  1.0
  C  C56  1  0.61794000  0.69281000  0.56518000  1.0
  C  C57  1  0.88205000  0.30720000  0.06518000  1.0
  C  C58  1  0.38206000  0.30720000  0.43482000  1.0
  C  C59  1  0.11794000  0.69280000  0.93482000  1.0
  C  C60  1  0.89226000  0.21949000  0.78435000  1.0
  C  C61  1  0.60774000  0.78051000  0.28435000  1.0
  C  C62  1  0.10775000  0.78051000  0.21565000  1.0
  C  C63  1  0.39226000  0.21949000  0.71565000  1.0
  C  C64  1  0.95186000  0.27690000  0.64660000  1.0
  C  C65  1  0.54815000  0.72310000  0.14660000  1.0
  C  C66  1  0.04815000  0.72310000  0.35340000  1.0
  C  C67  1  0.45185000  0.27690000  0.85340000  1.0
  C  C68  1  0.98481000  0.38504000  0.70497000  1.0
  C  C69  1  0.51519000  0.61496000  0.20497000  1.0
  C  C70  1  0.01519000  0.61496000  0.29503000  1.0
  C  C71  1  0.48481000  0.38504000  0.79504000  1.0
  N  N72  1  0.94685000  0.34795000  0.79069000  1.0
  N  N73  1  0.55315000  0.65205000  0.29070000  1.0
  N  N74  1  0.05315000  0.65205000  0.20931000  1.0
  N  N75  1  0.44685000  0.34795000  0.70931000  1.0
  N  N76  1  0.89239000  0.17205000  0.69771000  1.0
  N  N77  1  0.60761000  0.82795000  0.19771000  1.0
  N  N78  1  0.10761000  0.82795000  0.30229000  1.0
  N  N79  1  0.39240000  0.17205000  0.80229000  1.0
  Cl  Cl80  1  0.83055000  0.32887000  0.41027000  1.0
  Cl  Cl81  1  0.66945000  0.67113000  0.91027000  1.0
  Cl  Cl82  1  0.16945000  0.67113000  0.58973000  1.0
  Cl  Cl83  1  0.33055000  0.32887000  0.08973000  1.0
  O  O84  1  0.58886000  0.69591000  0.48131000  1.0
  O  O85  1  0.91114000  0.30409000  0.98131000  1.0
  O  O86  1  0.41114000  0.30410000  0.51869000  1.0
  O  O87  1  0.08885000  0.69590000  0.01869000  1.0
  O  O88  1  0.58443000  0.59308000  0.61965000  1.0
  O  O89  1  0.91557000  0.40692000  0.11966000  1.0
  O  O90  1  0.41558000  0.40692000  0.38035000  1.0
  O  O91  1  0.08443000  0.59307000  0.88034000  1.0
