# generated using pymatgen
data_NaH16C18SNO10
_symmetry_space_group_name_H-M   'P 1'
_cell_length_a   7.88713000
_cell_length_b   8.63462000
_cell_length_c   14.19940000
_cell_angle_alpha   82.53120000
_cell_angle_beta   76.98740000
_cell_angle_gamma   71.08760000
_symmetry_Int_Tables_number   1
_chemical_formula_structural   NaH16C18SNO10
_chemical_formula_sum   'Na2 H32 C36 S2 N2 O20'
_cell_volume   889.61080327
_cell_formula_units_Z   2
loop_
 _symmetry_equiv_pos_site_id
 _symmetry_equiv_pos_as_xyz
  1  'x, y, z'
loop_
 _atom_site_type_symbol
 _atom_site_label
 _atom_site_symmetry_multiplicity
 _atom_site_fract_x
 _atom_site_fract_y
 _atom_site_fract_z
 _atom_site_occupancy
  Na  Na0  1  0.30866000  0.93405000  0.49831000  1.0
  Na  Na1  1  0.69134000  0.06595000  0.50169000  1.0
  H  H2  1  0.11708000  0.05025000  0.91409000  1.0
  H  H3  1  0.88293000  0.94975000  0.08591000  1.0
  H  H4  1  0.13584000  0.17927000  0.05761000  1.0
  H  H5  1  0.86416000  0.82073000  0.94239000  1.0
  H  H6  1  0.32373000  0.78389000  0.91336000  1.0
  H  H7  1  0.67627000  0.21611000  0.08664000  1.0
  H  H8  1  0.16948000  0.56827000  0.22793000  1.0
  H  H9  1  0.83052000  0.43173000  0.77207000  1.0
  H  H10  1  0.41808000  0.03618000  0.13769000  1.0
  H  H11  1  0.58191000  0.96383000  0.86231000  1.0
  H  H12  1  0.41396000  0.87128000  0.01106000  1.0
  H  H13  1  0.58603000  0.12873000  0.98894000  1.0
  H  H14  1  0.39551000  0.33175000  0.64832000  1.0
  H  H15  1  0.60449000  0.66825000  0.35168000  1.0
  H  H16  1  0.42244000  0.50177000  0.69546000  1.0
  H  H17  1  0.57756000  0.49823000  0.30454000  1.0
  H  H18  1  0.99422000  0.66072000  0.76994000  1.0
  H  H19  1  0.00578000  0.33928000  0.23006000  1.0
  H  H20  1  0.96065000  0.76669000  0.65715000  1.0
  H  H21  1  0.03934000  0.23331000  0.34285000  1.0
  H  H22  1  0.23914000  0.58742000  0.57782000  1.0
  H  H23  1  0.76086000  0.41258000  0.42218000  1.0
  H  H24  1  0.09175000  0.48642000  0.63431000  1.0
  H  H25  1  0.90825000  0.51359000  0.36569000  1.0
  H  H26  1  0.17550000  0.04648000  0.74980000  1.0
  H  H27  1  0.82450000  0.95352000  0.25020000  1.0
  H  H28  1  0.39349000  0.04977000  0.29742000  1.0
  H  H29  1  0.60651000  0.95023000  0.70258000  1.0
  H  H30  1  0.76161000  0.75621000  0.48656000  1.0
  H  H31  1  0.23839000  0.24379000  0.51343000  1.0
  H  H32  1  0.59635000  0.73648000  0.56901000  1.0
  H  H33  1  0.40365000  0.26351000  0.43099000  1.0
  C  C34  1  0.21343000  0.22433000  0.80979000  1.0
  C  C35  1  0.78657000  0.77568000  0.19021000  1.0
  C  C36  1  0.16227000  0.15882000  0.90526000  1.0
  C  C37  1  0.83773000  0.84118000  0.09473000  1.0
  C  C38  1  0.17030000  0.23144000  0.98435000  1.0
  C  C39  1  0.82971000  0.76855000  0.01564000  1.0
  C  C40  1  0.22296000  0.37527000  0.97271000  1.0
  C  C41  1  0.77705000  0.62472000  0.02729000  1.0
  C  C42  1  0.25972000  0.44396000  0.87806000  1.0
  C  C43  1  0.74028000  0.55604000  0.12194000  1.0
  C  C44  1  0.26026000  0.37115000  0.79553000  1.0
  C  C45  1  0.73974000  0.62885000  0.20447000  1.0
  C  C46  1  0.25036000  0.44526000  0.05427000  1.0
  C  C47  1  0.74963000  0.55474000  0.94574000  1.0
  C  C48  1  0.27972000  0.60748000  0.03303000  1.0
  C  C49  1  0.72028000  0.39252000  0.96697000  1.0
  C  C50  1  0.30207000  0.66624000  0.93859000  1.0
  C  C51  1  0.69794000  0.33376000  0.06141000  1.0
  C  C52  1  0.28841000  0.70555000  0.10881000  1.0
  C  C53  1  0.71159000  0.29445000  0.89119000  1.0
  C  C54  1  0.22262000  0.67149000  0.20708000  1.0
  C  C55  1  0.77738000  0.32851000  0.79292000  1.0
  C  C56  1  0.22759000  0.76403000  0.27944000  1.0
  C  C57  1  0.77241000  0.23597000  0.72056000  1.0
  C  C58  1  0.30283000  0.89392000  0.25473000  1.0
  C  C59  1  0.69717000  0.10608000  0.74527000  1.0
  C  C60  1  0.36557000  0.93150000  0.15715000  1.0
  C  C61  1  0.63442000  0.06850000  0.84285000  1.0
  C  C62  1  0.35947000  0.83895000  0.08583000  1.0
  C  C63  1  0.64052000  0.16105000  0.91417000  1.0
  C  C64  1  0.32724000  0.43381000  0.69541000  1.0
  C  C65  1  0.67276000  0.56619000  0.30459000  1.0
  C  C66  1  0.06538000  0.69668000  0.69912000  1.0
  C  C67  1  0.93462000  0.30332000  0.30088000  1.0
  C  C68  1  0.17621000  0.80808000  0.70791000  1.0
  C  C69  1  0.82379000  0.19192000  0.29209000  1.0
  S  S70  1  0.13494000  0.71233000  0.40139000  1.0
  S  S71  1  0.86506000  0.28767000  0.59861000  1.0
  N  N72  1  0.17875000  0.54815000  0.64631000  1.0
  N  N73  1  0.82125000  0.45185000  0.35369000  1.0
  O  O74  1  0.22211000  0.15072000  0.73141000  1.0
  O  O75  1  0.77790000  0.84928000  0.26859000  1.0
  O  O76  1  0.25226000  0.36798000  0.13542000  1.0
  O  O77  1  0.74774000  0.63203000  0.86458000  1.0
  O  O78  1  0.30270000  0.58772000  0.86243000  1.0
  O  O79  1  0.69731000  0.41228000  0.13757000  1.0
  O  O80  1  0.31531000  0.98124000  0.32587000  1.0
  O  O81  1  0.68468000  0.01876000  0.67413000  1.0
  O  O82  1  0.08438000  0.56354000  0.39900000  1.0
  O  O83  1  0.91562000  0.43645000  0.60100000  1.0
  O  O84  1  0.28339000  0.68113000  0.45610000  1.0
  O  O85  1  0.71661000  0.31887000  0.54390000  1.0
  O  O86  1  0.97833000  0.85318000  0.43697000  1.0
  O  O87  1  0.02167000  0.14682000  0.56303000  1.0
  O  O88  1  0.10090000  0.91148000  0.77258000  1.0
  O  O89  1  0.89910000  0.08852000  0.22742000  1.0
  O  O90  1  0.32616000  0.79548000  0.64951000  1.0
  O  O91  1  0.67384000  0.20452000  0.35049000  1.0
  O  O92  1  0.63170000  0.80569000  0.51293000  1.0
  O  O93  1  0.36830000  0.19431000  0.48707000  1.0
