# generated using pymatgen
data_Zn2H28C47N2O13
_symmetry_space_group_name_H-M   'P 1'
_cell_length_a   12.51720000
_cell_length_b   13.41410000
_cell_length_c   16.00530000
_cell_angle_alpha   90.13040000
_cell_angle_beta   106.90720000
_cell_angle_gamma   101.89910000
_symmetry_Int_Tables_number   1
_chemical_formula_structural   Zn2H28C47N2O13
_chemical_formula_sum   'Zn2 H28 C47 N2 O13'
_cell_volume   2510.42765025
_cell_formula_units_Z   1
loop_
 _symmetry_equiv_pos_site_id
 _symmetry_equiv_pos_as_xyz
  1  'x, y, z'
loop_
 _atom_site_type_symbol
 _atom_site_label
 _atom_site_symmetry_multiplicity
 _atom_site_fract_x
 _atom_site_fract_y
 _atom_site_fract_z
 _atom_site_occupancy
  Zn  Zn0  1  0.61483000  0.49058000  0.51851000  1.0
  Zn  Zn1  1  0.38118000  0.50902000  0.47374000  1.0
  H  H2  1  0.57308000  0.65228000  0.93531000  1.0
  H  H3  1  0.72577000  0.33638000  0.61967000  1.0
  H  H4  1  0.10654000  0.30809000  0.62883000  1.0
  H  H5  1  0.91212000  0.27938000  0.64746000  1.0
  H  H6  1  0.81966000  0.56273000  0.46467000  1.0
  H  H7  1  0.27508000  0.66306000  0.38144000  1.0
  H  H8  1  0.94139000  0.64350000  0.41179000  1.0
  H  H9  1  0.34863000  0.57399000  0.02845000  1.0
  H  H10  1  0.36981000  0.57732000  0.88847000  1.0
  H  H11  1  0.60732000  0.39420000  0.10179000  1.0
  H  H12  1  0.46017000  0.33429000  0.06855000  1.0
  H  H13  1  0.66730000  0.58662000  0.11081000  1.0
  H  H14  1  0.16507000  0.92711000  0.59294000  1.0
  H  H15  1  0.68347000  0.10369000  0.50885000  1.0
  H  H16  1  0.90487000  0.96212000  0.49095000  1.0
  H  H17  1  0.56377000  0.66214000  0.07902000  1.0
  H  H18  1  0.16422000  0.78558000  0.31290000  1.0
  H  H19  1  0.24994000  0.40101000  0.56280000  1.0
  H  H20  1  0.31117000  0.43937000  0.02150000  1.0
  H  H21  1  0.28267000  0.34353000  0.88490000  1.0
  H  H22  1  0.64367000  0.36357000  0.88630000  1.0
  H  H23  1  0.67574000  0.57642000  0.96741000  1.0
  H  H24  1  0.46295000  0.32586000  0.92368000  1.0
  H  H25  1  0.24802000  0.19763000  0.54413000  1.0
  H  H26  1  0.28488000  0.84760000  0.59743000  1.0
  H  H27  1  0.55875000  0.17566000  0.49199000  1.0
  H  H28  1  0.76908000  0.81063000  0.50565000  1.0
  H  H29  1  0.41526000  0.74568000  0.57725000  1.0
  C  C30  1  0.57423000  0.69525000  0.51722000  1.0
  C  C31  1  0.40621000  0.19630000  0.51491000  1.0
  C  C32  1  0.71019000  0.85719000  0.51345000  1.0
  C  C33  1  0.48622000  0.50532000  0.33275000  1.0
  C  C34  1  0.73764000  0.96393000  0.50909000  1.0
  C  C35  1  0.65935000  0.02178000  0.51472000  1.0
  C  C36  1  0.55463000  0.97648000  0.52849000  1.0
  C  C37  1  0.52987000  0.86910000  0.53826000  1.0
  C  C38  1  0.47103000  0.03581000  0.53295000  1.0
  C  C39  1  0.37131000  0.98966000  0.55685000  1.0
  C  C40  1  0.35676000  0.88401000  0.57491000  1.0
  C  C41  1  0.59039000  0.58343000  0.96890000  1.0
  C  C42  1  0.43056000  0.82612000  0.56411000  1.0
  C  C43  1  0.48542000  0.13832000  0.51230000  1.0
  C  C44  1  0.31027000  0.15280000  0.54093000  1.0
  C  C45  1  0.42932000  0.30565000  0.49331000  1.0
  C  C46  1  0.60705000  0.80966000  0.52567000  1.0
  C  C47  1  0.89535000  0.34347000  0.60774000  1.0
  C  C48  1  0.20635000  0.62726000  0.40796000  1.0
  C  C49  1  0.10530000  0.66397000  0.39152000  1.0
  C  C50  1  0.02009000  0.61516000  0.42641000  1.0
  C  C51  1  0.03727000  0.53282000  0.47867000  1.0
  C  C52  1  0.50140000  0.48993000  0.91567000  1.0
  C  C53  1  0.14384000  0.50194000  0.49452000  1.0
  C  C54  1  0.95351000  0.47798000  0.51789000  1.0
  C  C55  1  0.97894000  0.39606000  0.57115000  1.0
  C  C56  1  0.08775000  0.36992000  0.58671000  1.0
  C  C57  1  0.51133000  0.49542000  0.66124000  1.0
  C  C58  1  0.16732000  0.42125000  0.55029000  1.0
  C  C59  1  0.84625000  0.50217000  0.50569000  1.0
  C  C60  1  0.79302000  0.37365000  0.59255000  1.0
  C  C61  1  0.58458000  0.58985000  0.06390000  1.0
  C  C62  1  0.37528000  0.50503000  0.01273000  1.0
  C  C63  1  0.52768000  0.39128000  0.96212000  1.0
  C  C64  1  0.38082000  0.50436000  0.91708000  1.0
  C  C65  1  0.51107000  0.49023000  0.75148000  1.0
  C  C66  1  0.49256000  0.50004000  0.07739000  1.0
  C  C67  1  0.18958000  0.01149000  0.59016000  1.0
  C  C68  1  0.84832000  0.01461000  0.49671000  1.0
  C  C69  1  0.09105000  0.75313000  0.33835000  1.0
  C  C70  1  0.28451000  0.42248000  0.86146000  1.0
  C  C71  1  0.64058000  0.37241000  0.95485000  1.0
  C  C72  1  0.52337000  0.39847000  0.05699000  1.0
  C  C73  1  0.50681000  0.48744000  0.82632000  1.0
  C  C74  1  0.48780000  0.50416000  0.16686000  1.0
  C  C75  1  0.48404000  0.50558000  0.24185000  1.0
  C  C76  1  0.29236000  0.05131000  0.56235000  1.0
  N  N77  1  0.76962000  0.45254000  0.54234000  1.0
  N  N78  1  0.22499000  0.54900000  0.45711000  1.0
  O  O79  1  0.65199000  0.64569000  0.54752000  1.0
  O  O80  1  0.87862000  0.10697000  0.49289000  1.0
  O  O81  1  0.00658000  0.79061000  0.32281000  1.0
  O  O82  1  0.21018000  0.43752000  0.79721000  1.0
  O  O83  1  0.72255000  0.36643000  0.01686000  1.0
  O  O84  1  0.46981000  0.65728000  0.47648000  1.0
  O  O85  1  0.58519000  0.51859000  0.38832000  1.0
  O  O86  1  0.39039000  0.49160000  0.34876000  1.0
  O  O87  1  0.52563000  0.34143000  0.48164000  1.0
  O  O88  1  0.35208000  0.35564000  0.49039000  1.0
  O  O89  1  0.58972000  0.46351000  0.64043000  1.0
  O  O90  1  0.43143000  0.53157000  0.61074000  1.0
  O  O91  1  0.13111000  0.06557000  0.60965000  1.0
