# generated using pymatgen
data_CdH16C9S4(NO)2
_symmetry_space_group_name_H-M   'P 1'
_cell_length_a   9.73184000
_cell_length_b   11.76320000
_cell_length_c   13.36670000
_cell_angle_alpha   90.63740000
_cell_angle_beta   90.99080000
_cell_angle_gamma   105.25900000
_symmetry_Int_Tables_number   1
_chemical_formula_structural   CdH16C9S4(NO)2
_chemical_formula_sum   'Cd4 H64 C36 S16 N8 O8'
_cell_volume   1475.82660506
_cell_formula_units_Z   4
loop_
 _symmetry_equiv_pos_site_id
 _symmetry_equiv_pos_as_xyz
  1  'x, y, z'
loop_
 _atom_site_type_symbol
 _atom_site_label
 _atom_site_symmetry_multiplicity
 _atom_site_fract_x
 _atom_site_fract_y
 _atom_site_fract_z
 _atom_site_occupancy
  Cd  Cd0  1  0.06512000  0.02122000  0.27351000  1.0
  Cd  Cd1  1  0.93488000  0.97878000  0.72649000  1.0
  Cd  Cd2  1  0.50000000  0.00000000  0.50000000  1.0
  Cd  Cd3  1  0.50000000  0.00000000  0.00000000  1.0
  H  H4  1  0.05167000  0.68703000  0.00308000  1.0
  H  H5  1  0.94833000  0.31297000  0.99692000  1.0
  H  H6  1  0.91348000  0.75091000  0.95987000  1.0
  H  H7  1  0.08652000  0.24909000  0.04013000  1.0
  H  H8  1  0.87460000  0.54122000  0.89308000  1.0
  H  H9  1  0.12541000  0.45878000  0.10692000  1.0
  H  H10  1  0.73343000  0.55865000  0.96996000  1.0
  H  H11  1  0.26657000  0.44136000  0.03004000  1.0
  H  H12  1  0.86292000  0.48997000  0.01835000  1.0
  H  H13  1  0.13708000  0.51003000  0.98165000  1.0
  H  H14  1  0.26351000  0.30855000  0.57851000  1.0
  H  H15  1  0.73649000  0.69145000  0.42150000  1.0
  H  H16  1  0.11914000  0.35670000  0.52718000  1.0
  H  H17  1  0.88086000  0.64330000  0.47282000  1.0
  H  H18  1  0.27476000  0.52008000  0.62758000  1.0
  H  H19  1  0.72524000  0.47991000  0.37242000  1.0
  H  H20  1  0.29638000  0.55892000  0.49886000  1.0
  H  H21  1  0.70362000  0.44108000  0.50115000  1.0
  H  H22  1  0.42882000  0.50755000  0.56390000  1.0
  H  H23  1  0.57118000  0.49245000  0.43610000  1.0
  H  H24  1  0.15798000  0.67759000  0.21967000  1.0
  H  H25  1  0.84202000  0.32240000  0.78033000  1.0
  H  H26  1  0.08569000  0.70874000  0.33518000  1.0
  H  H27  1  0.91431000  0.29126000  0.66481000  1.0
  H  H28  1  0.96810000  0.50025000  0.27091000  1.0
  H  H29  1  0.03191000  0.49975000  0.72909000  1.0
  H  H30  1  0.05450000  0.50024000  0.38925000  1.0
  H  H31  1  0.94550000  0.49976000  0.61075000  1.0
  H  H32  1  0.13730000  0.46747000  0.27908000  1.0
  H  H33  1  0.86270000  0.53253000  0.72093000  1.0
  H  H34  1  0.38583000  0.57796000  0.15193000  1.0
  H  H35  1  0.61417000  0.42204000  0.84807000  1.0
  H  H36  1  0.52782000  0.65362000  0.23394000  1.0
  H  H37  1  0.47218000  0.34638000  0.76605000  1.0
  H  H38  1  0.49893000  0.43347000  0.23437000  1.0
  H  H39  1  0.50107000  0.56653000  0.76563000  1.0
  H  H40  1  0.66847000  0.50968000  0.18680000  1.0
  H  H41  1  0.33154000  0.49032000  0.81320000  1.0
  H  H42  1  0.52700000  0.43461000  0.10352000  1.0
  H  H43  1  0.47301000  0.56539000  0.89648000  1.0
  H  H44  1  0.74093000  0.96090000  0.34579000  1.0
  H  H45  1  0.25906000  0.03910000  0.65421000  1.0
  H  H46  1  0.82629000  0.09251000  0.41508000  1.0
  H  H47  1  0.17371000  0.90749000  0.58492000  1.0
  H  H48  1  0.83654000  0.08795000  0.10081000  1.0
  H  H49  1  0.16346000  0.91205000  0.89919000  1.0
  H  H50  1  0.74845000  0.95883000  0.16666000  1.0
  H  H51  1  0.25155000  0.04117000  0.83334000  1.0
  H  H52  1  0.94602000  0.26641000  0.32935000  1.0
  H  H53  1  0.05398000  0.73359000  0.67065000  1.0
  H  H54  1  0.95220000  0.26654000  0.19564000  1.0
  H  H55  1  0.04780000  0.73346000  0.80436000  1.0
  H  H56  1  0.45412000  0.07564000  0.24627000  1.0
  H  H57  1  0.54588000  0.92436000  0.75373000  1.0
  H  H58  1  0.52714000  0.95094000  0.24985000  1.0
  H  H59  1  0.47286000  0.04906000  0.75015000  1.0
  H  H60  1  0.56887000  0.25187000  0.33957000  1.0
  H  H61  1  0.43113000  0.74813000  0.66042000  1.0
  H  H62  1  0.72817000  0.25861000  0.41151000  1.0
  H  H63  1  0.27183000  0.74139000  0.58849000  1.0
  H  H64  1  0.73700000  0.25562000  0.09809000  1.0
  H  H65  1  0.26299000  0.74438000  0.90191000  1.0
  H  H66  1  0.57397000  0.24858000  0.16082000  1.0
  H  H67  1  0.42603000  0.75143000  0.83918000  1.0
  C  C68  1  0.95017000  0.80055000  0.15275000  1.0
  C  C69  1  0.04983000  0.19945000  0.84725000  1.0
  C  C70  1  0.93638000  0.67944000  0.00416000  1.0
  C  C71  1  0.06362000  0.32056000  0.99584000  1.0
  C  C72  1  0.84642000  0.55991000  0.96958000  1.0
  C  C73  1  0.15358000  0.44009000  0.03042000  1.0
  C  C74  1  0.21997000  0.23970000  0.38687000  1.0
  C  C75  1  0.78004000  0.76030000  0.61313000  1.0
  C  C76  1  0.23577000  0.37210000  0.52784000  1.0
  C  C77  1  0.76423000  0.62790000  0.47217000  1.0
  C  C78  1  0.31385000  0.49719000  0.55551000  1.0
  C  C79  1  0.68615000  0.50281000  0.44450000  1.0
  C  C80  1  0.34901000  0.78117000  0.38329000  1.0
  C  C81  1  0.65098000  0.21883000  0.61671000  1.0
  C  C82  1  0.14350000  0.65187000  0.29842000  1.0
  C  C83  1  0.85650000  0.34813000  0.70158000  1.0
  C  C84  1  0.07222000  0.52235000  0.30999000  1.0
  C  C85  1  0.92778000  0.47765000  0.69001000  1.0
  C  C86  1  0.54258000  0.76484000  0.05660000  1.0
  C  C87  1  0.45742000  0.23516000  0.94340000  1.0
  C  C88  1  0.50118000  0.59731000  0.16636000  1.0
  C  C89  1  0.49882000  0.40268000  0.83364000  1.0
  C  C90  1  0.55293000  0.48747000  0.17292000  1.0
  C  C91  1  0.44708000  0.51253000  0.82708000  1.0
  C  C92  1  0.76630000  0.05755000  0.34619000  1.0
  C  C93  1  0.23370000  0.94245000  0.65381000  1.0
  C  C94  1  0.77260000  0.05536000  0.16659000  1.0
  C  C95  1  0.22740000  0.94464000  0.83341000  1.0
  C  C96  1  0.88610000  0.23269000  0.26006000  1.0
  C  C97  1  0.11390000  0.76731000  0.73994000  1.0
  C  C98  1  0.55313000  0.04750000  0.24993000  1.0
  C  C99  1  0.44687000  0.95250000  0.75007000  1.0
  C  C100  1  0.66839000  0.22454000  0.34233000  1.0
  C  C101  1  0.33161000  0.77546000  0.65767000  1.0
  C  C102  1  0.67409000  0.22235000  0.16406000  1.0
  C  C103  1  0.32590000  0.77765000  0.83594000  1.0
  S  S104  1  0.88474000  0.81000000  0.26905000  1.0
  S  S105  1  0.11526000  0.19000000  0.73095000  1.0
  S  S106  1  0.07177000  0.91190000  0.09838000  1.0
  S  S107  1  0.92823000  0.08810000  0.90162000  1.0
  S  S108  1  0.26029000  0.22470000  0.26422000  1.0
  S  S109  1  0.73972000  0.77530000  0.73578000  1.0
  S  S110  1  0.11583000  0.12923000  0.45440000  1.0
  S  S111  1  0.88417000  0.87077000  0.54560000  1.0
  S  S112  1  0.51653000  0.79380000  0.42925000  1.0
  S  S113  1  0.48346000  0.20620000  0.57075000  1.0
  S  S114  1  0.26622000  0.89224000  0.39149000  1.0
  S  S115  1  0.73378000  0.10776000  0.60851000  1.0
  S  S116  1  0.65812000  0.84794000  0.97474000  1.0
  S  S117  1  0.34188000  0.15206000  0.02526000  1.0
  S  S118  1  0.39725000  0.80230000  0.10157000  1.0
  S  S119  1  0.60275000  0.19770000  0.89843000  1.0
  N  N120  1  0.85578000  0.10202000  0.25897000  1.0
  N  N121  1  0.14422000  0.89798000  0.74103000  1.0
  N  N122  1  0.63223000  0.09378000  0.34368000  1.0
  N  N123  1  0.36777000  0.90622000  0.65632000  1.0
  N  N124  1  0.63862000  0.09145000  0.16096000  1.0
  N  N125  1  0.36138000  0.90855000  0.83904000  1.0
  N  N126  1  0.75476000  0.27103000  0.25559000  1.0
  N  N127  1  0.24524000  0.72897000  0.74441000  1.0
  O  O128  1  0.89859000  0.69561000  0.10714000  1.0
  O  O129  1  0.10141000  0.30439000  0.89286000  1.0
  O  O130  1  0.27571000  0.34718000  0.42652000  1.0
  O  O131  1  0.72429000  0.65282000  0.57348000  1.0
  O  O132  1  0.28591000  0.67525000  0.34349000  1.0
  O  O133  1  0.71409000  0.32475000  0.65651000  1.0
  O  O134  1  0.57410000  0.66518000  0.08282000  1.0
  O  O135  1  0.42590000  0.33481000  0.91717000  1.0
