# generated using pymatgen
data_CuH26(C9N4)2
_symmetry_space_group_name_H-M   'P 1'
_cell_length_a   7.24078000
_cell_length_b   11.56270000
_cell_length_c   12.75490000
_cell_angle_alpha   110.42700000
_cell_angle_beta   90.00000000
_cell_angle_gamma   90.00000000
_symmetry_Int_Tables_number   1
_chemical_formula_structural   CuH26(C9N4)2
_chemical_formula_sum   'Cu2 H52 C36 N16'
_cell_volume   1000.72736100
_cell_formula_units_Z   2
loop_
 _symmetry_equiv_pos_site_id
 _symmetry_equiv_pos_as_xyz
  1  'x, y, z'
loop_
 _atom_site_type_symbol
 _atom_site_label
 _atom_site_symmetry_multiplicity
 _atom_site_fract_x
 _atom_site_fract_y
 _atom_site_fract_z
 _atom_site_occupancy
  Cu  Cu0  1  0.74691000  0.82873000  0.42191000  1.0
  Cu  Cu1  1  0.24690000  0.17127000  0.57809000  1.0
  H  H2  1  0.82587000  0.84344000  0.23920000  1.0
  H  H3  1  0.32586000  0.15656000  0.76081000  1.0
  H  H4  1  0.47154000  0.89424000  0.55822000  1.0
  H  H5  1  0.97154000  0.10575000  0.44177000  1.0
  H  H6  1  0.67460000  0.94190000  0.61819000  1.0
  H  H7  1  0.17460000  0.05809000  0.38181000  1.0
  H  H8  1  0.02489000  0.82851000  0.29799000  1.0
  H  H9  1  0.52489000  0.17149000  0.70202000  1.0
  H  H10  1  0.97571000  0.59881000  0.34064000  1.0
  H  H11  1  0.47572000  0.40119000  0.65937000  1.0
  H  H12  1  0.16806000  0.62626000  0.26641000  1.0
  H  H13  1  0.66806000  0.37374000  0.73359000  1.0
  H  H14  1  0.02988000  0.49277000  0.20421000  1.0
  H  H15  1  0.52989000  0.50723000  0.79580000  1.0
  H  H16  1  0.76061000  0.62601000  0.19826000  1.0
  H  H17  1  0.26061000  0.37400000  0.80174000  1.0
  H  H18  1  0.11433000  0.81940000  0.12932000  1.0
  H  H19  1  0.61433000  0.18060000  0.87068000  1.0
  H  H20  1  0.20226000  0.79152000  0.93587000  1.0
  H  H21  1  0.70227000  0.20849000  0.06414000  1.0
  H  H22  1  0.21362000  0.67442000  0.74302000  1.0
  H  H23  1  0.71361000  0.32559000  0.25699000  1.0
  H  H24  1  0.00305000  0.59613000  0.69226000  1.0
  H  H25  1  0.50303000  0.40388000  0.30774000  1.0
  H  H26  1  0.19853000  0.51152000  0.70522000  1.0
  H  H27  1  0.69851000  0.48849000  0.29479000  1.0
  H  H28  1  0.92715000  0.44037000  0.81990000  1.0
  H  H29  1  0.42715000  0.55963000  0.18010000  1.0
  H  H30  1  0.82849000  0.47043000  0.01296000  1.0
  H  H31  1  0.32849000  0.52957000  0.98704000  1.0
  H  H32  1  0.48550000  0.63506000  0.45976000  1.0
  H  H33  1  0.98549000  0.36492000  0.54024000  1.0
  H  H34  1  0.32031000  0.70625000  0.56611000  1.0
  H  H35  1  0.82030000  0.29374000  0.43388000  1.0
  H  H36  1  0.46759000  0.58915000  0.57938000  1.0
  H  H37  1  0.96758000  0.41084000  0.42062000  1.0
  H  H38  1  0.74280000  0.72315000  0.59546000  1.0
  H  H39  1  0.24280000  0.27684000  0.40454000  1.0
  H  H40  1  0.40682000  0.96771000  0.74920000  1.0
  H  H41  1  0.90681000  0.03229000  0.25079000  1.0
  H  H42  1  0.37517000  0.03876000  0.95537000  1.0
  H  H43  1  0.87517000  0.96124000  0.04462000  1.0
  H  H44  1  0.56302000  0.86377000  0.13285000  1.0
  H  H45  1  0.06303000  0.13623000  0.86714000  1.0
  H  H46  1  0.35956000  0.94416000  0.12173000  1.0
  H  H47  1  0.85957000  0.05584000  0.87826000  1.0
  H  H48  1  0.57410000  0.02053000  0.14107000  1.0
  H  H49  1  0.07411000  0.97947000  0.85893000  1.0
  H  H50  1  0.69610000  0.72840000  0.96160000  1.0
  H  H51  1  0.19611000  0.27161000  0.03840000  1.0
  H  H52  1  0.73866000  0.66302000  0.75768000  1.0
  H  H53  1  0.23867000  0.33698000  0.24232000  1.0
  C  C54  1  0.02623000  0.59050000  0.25710000  1.0
  C  C55  1  0.52624000  0.40950000  0.74290000  1.0
  C  C56  1  0.90234000  0.66201000  0.20406000  1.0
  C  C57  1  0.40234000  0.33799000  0.79594000  1.0
  C  C58  1  0.96306000  0.64763000  0.08600000  1.0
  C  C59  1  0.46306000  0.35237000  0.91400000  1.0
  C  C60  1  0.06944000  0.73639000  0.06213000  1.0
  C  C61  1  0.56944000  0.26361000  0.93787000  1.0
  C  C62  1  0.12053000  0.72049000  0.95235000  1.0
  C  C63  1  0.62053000  0.27951000  0.04765000  1.0
  C  C64  1  0.06958000  0.61476000  0.86313000  1.0
  C  C65  1  0.56958000  0.38524000  0.13687000  1.0
  C  C66  1  0.12421000  0.59871000  0.74512000  1.0
  C  C67  1  0.62420000  0.40130000  0.25489000  1.0
  C  C68  1  0.96555000  0.52482000  0.88765000  1.0
  C  C69  1  0.46555000  0.47518000  0.11236000  1.0
  C  C70  1  0.91186000  0.54112000  0.99677000  1.0
  C  C71  1  0.41185000  0.45888000  0.00323000  1.0
  C  C72  1  0.46074000  0.66787000  0.55035000  1.0
  C  C73  1  0.96073000  0.33212000  0.44965000  1.0
  C  C74  1  0.60428000  0.76495000  0.61202000  1.0
  C  C75  1  0.10428000  0.23504000  0.38798000  1.0
  C  C76  1  0.57744000  0.81091000  0.73817000  1.0
  C  C77  1  0.07744000  0.18909000  0.26183000  1.0
  C  C78  1  0.47386000  0.91624000  0.79575000  1.0
  C  C79  1  0.97386000  0.08376000  0.20424000  1.0
  C  C80  1  0.45386000  0.95542000  0.91174000  1.0
  C  C81  1  0.95386000  0.04459000  0.08826000  1.0
  C  C82  1  0.53220000  0.88912000  0.97402000  1.0
  C  C83  1  0.03220000  0.11089000  0.02597000  1.0
  C  C84  1  0.50621000  0.93126000  0.09867000  1.0
  C  C85  1  0.00622000  0.06874000  0.90133000  1.0
  C  C86  1  0.63336000  0.78263000  0.91601000  1.0
  C  C87  1  0.13337000  0.21738000  0.08399000  1.0
  C  C88  1  0.65683000  0.74520000  0.80034000  1.0
  C  C89  1  0.15683000  0.25480000  0.19965000  1.0
  N  N90  1  0.89252000  0.79275000  0.27931000  1.0
  N  N91  1  0.39251000  0.20725000  0.72069000  1.0
  N  N92  1  0.60519000  0.86591000  0.56541000  1.0
  N  N93  1  0.10519000  0.13409000  0.43459000  1.0
  N  N94  1  0.97807000  0.82210000  0.51130000  1.0
  N  N95  1  0.47807000  0.17790000  0.48870000  1.0
  N  N96  1  0.52150000  0.76103000  0.32412000  1.0
  N  N97  1  0.02150000  0.23897000  0.67588000  1.0
  N  N98  1  0.09812000  0.89650000  0.54244000  1.0
  N  N99  1  0.59812000  0.10351000  0.45756000  1.0
  N  N100  1  0.22230000  0.96677000  0.57495000  1.0
  N  N101  1  0.72230000  0.03323000  0.42505000  1.0
  N  N102  1  0.39624000  0.82646000  0.31984000  1.0
  N  N103  1  0.89624000  0.17353000  0.68016000  1.0
  N  N104  1  0.27042000  0.88789000  0.31280000  1.0
  N  N105  1  0.77041000  0.11211000  0.68720000  1.0
