# generated using pymatgen
data_ZnH12C14(NO)4
_symmetry_space_group_name_H-M   'P 1'
_cell_length_a   8.30786000
_cell_length_b   9.86027000
_cell_length_c   9.97839000
_cell_angle_alpha   89.99980000
_cell_angle_beta   89.99970000
_cell_angle_gamma   76.03500000
_symmetry_Int_Tables_number   1
_chemical_formula_structural   ZnH12C14(NO)4
_chemical_formula_sum   'Zn2 H24 C28 N8 O8'
_cell_volume   793.24734784
_cell_formula_units_Z   2
loop_
 _symmetry_equiv_pos_site_id
 _symmetry_equiv_pos_as_xyz
  1  'x, y, z'
loop_
 _atom_site_type_symbol
 _atom_site_label
 _atom_site_symmetry_multiplicity
 _atom_site_fract_x
 _atom_site_fract_y
 _atom_site_fract_z
 _atom_site_occupancy
  Zn  Zn0  1  0.40264000  0.34089000  0.89739000  1.0
  Zn  Zn1  1  0.90264000  0.84089000  0.10261000  1.0
  H  H2  1  0.09333000  0.64984000  0.52119000  1.0
  H  H3  1  0.59333000  0.14984000  0.47881000  1.0
  H  H4  1  0.27525000  0.40682000  0.58455000  1.0
  H  H5  1  0.77525000  0.90682000  0.41544000  1.0
  H  H6  1  0.87406000  0.53521000  0.06540000  1.0
  H  H7  1  0.37406000  0.03521000  0.93459000  1.0
  H  H8  1  0.02244000  0.35964000  0.88792000  1.0
  H  H9  1  0.52244000  0.85964000  0.11208000  1.0
  H  H10  1  0.72380000  0.63399000  0.76652000  1.0
  H  H11  1  0.22380000  0.13399000  0.23348000  1.0
  H  H12  1  0.77522000  0.23803000  0.78733000  1.0
  H  H13  1  0.27522000  0.73803000  0.21267000  1.0
  H  H14  1  0.56642000  0.53469000  0.08252000  1.0
  H  H15  1  0.06642000  0.03469000  0.91748000  1.0
  H  H16  1  0.34447000  0.01192000  0.51014000  1.0
  H  H17  1  0.84447000  0.51191000  0.48986000  1.0
  H  H18  1  0.55322000  0.57322000  0.58044000  1.0
  H  H19  1  0.05322000  0.07321000  0.41956000  1.0
  H  H20  1  0.03587000  0.80936000  0.72858000  1.0
  H  H21  1  0.53588000  0.30937000  0.27143000  1.0
  H  H22  1  0.19568000  0.64514000  0.94014000  1.0
  H  H23  1  0.69568000  0.14514000  0.05986000  1.0
  H  H24  1  0.36395000  0.76361000  0.45091000  1.0
  H  H25  1  0.86394000  0.26361000  0.54909000  1.0
  C  C26  1  0.23138000  0.49305000  0.65318000  1.0
  C  C27  1  0.73138000  0.99306000  0.34682000  1.0
  C  C28  1  0.52317000  0.96262000  0.67034000  1.0
  C  C29  1  0.02317000  0.46262000  0.32966000  1.0
  C  C30  1  0.49670000  0.11378000  0.70866000  1.0
  C  C31  1  0.99670000  0.61378000  0.29134000  1.0
  C  C32  1  0.63110000  0.85559000  0.74289000  1.0
  C  C33  1  0.13110000  0.35559000  0.25711000  1.0
  C  C34  1  0.89151000  0.37815000  0.91015000  1.0
  C  C35  1  0.39151000  0.87815000  0.08985000  1.0
  C  C36  1  0.74110000  0.88913000  0.85166000  1.0
  C  C37  1  0.24110000  0.38913000  0.14835000  1.0
  C  C38  1  0.64057000  0.71592000  0.70923000  1.0
  C  C39  1  0.14057000  0.21592000  0.29077000  1.0
  C  C40  1  0.76905000  0.32003000  0.86079000  1.0
  C  C41  1  0.26905000  0.82003000  0.13921000  1.0
  C  C42  1  0.65650000  0.47123000  0.01526000  1.0
  C  C43  1  0.15650000  0.97123000  0.98474000  1.0
  C  C44  1  0.42874000  0.92835000  0.56501000  1.0
  C  C45  1  0.92873000  0.42834000  0.43499000  1.0
  C  C46  1  0.54586000  0.68249000  0.60437000  1.0
  C  C47  1  0.04586000  0.18249000  0.39563000  1.0
  C  C48  1  0.10866000  0.70225000  0.73116000  1.0
  C  C49  1  0.60867000  0.20226000  0.26885000  1.0
  C  C50  1  0.18715000  0.62099000  0.83489000  1.0
  C  C51  1  0.68715000  0.12099000  0.16511000  1.0
  C  C52  1  0.43982000  0.78882000  0.53198000  1.0
  C  C53  1  0.93982000  0.28882000  0.46803000  1.0
  N  N54  1  0.13781000  0.61965000  0.61832000  1.0
  N  N55  1  0.63782000  0.11966000  0.38168000  1.0
  N  N56  1  0.62282000  0.37906000  0.92778000  1.0
  N  N57  1  0.12282000  0.87906000  0.07222000  1.0
  N  N58  1  0.26334000  0.49040000  0.78472000  1.0
  N  N59  1  0.76334000  0.99040000  0.21527000  1.0
  N  N60  1  0.81776000  0.47238000  0.00689000  1.0
  N  N61  1  0.31776000  0.97238000  0.99310000  1.0
  O  O62  1  0.43999000  0.14511000  0.82827000  1.0
  O  O63  1  0.93998000  0.64511000  0.17174000  1.0
  O  O64  1  0.51968000  0.20348000  0.62615000  1.0
  O  O65  1  0.01968000  0.70348000  0.37386000  1.0
  O  O66  1  0.80347000  0.99220000  0.83945000  1.0
  O  O67  1  0.30346000  0.49220000  0.16055000  1.0
  O  O68  1  0.76572000  0.80290000  0.95177000  1.0
  O  O69  1  0.26572000  0.30291000  0.04823000  1.0
