# generated using pymatgen
data_ZnH11C15I(NO)4
_symmetry_space_group_name_H-M   'P 1'
_cell_length_a   9.40579000
_cell_length_b   10.20270000
_cell_length_c   11.11710000
_cell_angle_alpha   75.89420000
_cell_angle_beta   67.37220000
_cell_angle_gamma   76.12800000
_symmetry_Int_Tables_number   1
_chemical_formula_structural   ZnH11C15I(NO)4
_chemical_formula_sum   'Zn2 H22 C30 I2 N8 O8'
_cell_volume   942.24749067
_cell_formula_units_Z   2
loop_
 _symmetry_equiv_pos_site_id
 _symmetry_equiv_pos_as_xyz
  1  'x, y, z'
loop_
 _atom_site_type_symbol
 _atom_site_label
 _atom_site_symmetry_multiplicity
 _atom_site_fract_x
 _atom_site_fract_y
 _atom_site_fract_z
 _atom_site_occupancy
  Zn  Zn0  1  0.93318000  0.95996000  0.70962000  1.0
  Zn  Zn1  1  0.06681000  0.04004000  0.29038000  1.0
  H  H2  1  0.60533000  0.84759000  0.82751000  1.0
  H  H3  1  0.39466000  0.15242000  0.17249000  1.0
  H  H4  1  0.78279000  0.13727000  0.50621000  1.0
  H  H5  1  0.21721000  0.86274000  0.49379000  1.0
  H  H6  1  0.49883000  0.16826000  0.52290000  1.0
  H  H7  1  0.50117000  0.83173000  0.47710000  1.0
  H  H8  1  0.19565000  0.86232000  0.05177000  1.0
  H  H9  1  0.80435000  0.13768000  0.94823000  1.0
  H  H10  1  0.10409000  0.26945000  0.06714000  1.0
  H  H11  1  0.89591000  0.73055000  0.93286000  1.0
  H  H12  1  0.21008000  0.26801000  0.81114000  1.0
  H  H13  1  0.78993000  0.73199000  0.18885000  1.0
  H  H14  1  0.30843000  0.86474000  0.78066000  1.0
  H  H15  1  0.69157000  0.13526000  0.21934000  1.0
  H  H16  1  0.25683000  0.01954000  0.68307000  1.0
  H  H17  1  0.74317000  0.98045000  0.31694000  1.0
  H  H18  1  0.91890000  0.44659000  0.74603000  1.0
  H  H19  1  0.08110000  0.55341000  0.25396000  1.0
  H  H20  1  0.26833000  0.24075000  0.43816000  1.0
  H  H21  1  0.73167000  0.75925000  0.56183000  1.0
  H  H22  1  0.30395000  0.64518000  0.46893000  1.0
  H  H23  1  0.69605000  0.35482000  0.53107000  1.0
  C  C24  1  0.60454000  0.93026000  0.74496000  1.0
  C  C25  1  0.39546000  0.06974000  0.25504000  1.0
  C  C26  1  0.48236000  0.99567000  0.69704000  1.0
  C  C27  1  0.51764000  0.00433000  0.30296000  1.0
  C  C28  1  0.54822000  0.09375000  0.59029000  1.0
  C  C29  1  0.45178000  0.90624000  0.40971000  1.0
  C  C30  1  0.18726000  0.97081000  0.01074000  1.0
  C  C31  1  0.81274000  0.02919000  0.98926000  1.0
  C  C32  1  0.23180000  0.03820000  0.87880000  1.0
  C  C33  1  0.76820000  0.96180000  0.12120000  1.0
  C  C34  1  0.19496000  0.17757000  0.88728000  1.0
  C  C35  1  0.80505000  0.82242000  0.11272000  1.0
  C  C36  1  0.31499000  0.97476000  0.75601000  1.0
  C  C37  1  0.68501000  0.02524000  0.24399000  1.0
  C  C38  1  0.10575000  0.55778000  0.61760000  1.0
  C  C39  1  0.89425000  0.44222000  0.38240000  1.0
  C  C40  1  0.02743000  0.44531000  0.66178000  1.0
  C  C41  1  0.97258000  0.55468000  0.33822000  1.0
  C  C42  1  0.08530000  0.33190000  0.59774000  1.0
  C  C43  1  0.91471000  0.66809000  0.40226000  1.0
  C  C44  1  0.22454000  0.32928000  0.48837000  1.0
  C  C45  1  0.77547000  0.67073000  0.51163000  1.0
  C  C46  1  0.30088000  0.44283000  0.44397000  1.0
  C  C47  1  0.69912000  0.55718000  0.55602000  1.0
  C  C48  1  0.24332000  0.55743000  0.50671000  1.0
  C  C49  1  0.75668000  0.44257000  0.49329000  1.0
  C  C50  1  0.03307000  0.67618000  0.69112000  1.0
  C  C51  1  0.96693000  0.32382000  0.30888000  1.0
  C  C52  1  0.99391000  0.21564000  0.64890000  1.0
  C  C53  1  0.00610000  0.78435000  0.35110000  1.0
  I  I54  1  0.50586000  0.44392000  0.27469000  1.0
  I  I55  1  0.49414000  0.55609000  0.72531000  1.0
  N  N56  1  0.73471000  0.98502000  0.67222000  1.0
  N  N57  1  0.26529000  0.01499000  0.32778000  1.0
  N  N58  1  0.69791000  0.08471000  0.57944000  1.0
  N  N59  1  0.30209000  0.91529000  0.42056000  1.0
  N  N60  1  0.12739000  0.06297000  0.09338000  1.0
  N  N61  1  0.87261000  0.93703000  0.90662000  1.0
  N  N62  1  0.13213000  0.18789000  0.01655000  1.0
  N  N63  1  0.86787000  0.81211000  0.98345000  1.0
  O  O64  1  0.07946000  0.79363000  0.63513000  1.0
  O  O65  1  0.92052000  0.20637000  0.36488000  1.0
  O  O66  1  0.92810000  0.65721000  0.80229000  1.0
  O  O67  1  0.07190000  0.34278000  0.19771000  1.0
  O  O68  1  0.06580000  0.10102000  0.60553000  1.0
  O  O69  1  0.93420000  0.89898000  0.39447000  1.0
  O  O70  1  0.85785000  0.23145000  0.72980000  1.0
  O  O71  1  0.14215000  0.76855000  0.27019000  1.0
