# generated using pymatgen
data_ZnH7C11N7O5
_symmetry_space_group_name_H-M   'P 1'
_cell_length_a   7.15637000
_cell_length_b   11.77800000
_cell_length_c   16.97840000
_cell_angle_alpha   89.99990000
_cell_angle_beta   87.23940000
_cell_angle_gamma   89.99970000
_symmetry_Int_Tables_number   1
_chemical_formula_structural   ZnH7C11N7O5
_chemical_formula_sum   'Zn4 H28 C44 N28 O20'
_cell_volume   1429.40995742
_cell_formula_units_Z   4
loop_
 _symmetry_equiv_pos_site_id
 _symmetry_equiv_pos_as_xyz
  1  'x, y, z'
loop_
 _atom_site_type_symbol
 _atom_site_label
 _atom_site_symmetry_multiplicity
 _atom_site_fract_x
 _atom_site_fract_y
 _atom_site_fract_z
 _atom_site_occupancy
  Zn  Zn0  1  0.81333000  0.92140000  0.27267000  1.0
  Zn  Zn1  1  0.18667000  0.42140000  0.22733000  1.0
  Zn  Zn2  1  0.18668000  0.07860000  0.72733000  1.0
  Zn  Zn3  1  0.81332000  0.57860000  0.77267000  1.0
  H  H4  1  0.74468000  0.62140000  0.51922000  1.0
  H  H5  1  0.25531000  0.12140000  0.98078000  1.0
  H  H6  1  0.25531000  0.37860000  0.48078000  1.0
  H  H7  1  0.74468000  0.87860000  0.01922000  1.0
  H  H8  1  0.77968000  0.26373000  0.56325000  1.0
  H  H9  1  0.22031000  0.76373000  0.93676000  1.0
  H  H10  1  0.22031000  0.73627000  0.43675000  1.0
  H  H11  1  0.77968000  0.23627000  0.06325000  1.0
  H  H12  1  0.65611000  0.38134000  0.33089000  1.0
  H  H13  1  0.34390000  0.88134000  0.16911000  1.0
  H  H14  1  0.34390000  0.61865000  0.66911000  1.0
  H  H15  1  0.65611000  0.11866000  0.83089000  1.0
  H  H16  1  0.56231000  0.52097000  0.26315000  1.0
  H  H17  1  0.43768000  0.02097000  0.23685000  1.0
  H  H18  1  0.43769000  0.47903000  0.73685000  1.0
  H  H19  1  0.56231000  0.97903000  0.76315000  1.0
  H  H20  1  0.82467000  0.74405000  0.41996000  1.0
  H  H21  1  0.17533000  0.24406000  0.08004000  1.0
  H  H22  1  0.17533000  0.25594000  0.58004000  1.0
  H  H23  1  0.82467000  0.75595000  0.91996000  1.0
  H  H24  1  0.81164000  0.20137000  0.29649000  1.0
  H  H25  1  0.18836000  0.70137000  0.20351000  1.0
  H  H26  1  0.18836000  0.79863000  0.70351000  1.0
  H  H27  1  0.81164000  0.29863000  0.79649000  1.0
  H  H28  1  0.59107000  0.11088000  0.52520000  1.0
  H  H29  1  0.40893000  0.61088000  0.97480000  1.0
  H  H30  1  0.40894000  0.88912000  0.47480000  1.0
  H  H31  1  0.59107000  0.38912000  0.02520000  1.0
  C  C32  1  0.70550000  0.51155000  0.41793000  1.0
  C  C33  1  0.29449000  0.01155000  0.08207000  1.0
  C  C34  1  0.29449000  0.48845000  0.58207000  1.0
  C  C35  1  0.70551000  0.98845000  0.91793000  1.0
  C  C36  1  0.73895000  0.53501000  0.49666000  1.0
  C  C37  1  0.26104000  0.03501000  0.00334000  1.0
  C  C38  1  0.26105000  0.46499000  0.50334000  1.0
  C  C39  1  0.73896000  0.96499000  0.99666000  1.0
  C  C40  1  0.76384000  0.44499000  0.54880000  1.0
  C  C41  1  0.23615000  0.94499000  0.95120000  1.0
  C  C42  1  0.23615000  0.55501000  0.45120000  1.0
  C  C43  1  0.76385000  0.05501000  0.04880000  1.0
  C  C44  1  0.75393000  0.33292000  0.52272000  1.0
  C  C45  1  0.24606000  0.83292000  0.97728000  1.0
  C  C46  1  0.24607000  0.66708000  0.47728000  1.0
  C  C47  1  0.75393000  0.16708000  0.02272000  1.0
  C  C48  1  0.71313000  0.31174000  0.44467000  1.0
  C  C49  1  0.28686000  0.81174000  0.05533000  1.0
  C  C50  1  0.28686000  0.68826000  0.55532000  1.0
  C  C51  1  0.71314000  0.18826000  0.94468000  1.0
  C  C52  1  0.68690000  0.39984000  0.39156000  1.0
  C  C53  1  0.31310000  0.89984000  0.10844000  1.0
  C  C54  1  0.31310000  0.60016000  0.60844000  1.0
  C  C55  1  0.68690000  0.10016000  0.89156000  1.0
  C  C56  1  0.62101000  0.59681000  0.28833000  1.0
  C  C57  1  0.37899000  0.09681000  0.21167000  1.0
  C  C58  1  0.37900000  0.40319000  0.71167000  1.0
  C  C59  1  0.62100000  0.90320000  0.78833000  1.0
  C  C60  1  0.75412000  0.71014000  0.37015000  1.0
  C  C61  1  0.24588000  0.21014000  0.12985000  1.0
  C  C62  1  0.24588000  0.28986000  0.62985000  1.0
  C  C63  1  0.75412000  0.78986000  0.87015000  1.0
  C  C64  1  0.75623000  0.15341000  0.34693000  1.0
  C  C65  1  0.24377000  0.65341000  0.15307000  1.0
  C  C66  1  0.24377000  0.84659000  0.65307000  1.0
  C  C67  1  0.75623000  0.34659000  0.84693000  1.0
  C  C68  1  0.64474000  0.10507000  0.46436000  1.0
  C  C69  1  0.35526000  0.60507000  0.03564000  1.0
  C  C70  1  0.35527000  0.89493000  0.53564000  1.0
  C  C71  1  0.64474000  0.39493000  0.96436000  1.0
  C  C72  1  0.80192000  0.46556000  0.63396000  1.0
  C  C73  1  0.19808000  0.96557000  0.86604000  1.0
  C  C74  1  0.19808000  0.53444000  0.36604000  1.0
  C  C75  1  0.80192000  0.03443000  0.13396000  1.0
  N  N76  1  0.68951000  0.60188000  0.36292000  1.0
  N  N77  1  0.31049000  0.10188000  0.13708000  1.0
  N  N78  1  0.31049000  0.39812000  0.63708000  1.0
  N  N79  1  0.68951000  0.89812000  0.86292000  1.0
  N  N80  1  0.72457000  0.76609000  0.30464000  1.0
  N  N81  1  0.27544000  0.26610000  0.19536000  1.0
  N  N82  1  0.27544000  0.23390000  0.69536000  1.0
  N  N83  1  0.72455000  0.73391000  0.80464000  1.0
  N  N84  1  0.63964000  0.69502000  0.25241000  1.0
  N  N85  1  0.36037000  0.19502000  0.24759000  1.0
  N  N86  1  0.36037000  0.30498000  0.74759000  1.0
  N  N87  1  0.63962000  0.80498000  0.75241000  1.0
  N  N88  1  0.70260000  0.19684000  0.41898000  1.0
  N  N89  1  0.29740000  0.69684000  0.08102000  1.0
  N  N90  1  0.29740000  0.80316000  0.58102000  1.0
  N  N91  1  0.70260000  0.30316000  0.91898000  1.0
  N  N92  1  0.73199000  0.04217000  0.34934000  1.0
  N  N93  1  0.26801000  0.54217000  0.15066000  1.0
  N  N94  1  0.26802000  0.95783000  0.65066000  1.0
  N  N95  1  0.73198000  0.45783000  0.84934000  1.0
  N  N96  1  0.66095000  0.01104000  0.42321000  1.0
  N  N97  1  0.33906000  0.51104000  0.07679000  1.0
  N  N98  1  0.33907000  0.98896000  0.57679000  1.0
  N  N99  1  0.66094000  0.48896000  0.92321000  1.0
  N  N100  1  0.17057000  0.89103000  0.33247000  1.0
  N  N101  1  0.82944000  0.39103000  0.16754000  1.0
  N  N102  1  0.82944000  0.10897000  0.66753000  1.0
  N  N103  1  0.17056000  0.60897000  0.83246000  1.0
  O  O104  1  0.75509000  0.56538000  0.66075000  1.0
  O  O105  1  0.24490000  0.06538000  0.83925000  1.0
  O  O106  1  0.24490000  0.43462000  0.33925000  1.0
  O  O107  1  0.75510000  0.93462000  0.16075000  1.0
  O  O108  1  0.87101000  0.38827000  0.67379000  1.0
  O  O109  1  0.12899000  0.88827000  0.82621000  1.0
  O  O110  1  0.12899000  0.61172000  0.32621000  1.0
  O  O111  1  0.87102000  0.11173000  0.17379000  1.0
  O  O112  1  0.09633000  0.90679000  0.26418000  1.0
  O  O113  1  0.90367000  0.40679000  0.23582000  1.0
  O  O114  1  0.90367000  0.09321000  0.73582000  1.0
  O  O115  1  0.09632000  0.59321000  0.76417000  1.0
  O  O116  1  0.06517000  0.88802000  0.39350000  1.0
  O  O117  1  0.93484000  0.38802000  0.10650000  1.0
  O  O118  1  0.93484000  0.11198000  0.60650000  1.0
  O  O119  1  0.06516000  0.61198000  0.89350000  1.0
  O  O120  1  0.34380000  0.87972000  0.33292000  1.0
  O  O121  1  0.65621000  0.37972000  0.16708000  1.0
  O  O122  1  0.65621000  0.12027000  0.66708000  1.0
  O  O123  1  0.34379000  0.62027000  0.83292000  1.0
