# generated using pymatgen
data_Zn2H19C34Br3(NO5)2
_symmetry_space_group_name_H-M   'P 1'
_cell_length_a   9.86567000
_cell_length_b   10.96120000
_cell_length_c   10.96980000
_cell_angle_alpha   72.71000000
_cell_angle_beta   86.29770000
_cell_angle_gamma   84.12160000
_symmetry_Int_Tables_number   1
_chemical_formula_structural   Zn2H19C34Br3(NO5)2
_chemical_formula_sum   'Zn2 H19 C34 Br3 N2 O10'
_cell_volume   1125.98132404
_cell_formula_units_Z   1
loop_
 _symmetry_equiv_pos_site_id
 _symmetry_equiv_pos_as_xyz
  1  'x, y, z'
loop_
 _atom_site_type_symbol
 _atom_site_label
 _atom_site_symmetry_multiplicity
 _atom_site_fract_x
 _atom_site_fract_y
 _atom_site_fract_z
 _atom_site_occupancy
  Zn  Zn0  1  0.35755000  0.52927000  0.49567000  1.0
  Zn  Zn1  1  0.65678000  0.48073000  0.50292000  1.0
  H  H2  1  0.14887000  0.39345000  0.66114000  1.0
  H  H3  1  0.34067000  0.72494000  0.66176000  1.0
  H  H4  1  0.26094000  0.36391000  0.29556000  1.0
  H  H5  1  0.14917000  0.80210000  0.77935000  1.0
  H  H6  1  0.05684000  0.29327000  0.22877000  1.0
  H  H7  1  0.12196000  0.03075000  0.78228000  1.0
  H  H8  1  0.03465000  0.30065000  0.00088000  1.0
  H  H9  1  0.30110000  0.17529000  0.67937000  1.0
  H  H10  1  0.22399000  0.37241000  0.84367000  1.0
  H  H11  1  0.71163000  0.13711000  0.43501000  1.0
  H  H12  1  0.67958000  0.46002000  0.87566000  1.0
  H  H13  1  0.90104000  0.35140000  0.65770000  1.0
  H  H14  1  0.74864000  0.61170000  0.27092000  1.0
  H  H15  1  0.19541000  0.86512000  0.42797000  1.0
  H  H16  1  0.15913000  0.94582000  0.26262000  1.0
  H  H17  1  0.33205000  0.90633000  0.31185000  1.0
  H  H18  1  0.64259000  0.80804000  0.14842000  1.0
  H  H19  1  0.67794000  0.68587000  0.06842000  1.0
  H  H20  1  0.66153000  0.85202000  0.97685000  1.0
  C  C21  1  0.49026000  0.47864000  0.27186000  1.0
  C  C22  1  0.54564000  0.73533000  0.49665000  1.0
  C  C23  1  0.63920000  0.95052000  0.46338000  1.0
  C  C24  1  0.60240000  0.44062000  0.06863000  1.0
  C  C25  1  0.63308000  0.07347000  0.47931000  1.0
  C  C26  1  0.59024000  0.44648000  0.94008000  1.0
  C  C27  1  0.52615000  0.11698000  0.54732000  1.0
  C  C28  1  0.46670000  0.43948000  0.89140000  1.0
  C  C29  1  0.85136000  0.63758000  0.27383000  1.0
  C  C30  1  0.90656000  0.73035000  0.17349000  1.0
  C  C31  1  0.04090000  0.76465000  0.18188000  1.0
  C  C32  1  0.11580000  0.71071000  0.29070000  1.0
  C  C33  1  0.06445000  0.60682000  0.39003000  1.0
  C  C34  1  0.92808000  0.57482000  0.38127000  1.0
  C  C35  1  0.94831000  0.42261000  0.57928000  1.0
  C  C36  1  0.46674000  0.46435000  0.74823000  1.0
  C  C37  1  0.52794000  0.25362000  0.54869000  1.0
  C  C38  1  0.08465000  0.44763000  0.58270000  1.0
  C  C39  1  0.33269000  0.82400000  0.66306000  1.0
  C  C40  1  0.25213000  0.36869000  0.19609000  1.0
  C  C41  1  0.22419000  0.86773000  0.72909000  1.0
  C  C42  1  0.13755000  0.32925000  0.15814000  1.0
  C  C43  1  0.21024000  0.99599000  0.73288000  1.0
  C  C44  1  0.12570000  0.33177000  0.02999000  1.0
  C  C45  1  0.30869000  0.07698000  0.67506000  1.0
  C  C46  1  0.23049000  0.37157000  0.94233000  1.0
  C  C47  1  0.42165000  0.03536000  0.60585000  1.0
  C  C48  1  0.35172000  0.40922000  0.97824000  1.0
  C  C49  1  0.43250000  0.90658000  0.59539000  1.0
  C  C50  1  0.36297000  0.40982000  0.10867000  1.0
  C  C51  1  0.54214000  0.86512000  0.51880000  1.0
  C  C52  1  0.48843000  0.43988000  0.15081000  1.0
  C  C53  1  0.22872000  0.87578000  0.32816000  1.0
  C  C54  1  0.69588000  0.78362000  0.06646000  1.0
  Br  Br55  1  0.78667000  0.91697000  0.35321000  1.0
  Br  Br56  1  0.78750000  0.43141000  0.11436000  1.0
  Br  Br57  1  0.11641000  0.88710000  0.04209000  1.0
  N  N58  1  0.87154000  0.48454000  0.48097000  1.0
  N  N59  1  0.14133000  0.53917000  0.49068000  1.0
  O  O60  1  0.37608000  0.51749000  0.31410000  1.0
  O  O61  1  0.43165000  0.69914000  0.48014000  1.0
  O  O62  1  0.60410000  0.47689000  0.32140000  1.0
  O  O63  1  0.65988000  0.67088000  0.49449000  1.0
  O  O64  1  0.35250000  0.49176000  0.69277000  1.0
  O  O65  1  0.41594000  0.32376000  0.53944000  1.0
  O  O66  1  0.58292000  0.46155000  0.69200000  1.0
  O  O67  1  0.64650000  0.28924000  0.55239000  1.0
  O  O68  1  0.23740000  0.75191000  0.30389000  1.0
  O  O69  1  0.83982000  0.79670000  0.06761000  1.0
