# generated using pymatgen
data_CdH5(C2N3)3
_symmetry_space_group_name_H-M   'P 1'
_cell_length_a   8.10586000
_cell_length_b   8.73793000
_cell_length_c   15.50810000
_cell_angle_alpha   89.99990000
_cell_angle_beta   90.00000000
_cell_angle_gamma   117.62700000
_symmetry_Int_Tables_number   1
_chemical_formula_structural   CdH5(C2N3)3
_chemical_formula_sum   'Cd4 H20 C24 N36'
_cell_volume   973.17893342
_cell_formula_units_Z   4
loop_
 _symmetry_equiv_pos_site_id
 _symmetry_equiv_pos_as_xyz
  1  'x, y, z'
loop_
 _atom_site_type_symbol
 _atom_site_label
 _atom_site_symmetry_multiplicity
 _atom_site_fract_x
 _atom_site_fract_y
 _atom_site_fract_z
 _atom_site_occupancy
  Cd  Cd0  1  0.98757000  0.22231000  0.05556000  1.0
  Cd  Cd1  1  0.01243000  0.77769000  0.55556000  1.0
  Cd  Cd2  1  0.76518000  0.77762000  0.05552000  1.0
  Cd  Cd3  1  0.23482000  0.22239000  0.55552000  1.0
  H  H4  1  0.29142000  0.89394000  0.35817000  1.0
  H  H5  1  0.70858000  0.10606000  0.85817000  1.0
  H  H6  1  0.39749000  0.10614000  0.35811000  1.0
  H  H7  1  0.60251000  0.89386000  0.85811000  1.0
  H  H8  1  0.68134000  0.81228000  0.24531000  1.0
  H  H9  1  0.31866000  0.18772000  0.74531000  1.0
  H  H10  1  0.86906000  0.18757000  0.24543000  1.0
  H  H11  1  0.13094000  0.81243000  0.74543000  1.0
  H  H12  1  0.49354000  0.65641000  0.37253000  1.0
  H  H13  1  0.50646000  0.34359000  0.87253000  1.0
  H  H14  1  0.83742000  0.34355000  0.37268000  1.0
  H  H15  1  0.16258000  0.65645000  0.87268000  1.0
  H  H16  1  0.27902000  0.33677000  0.36056000  1.0
  H  H17  1  0.72098000  0.66323000  0.86056000  1.0
  H  H18  1  0.94252000  0.66323000  0.36070000  1.0
  H  H19  1  0.05748000  0.33677000  0.86070000  1.0
  H  H20  1  0.48984000  0.35814000  0.10253000  1.0
  H  H21  1  0.51016000  0.64186000  0.60253000  1.0
  H  H22  1  0.13162000  0.64162000  0.10258000  1.0
  H  H23  1  0.86838000  0.35838000  0.60258000  1.0
  C  C24  1  0.24226000  0.14130000  0.21448000  1.0
  C  C25  1  0.75774000  0.85870000  0.71448000  1.0
  C  C26  1  0.10091000  0.85850000  0.21449000  1.0
  C  C27  1  0.89909000  0.14150000  0.71449000  1.0
  C  C28  1  0.59385000  0.67271000  0.24329000  1.0
  C  C29  1  0.40615000  0.32729000  0.74329000  1.0
  C  C30  1  0.92123000  0.32719000  0.24340000  1.0
  C  C31  1  0.07877000  0.67280000  0.74340000  1.0
  C  C32  1  0.48670000  0.58449000  0.31418000  1.0
  C  C33  1  0.51330000  0.41551000  0.81418000  1.0
  C  C34  1  0.90241000  0.41547000  0.31430000  1.0
  C  C35  1  0.09760000  0.58453000  0.81430000  1.0
  C  C36  1  0.37130000  0.40710000  0.30761000  1.0
  C  C37  1  0.62870000  0.59290000  0.80761000  1.0
  C  C38  1  0.96417000  0.59283000  0.30768000  1.0
  C  C39  1  0.03583000  0.40717000  0.80768000  1.0
  C  C40  1  0.37045000  0.32342000  0.23045000  1.0
  C  C41  1  0.62955000  0.67658000  0.73045000  1.0
  C  C42  1  0.04702000  0.67643000  0.23051000  1.0
  C  C43  1  0.95298000  0.32357000  0.73051000  1.0
  C  C44  1  0.48635000  0.42085000  0.16286000  1.0
  C  C45  1  0.51365000  0.57915000  0.66286000  1.0
  C  C46  1  0.06538000  0.57896000  0.16290000  1.0
  C  C47  1  0.93462000  0.42104000  0.66290000  1.0
  N  N48  1  0.79126000  0.30365000  0.97131000  1.0
  N  N49  1  0.20874000  0.69635000  0.47132000  1.0
  N  N50  1  0.48766000  0.69631000  0.97122000  1.0
  N  N51  1  0.51234000  0.30369000  0.47122000  1.0
  N  N52  1  0.81642000  0.44793000  0.97843000  1.0
  N  N53  1  0.18359000  0.55207000  0.47843000  1.0
  N  N54  1  0.36850000  0.55207000  0.97841000  1.0
  N  N55  1  0.63150000  0.44793000  0.47841000  1.0
  N  N56  1  0.84634000  0.59378000  0.98198000  1.0
  N  N57  1  0.15366000  0.40622000  0.48198000  1.0
  N  N58  1  0.25254000  0.40627000  0.98205000  1.0
  N  N59  1  0.74746000  0.59373000  0.48205000  1.0
  N  N60  1  0.93794000  0.00002000  0.95620000  1.0
  N  N61  1  0.06207000  0.99999000  0.45620000  1.0
  N  N62  1  0.06124000  0.00008000  0.91211000  1.0
  N  N63  1  0.93876000  0.99992000  0.41211000  1.0
  N  N64  1  0.17673000  0.00015000  0.86748000  1.0
  N  N65  1  0.82327000  0.99985000  0.36748000  1.0
  N  N66  1  0.71174000  0.99996000  0.11414000  1.0
  N  N67  1  0.28826000  0.00004000  0.61414000  1.0
  N  N68  1  0.56501000  0.99998000  0.09960000  1.0
  N  N69  1  0.43499000  0.00002000  0.59960000  1.0
  N  N70  1  0.42358000  0.00001000  0.08714000  1.0
  N  N71  1  0.57642000  0.99999000  0.58714000  1.0
  N  N72  1  0.59399000  0.59228000  0.16912000  1.0
  N  N73  1  0.40601000  0.40771000  0.66912000  1.0
  N  N74  1  0.00166000  0.40754000  0.16919000  1.0
  N  N75  1  0.99834000  0.59246000  0.66919000  1.0
  N  N76  1  0.11830000  0.08721000  0.15062000  1.0
  N  N77  1  0.88170000  0.91279000  0.65062000  1.0
  N  N78  1  0.03097000  0.91254000  0.15064000  1.0
  N  N79  1  0.96903000  0.08746000  0.65064000  1.0
  N  N80  1  0.35857000  0.99999000  0.31887000  1.0
  N  N81  1  0.64143000  0.00001000  0.81887000  1.0
  N  N82  1  0.23145000  0.99992000  0.25761000  1.0
  N  N83  1  0.76855000  0.00008000  0.75761000  1.0
