# generated using pymatgen
data_FeCuH18C30S2N2(OF3)4
_symmetry_space_group_name_H-M   'P 1'
_cell_length_a   8.39639000
_cell_length_b   10.17250000
_cell_length_c   10.66530000
_cell_angle_alpha   93.11400000
_cell_angle_beta   112.70600000
_cell_angle_gamma   101.00300000
_symmetry_Int_Tables_number   1
_chemical_formula_structural   FeCuH18C30S2N2(OF3)4
_chemical_formula_sum   'Fe1 Cu1 H18 C30 S2 N2 O4 F12'
_cell_volume   816.61715814
_cell_formula_units_Z   1
loop_
 _symmetry_equiv_pos_site_id
 _symmetry_equiv_pos_as_xyz
  1  'x, y, z'
loop_
 _atom_site_type_symbol
 _atom_site_label
 _atom_site_symmetry_multiplicity
 _atom_site_fract_x
 _atom_site_fract_y
 _atom_site_fract_z
 _atom_site_occupancy
  Fe  Fe0  1  0.50000000  0.50000000  0.50000000  1.0
  Cu  Cu1  1  0.00000000  0.00000000  0.00000000  1.0
  H  H2  1  0.15900000  0.03948000  0.30227000  1.0
  H  H3  1  0.84100000  0.96052000  0.69773000  1.0
  H  H4  1  0.11069000  0.92824000  0.48974000  1.0
  H  H5  1  0.88931000  0.07175000  0.51026000  1.0
  H  H6  1  0.68450000  0.62766000  0.17830000  1.0
  H  H7  1  0.31551000  0.37234000  0.82171000  1.0
  H  H8  1  0.75629000  0.74833000  0.00363000  1.0
  H  H9  1  0.24370000  0.25167000  0.99637000  1.0
  H  H10  1  0.47458000  0.75303000  0.41301000  1.0
  H  H11  1  0.52542000  0.24697000  0.58699000  1.0
  H  H12  1  0.18951000  0.54111000  0.29110000  1.0
  H  H13  1  0.81049000  0.45888000  0.70890000  1.0
  H  H14  1  0.30787000  0.32017000  0.25247000  1.0
  H  H15  1  0.69214000  0.67983000  0.74753000  1.0
  H  H16  1  0.66875000  0.39441000  0.35037000  1.0
  H  H17  1  0.33126000  0.60558000  0.64963000  1.0
  H  H18  1  0.53063000  0.19081000  0.87609000  1.0
  H  H19  1  0.46937000  0.80919000  0.12390000  1.0
  C  C20  1  0.05805000  0.94631000  0.27938000  1.0
  C  C21  1  0.94195000  0.05369000  0.72063000  1.0
  C  C22  1  0.03022000  0.88375000  0.38356000  1.0
  C  C23  1  0.96978000  0.11625000  0.61644000  1.0
  C  C24  1  0.89202000  0.76794000  0.35025000  1.0
  C  C25  1  0.10798000  0.23206000  0.64975000  1.0
  C  C26  1  0.79233000  0.71750000  0.21071000  1.0
  C  C27  1  0.20767000  0.28249000  0.78929000  1.0
  C  C28  1  0.83139000  0.78464000  0.11268000  1.0
  C  C29  1  0.16861000  0.21536000  0.88733000  1.0
  C  C30  1  0.63370000  0.60167000  0.39998000  1.0
  C  C31  1  0.36630000  0.39833000  0.60003000  1.0
  C  C32  1  0.47640000  0.65054000  0.38043000  1.0
  C  C33  1  0.52360000  0.34946000  0.61958000  1.0
  C  C34  1  0.32710000  0.53884000  0.31641000  1.0
  C  C35  1  0.67290000  0.46116000  0.68359000  1.0
  C  C36  1  0.39034000  0.42131000  0.29604000  1.0
  C  C37  1  0.60966000  0.57868000  0.70395000  1.0
  C  C38  1  0.57959000  0.45943000  0.34766000  1.0
  C  C39  1  0.42042000  0.54057000  0.65234000  1.0
  C  C40  1  0.78112000  0.36475000  0.07903000  1.0
  C  C41  1  0.21888000  0.63526000  0.92097000  1.0
  C  C42  1  0.79649000  0.22253000  0.03007000  1.0
  C  C43  1  0.20350000  0.77747000  0.96994000  1.0
  C  C44  1  0.64458000  0.14610000  0.91706000  1.0
  C  C45  1  0.35542000  0.85390000  0.08293000  1.0
  C  C46  1  0.63010000  0.01847000  0.85441000  1.0
  C  C47  1  0.36990000  0.98153000  0.14559000  1.0
  C  C48  1  0.45554000  0.95317000  0.73073000  1.0
  C  C49  1  0.54447000  0.04684000  0.26927000  1.0
  S  S50  1  0.85203000  0.69829000  0.48498000  1.0
  S  S51  1  0.14797000  0.30171000  0.51503000  1.0
  N  N52  1  0.96053000  0.89822000  0.14539000  1.0
  N  N53  1  0.03947000  0.10178000  0.85462000  1.0
  O  O54  1  0.94207000  0.19357000  0.09286000  1.0
  O  O55  1  0.05792000  0.80643000  0.90715000  1.0
  O  O56  1  0.73972000  0.94201000  0.88034000  1.0
  O  O57  1  0.26027000  0.05799000  0.11966000  1.0
  F  F58  1  0.87756000  0.40147000  0.21615000  1.0
  F  F59  1  0.12244000  0.59853000  0.78385000  1.0
  F  F60  1  0.61045000  0.37259000  0.05310000  1.0
  F  F61  1  0.38955000  0.62741000  0.94690000  1.0
  F  F62  1  0.84395000  0.46004000  0.01398000  1.0
  F  F63  1  0.15604000  0.53995000  0.98601000  1.0
  F  F64  1  0.33415000  0.03116000  0.69827000  1.0
  F  F65  1  0.66585000  0.96884000  0.30173000  1.0
  F  F66  1  0.48680000  0.92737000  0.61610000  1.0
  F  F67  1  0.51320000  0.07264000  0.38390000  1.0
  F  F68  1  0.37605000  0.83273000  0.75400000  1.0
  F  F69  1  0.62395000  0.16728000  0.24599000  1.0
