# generated using pymatgen
data_Cu2H19C12I3(NO)2
_symmetry_space_group_name_H-M   'P 1'
_cell_length_a   8.46399000
_cell_length_b   8.69340000
_cell_length_c   12.95450000
_cell_angle_alpha   107.82200000
_cell_angle_beta   91.75130000
_cell_angle_gamma   96.85670000
_symmetry_Int_Tables_number   1
_chemical_formula_structural   Cu2H19C12I3(NO)2
_chemical_formula_sum   'Cu4 H38 C24 I6 N4 O4'
_cell_volume   898.69729148
_cell_formula_units_Z   2
loop_
 _symmetry_equiv_pos_site_id
 _symmetry_equiv_pos_as_xyz
  1  'x, y, z'
loop_
 _atom_site_type_symbol
 _atom_site_label
 _atom_site_symmetry_multiplicity
 _atom_site_fract_x
 _atom_site_fract_y
 _atom_site_fract_z
 _atom_site_occupancy
  Cu  Cu0  1  0.47607000  0.78240000  0.66651000  1.0
  Cu  Cu1  1  0.52393000  0.21760000  0.33349000  1.0
  Cu  Cu2  1  0.40631000  0.97456000  0.57500000  1.0
  Cu  Cu3  1  0.59369000  0.02543000  0.42500000  1.0
  H  H4  1  0.51865000  0.82787000  0.89712000  1.0
  H  H5  1  0.48134000  0.17213000  0.10288000  1.0
  H  H6  1  0.65453000  0.49710000  0.61912000  1.0
  H  H7  1  0.34547000  0.50291000  0.38088000  1.0
  H  H8  1  0.95639000  0.35022000  0.84054000  1.0
  H  H9  1  0.04361000  0.64979000  0.15946000  1.0
  H  H10  1  0.78611000  0.27056000  0.62453000  1.0
  H  H11  1  0.21389000  0.72944000  0.37547000  1.0
  H  H12  1  0.71037000  0.18808000  0.72615000  1.0
  H  H13  1  0.28963000  0.81192000  0.27385000  1.0
  H  H14  1  0.74892000  0.42889000  0.93178000  1.0
  H  H15  1  0.25108000  0.57111000  0.06822000  1.0
  H  H16  1  0.12748000  0.14532000  0.75278000  1.0
  H  H17  1  0.87252000  0.85468000  0.24722000  1.0
  H  H18  1  0.96443000  0.05972000  0.65246000  1.0
  H  H19  1  0.03557000  0.94028000  0.34754000  1.0
  H  H20  1  0.78470000  0.02386000  0.79443000  1.0
  H  H21  1  0.21530000  0.97614000  0.20557000  1.0
  H  H22  1  0.96322000  0.93995000  0.80892000  1.0
  H  H23  1  0.03678000  0.06005000  0.19107000  1.0
  H  H24  1  0.00293000  0.50051000  0.69826000  1.0
  H  H25  1  0.99707000  0.49949000  0.30174000  1.0
  H  H26  1  0.10291000  0.33199000  0.63574000  1.0
  H  H27  1  0.89709000  0.66801000  0.36426000  1.0
  H  H28  1  0.27363000  0.38964000  0.81200000  1.0
  H  H29  1  0.72637000  0.61036000  0.18800000  1.0
  H  H30  1  0.29143000  0.55399000  0.75600000  1.0
  H  H31  1  0.70857000  0.44601000  0.24400000  1.0
  H  H32  1  0.86055000  0.01598000  0.00971000  1.0
  H  H33  1  0.13945000  0.98402000  0.99029000  1.0
  H  H34  1  0.71770000  0.12751000  0.97067000  1.0
  H  H35  1  0.28230000  0.87249000  0.02933000  1.0
  H  H36  1  0.98953000  0.71781000  0.86909000  1.0
  H  H37  1  0.01047000  0.28219000  0.13091000  1.0
  H  H38  1  0.18342000  0.77559000  0.83044000  1.0
  H  H39  1  0.81658000  0.22440000  0.16955000  1.0
  H  H40  1  0.62606000  0.68131000  0.01611000  1.0
  H  H41  1  0.37394000  0.31868000  0.98389000  1.0
  C  C42  1  0.57449000  0.71812000  0.86303000  1.0
  C  C43  1  0.42550000  0.28188000  0.13698000  1.0
  C  C44  1  0.65015000  0.53409000  0.70740000  1.0
  C  C45  1  0.34985000  0.46592000  0.29261000  1.0
  C  C46  1  0.78269000  0.29268000  0.71246000  1.0
  C  C47  1  0.21731000  0.70733000  0.28755000  1.0
  C  C48  1  0.71380000  0.44500000  0.76783000  1.0
  C  C49  1  0.28620000  0.55500000  0.23217000  1.0
  C  C50  1  0.70402000  0.49589000  0.88074000  1.0
  C  C51  1  0.29598000  0.50412000  0.11927000  1.0
  C  C52  1  0.99739000  0.13188000  0.73759000  1.0
  C  C53  1  0.00262000  0.86813000  0.26241000  1.0
  C  C54  1  0.91462000  0.05440000  0.81497000  1.0
  C  C55  1  0.08538000  0.94560000  0.18503000  1.0
  C  C56  1  0.06665000  0.40641000  0.71401000  1.0
  C  C57  1  0.93334000  0.59359000  0.28598000  1.0
  C  C58  1  0.20979000  0.48271000  0.79420000  1.0
  C  C59  1  0.79022000  0.51729000  0.20580000  1.0
  C  C60  1  0.84340000  0.13476000  0.99956000  1.0
  C  C61  1  0.15660000  0.86524000  0.00044000  1.0
  C  C62  1  0.11869000  0.73461000  0.89208000  1.0
  C  C63  1  0.88131000  0.26539000  0.10792000  1.0
  C  C64  1  0.63511000  0.63575000  0.92854000  1.0
  C  C65  1  0.36490000  0.36423000  0.07146000  1.0
  I  I66  1  0.18354000  0.71426000  0.57606000  1.0
  I  I67  1  0.81646000  0.28574000  0.42394000  1.0
  I  I68  1  0.67442000  0.82144000  0.51372000  1.0
  I  I69  1  0.32558000  0.17857000  0.48628000  1.0
  I  I70  1  0.43772000  0.08179000  0.80128000  1.0
  I  I71  1  0.56228000  0.91821000  0.19872000  1.0
  N  N72  1  0.57966000  0.66795000  0.75364000  1.0
  N  N73  1  0.42033000  0.33204000  0.24635000  1.0
  N  N74  1  0.95102000  0.29947000  0.75654000  1.0
  N  N75  1  0.04898000  0.70053000  0.24346000  1.0
  O  O76  1  0.94677000  0.17020000  0.92148000  1.0
  O  O77  1  0.05324000  0.82979000  0.07852000  1.0
  O  O78  1  0.16652000  0.58311000  0.89663000  1.0
  O  O79  1  0.83348000  0.41689000  0.10337000  1.0
