# generated using pymatgen
data_CuH10C14(BrN2)2
_symmetry_space_group_name_H-M   'P 1'
_cell_length_a   4.07063000
_cell_length_b   12.53840000
_cell_length_c   13.38150000
_cell_angle_alpha   89.99900000
_cell_angle_beta   95.44190000
_cell_angle_gamma   90.00000000
_symmetry_Int_Tables_number   1
_chemical_formula_structural   CuH10C14(BrN2)2
_chemical_formula_sum   'Cu2 H20 C28 Br4 N8'
_cell_volume   679.90260490
_cell_formula_units_Z   2
loop_
 _symmetry_equiv_pos_site_id
 _symmetry_equiv_pos_as_xyz
  1  'x, y, z'
loop_
 _atom_site_type_symbol
 _atom_site_label
 _atom_site_symmetry_multiplicity
 _atom_site_fract_x
 _atom_site_fract_y
 _atom_site_fract_z
 _atom_site_occupancy
  Cu  Cu0  1  0.00000000  0.00000000  0.00000000  1.0
  Cu  Cu1  1  0.00000000  0.50000000  0.50000000  1.0
  H  H2  1  0.24328000  0.20812000  0.96505000  1.0
  H  H3  1  0.75670000  0.70812000  0.53495000  1.0
  H  H4  1  0.75672000  0.79188000  0.03495000  1.0
  H  H5  1  0.24330000  0.29188000  0.46505000  1.0
  H  H6  1  0.05684000  0.39621000  0.22654000  1.0
  H  H7  1  0.94317000  0.89621000  0.27346000  1.0
  H  H8  1  0.94317000  0.60379000  0.77346000  1.0
  H  H9  1  0.05682000  0.10379000  0.72654000  1.0
  H  H10  1  0.83840000  0.22920000  0.29170000  1.0
  H  H11  1  0.16161000  0.72920000  0.20830000  1.0
  H  H12  1  0.16161000  0.77080000  0.70830000  1.0
  H  H13  1  0.83839000  0.27080000  0.79170000  1.0
  H  H14  1  0.32971000  0.34469000  0.89291000  1.0
  H  H15  1  0.67030000  0.84468000  0.60708000  1.0
  H  H16  1  0.67030000  0.65531000  0.10708000  1.0
  H  H17  1  0.32969000  0.15532000  0.39292000  1.0
  H  H18  1  0.40561000  0.50468000  0.18095000  1.0
  H  H19  1  0.59438000  0.00469000  0.31905000  1.0
  H  H20  1  0.59440000  0.49532000  0.81905000  1.0
  H  H21  1  0.40562000  0.99531000  0.68095000  1.0
  C  C22  1  0.15713000  0.22169000  0.03862000  1.0
  C  C23  1  0.84287000  0.72169000  0.46137000  1.0
  C  C24  1  0.84288000  0.77831000  0.96138000  1.0
  C  C25  1  0.15713000  0.27831000  0.53863000  1.0
  C  C26  1  0.18779000  0.32064000  0.08815000  1.0
  C  C27  1  0.81221000  0.82064000  0.41184000  1.0
  C  C28  1  0.81222000  0.67936000  0.91185000  1.0
  C  C29  1  0.18778000  0.17936000  0.58816000  1.0
  C  C30  1  0.06299000  0.32381000  0.18181000  1.0
  C  C31  1  0.93702000  0.82381000  0.31819000  1.0
  C  C32  1  0.93702000  0.67619000  0.81819000  1.0
  C  C33  1  0.06298000  0.17619000  0.68181000  1.0
  C  C34  1  0.93800000  0.22956000  0.21878000  1.0
  C  C35  1  0.06200000  0.72956000  0.28121000  1.0
  C  C36  1  0.06200000  0.77044000  0.78122000  1.0
  C  C37  1  0.93800000  0.27044000  0.71879000  1.0
  C  C38  1  0.34383000  0.41228000  0.04277000  1.0
  C  C39  1  0.65617000  0.91228000  0.45723000  1.0
  C  C40  1  0.65618000  0.58772000  0.95723000  1.0
  C  C41  1  0.34382000  0.08772000  0.54277000  1.0
  C  C42  1  0.40530000  0.41210000  0.94100000  1.0
  C  C43  1  0.59470000  0.91210000  0.55899000  1.0
  C  C44  1  0.59470000  0.58790000  0.05900000  1.0
  C  C45  1  0.40529000  0.08790000  0.44101000  1.0
  C  C46  1  0.44137000  0.50224000  0.10117000  1.0
  C  C47  1  0.55862000  0.00224000  0.39883000  1.0
  C  C48  1  0.55863000  0.49776000  0.89883000  1.0
  C  C49  1  0.44138000  0.99776000  0.60117000  1.0
  Br  Br50  1  0.40348000  0.91791000  0.12371000  1.0
  Br  Br51  1  0.59653000  0.41790000  0.37629000  1.0
  Br  Br52  1  0.59651000  0.08209000  0.87629000  1.0
  Br  Br53  1  0.40347000  0.58211000  0.62372000  1.0
  N  N54  1  0.92682000  0.13624000  0.17015000  1.0
  N  N55  1  0.07318000  0.63625000  0.32984000  1.0
  N  N56  1  0.07318000  0.86376000  0.82985000  1.0
  N  N57  1  0.92682000  0.36376000  0.67016000  1.0
  N  N58  1  0.03220000  0.13522000  0.07922000  1.0
  N  N59  1  0.96779000  0.63523000  0.42077000  1.0
  N  N60  1  0.96781000  0.86478000  0.92077000  1.0
  N  N61  1  0.03221000  0.36477000  0.57923000  1.0
