# generated using pymatgen
data_CuH4C6IN2
_symmetry_space_group_name_H-M   'P 1'
_cell_length_a   6.83745000
_cell_length_b   12.58850000
_cell_length_c   13.46810000
_cell_angle_alpha   68.84280000
_cell_angle_beta   80.53190000
_cell_angle_gamma   82.15970000
_symmetry_Int_Tables_number   1
_chemical_formula_structural   CuH4C6IN2
_chemical_formula_sum   'Cu6 H24 C36 I6 N12'
_cell_volume   1062.62884063
_cell_formula_units_Z   6
loop_
 _symmetry_equiv_pos_site_id
 _symmetry_equiv_pos_as_xyz
  1  'x, y, z'
loop_
 _atom_site_type_symbol
 _atom_site_label
 _atom_site_symmetry_multiplicity
 _atom_site_fract_x
 _atom_site_fract_y
 _atom_site_fract_z
 _atom_site_occupancy
  Cu  Cu0  1  0.02211000  0.30671000  0.34978000  1.0
  Cu  Cu1  1  0.97788000  0.69329000  0.65023000  1.0
  Cu  Cu2  1  0.36604000  0.36612000  0.23831000  1.0
  Cu  Cu3  1  0.63395000  0.63388000  0.76168000  1.0
  Cu  Cu4  1  0.45209000  0.96699000  0.11779000  1.0
  Cu  Cu5  1  0.54791000  0.03301000  0.88221000  1.0
  H  H6  1  0.28088000  0.50344000  0.01919000  1.0
  H  H7  1  0.71913000  0.49656000  0.98080000  1.0
  H  H8  1  0.13378000  0.47569000  0.87374000  1.0
  H  H9  1  0.86624000  0.52431000  0.12625000  1.0
  H  H10  1  0.04834000  0.27864000  0.89823000  1.0
  H  H11  1  0.95169000  0.72135000  0.10177000  1.0
  H  H12  1  0.12892000  0.11653000  0.06453000  1.0
  H  H13  1  0.87108000  0.88347000  0.93546000  1.0
  H  H14  1  0.57551000  0.70553000  0.17072000  1.0
  H  H15  1  0.42450000  0.29447000  0.82927000  1.0
  H  H16  1  0.64668000  0.54221000  0.33743000  1.0
  H  H17  1  0.35332000  0.45780000  0.66257000  1.0
  H  H18  1  0.58975000  0.57777000  0.51436000  1.0
  H  H19  1  0.41025000  0.42224000  0.48563000  1.0
  H  H20  1  0.44117000  0.77045000  0.51532000  1.0
  H  H21  1  0.55882000  0.22955000  0.48468000  1.0
  H  H22  1  0.26357000  0.94543000  0.62627000  1.0
  H  H23  1  0.73645000  0.05458000  0.37372000  1.0
  H  H24  1  0.13744000  0.00049000  0.78916000  1.0
  H  H25  1  0.86258000  0.99950000  0.21084000  1.0
  H  H26  1  0.96461000  0.19687000  0.76176000  1.0
  H  H27  1  0.03540000  0.80312000  0.23825000  1.0
  H  H28  1  0.92025000  0.32781000  0.57512000  1.0
  H  H29  1  0.07974000  0.67218000  0.42489000  1.0
  C  C30  1  0.24345000  0.41912000  0.02674000  1.0
  C  C31  1  0.75654000  0.58088000  0.97326000  1.0
  C  C32  1  0.16161000  0.40289000  0.94575000  1.0
  C  C33  1  0.83839000  0.59711000  0.05425000  1.0
  C  C34  1  0.11653000  0.29351000  0.95919000  1.0
  C  C35  1  0.88348000  0.70649000  0.04081000  1.0
  C  C36  1  0.15904000  0.20355000  0.05199000  1.0
  C  C37  1  0.84096000  0.79645000  0.94801000  1.0
  C  C38  1  0.23450000  0.22725000  0.13115000  1.0
  C  C39  1  0.76550000  0.77275000  0.86886000  1.0
  C  C40  1  0.26183000  0.13733000  0.23576000  1.0
  C  C41  1  0.73817000  0.86267000  0.76424000  1.0
  C  C42  1  0.36054000  0.95393000  0.33784000  1.0
  C  C43  1  0.63947000  0.04607000  0.66216000  1.0
  C  C44  1  0.44718000  0.83947000  0.34317000  1.0
  C  C45  1  0.55282000  0.16053000  0.65683000  1.0
  C  C46  1  0.55398000  0.71661000  0.24842000  1.0
  C  C47  1  0.44603000  0.28340000  0.75157000  1.0
  C  C48  1  0.59019000  0.62572000  0.34213000  1.0
  C  C49  1  0.40980000  0.37429000  0.65787000  1.0
  C  C50  1  0.55663000  0.64513000  0.43968000  1.0
  C  C51  1  0.44336000  0.35488000  0.56032000  1.0
  C  C52  1  0.47916000  0.75280000  0.44067000  1.0
  C  C53  1  0.52082000  0.24721000  0.55933000  1.0
  C  C54  1  0.23606000  0.08255000  0.41959000  1.0
  C  C55  1  0.76394000  0.91745000  0.58041000  1.0
  C  C56  1  0.16048000  0.10849000  0.51732000  1.0
  C  C57  1  0.83952000  0.89151000  0.48269000  1.0
  C  C58  1  0.18766000  0.02927000  0.61910000  1.0
  C  C59  1  0.81233000  0.97073000  0.38090000  1.0
  C  C60  1  0.11645000  0.05993000  0.70873000  1.0
  C  C61  1  0.88356000  0.94006000  0.29128000  1.0
  C  C62  1  0.02197000  0.16926000  0.69375000  1.0
  C  C63  1  0.97803000  0.83074000  0.30626000  1.0
  C  C64  1  0.99597000  0.24247000  0.59001000  1.0
  C  C65  1  0.00402000  0.75753000  0.41000000  1.0
  I  I66  1  0.72991000  0.29753000  0.25359000  1.0
  I  I67  1  0.27009000  0.70247000  0.74641000  1.0
  I  I68  1  0.14057000  0.50881000  0.30584000  1.0
  I  I69  1  0.85943000  0.49119000  0.69416000  1.0
  I  I70  1  0.28320000  0.89684000  0.99642000  1.0
  I  I71  1  0.71680000  0.10316000  0.00358000  1.0
  N  N72  1  0.49099000  0.82245000  0.24775000  1.0
  N  N73  1  0.50902000  0.17756000  0.75225000  1.0
  N  N74  1  0.32664000  0.03056000  0.23875000  1.0
  N  N75  1  0.67335000  0.96944000  0.76125000  1.0
  N  N76  1  0.27519000  0.33386000  0.11925000  1.0
  N  N77  1  0.72480000  0.66614000  0.88075000  1.0
  N  N78  1  0.21625000  0.16815000  0.32372000  1.0
  N  N79  1  0.78375000  0.83185000  0.67628000  1.0
  N  N80  1  0.06072000  0.21280000  0.50306000  1.0
  N  N81  1  0.93927000  0.78720000  0.49695000  1.0
  N  N82  1  0.31562000  0.97716000  0.42850000  1.0
  N  N83  1  0.68438000  0.02284000  0.57150000  1.0
