# generated using pymatgen
data_Cd3H8C10(Br3N)2
_symmetry_space_group_name_H-M   'P 1'
_cell_length_a   3.95528000
_cell_length_b   13.17380000
_cell_length_c   17.96650000
_cell_angle_alpha   90.00030000
_cell_angle_beta   89.99960000
_cell_angle_gamma   89.99950000
_symmetry_Int_Tables_number   1
_chemical_formula_structural   Cd3H8C10(Br3N)2
_chemical_formula_sum   'Cd6 H16 C20 Br12 N4'
_cell_volume   936.16366461
_cell_formula_units_Z   2
loop_
 _symmetry_equiv_pos_site_id
 _symmetry_equiv_pos_as_xyz
  1  'x, y, z'
loop_
 _atom_site_type_symbol
 _atom_site_label
 _atom_site_symmetry_multiplicity
 _atom_site_fract_x
 _atom_site_fract_y
 _atom_site_fract_z
 _atom_site_occupancy
  Cd  Cd0  1  0.90344000  0.50000000  0.50000000  1.0
  Cd  Cd1  1  0.09657000  0.00000000  0.00000000  1.0
  Cd  Cd2  1  0.42302000  0.39015000  0.68212000  1.0
  Cd  Cd3  1  0.42306000  0.60986000  0.31788000  1.0
  Cd  Cd4  1  0.57696000  0.10985000  0.18213000  1.0
  Cd  Cd5  1  0.57698000  0.89015000  0.81788000  1.0
  H  H6  1  0.60471000  0.57843000  0.78825000  1.0
  H  H7  1  0.60472000  0.42156000  0.21175000  1.0
  H  H8  1  0.39527000  0.92156000  0.28826000  1.0
  H  H9  1  0.39528000  0.07845000  0.71175000  1.0
  H  H10  1  0.60743000  0.63136000  0.92041000  1.0
  H  H11  1  0.60742000  0.36864000  0.07958000  1.0
  H  H12  1  0.39256000  0.86864000  0.42043000  1.0
  H  H13  1  0.39255000  0.13137000  0.57958000  1.0
  H  H14  1  0.22669000  0.33221000  0.97597000  1.0
  H  H15  1  0.22670000  0.66778000  0.02403000  1.0
  H  H16  1  0.77330000  0.16778000  0.47598000  1.0
  H  H17  1  0.77330000  0.83222000  0.52403000  1.0
  H  H18  1  0.23838000  0.29179000  0.84050000  1.0
  H  H19  1  0.23840000  0.70821000  0.15950000  1.0
  H  H20  1  0.76163000  0.20820000  0.34050000  1.0
  H  H21  1  0.76163000  0.79180000  0.65951000  1.0
  C  C22  1  0.52118000  0.52606000  0.83148000  1.0
  C  C23  1  0.52119000  0.47393000  0.16852000  1.0
  C  C24  1  0.47879000  0.97392000  0.33148000  1.0
  C  C25  1  0.47880000  0.02608000  0.66852000  1.0
  C  C26  1  0.52156000  0.55528000  0.90583000  1.0
  C  C27  1  0.52157000  0.44471000  0.09417000  1.0
  C  C28  1  0.47843000  0.94471000  0.40584000  1.0
  C  C29  1  0.47843000  0.05529000  0.59417000  1.0
  C  C30  1  0.41566000  0.48605000  0.96018000  1.0
  C  C31  1  0.41567000  0.51395000  0.03982000  1.0
  C  C32  1  0.58432000  0.01394000  0.46018000  1.0
  C  C33  1  0.58432000  0.98607000  0.53982000  1.0
  C  C34  1  0.31320000  0.38924000  0.93639000  1.0
  C  C35  1  0.31322000  0.61076000  0.06360000  1.0
  C  C36  1  0.68678000  0.11076000  0.43640000  1.0
  C  C37  1  0.68679000  0.88924000  0.56361000  1.0
  C  C38  1  0.31911000  0.36602000  0.86093000  1.0
  C  C39  1  0.31913000  0.63397000  0.13906000  1.0
  C  C40  1  0.68088000  0.13397000  0.36093000  1.0
  C  C41  1  0.68089000  0.86603000  0.63907000  1.0
  Br  Br42  1  0.91679000  0.54128000  0.65147000  1.0
  Br  Br43  1  0.91679000  0.45873000  0.34853000  1.0
  Br  Br44  1  0.08325000  0.95873000  0.15147000  1.0
  Br  Br45  1  0.08322000  0.04128000  0.84853000  1.0
  Br  Br46  1  0.92573000  0.24986000  0.69733000  1.0
  Br  Br47  1  0.92577000  0.75014000  0.30265000  1.0
  Br  Br48  1  0.07425000  0.25014000  0.19735000  1.0
  Br  Br49  1  0.07427000  0.74987000  0.80266000  1.0
  Br  Br50  1  0.40430000  0.64676000  0.47750000  1.0
  Br  Br51  1  0.40431000  0.35324000  0.52250000  1.0
  Br  Br52  1  0.59571000  0.85324000  0.97750000  1.0
  Br  Br53  1  0.59570000  0.14676000  0.02250000  1.0
  N  N54  1  0.42122000  0.43346000  0.80914000  1.0
  N  N55  1  0.42125000  0.56654000  0.19086000  1.0
  N  N56  1  0.57876000  0.06653000  0.30914000  1.0
  N  N57  1  0.57877000  0.93347000  0.69086000  1.0
