# generated using pymatgen
data_Cu3H16C12N4Cl3
_symmetry_space_group_name_H-M   'P 1'
_cell_length_a   7.26163000
_cell_length_b   8.80956000
_cell_length_c   12.77220000
_cell_angle_alpha   89.10670000
_cell_angle_beta   87.35640000
_cell_angle_gamma   87.75720000
_symmetry_Int_Tables_number   1
_chemical_formula_structural   Cu3H16C12N4Cl3
_chemical_formula_sum   'Cu6 H32 C24 N8 Cl6'
_cell_volume   815.48761688
_cell_formula_units_Z   2
loop_
 _symmetry_equiv_pos_site_id
 _symmetry_equiv_pos_as_xyz
  1  'x, y, z'
loop_
 _atom_site_type_symbol
 _atom_site_label
 _atom_site_symmetry_multiplicity
 _atom_site_fract_x
 _atom_site_fract_y
 _atom_site_fract_z
 _atom_site_occupancy
  Cu  Cu0  1  0.73529000  0.05655000  0.74740000  1.0
  Cu  Cu1  1  0.26472000  0.94346000  0.25260000  1.0
  Cu  Cu2  1  0.75212000  0.72685000  0.66181000  1.0
  Cu  Cu3  1  0.24788000  0.27315000  0.33819000  1.0
  Cu  Cu4  1  0.76663000  0.71916000  0.86326000  1.0
  Cu  Cu5  1  0.23337000  0.28085000  0.13674000  1.0
  H  H6  1  0.08042000  0.20634000  0.76049000  1.0
  H  H7  1  0.91958000  0.79365000  0.23951000  1.0
  H  H8  1  0.67288000  0.08012000  0.98115000  1.0
  H  H9  1  0.32712000  0.91988000  0.01885000  1.0
  H  H10  1  0.86559000  0.16492000  0.12496000  1.0
  H  H11  1  0.13441000  0.83507000  0.87504000  1.0
  H  H12  1  0.37464000  0.28534000  0.81759000  1.0
  H  H13  1  0.62535000  0.71466000  0.18241000  1.0
  H  H14  1  0.42240000  0.27628000  0.95234000  1.0
  H  H15  1  0.57759000  0.72373000  0.04766000  1.0
  H  H16  1  0.43180000  0.54520000  0.88220000  1.0
  H  H17  1  0.56817000  0.45481000  0.11779000  1.0
  H  H18  1  0.19767000  0.53684000  0.84749000  1.0
  H  H19  1  0.80231000  0.46315000  0.15251000  1.0
  H  H20  1  0.25313000  0.52737000  0.98165000  1.0
  H  H21  1  0.74684000  0.47264000  0.01835000  1.0
  H  H22  1  0.79815000  0.26441000  0.57048000  1.0
  H  H23  1  0.20186000  0.73559000  0.42952000  1.0
  H  H24  1  0.34970000  0.02357000  0.68691000  1.0
  H  H25  1  0.65031000  0.97642000  0.31309000  1.0
  H  H26  1  0.17557000  0.10052000  0.52846000  1.0
  H  H27  1  0.82445000  0.89947000  0.47154000  1.0
  H  H28  1  0.53445000  0.44886000  0.35986000  1.0
  H  H29  1  0.46555000  0.55115000  0.64015000  1.0
  H  H30  1  0.68403000  0.29859000  0.31927000  1.0
  H  H31  1  0.31597000  0.70142000  0.68073000  1.0
  H  H32  1  0.85494000  0.53638000  0.35432000  1.0
  H  H33  1  0.14506000  0.46362000  0.64568000  1.0
  H  H34  1  0.78108000  0.52462000  0.48916000  1.0
  H  H35  1  0.21893000  0.47538000  0.51084000  1.0
  H  H36  1  0.93147000  0.38171000  0.43144000  1.0
  H  H37  1  0.06854000  0.61829000  0.56855000  1.0
  C  C38  1  0.14142000  0.24680000  0.92102000  1.0
  C  C39  1  0.85858000  0.75320000  0.07898000  1.0
  C  C40  1  0.03214000  0.19830000  0.84233000  1.0
  C  C41  1  0.96786000  0.80170000  0.15768000  1.0
  C  C42  1  0.80664000  0.12850000  0.96362000  1.0
  C  C43  1  0.19336000  0.87150000  0.03639000  1.0
  C  C44  1  0.91350000  0.17534000  0.04312000  1.0
  C  C45  1  0.08650000  0.82465000  0.95688000  1.0
  C  C46  1  0.32142000  0.31917000  0.89611000  1.0
  C  C47  1  0.67857000  0.68084000  0.10389000  1.0
  C  C48  1  0.29996000  0.49285000  0.90221000  1.0
  C  C49  1  0.70002000  0.50716000  0.09779000  1.0
  C  C50  1  0.56391000  0.27279000  0.47185000  1.0
  C  C51  1  0.43610000  0.72721000  0.52815000  1.0
  C  C52  1  0.65863000  0.22820000  0.56053000  1.0
  C  C53  1  0.34138000  0.77180000  0.43947000  1.0
  C  C54  1  0.41023000  0.09618000  0.62578000  1.0
  C  C55  1  0.58978000  0.90382000  0.37422000  1.0
  C  C56  1  0.31475000  0.13872000  0.53827000  1.0
  C  C57  1  0.68527000  0.86128000  0.46173000  1.0
  C  C58  1  0.64612000  0.37151000  0.38704000  1.0
  C  C59  1  0.35388000  0.62849000  0.61296000  1.0
  C  C60  1  0.81190000  0.45853000  0.41784000  1.0
  C  C61  1  0.18810000  0.54147000  0.58216000  1.0
  N  N62  1  0.08134000  0.23420000  0.02323000  1.0
  N  N63  1  0.91866000  0.76580000  0.97677000  1.0
  N  N64  1  0.86571000  0.13830000  0.86200000  1.0
  N  N65  1  0.13429000  0.86169000  0.13801000  1.0
  N  N66  1  0.38969000  0.22569000  0.46042000  1.0
  N  N67  1  0.61032000  0.77431000  0.53958000  1.0
  N  N68  1  0.58523000  0.13881000  0.63734000  1.0
  N  N69  1  0.41478000  0.86120000  0.36266000  1.0
  Cl  Cl70  1  0.78103000  0.51300000  0.75992000  1.0
  Cl  Cl71  1  0.21897000  0.48701000  0.24009000  1.0
  Cl  Cl72  1  0.98174000  0.90354000  0.66896000  1.0
  Cl  Cl73  1  0.01826000  0.09646000  0.33104000  1.0
  Cl  Cl74  1  0.51956000  0.87890000  0.83387000  1.0
  Cl  Cl75  1  0.48043000  0.12110000  0.16613000  1.0
