# generated using pymatgen
data_MnH6C6(NO)4
_symmetry_space_group_name_H-M   'P 1'
_cell_length_a   6.59156000
_cell_length_b   7.73429000
_cell_length_c   9.12804000
_cell_angle_alpha   98.67490000
_cell_angle_beta   94.82230000
_cell_angle_gamma   109.66300000
_symmetry_Int_Tables_number   1
_chemical_formula_structural   MnH6C6(NO)4
_chemical_formula_sum   'Mn2 H12 C12 N8 O8'
_cell_volume   428.64082242
_cell_formula_units_Z   2
loop_
 _symmetry_equiv_pos_site_id
 _symmetry_equiv_pos_as_xyz
  1  'x, y, z'
loop_
 _atom_site_type_symbol
 _atom_site_label
 _atom_site_symmetry_multiplicity
 _atom_site_fract_x
 _atom_site_fract_y
 _atom_site_fract_z
 _atom_site_occupancy
  Mn  Mn0  1  0.99999000  0.50000000  0.50000000  1.0
  Mn  Mn1  1  0.00000000  0.00000000  0.50000000  1.0
  H  H2  1  0.30356000  0.69290000  0.93188000  1.0
  H  H3  1  0.69644000  0.30710000  0.06811000  1.0
  H  H4  1  0.36767000  0.78140000  0.21270000  1.0
  H  H5  1  0.63232000  0.21860000  0.78729000  1.0
  H  H6  1  0.20705000  0.22818000  0.25929000  1.0
  H  H7  1  0.79294000  0.77182000  0.74071000  1.0
  H  H8  1  0.13525000  0.11648000  0.97680000  1.0
  H  H9  1  0.86474000  0.88352000  0.02320000  1.0
  H  H10  1  0.45530000  0.26258000  0.52810000  1.0
  H  H11  1  0.54471000  0.73743000  0.47189000  1.0
  H  H12  1  0.39549000  0.10059000  0.38532000  1.0
  H  H13  1  0.60451000  0.89941000  0.61469000  1.0
  C  C14  1  0.20317000  0.39532000  0.93217000  1.0
  C  C15  1  0.79684000  0.60468000  0.06783000  1.0
  C  C16  1  0.27673000  0.58472000  0.99947000  1.0
  C  C17  1  0.72327000  0.41528000  0.00053000  1.0
  C  C18  1  0.31372000  0.63694000  0.15370000  1.0
  C  C19  1  0.68628000  0.36306000  0.84630000  1.0
  C  C20  1  0.22223000  0.32038000  0.17917000  1.0
  C  C21  1  0.77777000  0.67962000  0.82083000  1.0
  C  C22  1  0.18263000  0.26408000  0.02555000  1.0
  C  C23  1  0.81737000  0.73591000  0.97445000  1.0
  C  C24  1  0.13818000  0.33333333  0.76616000  1.0
  C  C25  1  0.86182000  0.66666667  0.23384000  1.0
  N  N26  1  0.28065000  0.50506000  0.24137000  1.0
  N  N27  1  0.71935000  0.49494000  0.75863000  1.0
  N  N28  1  0.88982000  0.20480000  0.39777000  1.0
  N  N29  1  0.11017000  0.79520000  0.60224000  1.0
  N  N30  1  0.72422000  0.13923000  0.31066000  1.0
  N  N31  1  0.27578000  0.86076000  0.68933000  1.0
  N  N32  1  0.56013000  0.07562000  0.22780000  1.0
  N  N33  1  0.43988000  0.92437000  0.77219000  1.0
  O  O34  1  0.17344000  0.46050000  0.68762000  1.0
  O  O35  1  0.82657000  0.53951000  0.31238000  1.0
  O  O36  1  0.04826000  0.15777000  0.71722000  1.0
  O  O37  1  0.95175000  0.84224000  0.28278000  1.0
  O  O38  1  0.30291000  0.55601000  0.38923000  1.0
  O  O39  1  0.69708000  0.44399000  0.61077000  1.0
  O  O40  1  0.33778000  0.14527000  0.47386000  1.0
  O  O41  1  0.66222000  0.85473000  0.52614000  1.0
