# generated using pymatgen
data_ZnH8C4(NO3)2
_symmetry_space_group_name_H-M   'P 1'
_cell_length_a   7.54462000
_cell_length_b   7.98098000
_cell_length_c   8.29494000
_cell_angle_alpha   89.99930000
_cell_angle_beta   63.57900000
_cell_angle_gamma   89.99930000
_symmetry_Int_Tables_number   1
_chemical_formula_structural   ZnH8C4(NO3)2
_chemical_formula_sum   'Zn2 H16 C8 N4 O12'
_cell_volume   447.29708266
_cell_formula_units_Z   2
loop_
 _symmetry_equiv_pos_site_id
 _symmetry_equiv_pos_as_xyz
  1  'x, y, z'
loop_
 _atom_site_type_symbol
 _atom_site_label
 _atom_site_symmetry_multiplicity
 _atom_site_fract_x
 _atom_site_fract_y
 _atom_site_fract_z
 _atom_site_occupancy
  Zn  Zn0  1  0.00000000  0.50000000  0.50000000  1.0
  Zn  Zn1  1  0.50000000  0.00000000  1.00000000  1.0
  H  H2  1  0.47079000  0.54748000  0.35969000  1.0
  H  H3  1  0.02921000  0.04748000  0.14031000  1.0
  H  H4  1  0.52921000  0.45253000  0.64031000  1.0
  H  H5  1  0.97079000  0.95252000  0.85969000  1.0
  H  H6  1  0.61173000  0.63263000  0.13880000  1.0
  H  H7  1  0.88827000  0.13263000  0.36120000  1.0
  H  H8  1  0.38827000  0.36737000  0.86120000  1.0
  H  H9  1  0.11173000  0.86737000  0.63880000  1.0
  H  H10  1  0.90082000  0.62977000  0.17847000  1.0
  H  H11  1  0.59919000  0.12977000  0.32153000  1.0
  H  H12  1  0.09918000  0.37023000  0.82153000  1.0
  H  H13  1  0.40081000  0.87023000  0.67847000  1.0
  H  H14  1  0.72067000  0.76487000  0.68191000  1.0
  H  H15  1  0.77931000  0.26487000  0.81809000  1.0
  H  H16  1  0.27933000  0.23513000  0.31809000  1.0
  H  H17  1  0.22069000  0.73512000  0.18191000  1.0
  C  C18  1  0.76065000  0.58779000  0.29041000  1.0
  C  C19  1  0.73935000  0.08779000  0.20961000  1.0
  C  C20  1  0.23935000  0.41222000  0.70959000  1.0
  C  C21  1  0.26065000  0.91221000  0.79039000  1.0
  C  C22  1  0.71402000  0.69166000  0.79768000  1.0
  C  C23  1  0.78599000  0.19166000  0.70231000  1.0
  C  C24  1  0.28598000  0.30834000  0.20232000  1.0
  C  C25  1  0.21401000  0.80834000  0.29769000  1.0
  N  N26  1  0.60413000  0.58653000  0.25862000  1.0
  N  N27  1  0.89586000  0.08653000  0.24138000  1.0
  N  N28  1  0.39587000  0.41347000  0.74139000  1.0
  N  N29  1  0.10414000  0.91347000  0.75862000  1.0
  O  O30  1  0.81772000  0.55993000  0.76719000  1.0
  O  O31  1  0.68227000  0.05992000  0.73281000  1.0
  O  O32  1  0.18229000  0.44007000  0.23281000  1.0
  O  O33  1  0.31773000  0.94008000  0.26719000  1.0
  O  O34  1  0.60332000  0.74654000  0.95484000  1.0
  O  O35  1  0.89667000  0.24653000  0.54517000  1.0
  O  O36  1  0.39669000  0.25346000  0.04516000  1.0
  O  O37  1  0.10332000  0.75347000  0.45483000  1.0
  O  O38  1  0.75567000  0.54346000  0.43867000  1.0
  O  O39  1  0.74432000  0.04345000  0.06132000  1.0
  O  O40  1  0.24433000  0.45654000  0.56133000  1.0
  O  O41  1  0.25568000  0.95655000  0.93868000  1.0
