# generated using pymatgen
data_Zn4H26C48O13F2
_symmetry_space_group_name_H-M   'P 1'
_cell_length_a   18.48240000
_cell_length_b   18.48050000
_cell_length_c   23.80645747
_cell_angle_alpha   112.83432804
_cell_angle_beta   112.79691670
_cell_angle_gamma   90.01240000
_symmetry_Int_Tables_number   1
_chemical_formula_structural   Zn4H26C48O13F2
_chemical_formula_sum   'Zn8 H52 C96 O26 F4'
_cell_volume   6799.39319942
_cell_formula_units_Z   2
loop_
 _symmetry_equiv_pos_site_id
 _symmetry_equiv_pos_as_xyz
  1  'x, y, z'
loop_
 _atom_site_type_symbol
 _atom_site_label
 _atom_site_symmetry_multiplicity
 _atom_site_fract_x
 _atom_site_fract_y
 _atom_site_fract_z
 _atom_site_occupancy
  Zn  Zn0  1  0.11510000  0.52875000  0.05793000  1.0
  Zn  Zn1  1  0.52869000  0.11506000  0.05792000  1.0
  Zn  Zn2  1  0.94281000  0.52914000  0.05804000  1.0
  Zn  Zn3  1  0.52917000  0.94285000  0.05819000  1.0
  Zn  Zn4  1  0.97192000  0.55894000  0.94397000  1.0
  Zn  Zn5  1  0.38499000  0.97194000  0.94392000  1.0
  Zn  Zn6  1  0.97207000  0.38486000  0.94389000  1.0
  Zn  Zn7  1  0.55899000  0.97179000  0.94397000  1.0
  H  H8  1  0.29959000  0.39466000  0.07465000  1.0
  H  H9  1  0.67924000  0.29964000  0.07417000  1.0
  H  H10  1  0.77503000  0.67975000  0.07461000  1.0
  H  H11  1  0.39489000  0.77441000  0.07418000  1.0
  H  H12  1  0.77441000  0.39480000  0.07413000  1.0
  H  H13  1  0.39470000  0.29937000  0.07461000  1.0
  H  H14  1  0.29970000  0.67919000  0.07421000  1.0
  H  H15  1  0.67982000  0.77491000  0.07464000  1.0
  H  H16  1  0.16485000  0.06817000  0.85997000  1.0
  H  H17  1  0.79265000  0.16435000  0.86045000  1.0
  H  H18  1  0.69523000  0.79179000  0.86001000  1.0
  H  H19  1  0.06796000  0.69583000  0.86044000  1.0
  H  H20  1  0.69607000  0.06777000  0.86048000  1.0
  H  H21  1  0.06829000  0.16491000  0.85993000  1.0
  H  H22  1  0.16456000  0.79246000  0.86040000  1.0
  H  H23  1  0.79199000  0.69527000  0.86007000  1.0
  H  H24  1  0.15051000  0.05401000  0.92509000  1.0
  H  H25  1  0.87185000  0.15068000  0.92596000  1.0
  H  H26  1  0.77444000  0.87119000  0.92518000  1.0
  H  H27  1  0.05432000  0.77503000  0.92603000  1.0
  H  H28  1  0.77522000  0.05405000  0.92599000  1.0
  H  H29  1  0.05393000  0.15073000  0.92503000  1.0
  H  H30  1  0.15092000  0.87166000  0.92599000  1.0
  H  H31  1  0.87120000  0.77468000  0.92529000  1.0
  H  H32  1  0.48498000  0.86136000  0.73588000  1.0
  H  H33  1  0.86177000  0.48510000  0.73652000  1.0
  H  H34  1  0.25131000  0.87330000  0.73595000  1.0
  H  H35  1  0.87380000  0.25079000  0.73521000  1.0
  H  H36  1  0.24524000  0.60493000  0.26434000  1.0
  H  H37  1  0.60725000  0.24606000  0.26448000  1.0
  H  H38  1  0.01959000  0.65859000  0.26527000  1.0
  H  H39  1  0.65973000  0.02006000  0.26519000  1.0
  H  H40  1  0.37109000  0.72061000  0.35010000  1.0
  H  H41  1  0.51389000  0.71281000  0.40555000  1.0
  H  H42  1  0.55562000  0.64701000  0.48409000  1.0
  H  H43  1  0.45363000  0.58915000  0.50657000  1.0
  H  H44  1  0.31132000  0.59815000  0.45184000  1.0
  H  H45  1  0.54450000  0.32441000  0.35056000  1.0
  H  H46  1  0.54603000  0.46975000  0.40684000  1.0
  H  H47  1  0.67531000  0.56293000  0.48561000  1.0
  H  H48  1  0.80260000  0.50993000  0.50780000  1.0
  H  H49  1  0.80058000  0.36485000  0.45227000  1.0
  H  H50  1  0.98121000  0.62496000  0.35094000  1.0
  H  H51  1  0.89461000  0.68580000  0.40807000  1.0
  H  H52  1  0.93055000  0.82966000  0.48759000  1.0
  H  H53  1  0.05335000  0.91202000  0.50944000  1.0
  H  H54  1  0.14044000  0.85061000  0.45330000  1.0
  H  H55  1  0.62983000  0.98294000  0.35115000  1.0
  H  H56  1  0.69027000  0.89631000  0.40831000  1.0
  H  H57  1  0.83403000  0.93193000  0.48780000  1.0
  H  H58  1  0.91674000  0.05446000  0.50957000  1.0
  H  H59  1  0.85587000  0.14138000  0.45317000  1.0
  C  C60  1  0.90935000  0.40912000  0.81888000  1.0
  C  C61  1  0.40960000  0.90917000  0.81889000  1.0
  C  C62  1  0.37210000  0.87129000  0.74381000  1.0
  C  C63  1  0.87185000  0.37187000  0.74380000  1.0
  C  C64  1  0.30094000  0.79926000  0.60149000  1.0
  C  C65  1  0.80190000  0.30169000  0.60139000  1.0
  C  C66  1  0.26576000  0.76365000  0.53096000  1.0
  C  C67  1  0.76804000  0.26700000  0.53085000  1.0
  C  C68  1  0.23525000  0.73293000  0.46964000  1.0
  C  C69  1  0.74009000  0.23711000  0.46958000  1.0
  C  C70  1  0.24635000  0.66341000  0.36265000  1.0
  C  C71  1  0.67066000  0.24829000  0.36269000  1.0
  C  C72  1  0.11712000  0.69670000  0.36315000  1.0
  C  C73  1  0.70215000  0.11847000  0.36306000  1.0
  C  C74  1  0.21032000  0.63097000  0.29263000  1.0
  C  C75  1  0.63297000  0.21103000  0.29271000  1.0
  C  C76  1  0.08278000  0.66038000  0.29311000  1.0
  C  C77  1  0.66265000  0.08353000  0.29312000  1.0
  C  C78  1  0.12889000  0.62839000  0.25766000  1.0
  C  C79  1  0.62880000  0.12923000  0.25774000  1.0
  C  C80  1  0.19969000  0.69772000  0.39866000  1.0
  C  C81  1  0.70583000  0.20176000  0.39860000  1.0
  C  C82  1  0.09135000  0.59132000  0.18279000  1.0
  C  C83  1  0.59056000  0.09136000  0.18286000  1.0
  C  C84  1  0.13897000  0.63821000  0.00094000  1.0
  C  C85  1  0.36233000  0.13876000  0.00069000  1.0
  C  C86  1  0.86208000  0.36256000  0.00100000  1.0
  C  C87  1  0.63831000  0.86180000  0.00090000  1.0
  C  C88  1  0.86191000  0.63835000  0.00079000  1.0
  C  C89  1  0.63833000  0.13884000  0.00099000  1.0
  C  C90  1  0.13905000  0.36251000  0.00083000  1.0
  C  C91  1  0.36262000  0.86192000  0.00092000  1.0
  C  C92  1  0.17052000  0.22397000  0.95970000  1.0
  C  C93  1  0.73596000  0.17046000  0.95995000  1.0
  C  C94  1  0.78919000  0.73578000  0.95975000  1.0
  C  C95  1  0.22407000  0.78917000  0.95985000  1.0
  C  C96  1  0.78941000  0.22389000  0.95993000  1.0
  C  C97  1  0.22390000  0.17049000  0.95970000  1.0
  C  C98  1  0.17065000  0.73573000  0.95987000  1.0
  C  C99  1  0.73572000  0.78916000  0.95973000  1.0
  C  C100  1  0.19559000  0.30542000  0.00054000  1.0
  C  C101  1  0.69498000  0.19547000  0.00054000  1.0
  C  C102  1  0.80502000  0.69509000  0.00054000  1.0
  C  C103  1  0.30557000  0.80481000  0.00049000  1.0
  C  C104  1  0.80498000  0.30544000  0.00052000  1.0
  C  C105  1  0.30534000  0.19541000  0.00051000  1.0
  C  C106  1  0.19563000  0.69483000  0.00050000  1.0
  C  C107  1  0.69505000  0.80490000  0.00056000  1.0
  C  C108  1  0.27809000  0.33128000  0.04210000  1.0
  C  C109  1  0.71032000  0.27806000  0.04181000  1.0
  C  C110  1  0.76401000  0.71061000  0.04207000  1.0
  C  C111  1  0.33149000  0.76355000  0.04181000  1.0
  C  C112  1  0.76364000  0.33137000  0.04180000  1.0
  C  C113  1  0.33133000  0.27791000  0.04209000  1.0
  C  C114  1  0.27818000  0.71022000  0.04181000  1.0
  C  C115  1  0.71067000  0.76388000  0.04208000  1.0
  C  C116  1  0.15929000  0.09882000  0.90755000  1.0
  C  C117  1  0.80945000  0.15917000  0.90815000  1.0
  C  C118  1  0.74826000  0.80881000  0.90763000  1.0
  C  C119  1  0.09888000  0.74870000  0.90814000  1.0
  C  C120  1  0.74893000  0.09865000  0.90817000  1.0
  C  C121  1  0.09881000  0.15939000  0.90752000  1.0
  C  C122  1  0.15939000  0.80923000  0.90812000  1.0
  C  C123  1  0.80885000  0.74835000  0.90767000  1.0
  C  C124  1  0.38444000  0.81493000  0.63939000  1.0
  C  C125  1  0.81690000  0.38508000  0.63977000  1.0
  C  C126  1  0.25535000  0.82200000  0.63943000  1.0
  C  C127  1  0.82393000  0.25569000  0.63900000  1.0
  C  C128  1  0.42038000  0.85021000  0.70881000  1.0
  C  C129  1  0.85108000  0.42054000  0.70917000  1.0
  C  C130  1  0.28885000  0.85703000  0.70886000  1.0
  C  C131  1  0.85795000  0.28868000  0.70843000  1.0
  C  C132  1  0.33165000  0.66026000  0.39745000  1.0
  C  C133  1  0.38940000  0.69164000  0.38435000  1.0
  C  C134  1  0.46958000  0.68722000  0.41557000  1.0
  C  C135  1  0.49298000  0.65048000  0.45967000  1.0
  C  C136  1  0.43581000  0.61836000  0.47251000  1.0
  C  C137  1  0.35583000  0.62354000  0.44192000  1.0
  C  C138  1  0.67244000  0.33487000  0.39765000  1.0
  C  C139  1  0.60106000  0.36538000  0.38485000  1.0
  C  C140  1  0.60198000  0.44694000  0.41655000  1.0
  C  C141  1  0.67445000  0.49916000  0.46083000  1.0
  C  C142  1  0.74581000  0.46945000  0.47340000  1.0
  C  C143  1  0.74482000  0.38789000  0.44237000  1.0
  C  C144  1  0.06686000  0.73354000  0.39858000  1.0
  C  C145  1  0.99680000  0.68797000  0.38569000  1.0
  C  C146  1  0.94827000  0.72223000  0.41786000  1.0
  C  C147  1  0.96855000  0.80279000  0.46256000  1.0
  C  C148  1  0.03760000  0.84889000  0.47504000  1.0
  C  C149  1  0.08670000  0.81446000  0.44362000  1.0
  C  C150  1  0.73866000  0.06816000  0.39848000  1.0
  C  C151  1  0.69285000  0.99834000  0.38578000  1.0
  C  C152  1  0.72686000  0.94983000  0.41803000  1.0
  C  C153  1  0.80737000  0.96992000  0.46272000  1.0
  C  C154  1  0.85367000  0.03882000  0.47514000  1.0
  C  C155  1  0.81953000  0.08780000  0.44356000  1.0
  O  O156  1  0.00016000  0.50008000  0.00034000  1.0
  O  O157  1  0.50015000  0.00002000  0.00038000  1.0
  O  O158  1  0.92456000  0.36170000  0.84757000  1.0
  O  O159  1  0.48567000  0.92293000  0.84771000  1.0
  O  O160  1  0.92306000  0.48521000  0.84782000  1.0
  O  O161  1  0.36228000  0.92446000  0.84769000  1.0
  O  O162  1  0.13840000  0.57437000  0.15371000  1.0
  O  O163  1  0.57307000  0.13821000  0.15364000  1.0
  O  O164  1  0.01529000  0.57945000  0.15385000  1.0
  O  O165  1  0.57874000  0.01523000  0.15403000  1.0
  O  O166  1  0.06596000  0.62666000  0.95992000  1.0
  O  O167  1  0.33275000  0.06560000  0.96011000  1.0
  O  O168  1  0.89422000  0.33306000  0.96003000  1.0
  O  O169  1  0.62736000  0.89440000  0.96032000  1.0
  O  O170  1  0.89460000  0.62747000  0.96026000  1.0
  O  O171  1  0.62684000  0.06578000  0.96001000  1.0
  O  O172  1  0.06590000  0.33294000  0.96028000  1.0
  O  O173  1  0.33314000  0.89395000  0.95991000  1.0
  O  O174  1  0.87436000  0.43555000  0.04189000  1.0
  O  O175  1  0.60551000  0.87339000  0.04124000  1.0
  O  O176  1  0.16753000  0.60616000  0.04187000  1.0
  O  O177  1  0.43542000  0.16753000  0.04096000  1.0
  O  O178  1  0.16782000  0.43562000  0.04114000  1.0
  O  O179  1  0.43556000  0.87426000  0.04183000  1.0
  O  O180  1  0.87342000  0.60548000  0.04105000  1.0
  O  O181  1  0.60620000  0.16743000  0.04190000  1.0
  F  F182  1  0.43084000  0.79422000  0.60532000  1.0
  F  F183  1  0.79686000  0.43198000  0.60611000  1.0
  F  F184  1  0.17489000  0.80828000  0.60539000  1.0
  F  F185  1  0.81071000  0.17528000  0.60464000  1.0
