# generated using pymatgen
data_Mn2PH2CO7
_symmetry_space_group_name_H-M   'P 1'
_cell_length_a   6.51819000
_cell_length_b   10.05340000
_cell_length_c   10.22260000
_cell_angle_alpha   116.40700000
_cell_angle_beta   89.99990000
_cell_angle_gamma   90.00000000
_symmetry_Int_Tables_number   1
_chemical_formula_structural   Mn2PH2CO7
_chemical_formula_sum   'Mn8 P4 H8 C4 O28'
_cell_volume   599.98898750
_cell_formula_units_Z   4
loop_
 _symmetry_equiv_pos_site_id
 _symmetry_equiv_pos_as_xyz
  1  'x, y, z'
loop_
 _atom_site_type_symbol
 _atom_site_label
 _atom_site_symmetry_multiplicity
 _atom_site_fract_x
 _atom_site_fract_y
 _atom_site_fract_z
 _atom_site_occupancy
  Mn  Mn0  1  0.14462000  0.97637000  0.61861000  1.0
  Mn  Mn1  1  0.64462000  0.52363000  0.38139000  1.0
  Mn  Mn2  1  0.85538000  0.02363000  0.38139000  1.0
  Mn  Mn3  1  0.35538000  0.47637000  0.61861000  1.0
  Mn  Mn4  1  0.97401000  0.73154000  0.73411000  1.0
  Mn  Mn5  1  0.47401000  0.76846000  0.26589000  1.0
  Mn  Mn6  1  0.02599000  0.26846000  0.26589000  1.0
  Mn  Mn7  1  0.52599000  0.23154000  0.73411000  1.0
  P  P8  1  0.14937000  0.60591000  0.39715000  1.0
  P  P9  1  0.64937000  0.89409000  0.60285000  1.0
  P  P10  1  0.85063000  0.39409000  0.60285000  1.0
  P  P11  1  0.35063000  0.10591000  0.39715000  1.0
  H  H12  1  0.11426000  0.22514000  0.87799000  1.0
  H  H13  1  0.61426000  0.27486000  0.12201000  1.0
  H  H14  1  0.88574000  0.77486000  0.12201000  1.0
  H  H15  1  0.38574000  0.72514000  0.87799000  1.0
  H  H16  1  0.01823000  0.27118000  0.75971000  1.0
  H  H17  1  0.51823000  0.22882000  0.24029000  1.0
  H  H18  1  0.98177000  0.72882000  0.24029000  1.0
  H  H19  1  0.48177000  0.77118000  0.75971000  1.0
  C  C20  1  0.04626000  0.04120000  0.95876000  1.0
  C  C21  1  0.54626000  0.45880000  0.04124000  1.0
  C  C22  1  0.95373000  0.95881000  0.04126000  1.0
  C  C23  1  0.45373000  0.54119000  0.95874000  1.0
  O  O24  1  0.09314000  0.73994000  0.54433000  1.0
  O  O25  1  0.59314000  0.76006000  0.45567000  1.0
  O  O26  1  0.90686000  0.26007000  0.45567000  1.0
  O  O27  1  0.40686000  0.23994000  0.54433000  1.0
  O  O28  1  0.96404000  0.49569000  0.34024000  1.0
  O  O29  1  0.46404000  0.00431000  0.65976000  1.0
  O  O30  1  0.03596000  0.50431000  0.65976000  1.0
  O  O31  1  0.53597000  0.99569000  0.34024000  1.0
  O  O32  1  0.32622000  0.51501000  0.42231000  1.0
  O  O33  1  0.82622000  0.98499000  0.57769000  1.0
  O  O34  1  0.67378000  0.48499000  0.57769000  1.0
  O  O35  1  0.17378000  0.01501000  0.42231000  1.0
  O  O36  1  0.20071000  0.66294000  0.28374000  1.0
  O  O37  1  0.70070000  0.83706000  0.71626000  1.0
  O  O38  1  0.79930000  0.33706000  0.71626000  1.0
  O  O39  1  0.29930000  0.16294000  0.28374000  1.0
  O  O40  1  0.09349000  0.96067000  0.82678000  1.0
  O  O41  1  0.59349000  0.53933000  0.17322000  1.0
  O  O42  1  0.90651000  0.03932000  0.17322000  1.0
  O  O43  1  0.40651000  0.46067000  0.82678000  1.0
  O  O44  1  0.06748000  0.18108000  0.02699000  1.0
  O  O45  1  0.56748000  0.31892000  0.97301000  1.0
  O  O46  1  0.93251000  0.81891000  0.97300000  1.0
  O  O47  1  0.43251000  0.68109000  0.02699000  1.0
  O  O48  1  0.13604000  0.21781000  0.77884000  1.0
  O  O49  1  0.63604000  0.28219000  0.22116000  1.0
  O  O50  1  0.86396000  0.78219000  0.22116000  1.0
  O  O51  1  0.36396000  0.71781000  0.77884000  1.0
