# generated using pymatgen
data_ZnH20C15N(ClO4)2
_symmetry_space_group_name_H-M   'P 1'
_cell_length_a   8.98474000
_cell_length_b   9.66564000
_cell_length_c   10.91510000
_cell_angle_alpha   91.13840000
_cell_angle_beta   95.83090000
_cell_angle_gamma   95.51780000
_symmetry_Int_Tables_number   1
_chemical_formula_structural   ZnH20C15N(ClO4)2
_chemical_formula_sum   'Zn2 H40 C30 N2 Cl4 O16'
_cell_volume   938.20852123
_cell_formula_units_Z   2
loop_
 _symmetry_equiv_pos_site_id
 _symmetry_equiv_pos_as_xyz
  1  'x, y, z'
loop_
 _atom_site_type_symbol
 _atom_site_label
 _atom_site_symmetry_multiplicity
 _atom_site_fract_x
 _atom_site_fract_y
 _atom_site_fract_z
 _atom_site_occupancy
  Zn  Zn0  1  0.66666667  0.48714000  0.51812000  1.0
  Zn  Zn1  1  0.36719000  0.55088000  0.48947000  1.0
  H  H2  1  0.62480000  0.92164000  0.08177000  1.0
  H  H3  1  0.77478000  0.81564000  0.07909000  1.0
  H  H4  1  0.83621000  0.97439000  0.25694000  1.0
  H  H5  1  0.65723000  0.93306000  0.30927000  1.0
  H  H6  1  0.78913000  0.80638000  0.31336000  1.0
  H  H7  1  0.11644000  0.57840000  0.22107000  1.0
  H  H8  1  0.06054000  0.68867000  0.10096000  1.0
  H  H9  1  0.22577000  0.88922000  0.21375000  1.0
  H  H10  1  0.08371000  0.81784000  0.30184000  1.0
  H  H11  1  0.27367000  0.77858000  0.33517000  1.0
  H  H12  1  0.57072000  0.88371000  0.80113000  1.0
  H  H13  1  0.58487000  0.72482000  0.72442000  1.0
  H  H14  1  0.85782000  0.87833000  0.87739000  1.0
  H  H15  1  0.86017000  0.75450000  0.75535000  1.0
  H  H16  1  0.80871000  0.92420000  0.72298000  1.0
  H  H17  1  0.11314000  0.70573000  0.93164000  1.0
  H  H18  1  0.15560000  0.77138000  0.78795000  1.0
  H  H19  1  0.33110000  0.96523000  0.89517000  1.0
  H  H20  1  0.15027000  0.96600000  0.94549000  1.0
  H  H21  1  0.29727000  0.89590000  0.03967000  1.0
  H  H22  1  0.65803000  0.13029000  0.19537000  1.0
  H  H23  1  0.67556000  0.28557000  0.28855000  1.0
  H  H24  1  0.92993000  0.34995000  0.22076000  1.0
  H  H25  1  0.91459000  0.19380000  0.30344000  1.0
  H  H26  1  0.91876000  0.18688000  0.14060000  1.0
  H  H27  1  0.45944000  0.24819000  0.29565000  1.0
  H  H28  1  0.44510000  0.07651000  0.23529000  1.0
  H  H29  1  0.23382000  0.09077000  0.34291000  1.0
  H  H30  1  0.18971000  0.25214000  0.28112000  1.0
  H  H31  1  0.15930000  0.09844000  0.18580000  1.0
  H  H32  1  0.62407000  0.09500000  0.80556000  1.0
  H  H33  1  0.63134000  0.11674000  0.96838000  1.0
  H  H34  1  0.88037000  0.27392000  0.95756000  1.0
  H  H35  1  0.89104000  0.09655000  0.91444000  1.0
  H  H36  1  0.87140000  0.22341000  0.79985000  1.0
  H  H37  1  0.40263000  0.09116000  0.76184000  1.0
  H  H38  1  0.40670000  0.25512000  0.69481000  1.0
  H  H39  1  0.11811000  0.09213000  0.76465000  1.0
  H  H40  1  0.12907000  0.24531000  0.67720000  1.0
  H  H41  1  0.18500000  0.08812000  0.61657000  1.0
  C  C42  1  0.59988000  0.78654000  0.51257000  1.0
  C  C43  1  0.47172000  0.48946000  0.27019000  1.0
  C  C44  1  0.47973000  0.49896000  0.73064000  1.0
  C  C45  1  0.63073000  0.21493000  0.52211000  1.0
  C  C46  1  0.63272000  0.93791000  0.52346000  1.0
  C  C47  1  0.60525000  0.59632000  0.09287000  1.0
  C  C48  1  0.31595000  0.52742000  0.06289000  1.0
  C  C49  1  0.61548000  0.59415000  0.94211000  1.0
  C  C50  1  0.32505000  0.55024000  0.91379000  1.0
  C  C51  1  0.64287000  0.06484000  0.52787000  1.0
  C  C52  1  0.50507000  0.33185000  0.07196000  1.0
  C  C53  1  0.48402000  0.33507000  0.91762000  1.0
  C  C54  1  0.47369000  0.48385000  0.12654000  1.0
  C  C55  1  0.47396000  0.49362000  0.87376000  1.0
  C  C56  1  0.68420000  0.84245000  0.13200000  1.0
  C  C57  1  0.74465000  0.89136000  0.26088000  1.0
  C  C58  1  0.15198000  0.67214000  0.17262000  1.0
  C  C59  1  0.18632000  0.79619000  0.26104000  1.0
  C  C60  1  0.63618000  0.79348000  0.80074000  1.0
  C  C61  1  0.80088000  0.83936000  0.78804000  1.0
  C  C62  1  0.20060000  0.76380000  0.88509000  1.0
  C  C63  1  0.24784000  0.90570000  0.94488000  1.0
  C  C64  1  0.70891000  0.23826000  0.20517000  1.0
  C  C65  1  0.87804000  0.24259000  0.21694000  1.0
  C  C66  1  0.39454000  0.17576000  0.22802000  1.0
  C  C67  1  0.23405000  0.15398000  0.26030000  1.0
  C  C68  1  0.66817000  0.16452000  0.88488000  1.0
  C  C69  1  0.83789000  0.19111000  0.88974000  1.0
  C  C70  1  0.34544000  0.18707000  0.75547000  1.0
  C  C71  1  0.18428000  0.15188000  0.70105000  1.0
  N  N72  1  0.09895000  0.55990000  0.48865000  1.0
  N  N73  1  0.97731000  0.54832000  0.50131000  1.0
  Cl  Cl74  1  0.79321000  0.57247000  0.17092000  1.0
  Cl  Cl75  1  0.17029000  0.39399000  0.08380000  1.0
  Cl  Cl76  1  0.79617000  0.54216000  0.90655000  1.0
  Cl  Cl77  1  0.15058000  0.46464000  0.82922000  1.0
  O  O78  1  0.70572000  0.70794000  0.51969000  1.0
  O  O79  1  0.45851000  0.74714000  0.49684000  1.0
  O  O80  1  0.59501000  0.48748000  0.33680000  1.0
  O  O81  1  0.34665000  0.49637000  0.31692000  1.0
  O  O82  1  0.60422000  0.48875000  0.68875000  1.0
  O  O83  1  0.35858000  0.51492000  0.66116000  1.0
  O  O84  1  0.75219000  0.29987000  0.52841000  1.0
  O  O85  1  0.50016000  0.25258000  0.50802000  1.0
  O  O86  1  0.57220000  0.72323000  0.13598000  1.0
  O  O87  1  0.28764000  0.65303000  0.11704000  1.0
  O  O88  1  0.61259000  0.73229000  0.91664000  1.0
  O  O89  1  0.33230000  0.68811000  0.88490000  1.0
  O  O90  1  0.65781000  0.31226000  0.09803000  1.0
  O  O91  1  0.40690000  0.21997000  0.10243000  1.0
  O  O92  1  0.60814000  0.29609000  0.86520000  1.0
  O  O93  1  0.35242000  0.24894000  0.87830000  1.0
