# generated using pymatgen
data_CuH7C11NO3
_symmetry_space_group_name_H-M   'P 1'
_cell_length_a   9.89182000
_cell_length_b   10.01540000
_cell_length_c   10.78910000
_cell_angle_alpha   75.61850000
_cell_angle_beta   76.03100000
_cell_angle_gamma   87.00380000
_symmetry_Int_Tables_number   1
_chemical_formula_structural   CuH7C11NO3
_chemical_formula_sum   'Cu4 H28 C44 N4 O12'
_cell_volume   1004.73314632
_cell_formula_units_Z   4
loop_
 _symmetry_equiv_pos_site_id
 _symmetry_equiv_pos_as_xyz
  1  'x, y, z'
loop_
 _atom_site_type_symbol
 _atom_site_label
 _atom_site_symmetry_multiplicity
 _atom_site_fract_x
 _atom_site_fract_y
 _atom_site_fract_z
 _atom_site_occupancy
  Cu  Cu0  1  0.32864000  0.91764000  0.12357000  1.0
  Cu  Cu1  1  0.67132000  0.08234000  0.87645000  1.0
  Cu  Cu2  1  0.50349000  0.72758000  0.13150000  1.0
  Cu  Cu3  1  0.49649000  0.27247000  0.86848000  1.0
  H  H4  1  0.57081000  0.66187000  0.74435000  1.0
  H  H5  1  0.42921000  0.33816000  0.25564000  1.0
  H  H6  1  0.57167000  0.66468000  0.51300000  1.0
  H  H7  1  0.42837000  0.33535000  0.48697000  1.0
  H  H8  1  0.27249000  0.99168000  0.50433000  1.0
  H  H9  1  0.72752000  0.00834000  0.49565000  1.0
  H  H10  1  0.27344000  0.99173000  0.73588000  1.0
  H  H11  1  0.72657000  0.00829000  0.26411000  1.0
  H  H12  1  0.22293000  0.38730000  0.42059000  1.0
  H  H13  1  0.77706000  0.61270000  0.57939000  1.0
  H  H14  1  0.95494000  0.73725000  0.37816000  1.0
  H  H15  1  0.04505000  0.26275000  0.62180000  1.0
  H  H16  1  0.21882000  0.11442000  0.29219000  1.0
  H  H17  1  0.78123000  0.88560000  0.70782000  1.0
  H  H18  1  0.03588000  0.29224000  0.30580000  1.0
  H  H19  1  0.96413000  0.70778000  0.69419000  1.0
  H  H20  1  0.96345000  0.23025000  0.94230000  1.0
  H  H21  1  0.03657000  0.76973000  0.05770000  1.0
  H  H22  1  0.15264000  0.05936000  0.94471000  1.0
  H  H23  1  0.84740000  0.94062000  0.05527000  1.0
  H  H24  1  0.69264000  0.60250000  0.30693000  1.0
  H  H25  1  0.30730000  0.39747000  0.69311000  1.0
  H  H26  1  0.87920000  0.42921000  0.31413000  1.0
  H  H27  1  0.12080000  0.57078000  0.68587000  1.0
  H  H28  1  0.82014000  0.37126000  0.94549000  1.0
  H  H29  1  0.17988000  0.62872000  0.05451000  1.0
  H  H30  1  0.63902000  0.54888000  0.95357000  1.0
  H  H31  1  0.36096000  0.45108000  0.04642000  1.0
  C  C32  1  0.42464000  0.82967000  0.75323000  1.0
  C  C33  1  0.57536000  0.17035000  0.24677000  1.0
  C  C34  1  0.50759000  0.73601000  0.69104000  1.0
  C  C35  1  0.49242000  0.26400000  0.30896000  1.0
  C  C36  1  0.50770000  0.73700000  0.56200000  1.0
  C  C37  1  0.49234000  0.26302000  0.43798000  1.0
  C  C38  1  0.42506000  0.83097000  0.49333000  1.0
  C  C39  1  0.57497000  0.16905000  0.50666000  1.0
  C  C40  1  0.33771000  0.92029000  0.55763000  1.0
  C  C41  1  0.66230000  0.07972000  0.44236000  1.0
  C  C42  1  0.33807000  0.92018000  0.68633000  1.0
  C  C43  1  0.66194000  0.07982000  0.31366000  1.0
  C  C44  1  0.42847000  0.83369000  0.88924000  1.0
  C  C45  1  0.57153000  0.16631000  0.11077000  1.0
  C  C46  1  0.20486000  0.64381000  0.27047000  1.0
  C  C47  1  0.79513000  0.35619000  0.72955000  1.0
  C  C48  1  0.09842000  0.56872000  0.38852000  1.0
  C  C49  1  0.90153000  0.43125000  0.61152000  1.0
  C  C50  1  0.12469000  0.43514000  0.45664000  1.0
  C  C51  1  0.87529000  0.56483000  0.54339000  1.0
  C  C52  1  0.97299000  0.63331000  0.43268000  1.0
  C  C53  1  0.02696000  0.36669000  0.56734000  1.0
  C  C54  1  0.15937000  0.14482000  0.21689000  1.0
  C  C55  1  0.84064000  0.85521000  0.78310000  1.0
  C  C56  1  0.05596000  0.24367000  0.22348000  1.0
  C  C57  1  0.94404000  0.75638000  0.77649000  1.0
  C  C58  1  0.98088000  0.27921000  0.12497000  1.0
  C  C59  1  0.01909000  0.72083000  0.87502000  1.0
  C  C60  1  0.01659000  0.21079000  0.02259000  1.0
  C  C61  1  0.98341000  0.78923000  0.97744000  1.0
  C  C62  1  0.12202000  0.11364000  0.02298000  1.0
  C  C63  1  0.87800000  0.88636000  0.97703000  1.0
  C  C64  1  0.43329000  0.83844000  0.35224000  1.0
  C  C65  1  0.56673000  0.16156000  0.64774000  1.0
  C  C66  1  0.72595000  0.54908000  0.22831000  1.0
  C  C67  1  0.27401000  0.45090000  0.77169000  1.0
  C  C68  1  0.83061000  0.45130000  0.23091000  1.0
  C  C69  1  0.16937000  0.54868000  0.76906000  1.0
  C  C70  1  0.87011000  0.38399000  0.12804000  1.0
  C  C71  1  0.12992000  0.61596000  0.87196000  1.0
  C  C72  1  0.79864000  0.42071000  0.02710000  1.0
  C  C73  1  0.20137000  0.57927000  0.97293000  1.0
  C  C74  1  0.69533000  0.51974000  0.03127000  1.0
  C  C75  1  0.30465000  0.48025000  0.96874000  1.0
  N  N76  1  0.19250000  0.07998000  0.11840000  1.0
  N  N77  1  0.80752000  0.92003000  0.88160000  1.0
  N  N78  1  0.65920000  0.58419000  0.12990000  1.0
  N  N79  1  0.34076000  0.41578000  0.87010000  1.0
  O  O80  1  0.35485000  0.92456000  0.93921000  1.0
  O  O81  1  0.64511000  0.07541000  0.06082000  1.0
  O  O82  1  0.50559000  0.74707000  0.94827000  1.0
  O  O83  1  0.49444000  0.25292000  0.05171000  1.0
  O  O84  1  0.16669000  0.75695000  0.20340000  1.0
  O  O85  1  0.83327000  0.24306000  0.79659000  1.0
  O  O86  1  0.32491000  0.59024000  0.24657000  1.0
  O  O87  1  0.67511000  0.40977000  0.75347000  1.0
  O  O88  1  0.34869000  0.91867000  0.29693000  1.0
  O  O89  1  0.65129000  0.08131000  0.70307000  1.0
  O  O90  1  0.52506000  0.76619000  0.29371000  1.0
  O  O91  1  0.47499000  0.23381000  0.70629000  1.0
