# generated using pymatgen
data_ZnNiH16C10(N3O)2
_symmetry_space_group_name_H-M   'P 1'
_cell_length_a   8.84720000
_cell_length_b   11.23350000
_cell_length_c   14.74360000
_cell_angle_alpha   90.00000000
_cell_angle_beta   90.00000000
_cell_angle_gamma   90.00000000
_symmetry_Int_Tables_number   1
_chemical_formula_structural   ZnNiH16C10(N3O)2
_chemical_formula_sum   'Zn4 Ni4 H64 C40 N24 O8'
_cell_volume   1465.29299856
_cell_formula_units_Z   4
loop_
 _symmetry_equiv_pos_site_id
 _symmetry_equiv_pos_as_xyz
  1  'x, y, z'
loop_
 _atom_site_type_symbol
 _atom_site_label
 _atom_site_symmetry_multiplicity
 _atom_site_fract_x
 _atom_site_fract_y
 _atom_site_fract_z
 _atom_site_occupancy
  Zn  Zn0  1  0.38055000  0.50000000  0.75000000  1.0
  Zn  Zn1  1  0.11945000  0.00000000  0.25000000  1.0
  Zn  Zn2  1  0.61945000  0.50000000  0.25000000  1.0
  Zn  Zn3  1  0.88055000  0.00000000  0.75000000  1.0
  Ni  Ni4  1  0.00000000  0.50000000  0.00000000  1.0
  Ni  Ni5  1  0.50000000  0.00000000  0.50000000  1.0
  Ni  Ni6  1  0.49999000  0.00000000  0.00000000  1.0
  Ni  Ni7  1  0.00001000  0.50000000  0.50000000  1.0
  H  H8  1  0.45230000  0.75608000  0.66235000  1.0
  H  H9  1  0.04770000  0.74392000  0.16235000  1.0
  H  H10  1  0.04770000  0.25607000  0.33765000  1.0
  H  H11  1  0.45230000  0.24393000  0.83765000  1.0
  H  H12  1  0.54770000  0.24392000  0.33765000  1.0
  H  H13  1  0.95230000  0.25608000  0.83765000  1.0
  H  H14  1  0.95230000  0.74392000  0.66235000  1.0
  H  H15  1  0.54770000  0.75608000  0.16235000  1.0
  H  H16  1  0.61000000  0.80275000  0.72722000  1.0
  H  H17  1  0.89000000  0.69725000  0.22722000  1.0
  H  H18  1  0.89000000  0.30275000  0.27278000  1.0
  H  H19  1  0.61000000  0.19725000  0.77278000  1.0
  H  H20  1  0.39000000  0.19725000  0.27278000  1.0
  H  H21  1  0.11000000  0.30275000  0.77278000  1.0
  H  H22  1  0.11000000  0.69725000  0.72722000  1.0
  H  H23  1  0.39000000  0.80275000  0.22722000  1.0
  H  H24  1  0.69954000  0.70595000  0.58744000  1.0
  H  H25  1  0.80045000  0.79405000  0.08744000  1.0
  H  H26  1  0.80046000  0.20595000  0.41256000  1.0
  H  H27  1  0.69954000  0.29405000  0.91256000  1.0
  H  H28  1  0.30045000  0.29405000  0.41256000  1.0
  H  H29  1  0.19954000  0.20595000  0.91256000  1.0
  H  H30  1  0.19954000  0.79405000  0.58744000  1.0
  H  H31  1  0.30045000  0.70594000  0.08744000  1.0
  H  H32  1  0.74867000  0.61629000  0.68336000  1.0
  H  H33  1  0.75133000  0.88371000  0.18336000  1.0
  H  H34  1  0.75133000  0.11629000  0.31664000  1.0
  H  H35  1  0.74867000  0.38371000  0.81664000  1.0
  H  H36  1  0.25132000  0.38371000  0.31664000  1.0
  H  H37  1  0.24867000  0.11629000  0.81664000  1.0
  H  H38  1  0.24867000  0.88371000  0.68336000  1.0
  H  H39  1  0.25133000  0.61629000  0.18336000  1.0
  H  H40  1  0.60426000  0.60417000  0.47322000  1.0
  H  H41  1  0.89574000  0.89583000  0.97322000  1.0
  H  H42  1  0.89574000  0.10417000  0.52679000  1.0
  H  H43  1  0.60426000  0.39583000  0.02678000  1.0
  H  H44  1  0.39574000  0.39583000  0.52679000  1.0
  H  H45  1  0.10426000  0.10417000  0.02678000  1.0
  H  H46  1  0.10426000  0.89583000  0.47322000  1.0
  H  H47  1  0.39574000  0.60417000  0.97322000  1.0
  H  H48  1  0.41642000  0.61802000  0.51698000  1.0
  H  H49  1  0.08358000  0.88198000  0.01698000  1.0
  H  H50  1  0.08358000  0.11802000  0.48302000  1.0
  H  H51  1  0.41642000  0.38198000  0.98302000  1.0
  H  H52  1  0.58358000  0.38198000  0.48302000  1.0
  H  H53  1  0.91642000  0.11802000  0.98302000  1.0
  H  H54  1  0.91642000  0.88198000  0.51698000  1.0
  H  H55  1  0.58358000  0.61802000  0.01698000  1.0
  H  H56  1  0.42206000  0.70650000  0.81780000  1.0
  H  H57  1  0.07794000  0.79350000  0.31779000  1.0
  H  H58  1  0.07794000  0.20649000  0.18220000  1.0
  H  H59  1  0.42206000  0.29350000  0.68220000  1.0
  H  H60  1  0.57793000  0.29350000  0.18220000  1.0
  H  H61  1  0.92206000  0.20649000  0.68220000  1.0
  H  H62  1  0.92206000  0.79350000  0.81780000  1.0
  H  H63  1  0.57794000  0.70649000  0.31779000  1.0
  H  H64  1  0.58114000  0.63060000  0.82057000  1.0
  H  H65  1  0.91886000  0.86940000  0.32057000  1.0
  H  H66  1  0.91887000  0.13059000  0.17944000  1.0
  H  H67  1  0.58114000  0.36940000  0.67943000  1.0
  H  H68  1  0.41886000  0.36941000  0.17944000  1.0
  H  H69  1  0.08114000  0.13059000  0.67944000  1.0
  H  H70  1  0.08114000  0.86940000  0.82057000  1.0
  H  H71  1  0.41887000  0.63059000  0.32056000  1.0
  C  C72  1  0.13977000  0.48887000  0.90902000  1.0
  C  C73  1  0.36023000  0.01114000  0.40903000  1.0
  C  C74  1  0.36023000  0.98887000  0.09097000  1.0
  C  C75  1  0.13977000  0.51114000  0.59097000  1.0
  C  C76  1  0.86023000  0.51113000  0.09097000  1.0
  C  C77  1  0.63977000  0.98886000  0.59098000  1.0
  C  C78  1  0.63976000  0.01114000  0.90902000  1.0
  C  C79  1  0.86024000  0.48887000  0.40902000  1.0
  C  C80  1  0.11151000  0.39624000  0.07092000  1.0
  C  C81  1  0.38848000  0.10375000  0.57093000  1.0
  C  C82  1  0.38848000  0.89625000  0.92908000  1.0
  C  C83  1  0.11152000  0.60376000  0.42908000  1.0
  C  C84  1  0.88849000  0.60375000  0.92908000  1.0
  C  C85  1  0.61151000  0.89625000  0.42909000  1.0
  C  C86  1  0.61150000  0.10375000  0.07092000  1.0
  C  C87  1  0.88849000  0.39625000  0.57091000  1.0
  C  C88  1  0.54917000  0.72408000  0.70212000  1.0
  C  C89  1  0.95083000  0.77592000  0.20212000  1.0
  C  C90  1  0.95083000  0.22408000  0.29788000  1.0
  C  C91  1  0.54917000  0.27592000  0.79788000  1.0
  C  C92  1  0.45083000  0.27592000  0.29788000  1.0
  C  C93  1  0.04917000  0.22408000  0.79788000  1.0
  C  C94  1  0.04917000  0.77592000  0.70212000  1.0
  C  C95  1  0.45083000  0.72408000  0.20212000  1.0
  C  C96  1  0.65359000  0.65040000  0.64262000  1.0
  C  C97  1  0.84641000  0.84960000  0.14261000  1.0
  C  C98  1  0.84641000  0.15040000  0.35739000  1.0
  C  C99  1  0.65359000  0.34960000  0.85738000  1.0
  C  C100  1  0.34641000  0.34960000  0.35739000  1.0
  C  C101  1  0.15359000  0.15040000  0.85739000  1.0
  C  C102  1  0.15359000  0.84960000  0.64262000  1.0
  C  C103  1  0.34641000  0.65040000  0.14261000  1.0
  C  C104  1  0.51894000  0.56211000  0.51718000  1.0
  C  C105  1  0.98105000  0.93789000  0.01718000  1.0
  C  C106  1  0.98106000  0.06211000  0.48282000  1.0
  C  C107  1  0.51894000  0.43789000  0.98282000  1.0
  C  C108  1  0.48105000  0.43789000  0.48282000  1.0
  C  C109  1  0.01894000  0.06211000  0.98282000  1.0
  C  C110  1  0.01894000  0.93789000  0.51718000  1.0
  C  C111  1  0.48105000  0.56211000  0.01718000  1.0
  N  N112  1  0.22971000  0.48175000  0.85101000  1.0
  N  N113  1  0.27029000  0.01825000  0.35101000  1.0
  N  N114  1  0.27029000  0.98175000  0.14899000  1.0
  N  N115  1  0.22971000  0.51825000  0.64899000  1.0
  N  N116  1  0.77029000  0.51824000  0.14899000  1.0
  N  N117  1  0.72971000  0.98176000  0.64899000  1.0
  N  N118  1  0.72971000  0.01825000  0.85101000  1.0
  N  N119  1  0.77030000  0.48175000  0.35101000  1.0
  N  N120  1  0.18061000  0.32998000  0.11665000  1.0
  N  N121  1  0.31939000  0.17001000  0.61666000  1.0
  N  N122  1  0.31938000  0.82999000  0.88334000  1.0
  N  N123  1  0.18062000  0.67002000  0.38334000  1.0
  N  N124  1  0.81939000  0.67001000  0.88334000  1.0
  N  N125  1  0.68062000  0.82998000  0.38335000  1.0
  N  N126  1  0.68060000  0.17002000  0.11665000  1.0
  N  N127  1  0.81939000  0.32998000  0.61665000  1.0
  N  N128  1  0.49179000  0.65262000  0.77896000  1.0
  N  N129  1  0.00822000  0.84738000  0.27896000  1.0
  N  N130  1  0.00822000  0.15262000  0.22104000  1.0
  N  N131  1  0.49179000  0.34738000  0.72103000  1.0
  N  N132  1  0.50821000  0.34738000  0.22104000  1.0
  N  N133  1  0.99179000  0.15262000  0.72104000  1.0
  N  N134  1  0.99179000  0.84738000  0.77897000  1.0
  N  N135  1  0.50822000  0.65262000  0.27896000  1.0
  O  O136  1  0.57902000  0.54797000  0.60648000  1.0
  O  O137  1  0.92097000  0.95203000  0.10648000  1.0
  O  O138  1  0.92098000  0.04798000  0.39352000  1.0
  O  O139  1  0.57902000  0.45203000  0.89352000  1.0
  O  O140  1  0.42097000  0.45203000  0.39352000  1.0
  O  O141  1  0.07902000  0.04797000  0.89352000  1.0
  O  O142  1  0.07902000  0.95203000  0.60648000  1.0
  O  O143  1  0.42097000  0.54797000  0.10648000  1.0
