# generated using pymatgen
data_MnH16C12S2(NO4)2
_symmetry_space_group_name_H-M   'P 1'
_cell_length_a   6.91948000
_cell_length_b   7.37675840
_cell_length_c   17.80840000
_cell_angle_alpha   87.00386343
_cell_angle_beta   87.02750000
_cell_angle_gamma   65.85514765
_symmetry_Int_Tables_number   1
_chemical_formula_structural   MnH16C12S2(NO4)2
_chemical_formula_sum   'Mn2 H32 C24 S4 N4 O16'
_cell_volume   827.87829912
_cell_formula_units_Z   2
loop_
 _symmetry_equiv_pos_site_id
 _symmetry_equiv_pos_as_xyz
  1  'x, y, z'
loop_
 _atom_site_type_symbol
 _atom_site_label
 _atom_site_symmetry_multiplicity
 _atom_site_fract_x
 _atom_site_fract_y
 _atom_site_fract_z
 _atom_site_occupancy
  Mn  Mn0  1  0.99999000  0.50001000  0.00000000  1.0
  Mn  Mn1  1  0.00000000  0.00000000  0.50000000  1.0
  H  H2  1  0.36673000  0.21741000  0.94166000  1.0
  H  H3  1  0.63544000  0.28960000  0.43996000  1.0
  H  H4  1  0.63326000  0.78260000  0.05834000  1.0
  H  H5  1  0.36456000  0.71040000  0.56003000  1.0
  H  H6  1  0.25745000  0.08113000  0.98622000  1.0
  H  H7  1  0.80710000  0.38322000  0.45031000  1.0
  H  H8  1  0.74256000  0.91887000  0.01379000  1.0
  H  H9  1  0.19290000  0.61678000  0.54969000  1.0
  H  H10  1  0.25956000  0.07550000  0.59022000  1.0
  H  H11  1  0.74597000  0.40097000  0.09309000  1.0
  H  H12  1  0.74044000  0.92449000  0.40978000  1.0
  H  H13  1  0.25403000  0.59904000  0.90690000  1.0
  H  H14  1  0.05867000  0.28750000  0.56263000  1.0
  H  H15  1  0.94950000  0.18956000  0.06703000  1.0
  H  H16  1  0.94134000  0.71249000  0.43737000  1.0
  H  H17  1  0.05050000  0.81045000  0.93297000  1.0
  H  H18  1  0.14764000  0.03312000  0.84690000  1.0
  H  H19  1  0.86467000  0.50406000  0.33576000  1.0
  H  H20  1  0.85236000  0.96688000  0.15310000  1.0
  H  H21  1  0.13533000  0.49593000  0.66424000  1.0
  H  H22  1  0.29197000  0.96205000  0.71541000  1.0
  H  H23  1  0.72402000  0.55011000  0.20750000  1.0
  H  H24  1  0.70802000  0.03795000  0.28459000  1.0
  H  H25  1  0.27598000  0.44989000  0.79250000  1.0
  H  H26  1  0.70284000  0.39025000  0.63095000  1.0
  H  H27  1  0.29475000  0.07073000  0.13148000  1.0
  H  H28  1  0.29716000  0.60975000  0.36905000  1.0
  H  H29  1  0.70524000  0.92928000  0.86852000  1.0
  H  H30  1  0.55670000  0.45987000  0.76127000  1.0
  H  H31  1  0.43404000  0.01930000  0.25932000  1.0
  H  H32  1  0.44331000  0.54013000  0.23873000  1.0
  H  H33  1  0.56597000  0.98069000  0.74068000  1.0
  C  C34  1  0.84333000  0.25135000  0.81247000  1.0
  C  C35  1  0.15574000  0.25569000  0.30625000  1.0
  C  C36  1  0.15666000  0.74866000  0.18753000  1.0
  C  C37  1  0.84426000  0.74430000  0.69375000  1.0
  C  C38  1  0.05046000  0.11136000  0.79961000  1.0
  C  C39  1  0.95649000  0.40531000  0.29156000  1.0
  C  C40  1  0.94954000  0.88864000  0.20039000  1.0
  C  C41  1  0.04351000  0.59468000  0.70844000  1.0
  C  C42  1  0.13209000  0.07335000  0.72622000  1.0
  C  C43  1  0.87743000  0.43171000  0.21983000  1.0
  C  C44  1  0.86791000  0.92665000  0.27379000  1.0
  C  C45  1  0.12257000  0.56828000  0.78016000  1.0
  C  C46  1  0.00988000  0.17789000  0.66516000  1.0
  C  C47  1  0.99518000  0.30617000  0.16254000  1.0
  C  C48  1  0.99012000  0.82211000  0.33484000  1.0
  C  C49  1  0.00482000  0.69383000  0.83746000  1.0
  C  C50  1  0.79964000  0.31259000  0.67839000  1.0
  C  C51  1  0.20000000  0.16377000  0.17661000  1.0
  C  C52  1  0.20036000  0.68741000  0.32161000  1.0
  C  C53  1  0.80000000  0.83623000  0.82339000  1.0
  C  C54  1  0.71809000  0.35076000  0.75161000  1.0
  C  C55  1  0.27842000  0.13604000  0.24837000  1.0
  C  C56  1  0.28192000  0.64924000  0.24839000  1.0
  C  C57  1  0.72158000  0.86395000  0.75163000  1.0
  S  S58  1  0.73022000  0.29628000  0.90511000  1.0
  S  S59  1  0.25447000  0.22065000  0.39784000  1.0
  S  S60  1  0.26979000  0.70372000  0.09489000  1.0
  S  S61  1  0.74554000  0.77934000  0.60216000  1.0
  N  N62  1  0.09792000  0.15218000  0.59063000  1.0
  N  N63  1  0.90816000  0.32486000  0.09080000  1.0
  N  N64  1  0.90208000  0.84781000  0.40937000  1.0
  N  N65  1  0.09185000  0.67514000  0.90919000  1.0
  O  O66  1  0.76259000  0.46742000  0.93291000  1.0
  O  O67  1  0.25318000  0.02983000  0.42895000  1.0
  O  O68  1  0.23743000  0.53258000  0.06709000  1.0
  O  O69  1  0.74683000  0.97016000  0.57105000  1.0
  O  O70  1  0.83247000  0.11381000  0.95171000  1.0
  O  O71  1  0.10903000  0.39031000  0.44093000  1.0
  O  O72  1  0.16752000  0.88620000  0.04829000  1.0
  O  O73  1  0.89097000  0.60968000  0.55907000  1.0
  O  O74  1  0.50226000  0.34745000  0.89679000  1.0
  O  O75  1  0.47325000  0.20665000  0.38993000  1.0
  O  O76  1  0.49774000  0.65257000  0.10321000  1.0
  O  O77  1  0.52675000  0.79335000  0.61007000  1.0
  O  O78  1  0.23335000  0.20943000  0.96095000  1.0
  O  O79  1  0.74969000  0.28967000  0.47131000  1.0
  O  O80  1  0.76666000  0.79057000  0.03905000  1.0
  O  O81  1  0.25030000  0.71034000  0.52869000  1.0
