# generated using pymatgen
data_ZnH16C16N3O5
_symmetry_space_group_name_H-M   'P 1'
_cell_length_a   10.29690000
_cell_length_b   14.81660000
_cell_length_c   14.97230000
_cell_angle_alpha   114.62500000
_cell_angle_beta   90.04220000
_cell_angle_gamma   110.31600000
_symmetry_Int_Tables_number   1
_chemical_formula_structural   ZnH16C16N3O5
_chemical_formula_sum   'Zn4 H64 C64 N12 O20'
_cell_volume   1918.79704558
_cell_formula_units_Z   4
loop_
 _symmetry_equiv_pos_site_id
 _symmetry_equiv_pos_as_xyz
  1  'x, y, z'
loop_
 _atom_site_type_symbol
 _atom_site_label
 _atom_site_symmetry_multiplicity
 _atom_site_fract_x
 _atom_site_fract_y
 _atom_site_fract_z
 _atom_site_occupancy
  Zn  Zn0  1  0.15389000  0.57915000  0.53350000  1.0
  Zn  Zn1  1  0.57449000  0.42082000  0.96670000  1.0
  Zn  Zn2  1  0.84613000  0.42079000  0.46645000  1.0
  Zn  Zn3  1  0.42557000  0.57925000  0.03332000  1.0
  H  H4  1  0.77022000  0.54642000  0.75722000  1.0
  H  H5  1  0.79049000  0.83511000  0.00851000  1.0
  H  H6  1  0.09150000  0.84906000  0.80767000  1.0
  H  H7  1  0.79394000  0.71679000  0.57062000  1.0
  H  H8  1  0.72957000  0.73285000  0.68317000  1.0
  H  H9  1  0.34179000  0.68395000  0.41254000  1.0
  H  H10  1  0.36142000  0.63361000  0.70704000  1.0
  H  H11  1  0.54305000  0.70967000  0.75080000  1.0
  H  H12  1  0.63401000  0.76659000  0.45391000  1.0
  H  H13  1  0.40737000  0.47122000  0.59795000  1.0
  H  H14  1  0.48835000  0.52099000  0.72267000  1.0
  H  H15  1  0.59215000  0.54392000  0.63379000  1.0
  H  H16  1  0.91375000  0.90333000  0.70227000  1.0
  H  H17  1  0.81912000  0.90095000  0.60237000  1.0
  H  H18  1  0.72242000  0.92672000  0.80237000  1.0
  H  H19  1  0.61631000  0.90621000  0.69753000  1.0
  H  H20  1  0.22395000  0.45358000  0.74249000  1.0
  H  H21  1  0.95509000  0.16479000  0.49137000  1.0
  H  H22  1  0.24254000  0.15094000  0.69233000  1.0
  H  H23  1  0.07702000  0.28364000  0.93008000  1.0
  H  H24  1  0.99658000  0.26792000  0.81764000  1.0
  H  H25  1  0.65743000  0.31556000  0.08777000  1.0
  H  H26  1  0.72687000  0.36655000  0.79371000  1.0
  H  H27  1  0.83166000  0.28991000  0.74959000  1.0
  H  H28  1  0.86748000  0.23339000  0.04657000  1.0
  H  H29  1  0.93607000  0.52853000  0.90218000  1.0
  H  H30  1  0.96633000  0.47832000  0.77732000  1.0
  H  H31  1  0.04751000  0.45535000  0.86610000  1.0
  H  H32  1  0.01064000  0.09738000  0.79794000  1.0
  H  H33  1  0.91856000  0.09925000  0.89773000  1.0
  H  H34  1  0.79566000  0.07380000  0.69787000  1.0
  H  H35  1  0.71018000  0.09414000  0.80268000  1.0
  H  H36  1  0.22982000  0.45354000  0.24269000  1.0
  H  H37  1  0.20955000  0.16483000  0.99145000  1.0
  H  H38  1  0.90854000  0.15093000  0.19231000  1.0
  H  H39  1  0.20603000  0.28322000  0.42944000  1.0
  H  H40  1  0.27039000  0.26718000  0.31688000  1.0
  H  H41  1  0.65824000  0.31605000  0.58744000  1.0
  H  H42  1  0.63851000  0.36645000  0.29298000  1.0
  H  H43  1  0.45688000  0.29039000  0.24924000  1.0
  H  H44  1  0.36602000  0.23347000  0.54615000  1.0
  H  H45  1  0.59257000  0.52881000  0.40215000  1.0
  H  H46  1  0.51156000  0.47909000  0.27744000  1.0
  H  H47  1  0.40778000  0.45611000  0.36631000  1.0
  H  H48  1  0.08623000  0.09670000  0.29775000  1.0
  H  H49  1  0.18084000  0.09904000  0.39764000  1.0
  H  H50  1  0.27756000  0.07333000  0.19766000  1.0
  H  H51  1  0.38366000  0.09382000  0.30249000  1.0
  H  H52  1  0.77603000  0.54639000  0.25749000  1.0
  H  H53  1  0.04491000  0.83510000  0.50861000  1.0
  H  H54  1  0.75746000  0.84908000  0.30776000  1.0
  H  H55  1  0.92298000  0.71638000  0.06994000  1.0
  H  H56  1  0.00343000  0.73210000  0.18237000  1.0
  H  H57  1  0.34255000  0.68448000  0.91221000  1.0
  H  H58  1  0.27315000  0.63344000  0.20625000  1.0
  H  H59  1  0.16837000  0.71008000  0.25039000  1.0
  H  H60  1  0.13250000  0.76665000  0.95344000  1.0
  H  H61  1  0.06392000  0.47145000  0.09781000  1.0
  H  H62  1  0.03370000  0.52169000  0.22268000  1.0
  H  H63  1  0.95250000  0.54465000  0.13390000  1.0
  H  H64  1  0.98936000  0.90264000  0.20207000  1.0
  H  H65  1  0.08143000  0.90077000  0.10228000  1.0
  H  H66  1  0.20435000  0.92620000  0.30213000  1.0
  H  H67  1  0.28984000  0.90590000  0.19732000  1.0
  C  C68  1  0.77195000  0.68410000  0.88783000  1.0
  C  C69  1  0.81937000  0.63313000  0.80081000  1.0
  C  C70  1  0.93057000  0.69229000  0.76940000  1.0
  C  C71  1  0.66146000  0.61713000  0.92471000  1.0
  C  C72  1  0.97536000  0.63334000  0.67389000  1.0
  C  C73  1  0.83141000  0.79590000  0.94272000  1.0
  C  C74  1  0.99852000  0.80302000  0.82747000  1.0
  C  C75  1  0.47115000  0.67150000  0.60116000  1.0
  C  C76  1  0.94652000  0.85386000  0.91267000  1.0
  C  C77  1  0.73522000  0.75748000  0.62321000  1.0
  C  C78  1  0.41186000  0.68925000  0.47014000  1.0
  C  C79  1  0.46559000  0.64280000  0.68576000  1.0
  C  C80  1  0.55558000  0.73014000  0.48981000  1.0
  C  C81  1  0.49044000  0.53874000  0.65834000  1.0
  C  C82  1  0.80697000  0.87949000  0.66480000  1.0
  C  C83  1  0.72593000  0.93987000  0.73491000  1.0
  C  C84  1  0.08772000  0.31581000  0.61201000  1.0
  C  C85  1  0.18635000  0.36685000  0.69899000  1.0
  C  C86  1  0.23844000  0.30776000  0.73054000  1.0
  C  C87  1  0.04405000  0.38279000  0.57520000  1.0
  C  C88  1  0.34231000  0.36672000  0.82605000  1.0
  C  C89  1  0.03534000  0.20402000  0.55715000  1.0
  C  C90  1  0.19554000  0.19699000  0.67252000  1.0
  C  C91  1  0.79907000  0.32846000  0.89940000  1.0
  C  C92  1  0.09264000  0.14610000  0.58726000  1.0
  C  C93  1  0.97764000  0.24299000  0.87739000  1.0
  C  C94  1  0.72220000  0.31045000  0.03027000  1.0
  C  C95  1  0.82176000  0.35703000  0.81473000  1.0
  C  C96  1  0.82529000  0.26981000  0.01068000  1.0
  C  C97  1  0.95099000  0.46075000  0.84175000  1.0
  C  C98  1  0.92769000  0.12100000  0.83549000  1.0
  C  C99  1  0.78616000  0.06056000  0.76529000  1.0
  C  C100  1  0.22809000  0.31587000  0.11210000  1.0
  C  C101  1  0.18065000  0.36683000  0.19911000  1.0
  C  C102  1  0.06948000  0.30769000  0.23055000  1.0
  C  C103  1  0.33858000  0.38285000  0.07524000  1.0
  C  C104  1  0.02473000  0.36665000  0.32606000  1.0
  C  C105  1  0.16864000  0.20406000  0.05722000  1.0
  C  C106  1  0.00153000  0.19695000  0.17249000  1.0
  C  C107  1  0.52883000  0.32852000  0.39886000  1.0
  C  C108  1  0.05353000  0.14610000  0.08730000  1.0
  C  C109  1  0.26476000  0.24254000  0.37684000  1.0
  C  C110  1  0.58816000  0.31076000  0.52987000  1.0
  C  C111  1  0.53435000  0.35723000  0.31427000  1.0
  C  C112  1  0.44444000  0.26991000  0.51023000  1.0
  C  C113  1  0.50949000  0.46131000  0.34175000  1.0
  C  C114  1  0.19300000  0.12053000  0.33524000  1.0
  C  C115  1  0.27405000  0.06016000  0.26511000  1.0
  C  C116  1  0.91223000  0.68412000  0.38797000  1.0
  C  C117  1  0.81360000  0.63311000  0.30099000  1.0
  C  C118  1  0.76155000  0.69226000  0.26950000  1.0
  C  C119  1  0.95592000  0.61711000  0.42473000  1.0
  C  C120  1  0.65772000  0.63334000  0.17397000  1.0
  C  C121  1  0.96460000  0.79590000  0.44286000  1.0
  C  C122  1  0.80443000  0.80300000  0.32754000  1.0
  C  C123  1  0.20094000  0.67155000  0.10058000  1.0
  C  C124  1  0.90729000  0.85385000  0.41280000  1.0
  C  C125  1  0.02235000  0.75703000  0.12262000  1.0
  C  C126  1  0.27780000  0.68959000  0.96973000  1.0
  C  C127  1  0.17826000  0.64297000  0.18524000  1.0
  C  C128  1  0.17470000  0.73022000  0.98932000  1.0
  C  C129  1  0.04901000  0.53924000  0.15824000  1.0
  C  C130  1  0.07230000  0.87902000  0.16452000  1.0
  C  C131  1  0.21384000  0.93946000  0.23470000  1.0
  N  N132  1  0.36062000  0.65293000  0.53940000  1.0
  N  N133  1  0.59166000  0.71783000  0.57200000  1.0
  N  N134  1  0.03141000  0.96659000  0.97359000  1.0
  N  N135  1  0.70708000  0.34683000  0.96107000  1.0
  N  N136  1  0.87357000  0.28230000  0.92858000  1.0
  N  N137  1  0.06473000  0.03337000  0.52634000  1.0
  N  N138  1  0.63936000  0.34707000  0.46059000  1.0
  N  N139  1  0.40834000  0.28221000  0.42804000  1.0
  N  N140  1  0.96869000  0.03338000  0.02638000  1.0
  N  N141  1  0.29294000  0.65320000  0.03891000  1.0
  N  N142  1  0.12642000  0.71771000  0.07142000  1.0
  N  N143  1  0.93510000  0.96655000  0.47370000  1.0
  O  O144  1  0.10300000  0.67244000  0.66530000  1.0
  O  O145  1  0.57497000  0.65594000  0.96941000  1.0
  O  O146  1  0.66790000  0.52748000  0.90834000  1.0
  O  O147  1  0.87881000  0.54819000  0.61003000  1.0
  O  O148  1  0.16412000  0.99918000  0.97684000  1.0
  O  O149  1  0.43053000  0.32739000  0.83483000  1.0
  O  O150  1  0.91865000  0.34417000  0.53065000  1.0
  O  O151  1  0.14027000  0.47235000  0.59153000  1.0
  O  O152  1  0.33127000  0.45208000  0.88975000  1.0
  O  O153  1  0.16496000  0.00085000  0.52294000  1.0
  O  O154  1  0.89718000  0.32746000  0.33478000  1.0
  O  O155  1  0.42517000  0.34410000  0.03065000  1.0
  O  O156  1  0.33205000  0.47246000  0.09152000  1.0
  O  O157  1  0.12127000  0.45193000  0.38982000  1.0
  O  O158  1  0.83600000  0.00078000  0.02310000  1.0
  O  O159  1  0.56940000  0.67260000  0.16525000  1.0
  O  O160  1  0.08121000  0.65583000  0.46950000  1.0
  O  O161  1  0.85984000  0.52739000  0.40812000  1.0
  O  O162  1  0.66887000  0.54807000  0.11019000  1.0
  O  O163  1  0.83488000  0.99908000  0.47708000  1.0
