# generated using pymatgen
data_Zn2In3H18C30N9O13
_symmetry_space_group_name_H-M   'P 1'
_cell_length_a   14.12080000
_cell_length_b   14.12080000
_cell_length_c   18.52540000
_cell_angle_alpha   89.99990000
_cell_angle_beta   90.00000000
_cell_angle_gamma   60.00000000
_symmetry_Int_Tables_number   1
_chemical_formula_structural   Zn2In3H18C30N9O13
_chemical_formula_sum   'Zn4 In6 H36 C60 N18 O26'
_cell_volume   3199.01907436
_cell_formula_units_Z   2
loop_
 _symmetry_equiv_pos_site_id
 _symmetry_equiv_pos_as_xyz
  1  'x, y, z'
loop_
 _atom_site_type_symbol
 _atom_site_label
 _atom_site_symmetry_multiplicity
 _atom_site_fract_x
 _atom_site_fract_y
 _atom_site_fract_z
 _atom_site_occupancy
  Zn  Zn0  1  0.00000000  0.00000000  0.34890000  1.0
  Zn  Zn1  1  0.00000000  0.00000000  0.84890000  1.0
  Zn  Zn2  1  0.00000000  0.00000000  0.65112000  1.0
  Zn  Zn3  1  0.00000000  0.00000000  0.15112000  1.0
  In  In4  1  0.75071000  0.49858000  0.25000000  1.0
  In  In5  1  0.49858000  0.75071000  0.25000000  1.0
  In  In6  1  0.75071000  0.75071000  0.25000000  1.0
  In  In7  1  0.24929000  0.50142000  0.75000000  1.0
  In  In8  1  0.50142000  0.24929000  0.75000000  1.0
  In  In9  1  0.24929000  0.24929000  0.75000000  1.0
  H  H10  1  0.95301000  0.37142000  0.43984000  1.0
  H  H11  1  0.37142000  0.67557000  0.43985000  1.0
  H  H12  1  0.67557000  0.95301000  0.43984000  1.0
  H  H13  1  0.04700000  0.62858000  0.93985000  1.0
  H  H14  1  0.62858000  0.32442000  0.93985000  1.0
  H  H15  1  0.32442000  0.04700000  0.93985000  1.0
  H  H16  1  0.32442000  0.62858000  0.56015000  1.0
  H  H17  1  0.04700000  0.32442000  0.56014000  1.0
  H  H18  1  0.62858000  0.04700000  0.56014000  1.0
  H  H19  1  0.67557000  0.37142000  0.06015000  1.0
  H  H20  1  0.95301000  0.67557000  0.06015000  1.0
  H  H21  1  0.37142000  0.95300000  0.06015000  1.0
  H  H22  1  0.04700000  0.62858000  0.56014000  1.0
  H  H23  1  0.62858000  0.32442000  0.56014000  1.0
  H  H24  1  0.32442000  0.04700000  0.56014000  1.0
  H  H25  1  0.95301000  0.37142000  0.06015000  1.0
  H  H26  1  0.37142000  0.67557000  0.06015000  1.0
  H  H27  1  0.67558000  0.95300000  0.06015000  1.0
  H  H28  1  0.67557000  0.37142000  0.43985000  1.0
  H  H29  1  0.95301000  0.67557000  0.43984000  1.0
  H  H30  1  0.37142000  0.95301000  0.43984000  1.0
  H  H31  1  0.32442000  0.62858000  0.93985000  1.0
  H  H32  1  0.04700000  0.32442000  0.93985000  1.0
  H  H33  1  0.62858000  0.04700000  0.93985000  1.0
  H  H34  1  0.86161000  0.27678000  0.36342000  1.0
  H  H35  1  0.27678000  0.86161000  0.36342000  1.0
  H  H36  1  0.86161000  0.86161000  0.36342000  1.0
  H  H37  1  0.13839000  0.72322000  0.86342000  1.0
  H  H38  1  0.72321000  0.13840000  0.86342000  1.0
  H  H39  1  0.13840000  0.13839000  0.86342000  1.0
  H  H40  1  0.13839000  0.72322000  0.63659000  1.0
  H  H41  1  0.13839000  0.13839000  0.63659000  1.0
  H  H42  1  0.72322000  0.13839000  0.63659000  1.0
  H  H43  1  0.86161000  0.27678000  0.13659000  1.0
  H  H44  1  0.86161000  0.86161000  0.13659000  1.0
  H  H45  1  0.27678000  0.86161000  0.13659000  1.0
  C  C46  1  0.97390000  0.42713000  0.46670000  1.0
  C  C47  1  0.42714000  0.59896000  0.46670000  1.0
  C  C48  1  0.59896000  0.97390000  0.46670000  1.0
  C  C49  1  0.02611000  0.57286000  0.96671000  1.0
  C  C50  1  0.57286000  0.40103000  0.96670000  1.0
  C  C51  1  0.40103000  0.02611000  0.96670000  1.0
  C  C52  1  0.40103000  0.57286000  0.53329000  1.0
  C  C53  1  0.02611000  0.40103000  0.53329000  1.0
  C  C54  1  0.57286000  0.02611000  0.53329000  1.0
  C  C55  1  0.59897000  0.42713000  0.03330000  1.0
  C  C56  1  0.97390000  0.59896000  0.03330000  1.0
  C  C57  1  0.42714000  0.97389000  0.03330000  1.0
  C  C58  1  0.02611000  0.57286000  0.53329000  1.0
  C  C59  1  0.57286000  0.40103000  0.53329000  1.0
  C  C60  1  0.40103000  0.02611000  0.53329000  1.0
  C  C61  1  0.97390000  0.42713000  0.03330000  1.0
  C  C62  1  0.42714000  0.59896000  0.03330000  1.0
  C  C63  1  0.59897000  0.97389000  0.03330000  1.0
  C  C64  1  0.59897000  0.42713000  0.46670000  1.0
  C  C65  1  0.97390000  0.59896000  0.46670000  1.0
  C  C66  1  0.42714000  0.97390000  0.46670000  1.0
  C  C67  1  0.40103000  0.57286000  0.96670000  1.0
  C  C68  1  0.02611000  0.40103000  0.96670000  1.0
  C  C69  1  0.57286000  0.02611000  0.96670000  1.0
  C  C70  1  0.88753000  0.55623000  0.36261000  1.0
  C  C71  1  0.94738000  0.52631000  0.43307000  1.0
  C  C72  1  0.55624000  0.55623000  0.36261000  1.0
  C  C73  1  0.52631000  0.52631000  0.43307000  1.0
  C  C74  1  0.55624000  0.88752000  0.36261000  1.0
  C  C75  1  0.52631000  0.94738000  0.43307000  1.0
  C  C76  1  0.11247000  0.44377000  0.86261000  1.0
  C  C77  1  0.05263000  0.47368000  0.93307000  1.0
  C  C78  1  0.44376000  0.44377000  0.86261000  1.0
  C  C79  1  0.47369000  0.47369000  0.93307000  1.0
  C  C80  1  0.44376000  0.11248000  0.86262000  1.0
  C  C81  1  0.47369000  0.05262000  0.93308000  1.0
  C  C82  1  0.44376000  0.44377000  0.63738000  1.0
  C  C83  1  0.47369000  0.47368000  0.56692000  1.0
  C  C84  1  0.11247000  0.44377000  0.63738000  1.0
  C  C85  1  0.05263000  0.47368000  0.56692000  1.0
  C  C86  1  0.44376000  0.11248000  0.63738000  1.0
  C  C87  1  0.47368000  0.05263000  0.56692000  1.0
  C  C88  1  0.55624000  0.55623000  0.13739000  1.0
  C  C89  1  0.52631000  0.52631000  0.06693000  1.0
  C  C90  1  0.88753000  0.55623000  0.13739000  1.0
  C  C91  1  0.94738000  0.52631000  0.06693000  1.0
  C  C92  1  0.55624000  0.88752000  0.13739000  1.0
  C  C93  1  0.52631000  0.94738000  0.06693000  1.0
  C  C94  1  0.87500000  0.25000000  0.30761000  1.0
  C  C95  1  0.25001000  0.87499000  0.30761000  1.0
  C  C96  1  0.87500000  0.87500000  0.30761000  1.0
  C  C97  1  0.12500000  0.75000000  0.80761000  1.0
  C  C98  1  0.74999000  0.12500000  0.80761000  1.0
  C  C99  1  0.12501000  0.12500000  0.80761000  1.0
  C  C100  1  0.12500000  0.75000000  0.69240000  1.0
  C  C101  1  0.12500000  0.12501000  0.69240000  1.0
  C  C102  1  0.74999000  0.12501000  0.69240000  1.0
  C  C103  1  0.87500000  0.25000000  0.19240000  1.0
  C  C104  1  0.87500000  0.87500000  0.19240000  1.0
  C  C105  1  0.25000000  0.87500000  0.19240000  1.0
  N  N106  1  0.84101000  0.31798000  0.25000000  1.0
  N  N107  1  0.31799000  0.84100000  0.25000000  1.0
  N  N108  1  0.84101000  0.84100000  0.25000000  1.0
  N  N109  1  0.15899000  0.68202000  0.75000000  1.0
  N  N110  1  0.68201000  0.15900000  0.75000000  1.0
  N  N111  1  0.15899000  0.15900000  0.75000000  1.0
  N  N112  1  0.92706000  0.14588000  0.28724000  1.0
  N  N113  1  0.14587000  0.92707000  0.28724000  1.0
  N  N114  1  0.92706000  0.92707000  0.28724000  1.0
  N  N115  1  0.07294000  0.85412000  0.78724000  1.0
  N  N116  1  0.85413000  0.07293000  0.78724000  1.0
  N  N117  1  0.07294000  0.07293000  0.78724000  1.0
  N  N118  1  0.07294000  0.85412000  0.71276000  1.0
  N  N119  1  0.07294000  0.07293000  0.71276000  1.0
  N  N120  1  0.85413000  0.07293000  0.71276000  1.0
  N  N121  1  0.92707000  0.14586000  0.21276000  1.0
  N  N122  1  0.92706000  0.92707000  0.21277000  1.0
  N  N123  1  0.14587000  0.92707000  0.21276000  1.0
  O  O124  1  0.86437000  0.48702000  0.33585000  1.0
  O  O125  1  0.48702000  0.64861000  0.33586000  1.0
  O  O126  1  0.64861000  0.86436000  0.33586000  1.0
  O  O127  1  0.13564000  0.51297000  0.83586000  1.0
  O  O128  1  0.51297000  0.35139000  0.83586000  1.0
  O  O129  1  0.35139000  0.13564000  0.83586000  1.0
  O  O130  1  0.35139000  0.51297000  0.66414000  1.0
  O  O131  1  0.13564000  0.35139000  0.66414000  1.0
  O  O132  1  0.51297000  0.13564000  0.66414000  1.0
  O  O133  1  0.64861000  0.48703000  0.16414000  1.0
  O  O134  1  0.86436000  0.64861000  0.16414000  1.0
  O  O135  1  0.48703000  0.86436000  0.16414000  1.0
  O  O136  1  0.13564000  0.51297000  0.66414000  1.0
  O  O137  1  0.51297000  0.35139000  0.66414000  1.0
  O  O138  1  0.35139000  0.13564000  0.66414000  1.0
  O  O139  1  0.86436000  0.48703000  0.16414000  1.0
  O  O140  1  0.48703000  0.64861000  0.16414000  1.0
  O  O141  1  0.64861000  0.86436000  0.16414000  1.0
  O  O142  1  0.64860000  0.48703000  0.33586000  1.0
  O  O143  1  0.86437000  0.64860000  0.33586000  1.0
  O  O144  1  0.48703000  0.86436000  0.33585000  1.0
  O  O145  1  0.35139000  0.51297000  0.83586000  1.0
  O  O146  1  0.13564000  0.35139000  0.83586000  1.0
  O  O147  1  0.51297000  0.13564000  0.83586000  1.0
  O  O148  1  0.66666667  0.66666667  0.25000000  1.0
  O  O149  1  0.33333333  0.33333333  0.75000000  1.0
