# generated using pymatgen
data_Ba2Cd2H31C36NO24
_symmetry_space_group_name_H-M   'P 1'
_cell_length_a   16.66210000
_cell_length_b   17.08280000
_cell_length_c   18.19090000
_cell_angle_alpha   73.93600000
_cell_angle_beta   89.99980000
_cell_angle_gamma   89.99960000
_symmetry_Int_Tables_number   1
_chemical_formula_structural   Ba2Cd2H31C36NO24
_chemical_formula_sum   'Ba8 Cd8 H124 C144 N4 O96'
_cell_volume   4975.59725580
_cell_formula_units_Z   4
loop_
 _symmetry_equiv_pos_site_id
 _symmetry_equiv_pos_as_xyz
  1  'x, y, z'
loop_
 _atom_site_type_symbol
 _atom_site_label
 _atom_site_symmetry_multiplicity
 _atom_site_fract_x
 _atom_site_fract_y
 _atom_site_fract_z
 _atom_site_occupancy
  Ba  Ba0  1  0.34320000  0.63049000  0.72874000  1.0
  Ba  Ba1  1  0.84320000  0.86952000  0.77126000  1.0
  Ba  Ba2  1  0.65680000  0.36952000  0.27126000  1.0
  Ba  Ba3  1  0.15680000  0.13048000  0.22875000  1.0
  Ba  Ba4  1  0.34170000  0.87525000  0.25754000  1.0
  Ba  Ba5  1  0.84170000  0.62475000  0.24246000  1.0
  Ba  Ba6  1  0.65830000  0.12475000  0.74246000  1.0
  Ba  Ba7  1  0.15830000  0.37525000  0.75754000  1.0
  Cd  Cd8  1  0.38813000  0.11427000  0.24424000  1.0
  Cd  Cd9  1  0.88812000  0.38572000  0.25575000  1.0
  Cd  Cd10  1  0.61187000  0.88572000  0.75575000  1.0
  Cd  Cd11  1  0.11188000  0.61428000  0.74425000  1.0
  Cd  Cd12  1  0.61312000  0.61168000  0.25518000  1.0
  Cd  Cd13  1  0.11313000  0.88831000  0.24482000  1.0
  Cd  Cd14  1  0.38687000  0.38832000  0.74482000  1.0
  Cd  Cd15  1  0.88688000  0.11169000  0.75517000  1.0
  H  H16  1  0.43030000  0.81020000  0.74131000  1.0
  H  H17  1  0.93030000  0.68981000  0.75869000  1.0
  H  H18  1  0.56970000  0.18980000  0.25869000  1.0
  H  H19  1  0.06970000  0.31020000  0.24131000  1.0
  H  H20  1  0.49623000  0.74460000  0.74915000  1.0
  H  H21  1  0.99623000  0.75540000  0.75084000  1.0
  H  H22  1  0.50377000  0.25540000  0.25084000  1.0
  H  H23  1  0.00377000  0.24460000  0.24916000  1.0
  H  H24  1  0.41866000  0.59682000  0.91749000  1.0
  H  H25  1  0.91866000  0.90319000  0.58251000  1.0
  H  H26  1  0.58134000  0.40319000  0.08251000  1.0
  H  H27  1  0.08134000  0.09682000  0.41749000  1.0
  H  H28  1  0.40929000  0.51725000  0.88860000  1.0
  H  H29  1  0.90929000  0.98275000  0.61140000  1.0
  H  H30  1  0.59071000  0.48275000  0.11140000  1.0
  H  H31  1  0.09072000  0.01725000  0.38860000  1.0
  H  H32  1  0.46451000  0.90170000  0.09020000  1.0
  H  H33  1  0.96450000  0.59830000  0.40980000  1.0
  H  H34  1  0.53550000  0.09830000  0.90980000  1.0
  H  H35  1  0.03550000  0.40170000  0.59019000  1.0
  H  H36  1  0.41392000  0.97495000  0.10452000  1.0
  H  H37  1  0.91393000  0.52505000  0.39547000  1.0
  H  H38  1  0.58607000  0.02505000  0.89547000  1.0
  H  H39  1  0.08607000  0.47496000  0.60452000  1.0
  H  H40  1  0.50746000  0.74518000  0.29056000  1.0
  H  H41  1  0.00746000  0.75482000  0.20944000  1.0
  H  H42  1  0.49254000  0.25482000  0.70944000  1.0
  H  H43  1  0.99254000  0.24518000  0.79057000  1.0
  H  H44  1  0.43870000  0.68558000  0.28531000  1.0
  H  H45  1  0.93870000  0.81442000  0.21469000  1.0
  H  H46  1  0.56130000  0.31442000  0.71469000  1.0
  H  H47  1  0.06130000  0.18558000  0.78531000  1.0
  H  H48  1  0.63570000  0.98092000  0.48829000  1.0
  H  H49  1  0.13570000  0.51908000  0.01171000  1.0
  H  H50  1  0.36430000  0.01908000  0.51171000  1.0
  H  H51  1  0.86429000  0.48092000  0.98829000  1.0
  H  H52  1  0.20851000  0.46938000  0.36181000  1.0
  H  H53  1  0.70851000  0.03061000  0.13819000  1.0
  H  H54  1  0.79148000  0.53061000  0.63819000  1.0
  H  H55  1  0.29149000  0.96939000  0.86181000  1.0
  H  H56  1  0.20809000  0.33442000  0.33359000  1.0
  H  H57  1  0.70808000  0.16557000  0.16641000  1.0
  H  H58  1  0.79192000  0.66557000  0.66641000  1.0
  H  H59  1  0.29192000  0.83443000  0.83359000  1.0
  H  H60  1  0.44859000  0.37885000  0.24731000  1.0
  H  H61  1  0.94859000  0.12115000  0.25269000  1.0
  H  H62  1  0.55141000  0.62115000  0.75269000  1.0
  H  H63  1  0.05142000  0.87885000  0.74731000  1.0
  H  H64  1  0.36114000  0.48434000  0.47130000  1.0
  H  H65  1  0.86115000  0.01566000  0.02870000  1.0
  H  H66  1  0.63885000  0.51566000  0.52870000  1.0
  H  H67  1  0.13885000  0.98434000  0.97130000  1.0
  H  H68  1  0.15298000  0.69378000  0.46138000  1.0
  H  H69  1  0.65298000  0.80623000  0.03862000  1.0
  H  H70  1  0.84702000  0.30622000  0.53863000  1.0
  H  H71  1  0.34701000  0.19377000  0.96138000  1.0
  H  H72  1  0.21678000  0.68419000  0.34158000  1.0
  H  H73  1  0.71678000  0.81581000  0.15841000  1.0
  H  H74  1  0.78322000  0.31580000  0.65842000  1.0
  H  H75  1  0.28322000  0.18419000  0.84158000  1.0
  H  H76  1  0.55584000  0.87071000  0.26116000  1.0
  H  H77  1  0.05584000  0.62930000  0.23882000  1.0
  H  H78  1  0.44416000  0.12930000  0.73883000  1.0
  H  H79  1  0.94417000  0.37071000  0.76117000  1.0
  H  H80  1  0.79446000  0.83685000  0.35366000  1.0
  H  H81  1  0.29446000  0.66315000  0.14634000  1.0
  H  H82  1  0.20554000  0.16315000  0.64634000  1.0
  H  H83  1  0.70554000  0.33685000  0.85366000  1.0
  H  H84  1  0.78561000  0.97216000  0.38048000  1.0
  H  H85  1  0.28561000  0.52784000  0.11952000  1.0
  H  H86  1  0.21439000  0.02784000  0.61951000  1.0
  H  H87  1  0.71439000  0.47216000  0.88048000  1.0
  H  H88  1  0.76433000  0.18934000  0.35177000  1.0
  H  H89  1  0.26433000  0.31065000  0.14823000  1.0
  H  H90  1  0.23567000  0.81066000  0.64823000  1.0
  H  H91  1  0.73567000  0.68935000  0.85177000  1.0
  H  H92  1  0.83178000  0.20404000  0.46821000  1.0
  H  H93  1  0.33178000  0.29596000  0.03178000  1.0
  H  H94  1  0.16822000  0.79596000  0.53179000  1.0
  H  H95  1  0.66822000  0.70404000  0.96821000  1.0
  H  H96  1  0.45935000  0.55917000  0.55860000  1.0
  H  H97  1  0.95936000  0.94084000  0.94140000  1.0
  H  H98  1  0.54064000  0.44084000  0.44140000  1.0
  H  H99  1  0.04064000  0.05917000  0.05860000  1.0
  H  H100  1  0.56061000  0.59409000  0.55308000  1.0
  H  H101  1  0.06062000  0.90591000  0.94691000  1.0
  H  H102  1  0.43938000  0.40591000  0.44692000  1.0
  H  H103  1  0.93938000  0.09408000  0.05309000  1.0
  H  H104  1  0.50003000  0.61913000  0.47012000  1.0
  H  H105  1  0.00005000  0.88088000  0.02988000  1.0
  H  H106  1  0.49996000  0.38088000  0.52988000  1.0
  H  H107  1  0.99996000  0.11913000  0.97012000  1.0
  H  H108  1  0.44753000  0.81119000  0.59916000  1.0
  H  H109  1  0.94753000  0.68881000  0.90084000  1.0
  H  H110  1  0.55247000  0.18881000  0.40084000  1.0
  H  H111  1  0.05247000  0.31119000  0.09916000  1.0
  H  H112  1  0.46766000  0.86837000  0.50259000  1.0
  H  H113  1  0.96766000  0.63163000  0.99741000  1.0
  H  H114  1  0.53234000  0.13163000  0.49741000  1.0
  H  H115  1  0.03233000  0.36837000  0.00259000  1.0
  H  H116  1  0.54493000  0.85383000  0.57393000  1.0
  H  H117  1  0.04492000  0.64617000  0.92608000  1.0
  H  H118  1  0.45508000  0.14617000  0.42607000  1.0
  H  H119  1  0.95507000  0.35383000  0.07393000  1.0
  H  H120  1  0.64529000  0.75218000  0.53398000  1.0
  H  H121  1  0.14530000  0.74782000  0.96602000  1.0
  H  H122  1  0.35470000  0.24782000  0.46602000  1.0
  H  H123  1  0.85470000  0.25218000  0.03398000  1.0
  H  H124  1  0.59642000  0.81578000  0.45169000  1.0
  H  H125  1  0.09642000  0.68422000  0.04831000  1.0
  H  H126  1  0.40358000  0.18422000  0.54831000  1.0
  H  H127  1  0.90358000  0.31578000  0.95169000  1.0
  H  H128  1  0.59860000  0.70880000  0.46578000  1.0
  H  H129  1  0.09860000  0.79120000  0.03423000  1.0
  H  H130  1  0.40140000  0.29120000  0.53423000  1.0
  H  H131  1  0.90140000  0.20880000  0.96578000  1.0
  H  H132  1  0.35716000  0.76350000  0.45574000  1.0
  H  H133  1  0.85716000  0.73649000  0.04426000  1.0
  H  H134  1  0.64284000  0.23650000  0.54426000  1.0
  H  H135  1  0.14284000  0.26351000  0.95574000  1.0
  H  H136  1  0.41143000  0.75246000  0.38767000  1.0
  H  H137  1  0.91143000  0.74753000  0.11233000  1.0
  H  H138  1  0.58857000  0.24753000  0.61233000  1.0
  H  H139  1  0.08857000  0.25246000  0.88767000  1.0
  C  C140  1  0.39722000  0.47450000  0.28702000  1.0
  C  C141  1  0.89722000  0.02550000  0.21298000  1.0
  C  C142  1  0.60278000  0.52550000  0.71298000  1.0
  C  C143  1  0.10279000  0.97450000  0.78702000  1.0
  C  C144  1  0.67954000  0.02936000  0.48338000  1.0
  C  C145  1  0.17954000  0.47064000  0.01662000  1.0
  C  C146  1  0.32046000  0.97064000  0.51662000  1.0
  C  C147  1  0.82046000  0.52936000  0.98338000  1.0
  C  C148  1  0.32828000  0.49987000  0.31905000  1.0
  C  C149  1  0.82828000  0.00012000  0.18095000  1.0
  C  C150  1  0.67171000  0.50012000  0.68095000  1.0
  C  C151  1  0.17172000  0.99987000  0.81905000  1.0
  C  C152  1  0.26104000  0.44865000  0.33686000  1.0
  C  C153  1  0.76105000  0.05134000  0.16314000  1.0
  C  C154  1  0.73895000  0.55134000  0.66314000  1.0
  C  C155  1  0.23896000  0.94866000  0.83686000  1.0
  C  C156  1  0.26095000  0.37346000  0.32143000  1.0
  C  C157  1  0.76095000  0.12653000  0.17857000  1.0
  C  C158  1  0.73905000  0.62654000  0.67856000  1.0
  C  C159  1  0.23905000  0.87346000  0.82144000  1.0
  C  C160  1  0.32876000  0.34736000  0.28885000  1.0
  C  C161  1  0.82876000  0.15264000  0.21114000  1.0
  C  C162  1  0.67124000  0.65264000  0.71115000  1.0
  C  C163  1  0.17124000  0.84736000  0.78886000  1.0
  C  C164  1  0.39565000  0.39820000  0.27252000  1.0
  C  C165  1  0.89564000  0.10179000  0.22748000  1.0
  C  C166  1  0.60435000  0.60179000  0.72748000  1.0
  C  C167  1  0.10436000  0.89821000  0.77252000  1.0
  C  C168  1  0.47379000  0.52148000  0.27249000  1.0
  C  C169  1  0.97380000  0.97851000  0.22752000  1.0
  C  C170  1  0.52620000  0.47852000  0.72751000  1.0
  C  C171  1  0.02621000  0.02149000  0.77249000  1.0
  C  C172  1  0.33010000  0.26661000  0.27181000  1.0
  C  C173  1  0.83010000  0.23338000  0.22819000  1.0
  C  C174  1  0.66990000  0.73339000  0.72819000  1.0
  C  C175  1  0.16990000  0.76661000  0.77181000  1.0
  C  C176  1  0.29057000  0.58137000  0.39882000  1.0
  C  C177  1  0.79058000  0.91863000  0.10118000  1.0
  C  C178  1  0.70942000  0.41863000  0.60118000  1.0
  C  C179  1  0.20942000  0.08137000  0.89882000  1.0
  C  C180  1  0.31456000  0.52961000  0.46854000  1.0
  C  C181  1  0.81456000  0.97039000  0.03146000  1.0
  C  C182  1  0.68544000  0.47039000  0.53146000  1.0
  C  C183  1  0.18544000  0.02961000  0.96854000  1.0
  C  C184  1  0.28025000  0.53540000  0.53684000  1.0
  C  C185  1  0.78025000  0.96460000  0.96315000  1.0
  C  C186  1  0.71975000  0.46460000  0.46316000  1.0
  C  C187  1  0.21974000  0.03540000  0.03685000  1.0
  C  C188  1  0.21998000  0.59393000  0.53441000  1.0
  C  C189  1  0.71998000  0.90607000  0.96559000  1.0
  C  C190  1  0.78003000  0.40607000  0.46560000  1.0
  C  C191  1  0.28002000  0.09393000  0.03440000  1.0
  C  C192  1  0.19832000  0.64713000  0.46381000  1.0
  C  C193  1  0.69833000  0.85287000  0.03619000  1.0
  C  C194  1  0.80168000  0.35287000  0.53619000  1.0
  C  C195  1  0.30167000  0.14713000  0.96381000  1.0
  C  C196  1  0.23356000  0.64184000  0.39582000  1.0
  C  C197  1  0.73356000  0.85816000  0.10418000  1.0
  C  C198  1  0.76644000  0.35816000  0.60418000  1.0
  C  C199  1  0.26644000  0.14184000  0.89582000  1.0
  C  C200  1  0.31293000  0.48041000  0.60972000  1.0
  C  C201  1  0.81294000  0.01959000  0.89028000  1.0
  C  C202  1  0.68707000  0.51959000  0.39028000  1.0
  C  C203  1  0.18706000  0.98041000  0.10972000  1.0
  C  C204  1  0.17673000  0.60160000  0.60440000  1.0
  C  C205  1  0.67673000  0.89840000  0.89560000  1.0
  C  C206  1  0.82328000  0.39840000  0.39560000  1.0
  C  C207  1  0.32327000  0.10160000  0.10440000  1.0
  C  C208  1  0.60672000  0.89248000  0.28729000  1.0
  C  C209  1  0.10672000  0.60752000  0.21270000  1.0
  C  C210  1  0.39328000  0.10752000  0.71271000  1.0
  C  C211  1  0.89328000  0.39248000  0.78729000  1.0
  C  C212  1  0.67490000  0.84387000  0.30653000  1.0
  C  C213  1  0.17490000  0.65613000  0.19346000  1.0
  C  C214  1  0.32510000  0.15613000  0.69347000  1.0
  C  C215  1  0.82510000  0.34388000  0.80653000  1.0
  C  C216  1  0.74003000  0.87334000  0.33998000  1.0
  C  C217  1  0.24003000  0.62665000  0.16001000  1.0
  C  C218  1  0.25997000  0.12666000  0.66001000  1.0
  C  C219  1  0.75998000  0.37335000  0.83998000  1.0
  C  C220  1  0.73530000  0.94884000  0.35461000  1.0
  C  C221  1  0.23530000  0.55116000  0.14539000  1.0
  C  C222  1  0.26470000  0.05116000  0.64539000  1.0
  C  C223  1  0.76470000  0.44884000  0.85461000  1.0
  C  C224  1  0.66635000  0.99736000  0.33448000  1.0
  C  C225  1  0.16635000  0.50264000  0.16552000  1.0
  C  C226  1  0.33365000  0.00264000  0.66552000  1.0
  C  C227  1  0.83365000  0.49736000  0.83448000  1.0
  C  C228  1  0.60089000  0.96932000  0.29984000  1.0
  C  C229  1  0.10089000  0.53068000  0.20015000  1.0
  C  C230  1  0.39911000  0.03068000  0.70016000  1.0
  C  C231  1  0.89911000  0.46933000  0.79984000  1.0
  C  C232  1  0.67665000  0.76260000  0.29068000  1.0
  C  C233  1  0.17664000  0.73739000  0.20932000  1.0
  C  C234  1  0.32335000  0.23739000  0.70932000  1.0
  C  C235  1  0.82336000  0.26261000  0.79067000  1.0
  C  C236  1  0.52438000  0.01510000  0.27766000  1.0
  C  C237  1  0.02437000  0.48490000  0.22233000  1.0
  C  C238  1  0.47563000  0.98490000  0.72234000  1.0
  C  C239  1  0.97563000  0.51511000  0.77766000  1.0
  C  C240  1  0.69885000  0.08212000  0.41264000  1.0
  C  C241  1  0.19885000  0.41788000  0.08736000  1.0
  C  C242  1  0.30114000  0.91788000  0.58736000  1.0
  C  C243  1  0.80115000  0.58212000  0.91264000  1.0
  C  C244  1  0.75167000  0.14666000  0.40703000  1.0
  C  C245  1  0.25167000  0.35334000  0.09297000  1.0
  C  C246  1  0.24833000  0.85335000  0.59297000  1.0
  C  C247  1  0.74833000  0.64666000  0.90703000  1.0
  C  C248  1  0.78892000  0.15471000  0.47315000  1.0
  C  C249  1  0.28892000  0.34529000  0.02684000  1.0
  C  C250  1  0.21108000  0.84530000  0.52685000  1.0
  C  C251  1  0.71108000  0.65471000  0.97316000  1.0
  C  C252  1  0.77315000  0.10014000  0.54469000  1.0
  C  C253  1  0.27315000  0.39987000  0.95532000  1.0
  C  C254  1  0.22685000  0.89987000  0.45532000  1.0
  C  C255  1  0.72685000  0.60014000  0.04468000  1.0
  C  C256  1  0.71599000  0.03785000  0.54997000  1.0
  C  C257  1  0.21599000  0.46215000  0.95003000  1.0
  C  C258  1  0.28401000  0.96215000  0.45003000  1.0
  C  C259  1  0.78400000  0.53785000  0.04997000  1.0
  C  C260  1  0.68928000  0.98074000  0.62422000  1.0
  C  C261  1  0.18927000  0.51926000  0.87579000  1.0
  C  C262  1  0.31073000  0.01926000  0.37579000  1.0
  C  C263  1  0.81072000  0.48074000  0.12422000  1.0
  C  C264  1  0.82151000  0.10842000  0.61189000  1.0
  C  C265  1  0.32150000  0.39159000  0.88810000  1.0
  C  C266  1  0.17850000  0.89159000  0.38811000  1.0
  C  C267  1  0.67849000  0.60842000  0.11190000  1.0
  C  C268  1  0.49932000  0.60994000  0.53243000  1.0
  C  C269  1  0.99933000  0.89006000  0.96757000  1.0
  C  C270  1  0.50067000  0.39006000  0.46757000  1.0
  C  C271  1  0.00067000  0.10994000  0.03243000  1.0
  C  C272  1  0.47054000  0.68489000  0.55310000  1.0
  C  C273  1  0.97055000  0.81511000  0.94690000  1.0
  C  C274  1  0.52946000  0.31511000  0.44690000  1.0
  C  C275  1  0.02945000  0.18489000  0.05311000  1.0
  C  C276  1  0.49303000  0.82567000  0.55421000  1.0
  C  C277  1  0.99303000  0.67433000  0.94580000  1.0
  C  C278  1  0.50697000  0.17433000  0.44580000  1.0
  C  C279  1  0.00697000  0.32567000  0.05420000  1.0
  C  C280  1  0.59382000  0.75655000  0.49507000  1.0
  C  C281  1  0.09383000  0.74345000  0.00493000  1.0
  C  C282  1  0.40617000  0.24345000  0.50493000  1.0
  C  C283  1  0.90617000  0.25655000  0.99507000  1.0
  N  N284  1  0.51835000  0.75104000  0.53667000  1.0
  N  N285  1  0.01836000  0.74896000  0.96333000  1.0
  N  N286  1  0.48164000  0.24896000  0.46333000  1.0
  N  N287  1  0.98164000  0.25104000  0.03667000  1.0
  O  O288  1  0.52494000  0.09294000  0.25672000  1.0
  O  O289  1  0.02494000  0.40706000  0.24327000  1.0
  O  O290  1  0.47506000  0.90706000  0.74328000  1.0
  O  O291  1  0.97506000  0.59295000  0.75672000  1.0
  O  O292  1  0.46024000  0.97416000  0.27956000  1.0
  O  O293  1  0.96023000  0.52584000  0.22042000  1.0
  O  O294  1  0.53977000  0.02584000  0.72043000  1.0
  O  O295  1  0.03977000  0.47417000  0.77956000  1.0
  O  O296  1  0.53909000  0.48139000  0.27684000  1.0
  O  O297  1  0.03909000  0.01860000  0.22317000  1.0
  O  O298  1  0.46091000  0.51861000  0.72317000  1.0
  O  O299  1  0.96091000  0.98140000  0.77683000  1.0
  O  O300  1  0.40277000  0.68513000  0.58442000  1.0
  O  O301  1  0.90277000  0.81487000  0.91558000  1.0
  O  O302  1  0.59723000  0.31487000  0.41559000  1.0
  O  O303  1  0.09722000  0.18513000  0.08443000  1.0
  O  O304  1  0.47344000  0.59919000  0.25684000  1.0
  O  O305  1  0.97345000  0.90080000  0.24316000  1.0
  O  O306  1  0.52655000  0.40081000  0.74316000  1.0
  O  O307  1  0.02656000  0.09919000  0.75684000  1.0
  O  O308  1  0.43730000  0.75163000  0.74661000  1.0
  O  O309  1  0.93730000  0.74837000  0.75339000  1.0
  O  O310  1  0.56270000  0.24837000  0.25340000  1.0
  O  O311  1  0.06270000  0.25163000  0.24661000  1.0
  O  O312  1  0.39759000  0.24454000  0.24889000  1.0
  O  O313  1  0.89759000  0.25546000  0.25110000  1.0
  O  O314  1  0.60241000  0.75546000  0.75110000  1.0
  O  O315  1  0.10241000  0.74454000  0.74889000  1.0
  O  O316  1  0.41335000  0.57788000  0.87220000  1.0
  O  O317  1  0.91334000  0.92213000  0.62780000  1.0
  O  O318  1  0.58666000  0.42212000  0.12780000  1.0
  O  O319  1  0.08666000  0.07788000  0.37220000  1.0
  O  O320  1  0.26678000  0.22448000  0.27904000  1.0
  O  O321  1  0.76678000  0.27552000  0.22096000  1.0
  O  O322  1  0.73323000  0.77551000  0.72097000  1.0
  O  O323  1  0.23323000  0.72448000  0.77904000  1.0
  O  O324  1  0.41608000  0.91450000  0.11410000  1.0
  O  O325  1  0.91608000  0.58550000  0.38589000  1.0
  O  O326  1  0.58392000  0.08550000  0.88590000  1.0
  O  O327  1  0.08392000  0.41450000  0.61410000  1.0
  O  O328  1  0.32705000  0.57587000  0.33163000  1.0
  O  O329  1  0.82705000  0.92413000  0.16837000  1.0
  O  O330  1  0.67294000  0.42413000  0.66837000  1.0
  O  O331  1  0.17295000  0.07587000  0.83163000  1.0
  O  O332  1  0.38257000  0.79266000  0.40775000  1.0
  O  O333  1  0.88257000  0.70734000  0.09224000  1.0
  O  O334  1  0.61743000  0.20734000  0.59225000  1.0
  O  O335  1  0.11744000  0.29266000  0.90776000  1.0
  O  O336  1  0.37334000  0.43669000  0.60669000  1.0
  O  O337  1  0.87335000  0.06331000  0.89331000  1.0
  O  O338  1  0.62665000  0.56331000  0.39331000  1.0
  O  O339  1  0.12665000  0.93669000  0.10669000  1.0
  O  O340  1  0.44839000  0.73790000  0.29736000  1.0
  O  O341  1  0.94839000  0.76210000  0.20264000  1.0
  O  O342  1  0.55160000  0.26210000  0.70264000  1.0
  O  O343  1  0.05161000  0.23790000  0.79736000  1.0
  O  O344  1  0.27990000  0.48158000  0.67377000  1.0
  O  O345  1  0.77991000  0.01842000  0.82622000  1.0
  O  O346  1  0.72009000  0.51842000  0.32622000  1.0
  O  O347  1  0.22010000  0.98158000  0.17377000  1.0
  O  O348  1  0.11061000  0.56435000  0.62270000  1.0
  O  O349  1  0.61060000  0.93565000  0.87730000  1.0
  O  O350  1  0.88940000  0.43565000  0.37730000  1.0
  O  O351  1  0.38939000  0.06435000  0.12270000  1.0
  O  O352  1  0.20514000  0.64877000  0.64166000  1.0
  O  O353  1  0.70514000  0.85124000  0.85834000  1.0
  O  O354  1  0.79487000  0.35123000  0.35834000  1.0
  O  O355  1  0.29486000  0.14876000  0.14166000  1.0
  O  O356  1  0.60890000  0.73792000  0.27010000  1.0
  O  O357  1  0.10891000  0.76208000  0.22991000  1.0
  O  O358  1  0.39110000  0.26208000  0.72990000  1.0
  O  O359  1  0.89110000  0.23793000  0.77009000  1.0
  O  O360  1  0.74136000  0.72329000  0.29577000  1.0
  O  O361  1  0.24137000  0.77670000  0.20423000  1.0
  O  O362  1  0.25864000  0.27670000  0.70423000  1.0
  O  O363  1  0.75864000  0.22330000  0.79577000  1.0
  O  O364  1  0.66217000  0.07327000  0.34665000  1.0
  O  O365  1  0.16218000  0.42672000  0.15335000  1.0
  O  O366  1  0.33782000  0.92672000  0.65335000  1.0
  O  O367  1  0.83783000  0.57328000  0.84665000  1.0
  O  O368  1  0.63326000  0.93111000  0.62289000  1.0
  O  O369  1  0.13326000  0.56890000  0.87712000  1.0
  O  O370  1  0.36675000  0.06889000  0.37711000  1.0
  O  O371  1  0.86673000  0.43110000  0.12289000  1.0
  O  O372  1  0.72177000  0.98564000  0.68721000  1.0
  O  O373  1  0.22178000  0.51437000  0.81280000  1.0
  O  O374  1  0.27823000  0.01435000  0.31280000  1.0
  O  O375  1  0.77821000  0.48563000  0.18721000  1.0
  O  O376  1  0.79373000  0.15041000  0.65479000  1.0
  O  O377  1  0.29373000  0.34960000  0.84521000  1.0
  O  O378  1  0.20627000  0.84959000  0.34522000  1.0
  O  O379  1  0.70627000  0.65041000  0.15479000  1.0
  O  O380  1  0.89046000  0.07639000  0.62225000  1.0
  O  O381  1  0.39046000  0.42362000  0.87775000  1.0
  O  O382  1  0.10954000  0.92362000  0.37774000  1.0
  O  O383  1  0.60953000  0.57639000  0.12226000  1.0
