# generated using pymatgen
data_CoH20C28(N2O3)4
_symmetry_space_group_name_H-M   'P 1'
_cell_length_a   6.41790000
_cell_length_b   11.08140000
_cell_length_c   11.11949227
_cell_angle_alpha   80.03284280
_cell_angle_beta   74.55742956
_cell_angle_gamma   89.69710000
_symmetry_Int_Tables_number   1
_chemical_formula_structural   CoH20C28(N2O3)4
_chemical_formula_sum   'Co1 H20 C28 N8 O12'
_cell_volume   750.06233985
_cell_formula_units_Z   1
loop_
 _symmetry_equiv_pos_site_id
 _symmetry_equiv_pos_as_xyz
  1  'x, y, z'
loop_
 _atom_site_type_symbol
 _atom_site_label
 _atom_site_symmetry_multiplicity
 _atom_site_fract_x
 _atom_site_fract_y
 _atom_site_fract_z
 _atom_site_occupancy
  Co  Co0  1  0.09416000  0.49068000  0.00226000  1.0
  H  H1  1  0.65973000  0.61574000  0.02719000  1.0
  H  H2  1  0.64574000  0.38939000  0.98358000  1.0
  H  H3  1  0.89695000  0.82508000  0.65963000  1.0
  H  H4  1  0.56886000  0.16424000  0.34200000  1.0
  H  H5  1  0.21619000  0.66828000  0.71570000  1.0
  H  H6  1  0.93446000  0.32145000  0.28694000  1.0
  H  H7  1  0.38865000  0.72039000  0.90908000  1.0
  H  H8  1  0.28249000  0.26944000  0.09070000  1.0
  H  H9  1  0.49263000  0.82447000  0.76777000  1.0
  H  H10  1  0.25128000  0.17192000  0.23775000  1.0
  H  H11  1  0.81639000  0.91626000  0.94194000  1.0
  H  H12  1  0.75302000  0.08794000  0.06131000  1.0
  H  H13  1  0.14338000  0.90084000  0.95138000  1.0
  H  H14  1  0.08072000  0.07515000  0.06876000  1.0
  H  H15  1  0.03798000  0.81777000  0.24627000  1.0
  H  H16  1  0.30707000  0.19429000  0.77838000  1.0
  H  H17  1  0.48295000  0.84281000  0.47406000  1.0
  H  H18  1  0.92321000  0.14960000  0.51546000  1.0
  H  H19  1  0.48617000  0.53192000  0.28624000  1.0
  H  H20  1  0.81443000  0.47538000  0.68591000  1.0
  C  C21  1  0.77118000  0.65075000  0.93582000  1.0
  C  C22  1  0.67884000  0.34974000  0.07238000  1.0
  C  C23  1  0.89985000  0.75907000  0.74310000  1.0
  C  C24  1  0.64243000  0.23363000  0.26043000  1.0
  C  C25  1  0.05438000  0.68158000  0.77159000  1.0
  C  C26  1  0.82197000  0.31116000  0.23159000  1.0
  C  C27  1  0.51350000  0.79342000  0.86291000  1.0
  C  C28  1  0.36363000  0.20031000  0.14345000  1.0
  C  C29  1  0.65425000  0.95061000  0.96944000  1.0
  C  C30  1  0.61833000  0.04762000  0.03714000  1.0
  C  C31  1  0.48474000  0.89734000  0.93724000  1.0
  C  C32  1  0.41259000  0.09367000  0.07310000  1.0
  C  C33  1  0.27736000  0.94281000  0.97480000  1.0
  C  C34  1  0.24218000  0.03993000  0.04089000  1.0
  C  C35  1  0.25293000  0.66869000  0.25631000  1.0
  C  C36  1  0.54540000  0.34282000  0.74036000  1.0
  C  C37  1  0.16772000  0.77966000  0.28505000  1.0
  C  C38  1  0.47001000  0.22942000  0.72653000  1.0
  C  C39  1  0.25298000  0.84095000  0.36135000  1.0
  C  C40  1  0.60722000  0.16217000  0.64593000  1.0
  C  C41  1  0.41733000  0.79417000  0.41420000  1.0
  C  C42  1  0.81802000  0.20317000  0.57841000  1.0
  C  C43  1  0.49450000  0.68177000  0.38602000  1.0
  C  C44  1  0.88748000  0.31578000  0.59641000  1.0
  C  C45  1  0.41846000  0.61868000  0.30681000  1.0
  C  C46  1  0.75635000  0.38643000  0.67595000  1.0
  C  C47  1  0.16201000  0.60926000  0.16910000  1.0
  C  C48  1  0.40123000  0.41873000  0.82441000  1.0
  N  N49  1  0.97175000  0.61470000  0.89261000  1.0
  N  N50  1  0.84285000  0.38297000  0.11370000  1.0
  N  N51  1  0.72220000  0.73782000  0.84787000  1.0
  N  N52  1  0.55327000  0.25986000  0.15912000  1.0
  N  N53  1  0.66480000  0.62743000  0.44222000  1.0
  N  N54  1  0.10616000  0.36536000  0.52526000  1.0
  N  N55  1  0.16703000  0.96024000  0.38431000  1.0
  N  N56  1  0.52560000  0.04282000  0.63305000  1.0
  O  O57  1  0.27533000  0.52739000  0.11359000  1.0
  O  O58  1  0.45615000  0.52784000  0.82104000  1.0
  O  O59  1  0.98585000  0.64303000  0.14876000  1.0
  O  O60  1  0.22546000  0.36426000  0.90057000  1.0
  O  O61  1  0.72529000  0.52504000  0.42097000  1.0
  O  O62  1  0.19004000  0.44174000  0.56940000  1.0
  O  O63  1  0.00954000  0.99509000  0.34458000  1.0
  O  O64  1  0.33079000  0.01490000  0.68087000  1.0
  O  O65  1  0.73762000  0.68764000  0.50755000  1.0
  O  O66  1  0.19220000  0.32841000  0.42503000  1.0
  O  O67  1  0.25888000  0.02175000  0.44038000  1.0
  O  O68  1  0.65765000  0.97533000  0.57607000  1.0
