# generated using pymatgen
data_Tc2H12C8IO8
_symmetry_space_group_name_H-M   'P 1'
_cell_length_a   7.25755000
_cell_length_b   7.27330000
_cell_length_c   8.06621452
_cell_angle_alpha   63.20783997
_cell_angle_beta   80.25655243
_cell_angle_gamma   67.99380000
_symmetry_Int_Tables_number   1
_chemical_formula_structural   Tc2H12C8IO8
_chemical_formula_sum   'Tc2 H12 C8 I1 O8'
_cell_volume   352.38558603
_cell_formula_units_Z   1
loop_
 _symmetry_equiv_pos_site_id
 _symmetry_equiv_pos_as_xyz
  1  'x, y, z'
loop_
 _atom_site_type_symbol
 _atom_site_label
 _atom_site_symmetry_multiplicity
 _atom_site_fract_x
 _atom_site_fract_y
 _atom_site_fract_z
 _atom_site_occupancy
  Tc  Tc0  1  0.13041000  0.36801000  0.00006000  1.0
  Tc  Tc1  1  0.86959000  0.63197000  0.99995000  1.0
  H  H2  1  0.81265000  0.89302000  0.38484000  1.0
  H  H3  1  0.18694000  0.72256000  0.38473000  1.0
  H  H4  1  0.18735000  0.10699000  0.61516000  1.0
  H  H5  1  0.81306000  0.27744000  0.61527000  1.0
  H  H6  1  0.58020000  0.11405000  0.35064000  1.0
  H  H7  1  0.41939000  0.53578000  0.35035000  1.0
  H  H8  1  0.41979000  0.88595000  0.64936000  1.0
  H  H9  1  0.58062000  0.46422000  0.64965000  1.0
  H  H10  1  0.74463000  0.03499000  0.53013000  1.0
  H  H11  1  0.25508000  0.43531000  0.53002000  1.0
  H  H12  1  0.25537000  0.96501000  0.46987000  1.0
  H  H13  1  0.74492000  0.56469000  0.46998000  1.0
  C  C14  1  0.83386000  0.21131000  0.25521000  1.0
  C  C15  1  0.16576000  0.53360000  0.25531000  1.0
  C  C16  1  0.16613000  0.78869000  0.74480000  1.0
  C  C17  1  0.83425000  0.46640000  0.74469000  1.0
  C  C18  1  0.73697000  0.05243000  0.38856000  1.0
  C  C19  1  0.26262000  0.55944000  0.38841000  1.0
  C  C20  1  0.26303000  0.94756000  0.61145000  1.0
  C  C21  1  0.73738000  0.44056000  0.61160000  1.0
  I  I22  1  0.50000000  0.99999000  0.00000000  1.0
  O  O23  1  0.01190000  0.14118000  0.19867000  1.0
  O  O24  1  0.98781000  0.66019000  0.19873000  1.0
  O  O25  1  0.98810000  0.85882000  0.80133000  1.0
  O  O26  1  0.01220000  0.33981000  0.80127000  1.0
  O  O27  1  0.73849000  0.41771000  0.19838000  1.0
  O  O28  1  0.26117000  0.38384000  0.19865000  1.0
  O  O29  1  0.26151000  0.58229000  0.80162000  1.0
  O  O30  1  0.73883000  0.61616000  0.80135000  1.0
