# generated using pymatgen
data_MgH16(C3O2)4
_symmetry_space_group_name_H-M   'P 1'
_cell_length_a   7.10713000
_cell_length_b   7.84678000
_cell_length_c   11.92960000
_cell_angle_alpha   89.99980000
_cell_angle_beta   86.37860000
_cell_angle_gamma   89.99970000
_symmetry_Int_Tables_number   1
_chemical_formula_structural   MgH16(C3O2)4
_chemical_formula_sum   'Mg2 H32 C24 O16'
_cell_volume   663.96250463
_cell_formula_units_Z   2
loop_
 _symmetry_equiv_pos_site_id
 _symmetry_equiv_pos_as_xyz
  1  'x, y, z'
loop_
 _atom_site_type_symbol
 _atom_site_label
 _atom_site_symmetry_multiplicity
 _atom_site_fract_x
 _atom_site_fract_y
 _atom_site_fract_z
 _atom_site_occupancy
  Mg  Mg0  1  0.00000000  0.50000000  0.50000000  1.0
  Mg  Mg1  1  0.50000000  0.00000000  0.50000000  1.0
  H  H2  1  0.58397000  0.39150000  0.69667000  1.0
  H  H3  1  0.91602000  0.89150000  0.30334000  1.0
  H  H4  1  0.41603000  0.60850000  0.30333000  1.0
  H  H5  1  0.08398000  0.10850000  0.69666000  1.0
  H  H6  1  0.46155000  0.19947000  0.73538000  1.0
  H  H7  1  0.03844000  0.69947000  0.26463000  1.0
  H  H8  1  0.53845000  0.80053000  0.26462000  1.0
  H  H9  1  0.96156000  0.30053000  0.73537000  1.0
  H  H10  1  0.67120000  0.29892000  0.86873000  1.0
  H  H11  1  0.82880000  0.79893000  0.13127000  1.0
  H  H12  1  0.32880000  0.70107000  0.13127000  1.0
  H  H13  1  0.17121000  0.20107000  0.86873000  1.0
  H  H14  1  0.19321000  0.62370000  0.95247000  1.0
  H  H15  1  0.30679000  0.12371000  0.04754000  1.0
  H  H16  1  0.80679000  0.37629000  0.04753000  1.0
  H  H17  1  0.69321000  0.87629000  0.95246000  1.0
  H  H18  1  0.05942000  0.19786000  0.28588000  1.0
  H  H19  1  0.44058000  0.69785000  0.71412000  1.0
  H  H20  1  0.94058000  0.80214000  0.71412000  1.0
  H  H21  1  0.55941000  0.30215000  0.28588000  1.0
  H  H22  1  0.22444000  0.32238000  0.20155000  1.0
  H  H23  1  0.27557000  0.82238000  0.79845000  1.0
  H  H24  1  0.77556000  0.67762000  0.79845000  1.0
  H  H25  1  0.72443000  0.17762000  0.20155000  1.0
  H  H26  1  0.99580000  0.40702000  0.24215000  1.0
  H  H27  1  0.50420000  0.90702000  0.75785000  1.0
  H  H28  1  0.00420000  0.59297000  0.75785000  1.0
  H  H29  1  0.49580000  0.09298000  0.24215000  1.0
  H  H30  1  0.26170000  0.32323000  0.40795000  1.0
  H  H31  1  0.23830000  0.82322000  0.59205000  1.0
  H  H32  1  0.73830000  0.67677000  0.59205000  1.0
  H  H33  1  0.76170000  0.17678000  0.40795000  1.0
  C  C34  1  0.33955000  0.34844000  0.60544000  1.0
  C  C35  1  0.16043000  0.84842000  0.39457000  1.0
  C  C36  1  0.66045000  0.65156000  0.39456000  1.0
  C  C37  1  0.83957000  0.15158000  0.60544000  1.0
  C  C38  1  0.44280000  0.33432000  0.71329000  1.0
  C  C39  1  0.05720000  0.83432000  0.28672000  1.0
  C  C40  1  0.55720000  0.66568000  0.28671000  1.0
  C  C41  1  0.94280000  0.16568000  0.71328000  1.0
  C  C42  1  0.42402000  0.45866000  0.89803000  1.0
  C  C43  1  0.07597000  0.95866000  0.10198000  1.0
  C  C44  1  0.57597000  0.54134000  0.10197000  1.0
  C  C45  1  0.92403000  0.04135000  0.89802000  1.0
  C  C46  1  0.59671000  0.38871000  0.92497000  1.0
  C  C47  1  0.90329000  0.88872000  0.07503000  1.0
  C  C48  1  0.40329000  0.61128000  0.07503000  1.0
  C  C49  1  0.09672000  0.11128000  0.92498000  1.0
  C  C50  1  0.32769000  0.56942000  0.97355000  1.0
  C  C51  1  0.17230000  0.06942000  0.02645000  1.0
  C  C52  1  0.67231000  0.43057000  0.02645000  1.0
  C  C53  1  0.82770000  0.93058000  0.97355000  1.0
  C  C54  1  0.11149000  0.32716000  0.26861000  1.0
  C  C55  1  0.38852000  0.82715000  0.73140000  1.0
  C  C56  1  0.88852000  0.67284000  0.73139000  1.0
  C  C57  1  0.61148000  0.17285000  0.26860000  1.0
  O  O58  1  0.21321000  0.46072000  0.60188000  1.0
  O  O59  1  0.28678000  0.96072000  0.39813000  1.0
  O  O60  1  0.78678000  0.53927000  0.39812000  1.0
  O  O61  1  0.71322000  0.03928000  0.60187000  1.0
  O  O62  1  0.38995000  0.24867000  0.52456000  1.0
  O  O63  1  0.11004000  0.74867000  0.47545000  1.0
  O  O64  1  0.61005000  0.75133000  0.47544000  1.0
  O  O65  1  0.88995000  0.25133000  0.52456000  1.0
  O  O66  1  0.33756000  0.42421000  0.80039000  1.0
  O  O67  1  0.16243000  0.92421000  0.19961000  1.0
  O  O68  1  0.66243000  0.57579000  0.19961000  1.0
  O  O69  1  0.83757000  0.07579000  0.80039000  1.0
  O  O70  1  0.17874000  0.40304000  0.36847000  1.0
  O  O71  1  0.32126000  0.90303000  0.63153000  1.0
  O  O72  1  0.82125000  0.59696000  0.63153000  1.0
  O  O73  1  0.67874000  0.09697000  0.36847000  1.0
