# generated using pymatgen
data_CuH12C16(NO3)2
_symmetry_space_group_name_H-M   'P 1'
_cell_length_a   8.60921000
_cell_length_b   8.67762000
_cell_length_c   11.94210000
_cell_angle_alpha   72.22490000
_cell_angle_beta   89.56640000
_cell_angle_gamma   69.12120000
_symmetry_Int_Tables_number   1
_chemical_formula_structural   CuH12C16(NO3)2
_chemical_formula_sum   'Cu2 H24 C32 N4 O12'
_cell_volume   788.63309254
_cell_formula_units_Z   2
loop_
 _symmetry_equiv_pos_site_id
 _symmetry_equiv_pos_as_xyz
  1  'x, y, z'
loop_
 _atom_site_type_symbol
 _atom_site_label
 _atom_site_symmetry_multiplicity
 _atom_site_fract_x
 _atom_site_fract_y
 _atom_site_fract_z
 _atom_site_occupancy
  Cu  Cu0  1  0.98474000  0.88861000  0.70317000  1.0
  Cu  Cu1  1  0.01525000  0.11139000  0.29682000  1.0
  H  H2  1  0.45925000  0.87763000  0.47523000  1.0
  H  H3  1  0.54076000  0.12236000  0.52478000  1.0
  H  H4  1  0.77310000  0.65953000  0.45137000  1.0
  H  H5  1  0.22691000  0.34046000  0.54864000  1.0
  H  H6  1  0.25643000  0.98932000  0.77299000  1.0
  H  H7  1  0.74355000  0.01070000  0.22701000  1.0
  H  H8  1  0.40005000  0.95624000  0.96627000  1.0
  H  H9  1  0.59995000  0.04379000  0.03373000  1.0
  H  H10  1  0.30679000  0.80526000  0.15737000  1.0
  H  H11  1  0.69320000  0.19476000  0.84262000  1.0
  H  H12  1  0.07617000  0.70311000  0.14520000  1.0
  H  H13  1  0.92382000  0.29691000  0.85479000  1.0
  H  H14  1  0.86192000  0.63381000  0.11810000  1.0
  H  H15  1  0.13808000  0.36620000  0.88190000  1.0
  H  H16  1  0.62813000  0.56407000  0.06584000  1.0
  H  H17  1  0.37186000  0.43594000  0.93416000  1.0
  H  H18  1  0.53516000  0.63088000  0.84833000  1.0
  H  H19  1  0.46483000  0.36913000  0.15166000  1.0
  H  H20  1  0.69058000  0.77000000  0.69541000  1.0
  H  H21  1  0.30943000  0.22999000  0.30459000  1.0
  H  H22  1  0.82406000  0.00836000  0.50167000  1.0
  H  H23  1  0.17595000  0.99163000  0.49832000  1.0
  H  H24  1  0.93213000  0.81092000  0.52065000  1.0
  H  H25  1  0.06788000  0.18906000  0.47935000  1.0
  C  C26  1  0.30447000  0.67782000  0.66724000  1.0
  C  C27  1  0.69553000  0.32218000  0.33276000  1.0
  C  C28  1  0.46204000  0.64031000  0.61231000  1.0
  C  C29  1  0.53797000  0.35968000  0.38769000  1.0
  C  C30  1  0.52411000  0.74056000  0.52452000  1.0
  C  C31  1  0.47590000  0.25943000  0.47549000  1.0
  C  C32  1  0.68455000  0.62886000  0.51075000  1.0
  C  C33  1  0.31546000  0.37113000  0.48926000  1.0
  C  C34  1  0.71137000  0.46626000  0.59029000  1.0
  C  C35  1  0.28863000  0.53373000  0.40972000  1.0
  C  C36  1  0.84897000  0.29512000  0.60856000  1.0
  C  C37  1  0.15102000  0.70487000  0.39145000  1.0
  C  C38  1  0.22120000  0.92748000  0.85805000  1.0
  C  C39  1  0.77879000  0.07254000  0.14194000  1.0
  C  C40  1  0.29981000  0.90767000  0.96578000  1.0
  C  C41  1  0.70019000  0.09234000  0.03422000  1.0
  C  C42  1  0.24920000  0.82432000  0.07074000  1.0
  C  C43  1  0.75080000  0.17569000  0.92925000  1.0
  C  C44  1  0.11872000  0.76680000  0.06430000  1.0
  C  C45  1  0.88128000  0.23320000  0.93569000  1.0
  C  C46  1  0.04327000  0.79195000  0.95361000  1.0
  C  C47  1  0.95672000  0.20805000  0.04638000  1.0
  C  C48  1  0.90183000  0.74152000  0.93469000  1.0
  C  C49  1  0.09818000  0.25848000  0.06531000  1.0
  C  C50  1  0.82196000  0.66485000  0.02494000  1.0
  C  C51  1  0.17803000  0.33516000  0.97505000  1.0
  C  C52  1  0.68857000  0.62468000  0.99456000  1.0
  C  C53  1  0.31142000  0.37533000  0.00544000  1.0
  C  C54  1  0.63808000  0.66159000  0.87548000  1.0
  C  C55  1  0.36191000  0.33842000  0.12452000  1.0
  C  C56  1  0.72289000  0.73835000  0.78996000  1.0
  C  C57  1  0.27711000  0.26164000  0.21004000  1.0
  N  N58  1  0.09761000  0.86940000  0.85295000  1.0
  N  N59  1  0.90238000  0.13061000  0.14705000  1.0
  N  N60  1  0.85120000  0.77679000  0.81944000  1.0
  N  N61  1  0.14881000  0.22320000  0.18055000  1.0
  O  O62  1  0.20053000  0.84067000  0.62609000  1.0
  O  O63  1  0.79948000  0.15932000  0.37391000  1.0
  O  O64  1  0.27849000  0.56180000  0.74754000  1.0
  O  O65  1  0.72153000  0.43819000  0.25246000  1.0
  O  O66  1  0.57614000  0.47191000  0.65311000  1.0
  O  O67  1  0.42386000  0.52808000  0.34689000  1.0
  O  O68  1  0.97489000  0.30103000  0.55431000  1.0
  O  O69  1  0.02512000  0.69894000  0.44570000  1.0
  O  O70  1  0.82690000  0.15983000  0.67467000  1.0
  O  O71  1  0.17309000  0.84016000  0.32533000  1.0
  O  O72  1  0.86059000  0.89105000  0.56482000  1.0
  O  O73  1  0.13941000  0.10894000  0.43517000  1.0
