# generated using pymatgen
data_Zn4H53C86I5(N11O6)2
_symmetry_space_group_name_H-M   'P 1'
_cell_length_a   15.32720000
_cell_length_b   15.62800000
_cell_length_c   15.88520801
_cell_angle_alpha   114.59591432
_cell_angle_beta   101.66727816
_cell_angle_gamma   110.41200000
_symmetry_Int_Tables_number   1
_chemical_formula_structural   Zn4H53C86I5(N11O6)2
_chemical_formula_sum   'Zn4 H53 C86 I5 N22 O12'
_cell_volume   2960.88950824
_cell_formula_units_Z   1
loop_
 _symmetry_equiv_pos_site_id
 _symmetry_equiv_pos_as_xyz
  1  'x, y, z'
loop_
 _atom_site_type_symbol
 _atom_site_label
 _atom_site_symmetry_multiplicity
 _atom_site_fract_x
 _atom_site_fract_y
 _atom_site_fract_z
 _atom_site_occupancy
  Zn  Zn0  1  0.49420000  0.35854000  0.36676000  1.0
  Zn  Zn1  1  0.51320000  0.64764000  0.65823000  1.0
  Zn  Zn2  1  0.36227000  0.36329000  0.51149000  1.0
  Zn  Zn3  1  0.64899000  0.64013000  0.51301000  1.0
  H  H4  1  0.28934000  0.20262000  0.14147000  1.0
  H  H5  1  0.16423000  0.34667000  0.40555000  1.0
  H  H6  1  0.65195000  0.65378000  0.30582000  1.0
  H  H7  1  0.33536000  0.69442000  0.59740000  1.0
  H  H8  1  0.39289000  0.33839000  0.16415000  1.0
  H  H9  1  0.52928000  0.70350000  0.38468000  1.0
  H  H10  1  0.13026000  0.18149000  0.33306000  1.0
  H  H11  1  0.71552000  0.32538000  0.34849000  1.0
  H  H12  1  0.58400000  0.64663000  0.86318000  1.0
  H  H13  1  0.42087000  0.23579000  0.60388000  1.0
  H  H14  1  0.88444000  0.84573000  0.70987000  1.0
  H  H15  1  0.54951000  0.19168000  0.38014000  1.0
  H  H16  1  0.83635000  0.63934000  0.61760000  1.0
  H  H17  1  0.31305000  0.33595000  0.70105000  1.0
  H  H18  1  0.65122000  0.16062000  0.08119000  1.0
  H  H19  1  0.74357000  0.36185000  0.20264000  1.0
  H  H20  1  0.67868000  0.47233000  0.16891000  1.0
  H  H21  1  0.49599000  0.07725000  0.92802000  1.0
  H  H22  1  0.51400000  0.36714000  0.86808000  1.0
  H  H23  1  0.45518000  0.60717000  0.14418000  1.0
  H  H24  1  0.56679000  0.74863000  0.01146000  1.0
  H  H25  1  0.51875000  0.88935000  0.02845000  1.0
  H  H26  1  0.34527000  0.85899000  0.01927000  1.0
  H  H27  1  0.22138000  0.68740000  0.99436000  1.0
  H  H28  1  0.27124000  0.54868000  0.98083000  1.0
  H  H29  1  0.78645000  0.80306000  0.29476000  1.0
  H  H30  1  0.70706000  0.93455000  0.54751000  1.0
  H  H31  1  0.55219000  0.89416000  0.26385000  1.0
  H  H32  1  0.66045000  0.82607000  0.19232000  1.0
  H  H33  1  0.60388000  0.09331000  0.43952000  1.0
  H  H34  1  0.34191000  0.85559000  0.49250000  1.0
  H  H35  1  0.29625000  0.95207000  0.59666000  1.0
  H  H36  1  0.13684000  0.95271000  0.60343000  1.0
  H  H37  1  0.04990000  0.01047000  0.50522000  1.0
  H  H38  1  0.12163000  0.06057000  0.39426000  1.0
  H  H39  1  0.27743000  0.05419000  0.38293000  1.0
  H  H40  1  0.86010000  0.33801000  0.38410000  1.0
  H  H41  1  0.05088000  0.35902000  0.47536000  1.0
  H  H42  1  0.00754000  0.35608000  0.36232000  1.0
  H  H43  1  0.91324000  0.46228000  0.35396000  1.0
  H  H44  1  0.09459000  0.49948000  0.62216000  1.0
  H  H45  1  0.81067000  0.09296000  0.38020000  1.0
  H  H46  1  0.92521000  0.01266000  0.36783000  1.0
  H  H47  1  0.00243000  0.99767000  0.24260000  1.0
  H  H48  1  0.86129000  0.15591000  0.14932000  1.0
  H  H49  1  0.77588000  0.16183000  0.26777000  1.0
  H  H50  1  0.82085000  0.94232000  0.00671000  1.0
  H  H51  1  0.14917000  0.16841000  0.02692000  1.0
  H  H52  1  0.14896000  0.08491000  0.86244000  1.0
  H  H53  1  0.16726000  0.14394000  0.74184000  1.0
  H  H54  1  0.03089000  0.16793000  0.65524000  1.0
  H  H55  1  0.87468000  0.13075000  0.69013000  1.0
  H  H56  1  0.85643000  0.07271000  0.81188000  1.0
  C  C57  1  0.26635000  0.21026000  0.20334000  1.0
  C  C58  1  0.50776000  0.82825000  0.59644000  1.0
  C  C59  1  0.22083000  0.43083000  0.45677000  1.0
  C  C60  1  0.59185000  0.57818000  0.28750000  1.0
  C  C61  1  0.30783000  0.60842000  0.55444000  1.0
  C  C62  1  0.45976000  0.41692000  0.21511000  1.0
  C  C63  1  0.52589000  0.73833000  0.45808000  1.0
  C  C64  1  0.18453000  0.19687000  0.29978000  1.0
  C  C65  1  0.16698000  0.17262000  0.20001000  1.0
  C  C66  1  0.49801000  0.81741000  0.50143000  1.0
  C  C67  1  0.20797000  0.52133000  0.50125000  1.0
  C  C68  1  0.51513000  0.49052000  0.19284000  1.0
  C  C69  1  0.73064000  0.40179000  0.41007000  1.0
  C  C70  1  0.51434000  0.57147000  0.80848000  1.0
  C  C71  1  0.45246000  0.24006000  0.54956000  1.0
  C  C72  1  0.82079000  0.82597000  0.73143000  1.0
  C  C73  1  0.71665000  0.82026000  0.80788000  1.0
  C  C74  1  0.51822000  0.21790000  0.43551000  1.0
  C  C75  1  0.79260000  0.56161000  0.54764000  1.0
  C  C76  1  0.37650000  0.41290000  0.72581000  1.0
  C  C77  1  0.82267000  0.48831000  0.49368000  1.0
  C  C78  1  0.45576000  0.49096000  0.82234000  1.0
  C  C79  1  0.48066000  0.16987000  0.48723000  1.0
  C  C80  1  0.81671000  0.88596000  0.82416000  1.0
  C  C81  1  0.67491000  0.32277000  0.13474000  1.0
  C  C82  1  0.63825000  0.38557000  0.11548000  1.0
  C  C83  1  0.54991000  0.34074000  0.02914000  1.0
  C  C84  1  0.50070000  0.22823000  0.96195000  1.0
  C  C85  1  0.53659000  0.16421000  0.98100000  1.0
  C  C86  1  0.62370000  0.21134000  0.06754000  1.0
  C  C87  1  0.49990000  0.41889000  0.92884000  1.0
  C  C88  1  0.47096000  0.49057000  0.91701000  1.0
  C  C89  1  0.45434000  0.55960000  0.99607000  1.0
  C  C90  1  0.46806000  0.55420000  0.08302000  1.0
  C  C91  1  0.49835000  0.48402000  0.09539000  1.0
  C  C92  1  0.51410000  0.41369000  0.01638000  1.0
  C  C93  1  0.49066000  0.73471000  0.00669000  1.0
  C  C94  1  0.46338000  0.81362000  0.01584000  1.0
  C  C95  1  0.36655000  0.79727000  0.01169000  1.0
  C  C96  1  0.29735000  0.70130000  0.99838000  1.0
  C  C97  1  0.32511000  0.62302000  0.99023000  1.0
  C  C98  1  0.42220000  0.63863000  0.99420000  1.0
  C  C99  1  0.75358000  0.86812000  0.42689000  1.0
  C  C100  1  0.69681000  0.91130000  0.46993000  1.0
  C  C101  1  0.62259000  0.91992000  0.41068000  1.0
  C  C102  1  0.61095000  0.88948000  0.31073000  1.0
  C  C103  1  0.67077000  0.84979000  0.27009000  1.0
  C  C104  1  0.74198000  0.83739000  0.32738000  1.0
  C  C105  1  0.54493000  0.04025000  0.45030000  1.0
  C  C106  1  0.47171000  0.06844000  0.47410000  1.0
  C  C107  1  0.39243000  0.99653000  0.48320000  1.0
  C  C108  1  0.40133000  0.91076000  0.48429000  1.0
  C  C109  1  0.48152000  0.89041000  0.47314000  1.0
  C  C110  1  0.55019000  0.95147000  0.44669000  1.0
  C  C111  1  0.25826000  0.97609000  0.55207000  1.0
  C  C112  1  0.16876000  0.97743000  0.55676000  1.0
  C  C113  1  0.11965000  0.00913000  0.50110000  1.0
  C  C114  1  0.16000000  0.03709000  0.43920000  1.0
  C  C115  1  0.24847000  0.03393000  0.43309000  1.0
  C  C116  1  0.30025000  0.00471000  0.49065000  1.0
  C  C117  1  0.92611000  0.39136000  0.45707000  1.0
  C  C118  1  0.02368000  0.39951000  0.44333000  1.0
  C  C119  1  0.96010000  0.53741000  0.42842000  1.0
  C  C120  1  0.01628000  0.58185000  0.61312000  1.0
  C  C121  1  0.92751000  0.50340000  0.50458000  1.0
  C  C122  1  0.10896000  0.51818000  0.49951000  1.0
  C  C123  1  0.06928000  0.56407000  0.43927000  1.0
  C  C124  1  0.10892000  0.56627000  0.60959000  1.0
  C  C125  1  0.91226000  0.04565000  0.32105000  1.0
  C  C126  1  0.95668000  0.03825000  0.25148000  1.0
  C  C127  1  0.94034000  0.07939000  0.19003000  1.0
  C  C128  1  0.87625000  0.12598000  0.19866000  1.0
  C  C129  1  0.82931000  0.13024000  0.26599000  1.0
  C  C130  1  0.84786000  0.09094000  0.32825000  1.0
  C  C131  1  0.89293000  0.99258000  0.00963000  1.0
  C  C132  1  0.90034000  0.97942000  0.91932000  1.0
  C  C133  1  0.99309000  0.05327000  0.92791000  1.0
  C  C134  1  0.07690000  0.11483000  0.02153000  1.0
  C  C135  1  0.07228000  0.11710000  0.11042000  1.0
  C  C136  1  0.97346000  0.06404000  0.10520000  1.0
  C  C137  1  0.08843000  0.09485000  0.82507000  1.0
  C  C138  1  0.09867000  0.12790000  0.75668000  1.0
  C  C139  1  0.02225000  0.14108000  0.70789000  1.0
  C  C140  1  0.93452000  0.11990000  0.72729000  1.0
  C  C141  1  0.92406000  0.08675000  0.79542000  1.0
  C  C142  1  0.00129000  0.07468000  0.84637000  1.0
  I  I143  1  0.62529000  0.85156000  0.88413000  1.0
  I  I144  1  0.48327000  0.93363000  0.71051000  1.0
  I  I145  1  0.36839000  0.14478000  0.82693000  1.0
  I  I146  1  0.84926000  0.83390000  0.50809000  1.0
  I  I147  1  0.24965000  0.68237000  0.74596000  1.0
  N  N148  1  0.33630000  0.25508000  0.29682000  1.0
  N  N149  1  0.54073000  0.76393000  0.60936000  1.0
  N  N150  1  0.32090000  0.46130000  0.48493000  1.0
  N  N151  1  0.58328000  0.55701000  0.35997000  1.0
  N  N152  1  0.37404000  0.57029000  0.54604000  1.0
  N  N153  1  0.50093000  0.45793000  0.31620000  1.0
  N  N154  1  0.55233000  0.70781000  0.52305000  1.0
  N  N155  1  0.28496000  0.24617000  0.35708000  1.0
  N  N156  1  0.65432000  0.42380000  0.41349000  1.0
  N  N157  1  0.47256000  0.54490000  0.71193000  1.0
  N  N158  1  0.46938000  0.32168000  0.53322000  1.0
  N  N159  1  0.73204000  0.73323000  0.66747000  1.0
  N  N160  1  0.66814000  0.72868000  0.71607000  1.0
  N  N161  1  0.50952000  0.30732000  0.46264000  1.0
  N  N162  1  0.69203000  0.52215000  0.49940000  1.0
  N  N163  1  0.38614000  0.44586000  0.66044000  1.0
  N  N164  1  0.89821000  0.32978000  0.51159000  1.0
  N  N165  1  0.06449000  0.50295000  0.32749000  1.0
  N  N166  1  0.03710000  0.70005000  0.65937000  1.0
  N  N167  1  0.98422000  0.55746000  0.69416000  1.0
  N  N168  1  0.92398000  0.60874000  0.40533000  1.0
  N  N169  1  0.14728000  0.68384000  0.48574000  1.0
  O  O170  1  0.81004000  0.29712000  0.50555000  1.0
  O  O171  1  0.96254000  0.31354000  0.55308000  1.0
  O  O172  1  0.97994000  0.45077000  0.25570000  1.0
  O  O173  1  0.14453000  0.51005000  0.32128000  1.0
  O  O174  1  0.99454000  0.72259000  0.60351000  1.0
  O  O175  1  0.09554000  0.76253000  0.74915000  1.0
  O  O176  1  0.01868000  0.50881000  0.72140000  1.0
  O  O177  1  0.92716000  0.58991000  0.72231000  1.0
  O  O178  1  0.83101000  0.57074000  0.36640000  1.0
  O  O179  1  0.98828000  0.69312000  0.41957000  1.0
  O  O180  1  0.17926000  0.71083000  0.43142000  1.0
  O  O181  1  0.17464000  0.74144000  0.57795000  1.0
