# generated using pymatgen
data_TbCdH12C22N5O8
_symmetry_space_group_name_H-M   'P 1'
_cell_length_a   11.02180000
_cell_length_b   13.63110000
_cell_length_c   17.85510000
_cell_angle_alpha   90.00000000
_cell_angle_beta   89.59410000
_cell_angle_gamma   90.00000000
_symmetry_Int_Tables_number   1
_chemical_formula_structural   TbCdH12C22N5O8
_chemical_formula_sum   'Tb4 Cd4 H48 C88 N20 O32'
_cell_volume   2682.46966095
_cell_formula_units_Z   4
loop_
 _symmetry_equiv_pos_site_id
 _symmetry_equiv_pos_as_xyz
  1  'x, y, z'
loop_
 _atom_site_type_symbol
 _atom_site_label
 _atom_site_symmetry_multiplicity
 _atom_site_fract_x
 _atom_site_fract_y
 _atom_site_fract_z
 _atom_site_occupancy
  Tb  Tb0  1  0.56377000  0.86421000  0.99630000  1.0
  Tb  Tb1  1  0.93623000  0.36421000  0.50370000  1.0
  Tb  Tb2  1  0.43623000  0.13579000  0.00370000  1.0
  Tb  Tb3  1  0.06377000  0.63579000  0.49630000  1.0
  Cd  Cd4  1  0.25774000  0.64392000  0.73342000  1.0
  Cd  Cd5  1  0.24226000  0.14392000  0.76658000  1.0
  Cd  Cd6  1  0.74226000  0.35608000  0.26658000  1.0
  Cd  Cd7  1  0.75774000  0.85608000  0.23342000  1.0
  H  H8  1  0.02704000  0.01857000  0.70515000  1.0
  H  H9  1  0.47297000  0.51857000  0.79485000  1.0
  H  H10  1  0.97297000  0.98143000  0.29485000  1.0
  H  H11  1  0.52703000  0.48143000  0.20515000  1.0
  H  H12  1  0.87082000  0.99408000  0.60630000  1.0
  H  H13  1  0.62918000  0.49408000  0.89370000  1.0
  H  H14  1  0.12918000  0.00592000  0.39370000  1.0
  H  H15  1  0.37082000  0.50592000  0.10630000  1.0
  H  H16  1  0.89096000  0.84893000  0.51917000  1.0
  H  H17  1  0.60904000  0.34893000  0.98083000  1.0
  H  H18  1  0.10904000  0.15107000  0.48083000  1.0
  H  H19  1  0.39096000  0.65107000  0.01917000  1.0
  H  H20  1  0.22037000  0.77234000  0.61036000  1.0
  H  H21  1  0.27963000  0.27234000  0.88964000  1.0
  H  H22  1  0.77963000  0.22766000  0.38964000  1.0
  H  H23  1  0.72037000  0.72766000  0.11036000  1.0
  H  H24  1  0.21308000  0.75830000  0.13369000  1.0
  H  H25  1  0.28692000  0.25830000  0.36630000  1.0
  H  H26  1  0.78692000  0.24170000  0.86631000  1.0
  H  H27  1  0.71308000  0.74170000  0.63370000  1.0
  H  H28  1  0.08273000  0.03723000  0.05578000  1.0
  H  H29  1  0.41727000  0.53723000  0.44422000  1.0
  H  H30  1  0.91727000  0.96277000  0.94422000  1.0
  H  H31  1  0.58273000  0.46277000  0.55578000  1.0
  H  H32  1  0.88018000  0.99691000  0.11412000  1.0
  H  H33  1  0.61982000  0.49691000  0.38588000  1.0
  H  H34  1  0.11982000  0.00309000  0.88588000  1.0
  H  H35  1  0.38018000  0.50309000  0.61412000  1.0
  H  H36  1  0.00779000  0.73109000  0.19392000  1.0
  H  H37  1  0.49221000  0.23109000  0.30608000  1.0
  H  H38  1  0.99221000  0.26891000  0.80608000  1.0
  H  H39  1  0.50779000  0.76891000  0.69392000  1.0
  H  H40  1  0.77953000  0.74391000  0.76907000  1.0
  H  H41  1  0.72047000  0.24391000  0.73093000  1.0
  H  H42  1  0.22047000  0.25609000  0.23093000  1.0
  H  H43  1  0.27953000  0.75609000  0.26907000  1.0
  H  H44  1  0.98323000  0.73368000  0.97352000  1.0
  H  H45  1  0.51677000  0.23368000  0.52648000  1.0
  H  H46  1  0.01677000  0.26632000  0.02648000  1.0
  H  H47  1  0.48323000  0.76632000  0.47352000  1.0
  H  H48  1  0.96233000  0.67443000  0.70176000  1.0
  H  H49  1  0.53767000  0.17443000  0.79824000  1.0
  H  H50  1  0.03767000  0.32557000  0.29824000  1.0
  H  H51  1  0.46233000  0.82557000  0.20176000  1.0
  H  H52  1  0.16041000  0.66766000  0.89835000  1.0
  H  H53  1  0.33959000  0.16766000  0.60165000  1.0
  H  H54  1  0.83958000  0.33234000  0.10165000  1.0
  H  H55  1  0.66042000  0.83234000  0.39835000  1.0
  C  C56  1  0.38987000  0.75494000  0.86201000  1.0
  C  C57  1  0.11013000  0.25494000  0.63799000  1.0
  C  C58  1  0.61013000  0.24506000  0.13799000  1.0
  C  C59  1  0.88987000  0.74506000  0.36201000  1.0
  C  C60  1  0.34393000  0.83624000  0.81347000  1.0
  C  C61  1  0.15607000  0.33624000  0.68653000  1.0
  C  C62  1  0.65607000  0.16376000  0.18653000  1.0
  C  C63  1  0.84393000  0.66376000  0.31347000  1.0
  C  C64  1  0.33803000  0.93910000  0.82121000  1.0
  C  C65  1  0.16197000  0.43911000  0.67879000  1.0
  C  C66  1  0.66197000  0.06089000  0.17879000  1.0
  C  C67  1  0.83803000  0.56089000  0.32121000  1.0
  C  C68  1  0.39158000  0.00752000  0.87475000  1.0
  C  C69  1  0.10842000  0.50752000  0.62525000  1.0
  C  C70  1  0.60842000  0.99248000  0.12525000  1.0
  C  C71  1  0.89158000  0.49248000  0.37475000  1.0
  C  C72  1  0.22605000  0.89635000  0.72690000  1.0
  C  C73  1  0.27395000  0.39635000  0.77310000  1.0
  C  C74  1  0.77395000  0.10365000  0.27310000  1.0
  C  C75  1  0.72604000  0.60365000  0.22690000  1.0
  C  C76  1  0.13547000  0.89492000  0.66753000  1.0
  C  C77  1  0.36453000  0.39491000  0.83247000  1.0
  C  C78  1  0.86453000  0.10509000  0.33247000  1.0
  C  C79  1  0.63547000  0.60508000  0.16753000  1.0
  C  C80  1  0.03600000  0.95894000  0.66500000  1.0
  C  C81  1  0.46400000  0.45894000  0.83500000  1.0
  C  C82  1  0.96400000  0.04106000  0.33500000  1.0
  C  C83  1  0.53600000  0.54106000  0.16500000  1.0
  C  C84  1  0.94815000  0.94459000  0.61037000  1.0
  C  C85  1  0.55186000  0.44459000  0.88963000  1.0
  C  C86  1  0.05186000  0.05541000  0.38963000  1.0
  C  C87  1  0.44814000  0.55541000  0.11037000  1.0
  C  C88  1  0.95870000  0.86507000  0.56164000  1.0
  C  C89  1  0.54130000  0.36507000  0.93836000  1.0
  C  C90  1  0.04130000  0.13493000  0.43836000  1.0
  C  C91  1  0.45870000  0.63493000  0.06164000  1.0
  C  C92  1  0.14152000  0.82035000  0.61367000  1.0
  C  C93  1  0.35848000  0.32035000  0.88633000  1.0
  C  C94  1  0.85848000  0.17965000  0.38633000  1.0
  C  C95  1  0.64152000  0.67965000  0.11367000  1.0
  C  C96  1  0.28558000  0.92593000  0.05724000  1.0
  C  C97  1  0.21442000  0.42593000  0.44276000  1.0
  C  C98  1  0.71442000  0.07407000  0.94276000  1.0
  C  C99  1  0.78558000  0.57407000  0.55724000  1.0
  C  C100  1  0.16303000  0.90086000  0.09112000  1.0
  C  C101  1  0.33697000  0.40086000  0.40888000  1.0
  C  C102  1  0.83697000  0.09914000  0.90888000  1.0
  C  C103  1  0.66303000  0.59914000  0.59112000  1.0
  C  C104  1  0.14124000  0.81291000  0.12922000  1.0
  C  C105  1  0.35876000  0.31292000  0.37078000  1.0
  C  C106  1  0.85876000  0.18708000  0.87078000  1.0
  C  C107  1  0.64124000  0.68708000  0.62922000  1.0
  C  C108  1  0.06800000  0.96837000  0.08538000  1.0
  C  C109  1  0.43200000  0.46837000  0.41462000  1.0
  C  C110  1  0.93200000  0.03163000  0.91462000  1.0
  C  C111  1  0.56800000  0.53163000  0.58538000  1.0
  C  C112  1  0.95657000  0.94637000  0.11808000  1.0
  C  C113  1  0.54343000  0.44637000  0.38192000  1.0
  C  C114  1  0.04343000  0.05363000  0.88192000  1.0
  C  C115  1  0.45657000  0.55363000  0.61808000  1.0
  C  C116  1  0.02759000  0.79750000  0.16189000  1.0
  C  C117  1  0.47241000  0.29750000  0.33811000  1.0
  C  C118  1  0.97241000  0.20250000  0.83811000  1.0
  C  C119  1  0.52759000  0.70250000  0.66189000  1.0
  C  C120  1  0.76154000  0.78532000  0.91807000  1.0
  C  C121  1  0.73846000  0.28532000  0.58193000  1.0
  C  C122  1  0.23846000  0.21468000  0.08193000  1.0
  C  C123  1  0.26154000  0.71468000  0.41807000  1.0
  C  C124  1  0.86870000  0.74389000  0.87615000  1.0
  C  C125  1  0.63130000  0.24389000  0.62385000  1.0
  C  C126  1  0.13130000  0.25611000  0.12385000  1.0
  C  C127  1  0.36870000  0.75611000  0.37615000  1.0
  C  C128  1  0.86269000  0.72704000  0.79903000  1.0
  C  C129  1  0.63731000  0.22704000  0.70097000  1.0
  C  C130  1  0.13731000  0.27296000  0.20097000  1.0
  C  C131  1  0.36269000  0.77296000  0.29903000  1.0
  C  C132  1  0.97649000  0.72157000  0.91335000  1.0
  C  C133  1  0.52351000  0.22157000  0.58665000  1.0
  C  C134  1  0.02351000  0.27843000  0.08665000  1.0
  C  C135  1  0.47649000  0.77843000  0.41335000  1.0
  C  C136  1  0.96371000  0.68887000  0.76195000  1.0
  C  C137  1  0.53629000  0.18887000  0.73805000  1.0
  C  C138  1  0.03629000  0.31113000  0.23805000  1.0
  C  C139  1  0.46371000  0.81113000  0.26195000  1.0
  C  C140  1  0.07375000  0.68466000  0.87203000  1.0
  C  C141  1  0.42625000  0.18466000  0.62797000  1.0
  C  C142  1  0.92625000  0.31534000  0.12797000  1.0
  C  C143  1  0.57375000  0.81534000  0.37203000  1.0
  N  N144  1  0.27513000  0.81188000  0.75295000  1.0
  N  N145  1  0.22487000  0.31188000  0.74705000  1.0
  N  N146  1  0.72487000  0.18812000  0.24705000  1.0
  N  N147  1  0.77513000  0.68812000  0.25295000  1.0
  N  N148  1  0.26250000  0.97506000  0.76655000  1.0
  N  N149  1  0.23750000  0.47506000  0.73345000  1.0
  N  N150  1  0.73750000  0.02494000  0.23345000  1.0
  N  N151  1  0.76250000  0.52494000  0.26655000  1.0
  N  N152  1  0.05429000  0.80345000  0.56342000  1.0
  N  N153  1  0.44571000  0.30345000  0.93658000  1.0
  N  N154  1  0.94571000  0.19655000  0.43658000  1.0
  N  N155  1  0.55429000  0.69655000  0.06342000  1.0
  N  N156  1  0.93680000  0.86318000  0.15683000  1.0
  N  N157  1  0.56320000  0.36318000  0.34317000  1.0
  N  N158  1  0.06320000  0.13682000  0.84317000  1.0
  N  N159  1  0.43680000  0.63682000  0.65683000  1.0
  N  N160  1  0.06785000  0.66849000  0.79772000  1.0
  N  N161  1  0.43215000  0.16849000  0.70228000  1.0
  N  N162  1  0.93215000  0.33151000  0.20228000  1.0
  N  N163  1  0.56785000  0.83151000  0.29772000  1.0
  O  O164  1  0.37332000  0.66724000  0.83971000  1.0
  O  O165  1  0.12668000  0.16724000  0.66029000  1.0
  O  O166  1  0.62668000  0.33276000  0.16029000  1.0
  O  O167  1  0.87332000  0.83277000  0.33971000  1.0
  O  O168  1  0.43580000  0.77478000  0.92498000  1.0
  O  O169  1  0.06420000  0.27478000  0.57502000  1.0
  O  O170  1  0.56420000  0.22522000  0.07502000  1.0
  O  O171  1  0.93580000  0.72523000  0.42498000  1.0
  O  O172  1  0.46891000  0.98018000  0.92297000  1.0
  O  O173  1  0.03109000  0.48018000  0.57703000  1.0
  O  O174  1  0.53109000  0.01982000  0.07703000  1.0
  O  O175  1  0.96892000  0.51982000  0.42297000  1.0
  O  O176  1  0.35792000  0.09810000  0.87463000  1.0
  O  O177  1  0.14208000  0.59810000  0.62537000  1.0
  O  O178  1  0.64208000  0.90190000  0.12537000  1.0
  O  O179  1  0.85792000  0.40190000  0.37463000  1.0
  O  O180  1  0.36958000  0.86255000  0.06208000  1.0
  O  O181  1  0.13042000  0.36255000  0.43792000  1.0
  O  O182  1  0.63042000  0.13745000  0.93792000  1.0
  O  O183  1  0.86958000  0.63745000  0.56208000  1.0
  O  O184  1  0.29170000  0.00988000  0.02685000  1.0
  O  O185  1  0.20830000  0.50988000  0.47315000  1.0
  O  O186  1  0.70830000  0.99012000  0.97315000  1.0
  O  O187  1  0.79170000  0.49012000  0.52685000  1.0
  O  O188  1  0.67218000  0.81798000  0.88093000  1.0
  O  O189  1  0.82782000  0.31798000  0.61907000  1.0
  O  O190  1  0.32782000  0.18202000  0.11907000  1.0
  O  O191  1  0.17218000  0.68202000  0.38093000  1.0
  O  O192  1  0.76434000  0.78643000  0.98955000  1.0
  O  O193  1  0.73566000  0.28643000  0.51045000  1.0
  O  O194  1  0.23566000  0.21357000  0.01045000  1.0
  O  O195  1  0.26434000  0.71357000  0.48955000  1.0
