# generated using pymatgen
data_MnH16(C14N5)2
_symmetry_space_group_name_H-M   'P 1'
_cell_length_a   7.03356000
_cell_length_b   11.84960000
_cell_length_c   14.01340000
_cell_angle_alpha   90.00000000
_cell_angle_beta   96.29590000
_cell_angle_gamma   90.00000000
_symmetry_Int_Tables_number   1
_chemical_formula_structural   MnH16(C14N5)2
_chemical_formula_sum   'Mn2 H32 C56 N20'
_cell_volume   1160.90093348
_cell_formula_units_Z   2
loop_
 _symmetry_equiv_pos_site_id
 _symmetry_equiv_pos_as_xyz
  1  'x, y, z'
loop_
 _atom_site_type_symbol
 _atom_site_label
 _atom_site_symmetry_multiplicity
 _atom_site_fract_x
 _atom_site_fract_y
 _atom_site_fract_z
 _atom_site_occupancy
  Mn  Mn0  1  0.99788000  0.49481000  0.49458000  1.0
  Mn  Mn1  1  0.50218000  0.99468000  0.50547000  1.0
  H  H2  1  0.97902000  0.75682000  0.53560000  1.0
  H  H3  1  0.48202000  0.74343000  0.53396000  1.0
  H  H4  1  0.01790000  0.24334000  0.46602000  1.0
  H  H5  1  0.52066000  0.25670000  0.46445000  1.0
  H  H6  1  0.03675000  0.89708000  0.66750000  1.0
  H  H7  1  0.53795000  0.60397000  0.66570000  1.0
  H  H8  1  0.96189000  0.10396000  0.33423000  1.0
  H  H9  1  0.46305000  0.39700000  0.33257000  1.0
  H  H10  1  0.23365000  0.99079000  0.77086000  1.0
  H  H11  1  0.73305000  0.50972000  0.76993000  1.0
  H  H12  1  0.76733000  0.00966000  0.23002000  1.0
  H  H13  1  0.26645000  0.49074000  0.22921000  1.0
  H  H14  1  0.30976000  0.11650000  0.90922000  1.0
  H  H15  1  0.80969000  0.38451000  0.90846000  1.0
  H  H16  1  0.69081000  0.88440000  0.09149000  1.0
  H  H17  1  0.19024000  0.61647000  0.09086000  1.0
  H  H18  1  0.18041000  0.86853000  0.10076000  1.0
  H  H19  1  0.68013000  0.63275000  0.09968000  1.0
  H  H20  1  0.81940000  0.13284000  0.90023000  1.0
  H  H21  1  0.31956000  0.36852000  0.89929000  1.0
  H  H22  1  0.09262000  0.73211000  0.96905000  1.0
  H  H23  1  0.59224000  0.76887000  0.96790000  1.0
  H  H24  1  0.90720000  0.26900000  0.03199000  1.0
  H  H25  1  0.40743000  0.23208000  0.03098000  1.0
  H  H26  1  0.17890000  0.61515000  0.86088000  1.0
  H  H27  1  0.67476000  0.88601000  0.85959000  1.0
  H  H28  1  0.82540000  0.38604000  0.14039000  1.0
  H  H29  1  0.32130000  0.11510000  0.13908000  1.0
  H  H30  1  0.10923000  0.48941000  0.72172000  1.0
  H  H31  1  0.60469000  0.01145000  0.72114000  1.0
  H  H32  1  0.89556000  0.51145000  0.27886000  1.0
  H  H33  1  0.39086000  0.98934000  0.27823000  1.0
  C  C34  1  0.46838000  0.65674000  0.35662000  1.0
  C  C35  1  0.97074000  0.84305000  0.35884000  1.0
  C  C36  1  0.52935000  0.34329000  0.64127000  1.0
  C  C37  1  0.03156000  0.15665000  0.64337000  1.0
  C  C38  1  0.64441000  0.61794000  0.39926000  1.0
  C  C39  1  0.14729000  0.87895000  0.40330000  1.0
  C  C40  1  0.35285000  0.37924000  0.59680000  1.0
  C  C41  1  0.85549000  0.11786000  0.60077000  1.0
  C  C42  1  0.45962000  0.73431000  0.27978000  1.0
  C  C43  1  0.96062000  0.76818000  0.28006000  1.0
  C  C44  1  0.53932000  0.26828000  0.71995000  1.0
  C  C45  1  0.04036000  0.23431000  0.72013000  1.0
  C  C46  1  0.30528000  0.61591000  0.39350000  1.0
  C  C47  1  0.80820000  0.88087000  0.39811000  1.0
  C  C48  1  0.69196000  0.38106000  0.60204000  1.0
  C  C49  1  0.19466000  0.11577000  0.60652000  1.0
  C  C50  1  0.02486000  0.73028000  0.60880000  1.0
  C  C51  1  0.52578000  0.77036000  0.60722000  1.0
  C  C52  1  0.97421000  0.27034000  0.39277000  1.0
  C  C53  1  0.47497000  0.23017000  0.39122000  1.0
  C  C54  1  0.05837000  0.80771000  0.68302000  1.0
  C  C55  1  0.55870000  0.69335000  0.68158000  1.0
  C  C56  1  0.94127000  0.19335000  0.31838000  1.0
  C  C57  1  0.44153000  0.30761000  0.31701000  1.0
  C  C58  1  0.11549000  0.76965000  0.77676000  1.0
  C  C59  1  0.61441000  0.73109000  0.77559000  1.0
  C  C60  1  0.88558000  0.23111000  0.22437000  1.0
  C  C61  1  0.38454000  0.26959000  0.22326000  1.0
  C  C62  1  0.15592000  0.84910000  0.85743000  1.0
  C  C63  1  0.65519000  0.65170000  0.85628000  1.0
  C  C64  1  0.84476000  0.15171000  0.14364000  1.0
  C  C65  1  0.34413000  0.34908000  0.14260000  1.0
  C  C66  1  0.21516000  0.96015000  0.84247000  1.0
  C  C67  1  0.71459000  0.54060000  0.84147000  1.0
  C  C68  1  0.78560000  0.04056000  0.15845000  1.0
  C  C69  1  0.28490000  0.46010000  0.15760000  1.0
  C  C70  1  0.25986000  0.03088000  0.92096000  1.0
  C  C71  1  0.75955000  0.47007000  0.92010000  1.0
  C  C72  1  0.74070000  0.97000000  0.07984000  1.0
  C  C73  1  0.24016000  0.53086000  0.07912000  1.0
  C  C74  1  0.18890000  0.89351000  0.02644000  1.0
  C  C75  1  0.68851000  0.60759000  0.02540000  1.0
  C  C76  1  0.81122000  0.10764000  0.97451000  1.0
  C  C77  1  0.31110000  0.39350000  0.97361000  1.0
  C  C78  1  0.14155000  0.81636000  0.95252000  1.0
  C  C79  1  0.64108000  0.68460000  0.95140000  1.0
  C  C80  1  0.85858000  0.18468000  0.04850000  1.0
  C  C81  1  0.35849000  0.31633000  0.04752000  1.0
  C  C82  1  0.13429000  0.65263000  0.79048000  1.0
  C  C83  1  0.63130000  0.84824000  0.78919000  1.0
  C  C84  1  0.86878000  0.34826000  0.21080000  1.0
  C  C85  1  0.36580000  0.15258000  0.20949000  1.0
  C  C86  1  0.09768000  0.58062000  0.71233000  1.0
  C  C87  1  0.59475000  0.92036000  0.71131000  1.0
  C  C88  1  0.90538000  0.42036000  0.28869000  1.0
  C  C89  1  0.40235000  0.08054000  0.28763000  1.0
  N  N90  1  0.78802000  0.58132000  0.43842000  1.0
  N  N91  1  0.29095000  0.91232000  0.44490000  1.0
  N  N92  1  0.20921000  0.41260000  0.55517000  1.0
  N  N93  1  0.71190000  0.08125000  0.56163000  1.0
  N  N94  1  0.45796000  0.79945000  0.21677000  1.0
  N  N95  1  0.95736000  0.70492000  0.21561000  1.0
  N  N96  1  0.54247000  0.20485000  0.78429000  1.0
  N  N97  1  0.04196000  0.29950000  0.78310000  1.0
  N  N98  1  0.17858000  0.57617000  0.43053000  1.0
  N  N99  1  0.68217000  0.91697000  0.43781000  1.0
  N  N100  1  0.81796000  0.41714000  0.56231000  1.0
  N  N101  1  0.32138000  0.07598000  0.56951000  1.0
  N  N102  1  0.04499000  0.61843000  0.62278000  1.0
  N  N103  1  0.54440000  0.88290000  0.62089000  1.0
  N  N104  1  0.95568000  0.38288000  0.37911000  1.0
  N  N105  1  0.45492000  0.11832000  0.37722000  1.0
  N  N106  1  0.24847000  0.99926000  0.01216000  1.0
  N  N107  1  0.74829000  0.50184000  0.01130000  1.0
  N  N108  1  0.75175000  0.00183000  0.98864000  1.0
  N  N109  1  0.25152000  0.49924000  0.98791000  1.0
