# generated using pymatgen
data_Al2H15C30(NO6)3
_symmetry_space_group_name_H-M   'P 1'
_cell_length_a   4.09067000
_cell_length_b   17.17000000
_cell_length_c   17.17005000
_cell_angle_alpha   60.00028899
_cell_angle_beta   89.99820001
_cell_angle_gamma   89.99700000
_symmetry_Int_Tables_number   1
_chemical_formula_structural   Al2H15C30(NO6)3
_chemical_formula_sum   'Al2 H15 C30 N3 O18'
_cell_volume   1044.40320662
_cell_formula_units_Z   1
loop_
 _symmetry_equiv_pos_site_id
 _symmetry_equiv_pos_as_xyz
  1  'x, y, z'
loop_
 _atom_site_type_symbol
 _atom_site_label
 _atom_site_symmetry_multiplicity
 _atom_site_fract_x
 _atom_site_fract_y
 _atom_site_fract_z
 _atom_site_occupancy
  Al  Al0  1  0.07271000  0.99999000  0.50001000  1.0
  Al  Al1  1  0.99117000  0.66666000  0.16667000  1.0
  H  H2  1  0.78840000  0.42474000  0.17226000  1.0
  H  H3  1  0.94923000  0.39915000  0.42602000  1.0
  H  H4  1  0.33044000  0.40904000  0.47053000  1.0
  H  H5  1  0.39953000  0.24076000  0.55066000  1.0
  H  H6  1  0.01241000  0.22965000  0.51031000  1.0
  H  H7  1  0.78840000  0.67224000  0.40299000  1.0
  H  H8  1  0.94938000  0.92606000  0.17483000  1.0
  H  H9  1  0.33058000  0.97056000  0.12043000  1.0
  H  H10  1  0.39970000  0.05069000  0.20859000  1.0
  H  H11  1  0.01254000  0.01033000  0.26005000  1.0
  H  H12  1  0.78828000  0.90300000  0.92475000  1.0
  H  H13  1  0.94944000  0.67480000  0.89914000  1.0
  H  H14  1  0.33068000  0.62040000  0.90904000  1.0
  H  H15  1  0.39976000  0.70857000  0.74075000  1.0
  H  H16  1  0.01256000  0.76003000  0.72965000  1.0
  C  C17  1  0.57151000  0.94638000  0.63552000  1.0
  C  C18  1  0.57151000  0.13550000  0.41811000  1.0
  C  C19  1  0.57155000  0.91810000  0.44639000  1.0
  C  C20  1  0.49369000  0.52997000  0.22836000  1.0
  C  C21  1  0.49369000  0.72837000  0.24166000  1.0
  C  C22  1  0.49368000  0.74166000  0.02997000  1.0
  C  C23  1  0.50978000  0.43037000  0.27667000  1.0
  C  C24  1  0.55096000  0.23627000  0.36735000  1.0
  C  C25  1  0.37569000  0.37538000  0.36179000  1.0
  C  C26  1  0.68431000  0.29262000  0.28117000  1.0
  C  C27  1  0.40383000  0.28161000  0.40631000  1.0
  C  C28  1  0.67214000  0.38623000  0.23772000  1.0
  C  C29  1  0.20192000  0.37448000  0.44028000  1.0
  C  C30  1  0.23977000  0.26865000  0.49134000  1.0
  C  C31  1  0.50984000  0.77669000  0.29295000  1.0
  C  C32  1  0.55100000  0.86735000  0.39638000  1.0
  C  C33  1  0.37579000  0.86180000  0.26283000  1.0
  C  C34  1  0.68435000  0.78118000  0.42620000  1.0
  C  C35  1  0.40392000  0.90633000  0.31207000  1.0
  C  C36  1  0.67218000  0.73771000  0.37605000  1.0
  C  C37  1  0.20205000  0.94031000  0.18524000  1.0
  C  C38  1  0.23991000  0.99137000  0.24001000  1.0
  C  C39  1  0.50980000  0.79294000  0.93038000  1.0
  C  C40  1  0.55097000  0.89637000  0.73627000  1.0
  C  C41  1  0.37579000  0.76282000  0.87538000  1.0
  C  C42  1  0.68427000  0.92621000  0.79262000  1.0
  C  C43  1  0.40390000  0.81206000  0.78161000  1.0
  C  C44  1  0.67209000  0.87605000  0.88623000  1.0
  C  C45  1  0.20211000  0.68522000  0.87447000  1.0
  C  C46  1  0.23994000  0.73998000  0.76864000  1.0
  N  N47  1  0.84791000  0.25191000  0.23374000  1.0
  N  N48  1  0.84794000  0.73374000  0.51434000  1.0
  N  N49  1  0.84779000  0.01435000  0.75192000  1.0
  O  O50  1  0.81168000  0.97183000  0.42525000  1.0
  O  O51  1  0.81166000  0.92523000  0.60293000  1.0
  O  O52  1  0.81163000  0.10291000  0.47185000  1.0
  O  O53  1  0.33718000  0.90938000  0.49841000  1.0
  O  O54  1  0.33717000  0.09221000  0.40939000  1.0
  O  O55  1  0.33714000  0.99840000  0.59222000  1.0
  O  O56  1  0.72176000  0.75513000  0.07268000  1.0
  O  O57  1  0.72178000  0.57267000  0.17219000  1.0
  O  O58  1  0.72174000  0.67218000  0.25513000  1.0
  O  O59  1  0.25263000  0.68802000  0.06518000  1.0
  O  O60  1  0.25260000  0.74680000  0.18803000  1.0
  O  O61  1  0.25263000  0.56517000  0.24680000  1.0
  O  O62  1  0.81312000  0.16970000  0.26553000  1.0
  O  O63  1  0.01036000  0.30136000  0.16558000  1.0
  O  O64  1  0.81315000  0.76554000  0.56476000  1.0
  O  O65  1  0.01039000  0.66557000  0.53305000  1.0
  O  O66  1  0.81305000  0.06477000  0.66970000  1.0
  O  O67  1  0.01011000  0.03308000  0.80138000  1.0
