# generated using pymatgen
data_CdH9C8NO7
_symmetry_space_group_name_H-M   'P 1'
_cell_length_a   5.59517000
_cell_length_b   6.52057000
_cell_length_c   14.44950000
_cell_angle_alpha   93.61200000
_cell_angle_beta   97.88210000
_cell_angle_gamma   103.91400000
_symmetry_Int_Tables_number   1
_chemical_formula_structural   CdH9C8NO7
_chemical_formula_sum   'Cd2 H18 C16 N2 O14'
_cell_volume   504.33686180
_cell_formula_units_Z   2
loop_
 _symmetry_equiv_pos_site_id
 _symmetry_equiv_pos_as_xyz
  1  'x, y, z'
loop_
 _atom_site_type_symbol
 _atom_site_label
 _atom_site_symmetry_multiplicity
 _atom_site_fract_x
 _atom_site_fract_y
 _atom_site_fract_z
 _atom_site_occupancy
  Cd  Cd0  1  0.46664000  0.74014000  0.34859000  1.0
  Cd  Cd1  1  0.53336000  0.25986000  0.65141000  1.0
  H  H2  1  0.11524000  0.05678000  0.17461000  1.0
  H  H3  1  0.88476000  0.94321000  0.82539000  1.0
  H  H4  1  0.51315000  0.27177000  0.95086000  1.0
  H  H5  1  0.48684000  0.72823000  0.04914000  1.0
  H  H6  1  0.89514000  0.44618000  0.06948000  1.0
  H  H7  1  0.10486000  0.55382000  0.93052000  1.0
  H  H8  1  0.29005000  0.62183000  0.51961000  1.0
  H  H9  1  0.70995000  0.37817000  0.48039000  1.0
  H  H10  1  0.10974000  0.50770000  0.42659000  1.0
  H  H11  1  0.89026000  0.49231000  0.57341000  1.0
  H  H12  1  0.86575000  0.02956000  0.28985000  1.0
  H  H13  1  0.13425000  0.97043000  0.71015000  1.0
  H  H14  1  0.90392000  0.80077000  0.25748000  1.0
  H  H15  1  0.09608000  0.19923000  0.74252000  1.0
  H  H16  1  0.72324000  0.87214000  0.54241000  1.0
  H  H17  1  0.27676000  0.12787000  0.45759000  1.0
  H  H18  1  0.92443000  0.80691000  0.48366000  1.0
  H  H19  1  0.07557000  0.19310000  0.51634000  1.0
  C  C20  1  0.49601000  0.24009000  0.21833000  1.0
  C  C21  1  0.50398000  0.75991000  0.78167000  1.0
  C  C22  1  0.28753000  0.14174000  0.15291000  1.0
  C  C23  1  0.71247000  0.85826000  0.84709000  1.0
  C  C24  1  0.29506000  0.15432000  0.05651000  1.0
  C  C25  1  0.70493000  0.84568000  0.94349000  1.0
  C  C26  1  0.51264000  0.26565000  0.02606000  1.0
  C  C27  1  0.48735000  0.73435000  0.97394000  1.0
  C  C28  1  0.72295000  0.36173000  0.09170000  1.0
  C  C29  1  0.27705000  0.63827000  0.90830000  1.0
  C  C30  1  0.71746000  0.34872000  0.18755000  1.0
  C  C31  1  0.28254000  0.65128000  0.81245000  1.0
  C  C32  1  0.95231000  0.42960000  0.25692000  1.0
  C  C33  1  0.04768000  0.57040000  0.74308000  1.0
  C  C34  1  0.48119000  0.24168000  0.32133000  1.0
  C  C35  1  0.51882000  0.75832000  0.67867000  1.0
  N  N36  1  0.09047000  0.06155000  0.98561000  1.0
  N  N37  1  0.90953000  0.93844000  0.01439000  1.0
  O  O38  1  0.38158000  0.07122000  0.35459000  1.0
  O  O39  1  0.61845000  0.92878000  0.64542000  1.0
  O  O40  1  0.56701000  0.41817000  0.37240000  1.0
  O  O41  1  0.43299000  0.58184000  0.62760000  1.0
  O  O42  1  0.99975000  0.31069000  0.31921000  1.0
  O  O43  1  0.00026000  0.68931000  0.68079000  1.0
  O  O44  1  0.09207000  0.61307000  0.24796000  1.0
  O  O45  1  0.90793000  0.38693000  0.75203000  1.0
  O  O46  1  0.19195000  0.64937000  0.46036000  1.0
  O  O47  1  0.80805000  0.35063000  0.53964000  1.0
  O  O48  1  0.77688000  0.88148000  0.26388000  1.0
  O  O49  1  0.22313000  0.11852000  0.73612000  1.0
  O  O50  1  0.76707000  0.85018000  0.47859000  1.0
  O  O51  1  0.23292000  0.14981000  0.52141000  1.0
