# generated using pymatgen
data_AlH12(C2O)12
_symmetry_space_group_name_H-M   'P 1'
_cell_length_a   4.02383000
_cell_length_b   28.94154970
_cell_length_c   28.93930000
_cell_angle_alpha   120.00028556
_cell_angle_beta   90.00030000
_cell_angle_gamma   89.99830008
_symmetry_Int_Tables_number   1
_chemical_formula_structural   AlH12(C2O)12
_chemical_formula_sum   'Al2 H24 C48 O24'
_cell_volume   2918.62843952
_cell_formula_units_Z   2
loop_
 _symmetry_equiv_pos_site_id
 _symmetry_equiv_pos_as_xyz
  1  'x, y, z'
loop_
 _atom_site_type_symbol
 _atom_site_label
 _atom_site_symmetry_multiplicity
 _atom_site_fract_x
 _atom_site_fract_y
 _atom_site_fract_z
 _atom_site_occupancy
  Al  Al0  1  0.99992000  0.50000000  0.00000000  1.0
  Al  Al1  1  0.00002000  0.83335000  0.66668000  1.0
  H  H2  1  0.20258000  0.69785000  0.52015000  1.0
  H  H3  1  0.79726000  0.82230000  0.52011000  1.0
  H  H4  1  0.79709000  0.51102000  0.14655000  1.0
  H  H5  1  0.20259000  0.63552000  0.14655000  1.0
  H  H6  1  0.20263000  0.82231000  0.80222000  1.0
  H  H7  1  0.79731000  0.69784000  0.67771000  1.0
  H  H8  1  0.79700000  0.63553000  0.98898000  1.0
  H  H9  1  0.20267000  0.51101000  0.86445000  1.0
  H  H10  1  0.20249000  0.97990000  0.67772000  1.0
  H  H11  1  0.79733000  0.97991000  0.80220000  1.0
  H  H12  1  0.79706000  0.35344000  0.86446000  1.0
  H  H13  1  0.20261000  0.35346000  0.98899000  1.0
  H  H14  1  0.78499000  0.75446000  0.37791000  1.0
  H  H15  1  0.21438000  0.62346000  0.37795000  1.0
  H  H16  1  0.21465000  0.70989000  0.28873000  1.0
  H  H17  1  0.78489000  0.57884000  0.28874000  1.0
  H  H18  1  0.78515000  0.62344000  0.74549000  1.0
  H  H19  1  0.21464000  0.75446000  0.87655000  1.0
  H  H20  1  0.21482000  0.57880000  0.79006000  1.0
  H  H21  1  0.78484000  0.70988000  0.92114000  1.0
  H  H22  1  0.78509000  0.12209000  0.87658000  1.0
  H  H23  1  0.21443000  0.12208000  0.74555000  1.0
  H  H24  1  0.21470000  0.21128000  0.92117000  1.0
  H  H25  1  0.78482000  0.21127000  0.79010000  1.0
  C  C26  1  0.49993000  0.41808000  0.95904000  1.0
  C  C27  1  0.49989000  0.54096000  0.08191000  1.0
  C  C28  1  0.49990000  0.54095000  0.95903000  1.0
  C  C29  1  0.49997000  0.79239000  0.58477000  1.0
  C  C30  1  0.50003000  0.79241000  0.70766000  1.0
  C  C31  1  0.50001000  0.91527000  0.70764000  1.0
  C  C32  1  0.49990000  0.76263000  0.52524000  1.0
  C  C33  1  0.33400000  0.71363000  0.49820000  1.0
  C  C34  1  0.33885000  0.68548000  0.44276000  1.0
  C  C35  1  0.49971000  0.70707000  0.41414000  1.0
  C  C36  1  0.66067000  0.75726000  0.44273000  1.0
  C  C37  1  0.66569000  0.78456000  0.49816000  1.0
  C  C38  1  0.49975000  0.67895000  0.35792000  1.0
  C  C39  1  0.49976000  0.65437000  0.30876000  1.0
  C  C40  1  0.49975000  0.62626000  0.25253000  1.0
  C  C41  1  0.66059000  0.57606000  0.22394000  1.0
  C  C42  1  0.66561000  0.54877000  0.16851000  1.0
  C  C43  1  0.49981000  0.57071000  0.14143000  1.0
  C  C44  1  0.33400000  0.61973000  0.16850000  1.0
  C  C45  1  0.33889000  0.64786000  0.22393000  1.0
  C  C46  1  0.49992000  0.76263000  0.73740000  1.0
  C  C47  1  0.33416000  0.78456000  0.78641000  1.0
  C  C48  1  0.33896000  0.75725000  0.81453000  1.0
  C  C49  1  0.49993000  0.70707000  0.79293000  1.0
  C  C50  1  0.66079000  0.68548000  0.74272000  1.0
  C  C51  1  0.66587000  0.71363000  0.71545000  1.0
  C  C52  1  0.49990000  0.67893000  0.82102000  1.0
  C  C53  1  0.49985000  0.65434000  0.84559000  1.0
  C  C54  1  0.49983000  0.62624000  0.87371000  1.0
  C  C55  1  0.66059000  0.64785000  0.92392000  1.0
  C  C56  1  0.66559000  0.61972000  0.95121000  1.0
  C  C57  1  0.49985000  0.57071000  0.92927000  1.0
  C  C58  1  0.33407000  0.54876000  0.88025000  1.0
  C  C59  1  0.33900000  0.57604000  0.85210000  1.0
  C  C60  1  0.49993000  0.97479000  0.73740000  1.0
  C  C61  1  0.33405000  0.00185000  0.71546000  1.0
  C  C62  1  0.33888000  0.05728000  0.74276000  1.0
  C  C63  1  0.49982000  0.08587000  0.79294000  1.0
  C  C64  1  0.66078000  0.05727000  0.81454000  1.0
  C  C65  1  0.66582000  0.00185000  0.78641000  1.0
  C  C66  1  0.49986000  0.14210000  0.82107000  1.0
  C  C67  1  0.49987000  0.19126000  0.84563000  1.0
  C  C68  1  0.49981000  0.24748000  0.87374000  1.0
  C  C69  1  0.66060000  0.27607000  0.85213000  1.0
  C  C70  1  0.66564000  0.33150000  0.88026000  1.0
  C  C71  1  0.49986000  0.35856000  0.92928000  1.0
  C  C72  1  0.33407000  0.33151000  0.95123000  1.0
  C  C73  1  0.33896000  0.27608000  0.92394000  1.0
  O  O74  1  0.73493000  0.55080000  0.99232000  1.0
  O  O75  1  0.73493000  0.44152000  0.94919000  1.0
  O  O76  1  0.73489000  0.50767000  0.05848000  1.0
  O  O77  1  0.26496000  0.50765000  0.94917000  1.0
  O  O78  1  0.26492000  0.55081000  0.05847000  1.0
  O  O79  1  0.26495000  0.44153000  0.99234000  1.0
  O  O80  1  0.73504000  0.89184000  0.71750000  1.0
  O  O81  1  0.73509000  0.82567000  0.60818000  1.0
  O  O82  1  0.73508000  0.78256000  0.67437000  1.0
  O  O83  1  0.26500000  0.89182000  0.67434000  1.0
  O  O84  1  0.26503000  0.82570000  0.71751000  1.0
  O  O85  1  0.26502000  0.78254000  0.60821000  1.0
  O  O86  1  0.81425000  0.77908000  0.41618000  1.0
  O  O87  1  0.18516000  0.63711000  0.41623000  1.0
  O  O88  1  0.18534000  0.69624000  0.25047000  1.0
  O  O89  1  0.81413000  0.55423000  0.25048000  1.0
  O  O90  1  0.81445000  0.63710000  0.72088000  1.0
  O  O91  1  0.18543000  0.77908000  0.86291000  1.0
  O  O92  1  0.18552000  0.55420000  0.80373000  1.0
  O  O93  1  0.81409000  0.69623000  0.94575000  1.0
  O  O94  1  0.81445000  0.08382000  0.86292000  1.0
  O  O95  1  0.18523000  0.08381000  0.72093000  1.0
  O  O96  1  0.18542000  0.24955000  0.94579000  1.0
  O  O97  1  0.81413000  0.24953000  0.80374000  1.0
