# generated using pymatgen
data_NiH12C8S2(NO2)2
_symmetry_space_group_name_H-M   'P 1'
_cell_length_a   5.98397000
_cell_length_b   9.79339000
_cell_length_c   10.09490000
_cell_angle_alpha   90.00070000
_cell_angle_beta   89.99940000
_cell_angle_gamma   89.87770000
_symmetry_Int_Tables_number   1
_chemical_formula_structural   NiH12C8S2(NO2)2
_chemical_formula_sum   'Ni2 H24 C16 S4 N4 O8'
_cell_volume   591.59362988
_cell_formula_units_Z   2
loop_
 _symmetry_equiv_pos_site_id
 _symmetry_equiv_pos_as_xyz
  1  'x, y, z'
loop_
 _atom_site_type_symbol
 _atom_site_label
 _atom_site_symmetry_multiplicity
 _atom_site_fract_x
 _atom_site_fract_y
 _atom_site_fract_z
 _atom_site_occupancy
  Ni  Ni0  1  0.85530000  0.42281000  0.52507000  1.0
  Ni  Ni1  1  0.14468000  0.57720000  0.02507000  1.0
  H  H2  1  0.85238000  0.15712000  0.52252000  1.0
  H  H3  1  0.14761000  0.84289000  0.02252000  1.0
  H  H4  1  0.05751000  0.60204000  0.40564000  1.0
  H  H5  1  0.94247000  0.39795000  0.90563000  1.0
  H  H6  1  0.64639000  0.28414000  0.75457000  1.0
  H  H7  1  0.35361000  0.71586000  0.25455000  1.0
  H  H8  1  0.86334000  0.15835000  0.74918000  1.0
  H  H9  1  0.13667000  0.84165000  0.24918000  1.0
  H  H10  1  0.46562000  0.99307000  0.48305000  1.0
  H  H11  1  0.53439000  0.00692000  0.98306000  1.0
  H  H12  1  0.22894000  0.09316000  0.53391000  1.0
  H  H13  1  0.77105000  0.90683000  0.03390000  1.0
  H  H14  1  0.55851000  0.20686000  0.38706000  1.0
  H  H15  1  0.44148000  0.79315000  0.88705000  1.0
  H  H16  1  0.64541000  0.70799000  0.52277000  1.0
  H  H17  1  0.35458000  0.29202000  0.02277000  1.0
  H  H18  1  0.73521000  0.70683000  0.35267000  1.0
  H  H19  1  0.26480000  0.29318000  0.85267000  1.0
  H  H20  1  0.18038000  0.87784000  0.66311000  1.0
  H  H21  1  0.81964000  0.12215000  0.16311000  1.0
  H  H22  1  0.90893000  0.82357000  0.71117000  1.0
  H  H23  1  0.09108000  0.17642000  0.21117000  1.0
  H  H24  1  0.27626000  0.65980000  0.57244000  1.0
  H  H25  1  0.72373000  0.34019000  0.07244000  1.0
  C  C26  1  0.70794000  0.19309000  0.70275000  1.0
  C  C27  1  0.29206000  0.80690000  0.20275000  1.0
  C  C28  1  0.41043000  0.08145000  0.54135000  1.0
  C  C29  1  0.58958000  0.91855000  0.04134000  1.0
  C  C30  1  0.52501000  0.21183000  0.49402000  1.0
  C  C31  1  0.47501000  0.78818000  0.99401000  1.0
  C  C32  1  0.38638000  0.34327000  0.51578000  1.0
  C  C33  1  0.61361000  0.65672000  0.01577000  1.0
  C  C34  1  0.78869000  0.71874000  0.45568000  1.0
  C  C35  1  0.21133000  0.28127000  0.95567000  1.0
  C  C36  1  0.03529000  0.81797000  0.63214000  1.0
  C  C37  1  0.96473000  0.18202000  0.13213000  1.0
  C  C38  1  0.09996000  0.66842000  0.60110000  1.0
  C  C39  1  0.90004000  0.33159000  0.10112000  1.0
  C  C40  1  0.07309000  0.58166000  0.72630000  1.0
  C  C41  1  0.92691000  0.41834000  0.22628000  1.0
  S  S42  1  0.91800000  0.88566000  0.48038000  1.0
  S  S43  1  0.08201000  0.11434000  0.98038000  1.0
  S  S44  1  0.49476000  0.05680000  0.71307000  1.0
  S  S45  1  0.50525000  0.94320000  0.21306000  1.0
  N  N46  1  0.74099000  0.22477000  0.56297000  1.0
  N  N47  1  0.25899000  0.77523000  0.06297000  1.0
  N  N48  1  0.96186000  0.61867000  0.48909000  1.0
  N  N49  1  0.03816000  0.38133000  0.98908000  1.0
  O  O50  1  0.49244000  0.45329000  0.53880000  1.0
  O  O51  1  0.50754000  0.54671000  0.03881000  1.0
  O  O52  1  0.17747000  0.32885000  0.50442000  1.0
  O  O53  1  0.82251000  0.67115000  0.00440000  1.0
  O  O54  1  0.94184000  0.47927000  0.72556000  1.0
  O  O55  1  0.05811000  0.52073000  0.22556000  1.0
  O  O56  1  0.18839000  0.62333000  0.82328000  1.0
  O  O57  1  0.81163000  0.37665000  0.32328000  1.0
