# generated using pymatgen
data_Zn3H28C38S6(N5O6)2
_symmetry_space_group_name_H-M   'P 1'
_cell_length_a   8.84851000
_cell_length_b   11.50180000
_cell_length_c   12.90360000
_cell_angle_alpha   111.54100000
_cell_angle_beta   108.23000000
_cell_angle_gamma   93.26060000
_symmetry_Int_Tables_number   1
_chemical_formula_structural   Zn3H28C38S6(N5O6)2
_chemical_formula_sum   'Zn3 H28 C38 S6 N10 O12'
_cell_volume   1138.08198315
_cell_formula_units_Z   1
loop_
 _symmetry_equiv_pos_site_id
 _symmetry_equiv_pos_as_xyz
  1  'x, y, z'
loop_
 _atom_site_type_symbol
 _atom_site_label
 _atom_site_symmetry_multiplicity
 _atom_site_fract_x
 _atom_site_fract_y
 _atom_site_fract_z
 _atom_site_occupancy
  Zn  Zn0  1  0.50000000  0.00000000  0.00000000  1.0
  Zn  Zn1  1  0.34880000  0.24792000  0.15033000  1.0
  Zn  Zn2  1  0.65120000  0.75208000  0.84967000  1.0
  H  H3  1  0.05685000  0.79646000  0.02408000  1.0
  H  H4  1  0.94315000  0.20354000  0.97592000  1.0
  H  H5  1  0.99191000  0.93112000  0.11182000  1.0
  H  H6  1  0.00810000  0.06888000  0.88819000  1.0
  H  H7  1  0.30645000  0.29292000  0.79683000  1.0
  H  H8  1  0.69355000  0.70708000  0.20317000  1.0
  H  H9  1  0.11908000  0.18730000  0.74535000  1.0
  H  H10  1  0.88092000  0.81270000  0.25465000  1.0
  H  H11  1  0.93411000  0.25781000  0.21255000  1.0
  H  H12  1  0.06588000  0.74219000  0.78745000  1.0
  H  H13  1  0.82674000  0.11042000  0.19491000  1.0
  H  H14  1  0.17326000  0.88958000  0.80509000  1.0
  H  H15  1  0.15127000  0.42686000  0.05958000  1.0
  H  H16  1  0.84874000  0.57315000  0.94042000  1.0
  H  H17  1  0.98195000  0.58537000  0.13337000  1.0
  H  H18  1  0.01805000  0.41463000  0.86664000  1.0
  H  H19  1  0.98086000  0.64038000  0.34087000  1.0
  H  H20  1  0.01913000  0.35961000  0.65913000  1.0
  H  H21  1  0.14607000  0.53697000  0.46360000  1.0
  H  H22  1  0.85393000  0.46302000  0.53640000  1.0
  H  H23  1  0.31011000  0.46626000  0.56651000  1.0
  H  H24  1  0.68989000  0.53373000  0.43349000  1.0
  H  H25  1  0.47755000  0.34448000  0.66375000  1.0
  H  H26  1  0.52245000  0.65552000  0.33625000  1.0
  H  H27  1  0.59688000  0.17203000  0.54327000  1.0
  H  H28  1  0.40312000  0.82797000  0.45672000  1.0
  H  H29  1  0.54598000  0.13780000  0.33222000  1.0
  H  H30  1  0.45402000  0.86220000  0.66778000  1.0
  C  C31  1  0.16677000  0.98238000  0.34376000  1.0
  C  C32  1  0.83323000  0.01762000  0.65624000  1.0
  C  C33  1  0.21181000  0.07508000  0.54127000  1.0
  C  C34  1  0.78819000  0.92492000  0.45873000  1.0
  C  C35  1  0.04880000  0.14684000  0.41450000  1.0
  C  C36  1  0.95120000  0.85316000  0.58550000  1.0
  C  C37  1  0.09645000  0.89007000  0.09931000  1.0
  C  C38  1  0.90355000  0.10993000  0.90070000  1.0
  C  C39  1  0.21024000  0.97766000  0.07971000  1.0
  C  C40  1  0.78975000  0.02235000  0.92029000  1.0
  C  C41  1  0.25156000  0.19749000  0.78188000  1.0
  C  C42  1  0.74844000  0.80251000  0.21811000  1.0
  C  C43  1  0.30142000  0.18005000  0.89923000  1.0
  C  C44  1  0.69857000  0.81995000  0.10077000  1.0
  C  C45  1  0.84813000  0.21419000  0.23958000  1.0
  C  C46  1  0.15187000  0.78581000  0.76042000  1.0
  C  C47  1  0.69228000  0.26711000  0.21754000  1.0
  C  C48  1  0.30772000  0.73289000  0.78246000  1.0
  C  C49  1  0.14473000  0.45475000  0.14825000  1.0
  C  C50  1  0.85527000  0.54526000  0.85176000  1.0
  C  C51  1  0.05191000  0.54179000  0.18977000  1.0
  C  C52  1  0.94809000  0.45822000  0.81024000  1.0
  C  C53  1  0.05162000  0.57230000  0.30485000  1.0
  C  C54  1  0.94837000  0.42769000  0.69515000  1.0
  C  C55  1  0.14440000  0.51507000  0.37382000  1.0
  C  C56  1  0.85561000  0.48493000  0.62618000  1.0
  C  C57  1  0.23516000  0.42864000  0.32698000  1.0
  C  C58  1  0.76484000  0.57136000  0.67302000  1.0
  C  C59  1  0.33621000  0.36394000  0.39520000  1.0
  C  C60  1  0.66379000  0.63606000  0.60480000  1.0
  C  C61  1  0.36095000  0.39196000  0.51512000  1.0
  C  C62  1  0.63905000  0.60804000  0.48488000  1.0
  C  C63  1  0.45640000  0.32381000  0.57028000  1.0
  C  C64  1  0.54360000  0.67619000  0.42972000  1.0
  C  C65  1  0.52358000  0.22972000  0.50540000  1.0
  C  C66  1  0.47642000  0.77028000  0.49460000  1.0
  C  C67  1  0.49540000  0.20927000  0.38700000  1.0
  C  C68  1  0.50460000  0.79072000  0.61300000  1.0
  S  S69  1  0.20339000  0.86119000  0.22964000  1.0
  S  S70  1  0.79662000  0.13881000  0.77037000  1.0
  S  S71  1  0.31569000  0.07401000  0.67930000  1.0
  S  S72  1  0.68431000  0.92600000  0.32071000  1.0
  S  S73  1  0.93054000  0.25953000  0.39964000  1.0
  S  S74  1  0.06946000  0.74047000  0.60036000  1.0
  N  N75  1  0.24174000  0.98432000  0.45214000  1.0
  N  N76  1  0.75826000  0.01569000  0.54786000  1.0
  N  N77  1  0.11480000  0.15833000  0.52827000  1.0
  N  N78  1  0.88520000  0.84167000  0.47173000  1.0
  N  N79  1  0.06998000  0.06179000  0.31891000  1.0
  N  N80  1  0.93003000  0.93821000  0.68109000  1.0
  N  N81  1  0.23353000  0.39910000  0.21491000  1.0
  N  N82  1  0.76647000  0.60091000  0.78509000  1.0
  N  N83  1  0.40508000  0.27524000  0.33397000  1.0
  N  N84  1  0.59492000  0.72476000  0.66602000  1.0
  O  O85  1  0.32203000  0.93054000  0.04698000  1.0
  O  O86  1  0.67797000  0.06946000  0.95302000  1.0
  O  O87  1  0.18376000  0.09011000  0.09999000  1.0
  O  O88  1  0.81624000  0.90989000  0.90001000  1.0
  O  O89  1  0.33911000  0.07451000  0.89491000  1.0
  O  O90  1  0.66089000  0.92550000  0.10509000  1.0
  O  O91  1  0.29707000  0.27205000  0.99022000  1.0
  O  O92  1  0.70293000  0.72796000  0.00978000  1.0
  O  O93  1  0.55832000  0.18366000  0.14760000  1.0
  O  O94  1  0.44167000  0.81634000  0.85240000  1.0
  O  O95  1  0.69640000  0.38287000  0.26905000  1.0
  O  O96  1  0.30360000  0.61713000  0.73095000  1.0
