# generated using pymatgen
data_CdH4C4(NCl)2
_symmetry_space_group_name_H-M   'P 1'
_cell_length_a   7.11232000
_cell_length_b   7.31881000
_cell_length_c   8.28049000
_cell_angle_alpha   116.21600000
_cell_angle_beta   115.40700000
_cell_angle_gamma   90.00650000
_symmetry_Int_Tables_number   1
_chemical_formula_structural   CdH4C4(NCl)2
_chemical_formula_sum   'Cd2 H8 C8 N4 Cl4'
_cell_volume   339.59285787
_cell_formula_units_Z   2
loop_
 _symmetry_equiv_pos_site_id
 _symmetry_equiv_pos_as_xyz
  1  'x, y, z'
loop_
 _atom_site_type_symbol
 _atom_site_label
 _atom_site_symmetry_multiplicity
 _atom_site_fract_x
 _atom_site_fract_y
 _atom_site_fract_z
 _atom_site_occupancy
  Cd  Cd0  1  0.00000000  0.00000000  0.50000000  1.0
  Cd  Cd1  1  0.50000000  0.00000000  0.50000000  1.0
  H  H2  1  0.65567000  0.58416000  0.66830000  1.0
  H  H3  1  0.01295000  0.58419000  0.66817000  1.0
  H  H4  1  0.34433000  0.41584000  0.33170000  1.0
  H  H5  1  0.98705000  0.41581000  0.33182000  1.0
  H  H6  1  0.66638000  0.75673000  0.01336000  1.0
  H  H7  1  0.34713000  0.75656000  0.01304000  1.0
  H  H8  1  0.33361000  0.24327000  0.98664000  1.0
  H  H9  1  0.65287000  0.24344000  0.98696000  1.0
  C  C10  1  0.80752000  0.65459000  0.80921000  1.0
  C  C11  1  0.00186000  0.65453000  0.80907000  1.0
  C  C12  1  0.19248000  0.34542000  0.19080000  1.0
  C  C13  1  0.99814000  0.34547000  0.19093000  1.0
  C  C14  1  0.81183000  0.74961000  0.99928000  1.0
  C  C15  1  0.18759000  0.74949000  0.99899000  1.0
  C  C16  1  0.18817000  0.25039000  0.00072000  1.0
  C  C17  1  0.81241000  0.25050000  0.00101000  1.0
  N  N18  1  0.99463000  0.83801000  0.17597000  1.0
  N  N19  1  0.18166000  0.83801000  0.17583000  1.0
  N  N20  1  0.00537000  0.16199000  0.82403000  1.0
  N  N21  1  0.81834000  0.16199000  0.82416000  1.0
  Cl  Cl22  1  0.31858000  0.82816000  0.63722000  1.0
  Cl  Cl23  1  0.31856000  0.30901000  0.63722000  1.0
  Cl  Cl24  1  0.68144000  0.69099000  0.36278000  1.0
  Cl  Cl25  1  0.68142000  0.17184000  0.36278000  1.0
