# generated using pymatgen
data_CoH6(C3N2)2
_symmetry_space_group_name_H-M   'P 1'
_cell_length_a   9.24519000
_cell_length_b   10.38590000
_cell_length_c   12.75346197
_cell_angle_alpha   80.77244609
_cell_angle_beta   68.79091889
_cell_angle_gamma   63.61860000
_symmetry_Int_Tables_number   1
_chemical_formula_structural   CoH6(C3N2)2
_chemical_formula_sum   'Co4 H24 C24 N16'
_cell_volume   1022.74254009
_cell_formula_units_Z   4
loop_
 _symmetry_equiv_pos_site_id
 _symmetry_equiv_pos_as_xyz
  1  'x, y, z'
loop_
 _atom_site_type_symbol
 _atom_site_label
 _atom_site_symmetry_multiplicity
 _atom_site_fract_x
 _atom_site_fract_y
 _atom_site_fract_z
 _atom_site_occupancy
  Co  Co0  1  0.63357000  0.41294000  0.86858000  1.0
  Co  Co1  1  0.91569000  0.58704000  0.13124000  1.0
  Co  Co2  1  0.25270000  0.91316000  0.63140000  1.0
  Co  Co3  1  0.79676000  0.08730000  0.36883000  1.0
  H  H4  1  0.62795000  0.10364000  0.90260000  1.0
  H  H5  1  0.63498000  0.89574000  0.09686000  1.0
  H  H6  1  0.28069000  0.60412000  0.59652000  1.0
  H  H7  1  0.48204000  0.39592000  0.40294000  1.0
  H  H8  1  0.92011000  0.86510000  0.79917000  1.0
  H  H9  1  0.58402000  0.13470000  0.20063000  1.0
  H  H10  1  0.46847000  0.36529000  0.70029000  1.0
  H  H11  1  0.53480000  0.63487000  0.29934000  1.0
  H  H12  1  0.02725000  0.23059000  0.72778000  1.0
  H  H13  1  0.98536000  0.77010000  0.27245000  1.0
  H  H14  1  0.50452000  0.73022000  0.77276000  1.0
  H  H15  1  0.00780000  0.27016000  0.22758000  1.0
  H  H16  1  0.53287000  0.36501000  0.14854000  1.0
  H  H17  1  0.04637000  0.63496000  0.85170000  1.0
  H  H18  1  0.43126000  0.86505000  0.35146000  1.0
  H  H19  1  0.64871000  0.13507000  0.64853000  1.0
  H  H20  1  0.18998000  0.44129000  0.27021000  1.0
  H  H21  1  0.90171000  0.55851000  0.72967000  1.0
  H  H22  1  0.21000000  0.94126000  0.22983000  1.0
  H  H23  1  0.38259000  0.05829000  0.77060000  1.0
  H  H24  1  0.25114000  0.49995000  0.92477000  1.0
  H  H25  1  0.67662000  0.49915000  0.07502000  1.0
  H  H26  1  0.92602000  0.00104000  0.57528000  1.0
  H  H27  1  0.50170000  0.99922000  0.42523000  1.0
  C  C28  1  0.75400000  0.09475000  0.84988000  1.0
  C  C29  1  0.69899000  0.90496000  0.14983000  1.0
  C  C30  1  0.35371000  0.59504000  0.64960000  1.0
  C  C31  1  0.59896000  0.40513000  0.35011000  1.0
  C  C32  1  0.89958000  0.97638000  0.79901000  1.0
  C  C33  1  0.67471000  0.02355000  0.20092000  1.0
  C  C34  1  0.44790000  0.47653000  0.70063000  1.0
  C  C35  1  0.62573000  0.52368000  0.29911000  1.0
  C  C36  1  0.95809000  0.16355000  0.76101000  1.0
  C  C37  1  0.88267000  0.83688000  0.23892000  1.0
  C  C38  1  0.46878000  0.66339000  0.73903000  1.0
  C  C39  1  0.87160000  0.33691000  0.26108000  1.0
  C  C40  1  0.42396000  0.40397000  0.11935000  1.0
  C  C41  1  0.94745000  0.59576000  0.88071000  1.0
  C  C42  1  0.29319000  0.90434000  0.38068000  1.0
  C  C43  1  0.57883000  0.09574000  0.61953000  1.0
  C  C44  1  0.25336000  0.44255000  0.18017000  1.0
  C  C45  1  0.87628000  0.55715000  0.81974000  1.0
  C  C46  1  0.18328000  0.94287000  0.31988000  1.0
  C  C47  1  0.44696000  0.05699000  0.68051000  1.0
  C  C48  1  0.28079000  0.47384000  0.00245000  1.0
  C  C49  1  0.75760000  0.52553000  0.99739000  1.0
  C  C50  1  0.03326000  0.97462000  0.49759000  1.0
  C  C51  1  0.50519000  0.02571000  0.50283000  1.0
  N  N52  1  0.44064000  0.42438000  0.00640000  1.0
  N  N53  1  0.87178000  0.57516000  0.99359000  1.0
  N  N54  1  0.19705000  0.92502000  0.49362000  1.0
  N  N55  1  0.61556000  0.07538000  0.50661000  1.0
  N  N56  1  0.79181000  0.21329000  0.82535000  1.0
  N  N57  1  0.83098000  0.78678000  0.17436000  1.0
  N  N58  1  0.36727000  0.71336000  0.67435000  1.0
  N  N59  1  0.75540000  0.28689000  0.32557000  1.0
  N  N60  1  0.02879000  0.02079000  0.74275000  1.0
  N  N61  1  0.79185000  0.97960000  0.25733000  1.0
  N  N62  1  0.52082000  0.52064000  0.75723000  1.0
  N  N63  1  0.79922000  0.47963000  0.24275000  1.0
  N  N64  1  0.16305000  0.48696000  0.10522000  1.0
  N  N65  1  0.75561000  0.51253000  0.89457000  1.0
  N  N66  1  0.01814000  0.98752000  0.39482000  1.0
  N  N67  1  0.40080000  0.01253000  0.60567000  1.0
