# generated using pymatgen
data_ZnH12C14N2O5
_symmetry_space_group_name_H-M   'P 1'
_cell_length_a   7.11039000
_cell_length_b   11.22920000
_cell_length_c   19.03600000
_cell_angle_alpha   89.99940000
_cell_angle_beta   89.99980000
_cell_angle_gamma   89.99830000
_symmetry_Int_Tables_number   1
_chemical_formula_structural   ZnH12C14N2O5
_chemical_formula_sum   'Zn4 H48 C56 N8 O20'
_cell_volume   1519.91021930
_cell_formula_units_Z   4
loop_
 _symmetry_equiv_pos_site_id
 _symmetry_equiv_pos_as_xyz
  1  'x, y, z'
loop_
 _atom_site_type_symbol
 _atom_site_label
 _atom_site_symmetry_multiplicity
 _atom_site_fract_x
 _atom_site_fract_y
 _atom_site_fract_z
 _atom_site_occupancy
  Zn  Zn0  1  0.88496000  0.32554000  0.83573000  1.0
  Zn  Zn1  1  0.61505000  0.67445000  0.33573000  1.0
  Zn  Zn2  1  0.11501000  0.82555000  0.66427000  1.0
  Zn  Zn3  1  0.38496000  0.17446000  0.16427000  1.0
  H  H4  1  0.95274000  0.05460000  0.79707000  1.0
  H  H5  1  0.54725000  0.94539000  0.29707000  1.0
  H  H6  1  0.04727000  0.55460000  0.70293000  1.0
  H  H7  1  0.45273000  0.44540000  0.20293000  1.0
  H  H8  1  0.99414000  0.86534000  0.86261000  1.0
  H  H9  1  0.50583000  0.13465000  0.36260000  1.0
  H  H10  1  0.00585000  0.36534000  0.63740000  1.0
  H  H11  1  0.49415000  0.63466000  0.13740000  1.0
  H  H12  1  0.98477000  0.87212000  0.99638000  1.0
  H  H13  1  0.51522000  0.12787000  0.49637000  1.0
  H  H14  1  0.01525000  0.37212000  0.50363000  1.0
  H  H15  1  0.48476000  0.62789000  0.00363000  1.0
  H  H16  1  0.94757000  0.06807000  0.05601000  1.0
  H  H17  1  0.55243000  0.93192000  0.55601000  1.0
  H  H18  1  0.05246000  0.56807000  0.44399000  1.0
  H  H19  1  0.44757000  0.43194000  0.94399000  1.0
  H  H20  1  0.95051000  0.23915000  0.09768000  1.0
  H  H21  1  0.54948000  0.76084000  0.59769000  1.0
  H  H22  1  0.04949000  0.73914000  0.40232000  1.0
  H  H23  1  0.45049000  0.26086000  0.90232000  1.0
  H  H24  1  0.97241000  0.44760000  0.13722000  1.0
  H  H25  1  0.52760000  0.55240000  0.63722000  1.0
  H  H26  1  0.02757000  0.94758000  0.36277000  1.0
  H  H27  1  0.47243000  0.05242000  0.86278000  1.0
  H  H28  1  0.95887000  0.61318000  0.04735000  1.0
  H  H29  1  0.54115000  0.38682000  0.54736000  1.0
  H  H30  1  0.04108000  0.11317000  0.45264000  1.0
  H  H31  1  0.45895000  0.88683000  0.95265000  1.0
  H  H32  1  0.91314000  0.55688000  0.91972000  1.0
  H  H33  1  0.58687000  0.44311000  0.41973000  1.0
  H  H34  1  0.08681000  0.05689000  0.58027000  1.0
  H  H35  1  0.41320000  0.94312000  0.08028000  1.0
  H  H36  1  0.66111000  0.34956000  0.68623000  1.0
  H  H37  1  0.83890000  0.65045000  0.18624000  1.0
  H  H38  1  0.33886000  0.84956000  0.81377000  1.0
  H  H39  1  0.16111000  0.15045000  0.31376000  1.0
  H  H40  1  0.35705000  0.23211000  0.69392000  1.0
  H  H41  1  0.14296000  0.76790000  0.19393000  1.0
  H  H42  1  0.64293000  0.73212000  0.80608000  1.0
  H  H43  1  0.85704000  0.26789000  0.30607000  1.0
  H  H44  1  0.33249000  0.38408000  0.67159000  1.0
  H  H45  1  0.16752000  0.61594000  0.17160000  1.0
  H  H46  1  0.66748000  0.88408000  0.82841000  1.0
  H  H47  1  0.83249000  0.11593000  0.32840000  1.0
  H  H48  1  0.59637000  0.17763000  0.76723000  1.0
  H  H49  1  0.90363000  0.82238000  0.26724000  1.0
  H  H50  1  0.40361000  0.67763000  0.73276000  1.0
  H  H51  1  0.09637000  0.32238000  0.23276000  1.0
  C  C52  1  0.95378000  0.05379000  0.85440000  1.0
  C  C53  1  0.54620000  0.94620000  0.35440000  1.0
  C  C54  1  0.04621000  0.55379000  0.64560000  1.0
  C  C55  1  0.45379000  0.44621000  0.14560000  1.0
  C  C56  1  0.97643000  0.94801000  0.89194000  1.0
  C  C57  1  0.52356000  0.05198000  0.39193000  1.0
  C  C58  1  0.02358000  0.44801000  0.60807000  1.0
  C  C59  1  0.47642000  0.55199000  0.10807000  1.0
  C  C60  1  0.97121000  0.95311000  0.96511000  1.0
  C  C61  1  0.52878000  0.04688000  0.46511000  1.0
  C  C62  1  0.02881000  0.45311000  0.53489000  1.0
  C  C63  1  0.47120000  0.54689000  0.03489000  1.0
  C  C64  1  0.95129000  0.06263000  0.99885000  1.0
  C  C65  1  0.54871000  0.93736000  0.49885000  1.0
  C  C66  1  0.04874000  0.56263000  0.50115000  1.0
  C  C67  1  0.45128000  0.43737000  0.00115000  1.0
  C  C68  1  0.93654000  0.16530000  0.95741000  1.0
  C  C69  1  0.56346000  0.83470000  0.45741000  1.0
  C  C70  1  0.06347000  0.66530000  0.54259000  1.0
  C  C71  1  0.43654000  0.33470000  0.04259000  1.0
  C  C72  1  0.93173000  0.28726000  0.98710000  1.0
  C  C73  1  0.56827000  0.71274000  0.48710000  1.0
  C  C74  1  0.06826000  0.78726000  0.51290000  1.0
  C  C75  1  0.43174000  0.21274000  0.01290000  1.0
  C  C76  1  0.94791000  0.31074000  0.05896000  1.0
  C  C77  1  0.55209000  0.68926000  0.55896000  1.0
  C  C78  1  0.05208000  0.81073000  0.44104000  1.0
  C  C79  1  0.44791000  0.18927000  0.94104000  1.0
  C  C80  1  0.95780000  0.42879000  0.08119000  1.0
  C  C81  1  0.54221000  0.57121000  0.58119000  1.0
  C  C82  1  0.04218000  0.92877000  0.41881000  1.0
  C  C83  1  0.45783000  0.07122000  0.91881000  1.0
  C  C84  1  0.94985000  0.52001000  0.03157000  1.0
  C  C85  1  0.55016000  0.47998000  0.53158000  1.0
  C  C86  1  0.05011000  0.02001000  0.46842000  1.0
  C  C87  1  0.44991000  0.97999000  0.96843000  1.0
  C  C88  1  0.92702000  0.49025000  0.96107000  1.0
  C  C89  1  0.57299000  0.50975000  0.46108000  1.0
  C  C90  1  0.07295000  0.99024000  0.53892000  1.0
  C  C91  1  0.42707000  0.00976000  0.03893000  1.0
  C  C92  1  0.60227000  0.46964000  0.76951000  1.0
  C  C93  1  0.89776000  0.53036000  0.26952000  1.0
  C  C94  1  0.39770000  0.96964000  0.73049000  1.0
  C  C95  1  0.10228000  0.03036000  0.23048000  1.0
  C  C96  1  0.57474000  0.34709000  0.73480000  1.0
  C  C97  1  0.92527000  0.65292000  0.23481000  1.0
  C  C98  1  0.42523000  0.84710000  0.76519000  1.0
  C  C99  1  0.07474000  0.15291000  0.26519000  1.0
  C  C100  1  0.37201000  0.32333000  0.71431000  1.0
  C  C101  1  0.12800000  0.67667000  0.21432000  1.0
  C  C102  1  0.62796000  0.82334000  0.78569000  1.0
  C  C103  1  0.87201000  0.17667000  0.28568000  1.0
  C  C104  1  0.23061000  0.33946000  0.77356000  1.0
  C  C105  1  0.26942000  0.66054000  0.27356000  1.0
  C  C106  1  0.76938000  0.83946000  0.72644000  1.0
  C  C107  1  0.73059000  0.16054000  0.22644000  1.0
  N  N108  1  0.93286000  0.15898000  0.88650000  1.0
  N  N109  1  0.56713000  0.84101000  0.38650000  1.0
  N  N110  1  0.06714000  0.65898000  0.61350000  1.0
  N  N111  1  0.43286000  0.34102000  0.11350000  1.0
  N  N112  1  0.91854000  0.37667000  0.93981000  1.0
  N  N113  1  0.58147000  0.62333000  0.43981000  1.0
  N  N114  1  0.08144000  0.87667000  0.56019000  1.0
  N  N115  1  0.41856000  0.12333000  0.06019000  1.0
  O  O116  1  0.72659000  0.47830000  0.81765000  1.0
  O  O117  1  0.77344000  0.52170000  0.31766000  1.0
  O  O118  1  0.27338000  0.97831000  0.68234000  1.0
  O  O119  1  0.22660000  0.02170000  0.18234000  1.0
  O  O120  1  0.50697000  0.55412000  0.74465000  1.0
  O  O121  1  0.99306000  0.44589000  0.24465000  1.0
  O  O122  1  0.49299000  0.05413000  0.75535000  1.0
  O  O123  1  0.00698000  0.94588000  0.25534000  1.0
  O  O124  1  0.64846000  0.25764000  0.78056000  1.0
  O  O125  1  0.85156000  0.74236000  0.28058000  1.0
  O  O126  1  0.35153000  0.75765000  0.71943000  1.0
  O  O127  1  0.14844000  0.24235000  0.21942000  1.0
  O  O128  1  0.27919000  0.36939000  0.83408000  1.0
  O  O129  1  0.22083000  0.63061000  0.33408000  1.0
  O  O130  1  0.72079000  0.86938000  0.66592000  1.0
  O  O131  1  0.77918000  0.13062000  0.16592000  1.0
  O  O132  1  0.05758000  0.31926000  0.75475000  1.0
  O  O133  1  0.44244000  0.68072000  0.25475000  1.0
  O  O134  1  0.94241000  0.81928000  0.74526000  1.0
  O  O135  1  0.55757000  0.18072000  0.24525000  1.0
