# generated using pymatgen
data_Cu2H14C19Br2N4O
_symmetry_space_group_name_H-M   'P 1'
_cell_length_a   7.03844000
_cell_length_b   11.64870000
_cell_length_c   11.64870000
_cell_angle_alpha   83.86460000
_cell_angle_beta   75.00060000
_cell_angle_gamma   75.00060000
_symmetry_Int_Tables_number   1
_chemical_formula_structural   Cu2H14C19Br2N4O
_chemical_formula_sum   'Cu4 H28 C38 Br4 N8 O2'
_cell_volume   890.27446766
_cell_formula_units_Z   2
loop_
 _symmetry_equiv_pos_site_id
 _symmetry_equiv_pos_as_xyz
  1  'x, y, z'
loop_
 _atom_site_type_symbol
 _atom_site_label
 _atom_site_symmetry_multiplicity
 _atom_site_fract_x
 _atom_site_fract_y
 _atom_site_fract_z
 _atom_site_occupancy
  Cu  Cu0  1  0.75000000  0.68639000  0.31361000  1.0
  Cu  Cu1  1  0.25000000  0.31361000  0.68639000  1.0
  Cu  Cu2  1  0.75000000  0.50833000  0.49167000  1.0
  Cu  Cu3  1  0.25000000  0.49167000  0.50833000  1.0
  H  H4  1  0.09857000  0.45186000  0.27902000  1.0
  H  H5  1  0.40144000  0.72098000  0.54814000  1.0
  H  H6  1  0.90144000  0.54814000  0.72098000  1.0
  H  H7  1  0.59856000  0.27902000  0.45186000  1.0
  H  H8  1  0.95218000  0.74823000  0.04800000  1.0
  H  H9  1  0.54782000  0.95200000  0.25177000  1.0
  H  H10  1  0.04783000  0.25177000  0.95200000  1.0
  H  H11  1  0.45217000  0.04800000  0.74823000  1.0
  H  H12  1  0.25642000  0.57395000  0.91690000  1.0
  H  H13  1  0.24358000  0.08310000  0.42606000  1.0
  H  H14  1  0.74358000  0.42605000  0.08310000  1.0
  H  H15  1  0.75642000  0.91690000  0.57395000  1.0
  H  H16  1  0.39470000  0.32107000  0.24203000  1.0
  H  H17  1  0.10530000  0.75797000  0.67893000  1.0
  H  H18  1  0.60531000  0.67893000  0.75797000  1.0
  H  H19  1  0.89469000  0.24203000  0.32107000  1.0
  H  H20  1  0.62389000  0.12361000  0.18914000  1.0
  H  H21  1  0.87610000  0.81086000  0.87639000  1.0
  H  H22  1  0.37611000  0.87639000  0.81086000  1.0
  H  H23  1  0.12389000  0.18914000  0.12361000  1.0
  H  H24  1  0.58526000  0.19648000  0.82425000  1.0
  H  H25  1  0.91475000  0.17575000  0.80352000  1.0
  H  H26  1  0.41474000  0.80352000  0.17575000  1.0
  H  H27  1  0.08526000  0.82425000  0.19648000  1.0
  H  H28  1  0.36361000  0.39105000  0.87379000  1.0
  H  H29  1  0.13640000  0.12620000  0.60895000  1.0
  H  H30  1  0.63640000  0.60895000  0.12621000  1.0
  H  H31  1  0.86360000  0.87379000  0.39105000  1.0
  C  C32  1  0.10035000  0.50971000  0.19933000  1.0
  C  C33  1  0.39965000  0.80066000  0.49029000  1.0
  C  C34  1  0.89965000  0.49029000  0.80066000  1.0
  C  C35  1  0.60034000  0.19933000  0.50971000  1.0
  C  C36  1  0.02816000  0.65990000  0.07514000  1.0
  C  C37  1  0.47184000  0.92486000  0.34010000  1.0
  C  C38  1  0.97185000  0.34010000  0.92486000  1.0
  C  C39  1  0.52815000  0.07514000  0.65990000  1.0
  C  C40  1  0.17764000  0.57484000  0.01010000  1.0
  C  C41  1  0.32236000  0.98990000  0.42516000  1.0
  C  C42  1  0.82236000  0.42516000  0.98990000  1.0
  C  C43  1  0.67763000  0.01010000  0.57484000  1.0
  C  C44  1  0.36205000  0.36875000  0.06145000  1.0
  C  C45  1  0.13795000  0.93855000  0.63125000  1.0
  C  C46  1  0.63795000  0.63125000  0.93856000  1.0
  C  C47  1  0.86204000  0.06145000  0.36875000  1.0
  C  C48  1  0.43578000  0.29313000  0.15066000  1.0
  C  C49  1  0.06422000  0.84934000  0.70687000  1.0
  C  C50  1  0.56423000  0.70687000  0.84934000  1.0
  C  C51  1  0.93577000  0.15066000  0.29313000  1.0
  C  C52  1  0.56427000  0.18242000  0.12090000  1.0
  C  C53  1  0.93573000  0.87910000  0.81758000  1.0
  C  C54  1  0.43574000  0.81758000  0.87910000  1.0
  C  C55  1  0.06427000  0.12090000  0.18242000  1.0
  C  C56  1  0.62315000  0.14544000  0.00318000  1.0
  C  C57  1  0.87685000  0.99682000  0.85455000  1.0
  C  C58  1  0.37685000  0.85455000  0.99682000  1.0
  C  C59  1  0.12315000  0.00318000  0.14545000  1.0
  C  C60  1  0.54934000  0.22329000  0.91546000  1.0
  C  C61  1  0.95067000  0.08454000  0.77671000  1.0
  C  C62  1  0.45066000  0.77671000  0.08455000  1.0
  C  C63  1  0.04933000  0.91546000  0.22329000  1.0
  C  C64  1  0.42066000  0.33393000  0.94384000  1.0
  C  C65  1  0.07935000  0.05616000  0.66607000  1.0
  C  C66  1  0.57934000  0.66607000  0.05616000  1.0
  C  C67  1  0.92065000  0.94384000  0.33393000  1.0
  C  C68  1  0.75000000  0.02327000  0.97673000  1.0
  C  C69  1  0.25000000  0.97673000  0.02327000  1.0
  Br  Br70  1  0.56713000  0.48797000  0.34180000  1.0
  Br  Br71  1  0.93287000  0.65820000  0.51203000  1.0
  Br  Br72  1  0.43288000  0.51203000  0.65820000  1.0
  Br  Br73  1  0.06712000  0.34180000  0.48797000  1.0
  N  N74  1  0.97954000  0.61762000  0.19278000  1.0
  N  N75  1  0.52046000  0.80722000  0.38238000  1.0
  N  N76  1  0.02046000  0.38238000  0.80722000  1.0
  N  N77  1  0.47953000  0.19278000  0.61762000  1.0
  N  N78  1  0.22350000  0.47983000  0.08973000  1.0
  N  N79  1  0.27650000  0.91027000  0.52017000  1.0
  N  N80  1  0.77650000  0.52017000  0.91027000  1.0
  N  N81  1  0.72349000  0.08973000  0.47983000  1.0
  O  O82  1  0.75000000  0.94336000  0.05664000  1.0
  O  O83  1  0.25000000  0.05664000  0.94336000  1.0
