# generated using pymatgen
data_GdH16C9NO7
_symmetry_space_group_name_H-M   'P 1'
_cell_length_a   8.20390000
_cell_length_b   9.36927000
_cell_length_c   16.99040000
_cell_angle_alpha   90.00000000
_cell_angle_beta   89.99990000
_cell_angle_gamma   93.88360000
_symmetry_Int_Tables_number   1
_chemical_formula_structural   GdH16C9NO7
_chemical_formula_sum   'Gd4 H64 C36 N4 O28'
_cell_volume   1302.96065420
_cell_formula_units_Z   4
loop_
 _symmetry_equiv_pos_site_id
 _symmetry_equiv_pos_as_xyz
  1  'x, y, z'
loop_
 _atom_site_type_symbol
 _atom_site_label
 _atom_site_symmetry_multiplicity
 _atom_site_fract_x
 _atom_site_fract_y
 _atom_site_fract_z
 _atom_site_occupancy
  Gd  Gd0  1  0.70270000  0.41082000  0.24286000  1.0
  Gd  Gd1  1  0.79729000  0.58918000  0.74286000  1.0
  Gd  Gd2  1  0.29729000  0.58918000  0.75714000  1.0
  Gd  Gd3  1  0.20271000  0.41082000  0.25714000  1.0
  H  H4  1  0.11343000  0.39700000  0.03321000  1.0
  H  H5  1  0.38657000  0.60300000  0.53321000  1.0
  H  H6  1  0.88657000  0.60300000  0.96679000  1.0
  H  H7  1  0.61343000  0.39700000  0.46679000  1.0
  H  H8  1  0.93448000  0.32621000  0.98176000  1.0
  H  H9  1  0.56552000  0.67378000  0.48176000  1.0
  H  H10  1  0.06552000  0.67378000  0.01824000  1.0
  H  H11  1  0.43448000  0.32622000  0.51824000  1.0
  H  H12  1  0.04553000  0.21646000  0.04812000  1.0
  H  H13  1  0.45447000  0.78354000  0.54812000  1.0
  H  H14  1  0.95447000  0.78354000  0.95188000  1.0
  H  H15  1  0.54553000  0.21646000  0.45188000  1.0
  H  H16  1  0.40648000  0.64848000  0.01654000  1.0
  H  H17  1  0.09352000  0.35152000  0.51654000  1.0
  H  H18  1  0.59352000  0.35152000  0.98346000  1.0
  H  H19  1  0.90648000  0.64848000  0.48346000  1.0
  H  H20  1  0.59640000  0.59621000  0.05881000  1.0
  H  H21  1  0.90360000  0.40379000  0.55881000  1.0
  H  H22  1  0.40359000  0.40379000  0.94119000  1.0
  H  H23  1  0.09640000  0.59621000  0.44119000  1.0
  H  H24  1  0.51099000  0.75447000  0.09109000  1.0
  H  H25  1  0.98901000  0.24553000  0.59109000  1.0
  H  H26  1  0.48901000  0.24553000  0.90891000  1.0
  H  H27  1  0.01099000  0.75447000  0.40891000  1.0
  H  H28  1  0.32659000  0.11289000  0.04124000  1.0
  H  H29  1  0.17341000  0.88711000  0.54124000  1.0
  H  H30  1  0.67341000  0.88711000  0.95876000  1.0
  H  H31  1  0.82659000  0.11289000  0.45876000  1.0
  H  H32  1  0.42352000  0.97970000  0.09553000  1.0
  H  H33  1  0.07648000  0.02030000  0.59553000  1.0
  H  H34  1  0.57648000  0.02030000  0.90447000  1.0
  H  H35  1  0.92352000  0.97970000  0.40447000  1.0
  H  H36  1  0.54537000  0.11627000  0.04712000  1.0
  H  H37  1  0.95463000  0.88373000  0.54712000  1.0
  H  H38  1  0.45463000  0.88373000  0.95288000  1.0
  H  H39  1  0.04537000  0.11627000  0.45288000  1.0
  H  H40  1  0.00914000  0.65936000  0.17289000  1.0
  H  H41  1  0.49086000  0.34064000  0.67289000  1.0
  H  H42  1  0.99086000  0.34064000  0.82711000  1.0
  H  H43  1  0.50914000  0.65936000  0.32711000  1.0
  H  H44  1  0.16781000  0.83504000  0.13891000  1.0
  H  H45  1  0.33219000  0.16496000  0.63891000  1.0
  H  H46  1  0.83219000  0.16496000  0.86109000  1.0
  H  H47  1  0.66781000  0.83504000  0.36109000  1.0
  H  H48  1  0.12023000  0.01258000  0.16770000  1.0
  H  H49  1  0.37977000  0.98742000  0.66771000  1.0
  H  H50  1  0.87977000  0.98742000  0.83230000  1.0
  H  H51  1  0.62023000  0.01258000  0.33230000  1.0
  H  H52  1  0.06743000  0.94698000  0.07191000  1.0
  H  H53  1  0.43257000  0.05302000  0.57191000  1.0
  H  H54  1  0.93257000  0.05302000  0.92809000  1.0
  H  H55  1  0.56743000  0.94698000  0.42809000  1.0
  H  H56  1  0.68369000  0.89820000  0.19545000  1.0
  H  H57  1  0.81631000  0.10180000  0.69545000  1.0
  H  H58  1  0.31631000  0.10180000  0.80455000  1.0
  H  H59  1  0.18369000  0.89820000  0.30455000  1.0
  H  H60  1  0.76087000  0.99472000  0.11098000  1.0
  H  H61  1  0.73913000  0.00528000  0.61098000  1.0
  H  H62  1  0.23913000  0.00528000  0.88902000  1.0
  H  H63  1  0.26087000  0.99472000  0.38902000  1.0
  H  H64  1  0.83015000  0.04797000  0.20615000  1.0
  H  H65  1  0.66986000  0.95203000  0.70615000  1.0
  H  H66  1  0.16985000  0.95203000  0.79385000  1.0
  H  H67  1  0.33014000  0.04797000  0.29385000  1.0
  C  C68  1  0.90114000  0.36682000  0.10488000  1.0
  C  C69  1  0.59886000  0.63318000  0.60488000  1.0
  C  C70  1  0.09886000  0.63318000  0.89512000  1.0
  C  C71  1  0.40114000  0.36682000  0.39512000  1.0
  C  C72  1  0.00359000  0.32342000  0.03677000  1.0
  C  C73  1  0.49641000  0.67658000  0.53677000  1.0
  C  C74  1  0.99641000  0.67658000  0.96323000  1.0
  C  C75  1  0.50359000  0.32342000  0.46323000  1.0
  C  C76  1  0.38703000  0.56474000  0.13374000  1.0
  C  C77  1  0.11297000  0.43526000  0.63374000  1.0
  C  C78  1  0.61297000  0.43526000  0.86626000  1.0
  C  C79  1  0.88703000  0.56474000  0.36626000  1.0
  C  C80  1  0.48092000  0.64478000  0.07002000  1.0
  C  C81  1  0.01908000  0.35522000  0.57002000  1.0
  C  C82  1  0.51908000  0.35522000  0.92998000  1.0
  C  C83  1  0.98092000  0.64478000  0.42998000  1.0
  C  C84  1  0.43009000  0.18366000  0.15318000  1.0
  C  C85  1  0.06991000  0.81634000  0.65318000  1.0
  C  C86  1  0.56991000  0.81634000  0.84682000  1.0
  C  C87  1  0.93009000  0.18366000  0.34682000  1.0
  C  C88  1  0.43080000  0.09344000  0.07913000  1.0
  C  C89  1  0.06920000  0.90657000  0.57913000  1.0
  C  C90  1  0.56920000  0.90656000  0.92087000  1.0
  C  C91  1  0.93080000  0.09344000  0.42087000  1.0
  C  C92  1  0.89922000  0.71881000  0.18145000  1.0
  C  C93  1  0.60077000  0.28119000  0.68145000  1.0
  C  C94  1  0.10078000  0.28119000  0.81855000  1.0
  C  C95  1  0.39923000  0.71882000  0.31855000  1.0
  C  C96  1  0.07851000  0.91658000  0.13426000  1.0
  C  C97  1  0.42149000  0.08342000  0.63427000  1.0
  C  C98  1  0.92149000  0.08342000  0.86574000  1.0
  C  C99  1  0.57851000  0.91658000  0.36573000  1.0
  C  C100  1  0.79163000  0.95509000  0.16971000  1.0
  C  C101  1  0.70837000  0.04491000  0.66971000  1.0
  C  C102  1  0.20837000  0.04491000  0.83029000  1.0
  C  C103  1  0.29163000  0.95509000  0.33029000  1.0
  N  N104  1  0.92197000  0.85797000  0.16398000  1.0
  N  N105  1  0.57803000  0.14203000  0.66398000  1.0
  N  N106  1  0.07803000  0.14203000  0.83602000  1.0
  N  N107  1  0.42197000  0.85797000  0.33602000  1.0
  O  O108  1  0.95915000  0.36043000  0.17564000  1.0
  O  O109  1  0.54085000  0.63957000  0.67564000  1.0
  O  O110  1  0.04085000  0.63957000  0.82436000  1.0
  O  O111  1  0.45915000  0.36043000  0.32436000  1.0
  O  O112  1  0.75869000  0.40726000  0.09511000  1.0
  O  O113  1  0.74132000  0.59274000  0.59511000  1.0
  O  O114  1  0.24131000  0.59274000  0.90489000  1.0
  O  O115  1  0.25869000  0.40726000  0.40489000  1.0
  O  O116  1  0.46274000  0.50189000  0.18875000  1.0
  O  O117  1  0.03726000  0.49812000  0.68875000  1.0
  O  O118  1  0.53726000  0.49811000  0.81125000  1.0
  O  O119  1  0.96274000  0.50188000  0.31125000  1.0
  O  O120  1  0.23183000  0.55972000  0.13518000  1.0
  O  O121  1  0.26816000  0.44028000  0.63518000  1.0
  O  O122  1  0.76817000  0.44028000  0.86482000  1.0
  O  O123  1  0.73184000  0.55972000  0.36482000  1.0
  O  O124  1  0.56537000  0.20591000  0.18904000  1.0
  O  O125  1  0.93463000  0.79409000  0.68904000  1.0
  O  O126  1  0.43463000  0.79409000  0.81096000  1.0
  O  O127  1  0.06537000  0.20591000  0.31096000  1.0
  O  O128  1  0.29433000  0.22849000  0.17524000  1.0
  O  O129  1  0.20567000  0.77151000  0.67524000  1.0
  O  O130  1  0.70567000  0.77151000  0.82476000  1.0
  O  O131  1  0.79433000  0.22849000  0.32476000  1.0
  O  O132  1  0.76661000  0.65977000  0.20545000  1.0
  O  O133  1  0.73340000  0.34023000  0.70546000  1.0
  O  O134  1  0.23339000  0.34023000  0.79455000  1.0
  O  O135  1  0.26661000  0.65977000  0.29454000  1.0
