# generated using pymatgen
data_LiH7(C8O3)2
_symmetry_space_group_name_H-M   'P 1'
_cell_length_a   8.12962000
_cell_length_b   10.64160000
_cell_length_c   14.59540000
_cell_angle_alpha   90.00000000
_cell_angle_beta   103.49000000
_cell_angle_gamma   89.99990000
_symmetry_Int_Tables_number   1
_chemical_formula_structural   LiH7(C8O3)2
_chemical_formula_sum   'Li4 H28 C64 O24'
_cell_volume   1227.84313004
_cell_formula_units_Z   4
loop_
 _symmetry_equiv_pos_site_id
 _symmetry_equiv_pos_as_xyz
  1  'x, y, z'
loop_
 _atom_site_type_symbol
 _atom_site_label
 _atom_site_symmetry_multiplicity
 _atom_site_fract_x
 _atom_site_fract_y
 _atom_site_fract_z
 _atom_site_occupancy
  Li  Li0  1  0.92670000  0.90828000  0.37080000  1.0
  Li  Li1  1  0.07329000  0.40828000  0.12920000  1.0
  Li  Li2  1  0.07330000  0.09172000  0.62920000  1.0
  Li  Li3  1  0.92671000  0.59172000  0.87080000  1.0
  H  H4  1  0.13296000  0.84395000  0.70295000  1.0
  H  H5  1  0.86704000  0.34395000  0.79705000  1.0
  H  H6  1  0.86704000  0.15605000  0.29705000  1.0
  H  H7  1  0.13296000  0.65605000  0.20295000  1.0
  H  H8  1  0.44298000  0.36443000  0.26977000  1.0
  H  H9  1  0.55702000  0.86443000  0.23023000  1.0
  H  H10  1  0.55702000  0.63557000  0.73023000  1.0
  H  H11  1  0.44298000  0.13557000  0.76977000  1.0
  H  H12  1  0.47980000  0.13241000  0.25330000  1.0
  H  H13  1  0.52020000  0.63241000  0.24670000  1.0
  H  H14  1  0.52019000  0.86760000  0.74670000  1.0
  H  H15  1  0.47981000  0.36759000  0.75330000  1.0
  H  H16  1  0.40541000  0.98683000  0.37149000  1.0
  H  H17  1  0.59459000  0.48683000  0.12851000  1.0
  H  H18  1  0.59459000  0.01317000  0.62851000  1.0
  H  H19  1  0.40541000  0.51317000  0.87149000  1.0
  H  H20  1  0.29674000  0.07126000  0.50387000  1.0
  H  H21  1  0.70326000  0.57126000  0.99613000  1.0
  H  H22  1  0.70326000  0.92874000  0.49613000  1.0
  H  H23  1  0.29674000  0.42874000  0.00387000  1.0
  H  H24  1  0.11880000  0.43659000  0.67249000  1.0
  H  H25  1  0.88120000  0.93659000  0.82751000  1.0
  H  H26  1  0.88120000  0.56341000  0.32751000  1.0
  H  H27  1  0.11880000  0.06341000  0.17249000  1.0
  H  H28  1  0.26053000  0.72184000  0.43448000  1.0
  H  H29  1  0.73947000  0.22184000  0.06552000  1.0
  H  H30  1  0.73947000  0.27816000  0.56552000  1.0
  H  H31  1  0.26053000  0.77816000  0.93448000  1.0
  C  C32  1  0.33651000  0.48507000  0.40486000  1.0
  C  C33  1  0.66349000  0.98507000  0.09514000  1.0
  C  C34  1  0.66348000  0.51493000  0.59514000  1.0
  C  C35  1  0.33651000  0.01493000  0.90486000  1.0
  C  C36  1  0.26069000  0.53174000  0.48175000  1.0
  C  C37  1  0.73931000  0.03174000  0.01824000  1.0
  C  C38  1  0.73931000  0.46826000  0.51824000  1.0
  C  C39  1  0.26069000  0.96826000  0.98176000  1.0
  C  C40  1  0.21876000  0.44968000  0.54866000  1.0
  C  C41  1  0.78124000  0.94968000  0.95134000  1.0
  C  C42  1  0.78124000  0.55032000  0.45134000  1.0
  C  C43  1  0.21876000  0.05032000  0.04866000  1.0
  C  C44  1  0.24182000  0.31198000  0.54168000  1.0
  C  C45  1  0.75818000  0.81198000  0.95832000  1.0
  C  C46  1  0.75818000  0.68802000  0.45832000  1.0
  C  C47  1  0.24182000  0.18802000  0.04168000  1.0
  C  C48  1  0.30940000  0.26472000  0.46249000  1.0
  C  C49  1  0.69060000  0.76472000  0.03751000  1.0
  C  C50  1  0.69061000  0.73528000  0.53751000  1.0
  C  C51  1  0.30939000  0.23528000  0.96249000  1.0
  C  C52  1  0.35148000  0.34745000  0.39551000  1.0
  C  C53  1  0.64852000  0.84745000  0.10449000  1.0
  C  C54  1  0.64852000  0.65255000  0.60449000  1.0
  C  C55  1  0.35148000  0.15255000  0.89551000  1.0
  C  C56  1  0.41182000  0.29885000  0.32054000  1.0
  C  C57  1  0.58818000  0.79885000  0.17946000  1.0
  C  C58  1  0.58818000  0.70116000  0.67946000  1.0
  C  C59  1  0.41182000  0.20116000  0.82054000  1.0
  C  C60  1  0.43145000  0.16968000  0.31143000  1.0
  C  C61  1  0.56855000  0.66968000  0.18857000  1.0
  C  C62  1  0.56855000  0.83032000  0.68857000  1.0
  C  C63  1  0.43145000  0.33032000  0.81143000  1.0
  C  C64  1  0.39092000  0.08806000  0.37811000  1.0
  C  C65  1  0.60908000  0.58806000  0.12189000  1.0
  C  C66  1  0.60908000  0.91194000  0.62189000  1.0
  C  C67  1  0.39092000  0.41194000  0.87811000  1.0
  C  C68  1  0.33113000  0.13507000  0.45323000  1.0
  C  C69  1  0.66887000  0.63507000  0.04677000  1.0
  C  C70  1  0.66887000  0.86493000  0.54677000  1.0
  C  C71  1  0.33112000  0.36493000  0.95323000  1.0
  C  C72  1  0.15454000  0.49963000  0.62152000  1.0
  C  C73  1  0.84546000  0.99963000  0.87848000  1.0
  C  C74  1  0.84546000  0.50037000  0.37848000  1.0
  C  C75  1  0.15454000  0.00037000  0.12152000  1.0
  C  C76  1  0.13372000  0.62982000  0.63103000  1.0
  C  C77  1  0.86628000  0.12982000  0.86897000  1.0
  C  C78  1  0.86628000  0.37018000  0.36897000  1.0
  C  C79  1  0.13373000  0.87018000  0.13103000  1.0
  C  C80  1  0.06627000  0.66674000  0.71546000  1.0
  C  C81  1  0.93372000  0.16674000  0.78454000  1.0
  C  C82  1  0.93373000  0.33326000  0.28454000  1.0
  C  C83  1  0.06628000  0.83326000  0.21546000  1.0
  C  C84  1  0.14957000  0.85325000  0.55571000  1.0
  C  C85  1  0.85043000  0.35325000  0.94429000  1.0
  C  C86  1  0.85043000  0.14675000  0.44429000  1.0
  C  C87  1  0.14957000  0.64675000  0.05571000  1.0
  C  C88  1  0.17195000  0.71174000  0.56211000  1.0
  C  C89  1  0.82805000  0.21174000  0.93789000  1.0
  C  C90  1  0.82805000  0.28826000  0.43789000  1.0
  C  C91  1  0.17195000  0.78826000  0.06211000  1.0
  C  C92  1  0.23329000  0.65998000  0.48840000  1.0
  C  C93  1  0.76671000  0.15998000  0.01160000  1.0
  C  C94  1  0.76671000  0.34002000  0.51160000  1.0
  C  C95  1  0.23329000  0.84002000  0.98840000  1.0
  O  O96  1  0.39023000  0.55940000  0.35350000  1.0
  O  O97  1  0.60977000  0.05940000  0.14650000  1.0
  O  O98  1  0.60977000  0.44060000  0.64650000  1.0
  O  O99  1  0.39023000  0.94060000  0.85350000  1.0
  O  O100  1  0.20204000  0.23930000  0.59970000  1.0
  O  O101  1  0.79796000  0.73930000  0.90030000  1.0
  O  O102  1  0.79796000  0.76070000  0.40030000  1.0
  O  O103  1  0.20204000  0.26070000  0.09970000  1.0
  O  O104  1  0.99750000  0.58468000  0.75432000  1.0
  O  O105  1  0.00250000  0.08468000  0.74568000  1.0
  O  O106  1  0.00250000  0.41532000  0.24568000  1.0
  O  O107  1  0.99751000  0.91532000  0.25432000  1.0
  O  O108  1  0.08419000  0.78158000  0.74806000  1.0
  O  O109  1  0.91581000  0.28158000  0.75194000  1.0
  O  O110  1  0.91581000  0.21842000  0.25194000  1.0
  O  O111  1  0.08419000  0.71842000  0.24806000  1.0
  O  O112  1  0.16605000  0.91823000  0.63177000  1.0
  O  O113  1  0.83395000  0.41823000  0.86823000  1.0
  O  O114  1  0.83395000  0.08177000  0.36823000  1.0
  O  O115  1  0.16605000  0.58176000  0.13177000  1.0
  O  O116  1  0.12097000  0.90069000  0.47509000  1.0
  O  O117  1  0.87903000  0.40069000  0.02491000  1.0
  O  O118  1  0.87903000  0.09931000  0.52491000  1.0
  O  O119  1  0.12098000  0.59931000  0.97509000  1.0
