# generated using pymatgen
data_Zn4H54(C15N4)5
_symmetry_space_group_name_H-M   'P 1'
_cell_length_a   18.61830000
_cell_length_b   20.46930000
_cell_length_c   21.28778750
_cell_angle_alpha   102.85485793
_cell_angle_beta   107.39357228
_cell_angle_gamma   115.39300000
_symmetry_Int_Tables_number   1
_chemical_formula_structural   Zn4H54(C15N4)5
_chemical_formula_sum   'Zn4 H54 C75 N20'
_cell_volume   6389.14578266
_cell_formula_units_Z   1
loop_
 _symmetry_equiv_pos_site_id
 _symmetry_equiv_pos_as_xyz
  1  'x, y, z'
loop_
 _atom_site_type_symbol
 _atom_site_label
 _atom_site_symmetry_multiplicity
 _atom_site_fract_x
 _atom_site_fract_y
 _atom_site_fract_z
 _atom_site_occupancy
  Zn  Zn0  1  0.40764000  0.37094000  0.49289000  1.0
  Zn  Zn1  1  0.63472000  0.63292000  0.50306000  1.0
  Zn  Zn2  1  0.41173000  0.49929000  0.41220000  1.0
  Zn  Zn3  1  0.63967000  0.53387000  0.60940000  1.0
  H  H4  1  0.24114000  0.20886000  0.34081000  1.0
  H  H5  1  0.63128000  0.78269000  0.54211000  1.0
  H  H6  1  0.29575000  0.54495000  0.45844000  1.0
  H  H7  1  0.69541000  0.66294000  0.75146000  1.0
  H  H8  1  0.75009000  0.82040000  0.64285000  1.0
  H  H9  1  0.20879000  0.32358000  0.48335000  1.0
  H  H10  1  0.65447000  0.51754000  0.76294000  1.0
  H  H11  1  0.36637000  0.63366000  0.36509000  1.0
  H  H12  1  0.66583000  0.10121000  0.48366000  1.0
  H  H13  1  0.66043000  0.22183000  0.50405000  1.0
  H  H14  1  0.37593000  0.07926000  0.37701000  1.0
  H  H15  1  0.73334000  0.57099000  0.42487000  1.0
  H  H16  1  0.38131000  0.95879000  0.35669000  1.0
  H  H17  1  0.41624000  0.86741000  0.31567000  1.0
  H  H18  1  0.40538000  0.74764000  0.32879000  1.0
  H  H19  1  0.61865000  0.89102000  0.54463000  1.0
  H  H20  1  0.62977000  0.01023000  0.53113000  1.0
  H  H21  1  0.91447000  0.49141000  0.36377000  1.0
  H  H22  1  0.81294000  0.52708000  0.38801000  1.0
  H  H23  1  0.70209000  0.32565000  0.44019000  1.0
  H  H24  1  0.80367000  0.28959000  0.41484000  1.0
  H  H25  1  0.95107000  0.34388000  0.48330000  1.0
  H  H26  1  0.43085000  0.39352000  0.29402000  1.0
  H  H27  1  0.09990000  0.36402000  0.51711000  1.0
  H  H28  1  0.12056000  0.44852000  0.35157000  1.0
  H  H29  1  0.97089000  0.42742000  0.31674000  1.0
  H  H30  1  0.39858000  0.37826000  0.16081000  1.0
  H  H31  1  0.39447000  0.34079000  0.03946000  1.0
  H  H32  1  0.34845000  0.37125000  0.85369000  1.0
  H  H33  1  0.36107000  0.39731000  0.74700000  1.0
  H  H34  1  0.68457000  0.52605000  0.25851000  1.0
  H  H35  1  0.61157000  0.41242000  0.93420000  1.0
  H  H36  1  0.67927000  0.48670000  0.13635000  1.0
  H  H37  1  0.62285000  0.29663000  0.58500000  1.0
  H  H38  1  0.62338000  0.43417000  0.82633000  1.0
  H  H39  1  0.82469000  0.78949000  0.85887000  1.0
  H  H40  1  0.92450000  0.02446000  0.17445000  1.0
  H  H41  1  0.06677000  0.13320000  0.28144000  1.0
  H  H42  1  0.71127000  0.89630000  0.74304000  1.0
  H  H43  1  0.96410000  0.16929000  0.05451000  1.0
  H  H44  1  0.76821000  0.00450000  0.86035000  1.0
  H  H45  1  0.10562000  0.27772000  0.16030000  1.0
  H  H46  1  0.65344000  0.61929000  0.33742000  1.0
  H  H47  1  0.39652000  0.22066000  0.38719000  1.0
  H  H48  1  0.66351000  0.39858000  0.51780000  1.0
  H  H49  1  0.21791000  0.38459000  0.27006000  1.0
  H  H50  1  0.37012000  0.37681000  0.62661000  1.0
  H  H51  1  0.02972000  0.97565000  0.13573000  1.0
  H  H52  1  0.04485000  0.90240000  0.08971000  1.0
  H  H53  1  0.12198000  0.00439000  0.11601000  1.0
  H  H54  1  0.01914000  0.94183000  0.98342000  1.0
  H  H55  1  0.00451000  0.01371000  0.03059000  1.0
  H  H56  1  0.87394000  0.90118000  0.03435000  1.0
  H  H57  1  0.88734000  0.83355000  0.97858000  1.0
  C  C58  1  0.25021000  0.26187000  0.33254000  1.0
  C  C59  1  0.71271000  0.46717000  0.45421000  1.0
  C  C60  1  0.54334000  0.49051000  0.28701000  1.0
  C  C61  1  0.51271000  0.22962000  0.47111000  1.0
  C  C62  1  0.44212000  0.41381000  0.65027000  1.0
  C  C63  1  0.56572000  0.73503000  0.50027000  1.0
  C  C64  1  0.28853000  0.49251000  0.46698000  1.0
  C  C65  1  0.70602000  0.69135000  0.71484000  1.0
  C  C66  1  0.73167000  0.77086000  0.65858000  1.0
  C  C67  1  0.24467000  0.38024000  0.48078000  1.0
  C  C68  1  0.58717000  0.48472000  0.71989000  1.0
  C  C69  1  0.71286000  0.53625000  0.45485000  1.0
  C  C70  1  0.43123000  0.65911000  0.40936000  1.0
  C  C71  1  0.50597000  0.43827000  0.72034000  1.0
  C  C72  1  0.50184000  0.73876000  0.44840000  1.0
  C  C73  1  0.21356000  0.42800000  0.46193000  1.0
  C  C74  1  0.73504000  0.77017000  0.72545000  1.0
  C  C75  1  0.60177000  0.09591000  0.46045000  1.0
  C  C76  1  0.59873000  0.16403000  0.47177000  1.0
  C  C77  1  0.51719000  0.15984000  0.44475000  1.0
  C  C78  1  0.44012000  0.08460000  0.39925000  1.0
  C  C79  1  0.44328000  0.01645000  0.38777000  1.0
  C  C80  1  0.48575000  0.45428000  0.31541000  1.0
  C  C81  1  0.52345000  0.02029000  0.42119000  1.0
  C  C82  1  0.46045000  0.87297000  0.36641000  1.0
  C  C83  1  0.45406000  0.80510000  0.37394000  1.0
  C  C84  1  0.50966000  0.80943000  0.43839000  1.0
  C  C85  1  0.57459000  0.88515000  0.49364000  1.0
  C  C86  1  0.58129000  0.95283000  0.48592000  1.0
  C  C87  1  0.52302000  0.94845000  0.42281000  1.0
  C  C88  1  0.86700000  0.45385000  0.37936000  1.0
  C  C89  1  0.80969000  0.47436000  0.39370000  1.0
  C  C90  1  0.75417000  0.43285000  0.42154000  1.0
  C  C91  1  0.56722000  0.28991000  0.54204000  1.0
  C  C92  1  0.74935000  0.36301000  0.42424000  1.0
  C  C93  1  0.80685000  0.34257000  0.40986000  1.0
  C  C94  1  0.87141000  0.39081000  0.39207000  1.0
  C  C95  1  0.98703000  0.36521000  0.45297000  1.0
  C  C96  1  0.07137000  0.37716000  0.47250000  1.0
  C  C97  1  0.12284000  0.41091000  0.43883000  1.0
  C  C98  1  0.08376000  0.42670000  0.38129000  1.0
  C  C99  1  0.99921000  0.41443000  0.36155000  1.0
  C  C100  1  0.95029000  0.38634000  0.39895000  1.0
  C  C101  1  0.49408000  0.41947000  0.77991000  1.0
  C  C102  1  0.59979000  0.56963000  0.33831000  1.0
  C  C103  1  0.56365000  0.42197000  0.83299000  1.0
  C  C104  1  0.55720000  0.40881000  0.89255000  1.0
  C  C105  1  0.47949000  0.39163000  0.90060000  1.0
  C  C106  1  0.40802000  0.38478000  0.84637000  1.0
  C  C107  1  0.41545000  0.39916000  0.78708000  1.0
  C  C108  1  0.45744000  0.38078000  0.08792000  1.0
  C  C109  1  0.46035000  0.40202000  0.15561000  1.0
  C  C110  1  0.53679000  0.41443000  0.08097000  1.0
  C  C111  1  0.54165000  0.45796000  0.21783000  1.0
  C  C112  1  0.62088000  0.48587000  0.21057000  1.0
  C  C113  1  0.45067000  0.24888000  0.44107000  1.0
  C  C114  1  0.61862000  0.46372000  0.14311000  1.0
  C  C115  1  0.09881000  0.21167000  0.22720000  1.0
  C  C116  1  0.06526000  0.22262000  0.16399000  1.0
  C  C117  1  0.98636000  0.16274000  0.10491000  1.0
  C  C118  1  0.93744000  0.08917000  0.10735000  1.0
  C  C119  1  0.96473000  0.08087000  0.17270000  1.0
  C  C120  1  0.04457000  0.14125000  0.23178000  1.0
  C  C121  1  0.83914000  0.89352000  0.92555000  1.0
  C  C122  1  0.80913000  0.83526000  0.85891000  1.0
  C  C123  1  0.82274000  0.95546000  0.92514000  1.0
  C  C124  1  0.67688000  0.44738000  0.50135000  1.0
  C  C125  1  0.76354000  0.83420000  0.79236000  1.0
  C  C126  1  0.74771000  0.89567000  0.79345000  1.0
  C  C127  1  0.77814000  0.95547000  0.85873000  1.0
  C  C128  1  0.23819000  0.35083000  0.29542000  1.0
  C  C129  1  0.18897000  0.27067000  0.28276000  1.0
  C  C130  1  0.89588000  0.89242000  0.99255000  1.0
  C  C131  1  0.99554000  0.95536000  0.02332000  1.0
  C  C132  1  0.05116000  0.95957000  0.09506000  1.0
  N  N133  1  0.32929000  0.33110000  0.37158000  1.0
  N  N134  1  0.53631000  0.65932000  0.49223000  1.0
  N  N135  1  0.35903000  0.48334000  0.48625000  1.0
  N  N136  1  0.68778000  0.64911000  0.64757000  1.0
  N  N137  1  0.70424000  0.69850000  0.61238000  1.0
  N  N138  1  0.33043000  0.41344000  0.49430000  1.0
  N  N139  1  0.57112000  0.48574000  0.65436000  1.0
  N  N140  1  0.45288000  0.61275000  0.43590000  1.0
  N  N141  1  0.47012000  0.38677000  0.96292000  1.0
  N  N142  1  0.54210000  0.40880000  0.01571000  1.0
  N  N143  1  0.87317000  0.01802000  0.04589000  1.0
  N  N144  1  0.68103000  0.55679000  0.49939000  1.0
  N  N145  1  0.86128000  0.02488000  0.98627000  1.0
  N  N146  1  0.50656000  0.50788000  0.37843000  1.0
  N  N147  1  0.54062000  0.34049000  0.55441000  1.0
  N  N148  1  0.57670000  0.57972000  0.39210000  1.0
  N  N149  1  0.46869000  0.31519000  0.49166000  1.0
  N  N150  1  0.65855000  0.50161000  0.52809000  1.0
  N  N151  1  0.32062000  0.38576000  0.34826000  1.0
  N  N152  1  0.48199000  0.44174000  0.61073000  1.0
