# generated using pymatgen
data_ZnH10C14N2O3
_symmetry_space_group_name_H-M   'P 1'
_cell_length_a   6.94504000
_cell_length_b   11.79990000
_cell_length_c   14.65480000
_cell_angle_alpha   90.00000000
_cell_angle_beta   90.00000000
_cell_angle_gamma   102.41000000
_symmetry_Int_Tables_number   1
_chemical_formula_structural   ZnH10C14N2O3
_chemical_formula_sum   'Zn4 H40 C56 N8 O12'
_cell_volume   1172.91127921
_cell_formula_units_Z   4
loop_
 _symmetry_equiv_pos_site_id
 _symmetry_equiv_pos_as_xyz
  1  'x, y, z'
loop_
 _atom_site_type_symbol
 _atom_site_label
 _atom_site_symmetry_multiplicity
 _atom_site_fract_x
 _atom_site_fract_y
 _atom_site_fract_z
 _atom_site_occupancy
  Zn  Zn0  1  0.38694000  0.86740000  0.03406000  1.0
  Zn  Zn1  1  0.11307000  0.63260000  0.53406000  1.0
  Zn  Zn2  1  0.61307000  0.13260000  0.96595000  1.0
  Zn  Zn3  1  0.88693000  0.36740000  0.46595000  1.0
  H  H4  1  0.56685000  0.21249000  0.18663000  1.0
  H  H5  1  0.93315000  0.28751000  0.68663000  1.0
  H  H6  1  0.43316000  0.78751000  0.81337000  1.0
  H  H7  1  0.06684000  0.71248000  0.31337000  1.0
  H  H8  1  0.36024000  0.30362000  0.28738000  1.0
  H  H9  1  0.13976000  0.19638000  0.78738000  1.0
  H  H10  1  0.63977000  0.69638000  0.71262000  1.0
  H  H11  1  0.86024000  0.80362000  0.21262000  1.0
  H  H12  1  0.84366000  0.05808000  0.20063000  1.0
  H  H13  1  0.65635000  0.44192000  0.70063000  1.0
  H  H14  1  0.15635000  0.94192000  0.79937000  1.0
  H  H15  1  0.34365000  0.55808000  0.29937000  1.0
  H  H16  1  0.85270000  0.91658000  0.09942000  1.0
  H  H17  1  0.64730000  0.58342000  0.59943000  1.0
  H  H18  1  0.14731000  0.08342000  0.90057000  1.0
  H  H19  1  0.35269000  0.41658000  0.40058000  1.0
  H  H20  1  0.85042000  0.78362000  0.96340000  1.0
  H  H21  1  0.64958000  0.71639000  0.46340000  1.0
  H  H22  1  0.14958000  0.21639000  0.03660000  1.0
  H  H23  1  0.35042000  0.28361000  0.53660000  1.0
  H  H24  1  0.88243000  0.71181000  0.06629000  1.0
  H  H25  1  0.61757000  0.78819000  0.56629000  1.0
  H  H26  1  0.11757000  0.28819000  0.93371000  1.0
  H  H27  1  0.38243000  0.21181000  0.43371000  1.0
  H  H28  1  0.81601000  0.57876000  0.89445000  1.0
  H  H29  1  0.68399000  0.92123000  0.39445000  1.0
  H  H30  1  0.18399000  0.42124000  0.10555000  1.0
  H  H31  1  0.31601000  0.07876000  0.60555000  1.0
  H  H32  1  0.00175000  0.43917000  0.82975000  1.0
  H  H33  1  0.49825000  0.06082000  0.32975000  1.0
  H  H34  1  0.99825000  0.56083000  0.17025000  1.0
  H  H35  1  0.50175000  0.93917000  0.67025000  1.0
  H  H36  1  0.36677000  0.46975000  0.86288000  1.0
  H  H37  1  0.13323000  0.03025000  0.36288000  1.0
  H  H38  1  0.63322000  0.53026000  0.13712000  1.0
  H  H39  1  0.86677000  0.96975000  0.63713000  1.0
  H  H40  1  0.52630000  0.64329000  0.95580000  1.0
  H  H41  1  0.97370000  0.85670000  0.45580000  1.0
  H  H42  1  0.47370000  0.35671000  0.04420000  1.0
  H  H43  1  0.02630000  0.14330000  0.54420000  1.0
  C  C44  1  0.11728000  0.03906000  0.13816000  1.0
  C  C45  1  0.38272000  0.46093000  0.63816000  1.0
  C  C46  1  0.88273000  0.96094000  0.86184000  1.0
  C  C47  1  0.61728000  0.53906000  0.36184000  1.0
  C  C48  1  0.32476000  0.08735000  0.12934000  1.0
  C  C49  1  0.17524000  0.41265000  0.62934000  1.0
  C  C50  1  0.67525000  0.91265000  0.87067000  1.0
  C  C51  1  0.82475000  0.58734000  0.37067000  1.0
  C  C52  1  0.40762000  0.18165000  0.18653000  1.0
  C  C53  1  0.09238000  0.31836000  0.68653000  1.0
  C  C54  1  0.59239000  0.81836000  0.81348000  1.0
  C  C55  1  0.90761000  0.68164000  0.31347000  1.0
  C  C56  1  0.29136000  0.23069000  0.24467000  1.0
  C  C57  1  0.20864000  0.26931000  0.74467000  1.0
  C  C58  1  0.70865000  0.76931000  0.75533000  1.0
  C  C59  1  0.79135000  0.73069000  0.25533000  1.0
  C  C60  1  0.08575000  0.18873000  0.25001000  1.0
  C  C61  1  0.41425000  0.31127000  0.75001000  1.0
  C  C62  1  0.91425000  0.81127000  0.75000000  1.0
  C  C63  1  0.58575000  0.68873000  0.24999000  1.0
  C  C64  1  0.00242000  0.09308000  0.19650000  1.0
  C  C65  1  0.49759000  0.40692000  0.69649000  1.0
  C  C66  1  0.99759000  0.90692000  0.80351000  1.0
  C  C67  1  0.50241000  0.59308000  0.30351000  1.0
  C  C68  1  0.01393000  0.93670000  0.09090000  1.0
  C  C69  1  0.48607000  0.56330000  0.59090000  1.0
  C  C70  1  0.98607000  0.06330000  0.90910000  1.0
  C  C71  1  0.51393000  0.43670000  0.40910000  1.0
  C  C72  1  0.96057000  0.24098000  0.31419000  1.0
  C  C73  1  0.53943000  0.25902000  0.81419000  1.0
  C  C74  1  0.03943000  0.75902000  0.68581000  1.0
  C  C75  1  0.46056000  0.74098000  0.18581000  1.0
  C  C76  1  0.96261000  0.76140000  0.00892000  1.0
  C  C77  1  0.53739000  0.73860000  0.50892000  1.0
  C  C78  1  0.03739000  0.23860000  0.99108000  1.0
  C  C79  1  0.46261000  0.26140000  0.49108000  1.0
  C  C80  1  0.07283000  0.68280000  0.95997000  1.0
  C  C81  1  0.42716000  0.81720000  0.45997000  1.0
  C  C82  1  0.92717000  0.31720000  0.04003000  1.0
  C  C83  1  0.57283000  0.18280000  0.54003000  1.0
  C  C84  1  0.97372000  0.59001000  0.90686000  1.0
  C  C85  1  0.52628000  0.90999000  0.40686000  1.0
  C  C86  1  0.02628000  0.40999000  0.09314000  1.0
  C  C87  1  0.47372000  0.09001000  0.59314000  1.0
  C  C88  1  0.07816000  0.51246000  0.87052000  1.0
  C  C89  1  0.42184000  0.98754000  0.37052000  1.0
  C  C90  1  0.92184000  0.48754000  0.12948000  1.0
  C  C91  1  0.57816000  0.01246000  0.62948000  1.0
  C  C92  1  0.27990000  0.52908000  0.88929000  1.0
  C  C93  1  0.22009000  0.97092000  0.38929000  1.0
  C  C94  1  0.72009000  0.47092000  0.11071000  1.0
  C  C95  1  0.77991000  0.02908000  0.61071000  1.0
  C  C96  1  0.36901000  0.62490000  0.94052000  1.0
  C  C97  1  0.13099000  0.87510000  0.44052000  1.0
  C  C98  1  0.63099000  0.37510000  0.05948000  1.0
  C  C99  1  0.86901000  0.12490000  0.55948000  1.0
  N  N100  1  0.09345000  0.86554000  0.04398000  1.0
  N  N101  1  0.40655000  0.63446000  0.54398000  1.0
  N  N102  1  0.90655000  0.13446000  0.95602000  1.0
  N  N103  1  0.59345000  0.36554000  0.45602000  1.0
  N  N104  1  0.26834000  0.70137000  0.97371000  1.0
  N  N105  1  0.23166000  0.79863000  0.47371000  1.0
  N  N106  1  0.73166000  0.29863000  0.02629000  1.0
  N  N107  1  0.76833000  0.20137000  0.52629000  1.0
  O  O108  1  0.43597000  0.04707000  0.06957000  1.0
  O  O109  1  0.06403000  0.45293000  0.56957000  1.0
  O  O110  1  0.56403000  0.95293000  0.93043000  1.0
  O  O111  1  0.93597000  0.54707000  0.43043000  1.0
  O  O112  1  0.05752000  0.31735000  0.37163000  1.0
  O  O113  1  0.44248000  0.18265000  0.87163000  1.0
  O  O114  1  0.94248000  0.68265000  0.62837000  1.0
  O  O115  1  0.55752000  0.81735000  0.12837000  1.0
  O  O116  1  0.77693000  0.20962000  0.31175000  1.0
  O  O117  1  0.72307000  0.29038000  0.81175000  1.0
  O  O118  1  0.22307000  0.79038000  0.68825000  1.0
  O  O119  1  0.27693000  0.70962000  0.18825000  1.0
