# generated using pymatgen
data_Cd3H36C20S6N4(Cl3O4)2
_symmetry_space_group_name_H-M   'P 1'
_cell_length_a   10.01200000
_cell_length_b   10.15740000
_cell_length_c   11.52290000
_cell_angle_alpha   66.86260000
_cell_angle_beta   73.53690000
_cell_angle_gamma   62.89480000
_symmetry_Int_Tables_number   1
_chemical_formula_structural   Cd3H36C20S6N4(Cl3O4)2
_chemical_formula_sum   'Cd3 H36 C20 S6 N4 Cl6 O8'
_cell_volume   951.39866865
_cell_formula_units_Z   1
loop_
 _symmetry_equiv_pos_site_id
 _symmetry_equiv_pos_as_xyz
  1  'x, y, z'
loop_
 _atom_site_type_symbol
 _atom_site_label
 _atom_site_symmetry_multiplicity
 _atom_site_fract_x
 _atom_site_fract_y
 _atom_site_fract_z
 _atom_site_occupancy
  Cd  Cd0  1  0.50000000  0.50000000  0.50000000  1.0
  Cd  Cd1  1  0.55712000  0.84517000  0.43131000  1.0
  Cd  Cd2  1  0.44289000  0.15483000  0.56868000  1.0
  H  H3  1  0.49474000  0.11283000  0.20150000  1.0
  H  H4  1  0.50526000  0.88718000  0.79850000  1.0
  H  H5  1  0.58708000  0.13472000  0.27435000  1.0
  H  H6  1  0.41291000  0.86529000  0.72565000  1.0
  H  H7  1  0.90414000  0.03705000  0.34292000  1.0
  H  H8  1  0.09587000  0.96294000  0.65709000  1.0
  H  H9  1  0.83711000  0.23553000  0.25006000  1.0
  H  H10  1  0.16289000  0.76446000  0.74995000  1.0
  H  H11  1  0.10270000  0.22769000  0.20188000  1.0
  H  H12  1  0.89730000  0.77231000  0.79813000  1.0
  H  H13  1  0.16978000  0.03048000  0.30107000  1.0
  H  H14  1  0.83023000  0.96952000  0.69893000  1.0
  H  H15  1  0.23087000  0.00677000  0.98231000  1.0
  H  H16  1  0.76911000  0.99323000  0.01768000  1.0
  H  H17  1  0.32620000  0.01367000  0.08810000  1.0
  H  H18  1  0.67379000  0.98633000  0.91189000  1.0
  H  H19  1  0.28460000  0.22498000  0.86552000  1.0
  H  H20  1  0.71538000  0.77502000  0.13448000  1.0
  H  H21  1  0.09061000  0.30224000  0.93162000  1.0
  H  H22  1  0.90939000  0.69777000  0.06838000  1.0
  H  H23  1  0.10391000  0.53630000  0.92164000  1.0
  H  H24  1  0.89610000  0.46369000  0.07835000  1.0
  H  H25  1  0.28575000  0.46276000  0.83367000  1.0
  H  H26  1  0.71427000  0.53723000  0.16633000  1.0
  H  H27  1  0.40756000  0.46615000  0.99373000  1.0
  H  H28  1  0.59244000  0.53385000  0.00629000  1.0
  H  H29  1  0.28863000  0.65120000  0.90280000  1.0
  H  H30  1  0.71139000  0.34879000  0.09720000  1.0
  H  H31  1  0.19625000  0.79563000  0.04642000  1.0
  H  H32  1  0.80375000  0.20437000  0.95358000  1.0
  H  H33  1  0.36234000  0.63997000  0.11156000  1.0
  H  H34  1  0.63765000  0.36003000  0.88844000  1.0
  H  H35  1  0.20649000  0.76513000  0.26935000  1.0
  H  H36  1  0.79350000  0.23488000  0.73065000  1.0
  H  H37  1  0.21441000  0.57304000  0.32165000  1.0
  H  H38  1  0.78558000  0.42696000  0.67835000  1.0
  C  C39  1  0.92026000  0.61258000  0.33893000  1.0
  C  C40  1  0.07974000  0.38742000  0.66107000  1.0
  C  C41  1  0.88371000  0.37319000  0.40649000  1.0
  C  C42  1  0.11629000  0.62681000  0.59351000  1.0
  C  C43  1  0.92494000  0.14431000  0.30937000  1.0
  C  C44  1  0.07507000  0.85569000  0.69063000  1.0
  C  C45  1  0.08293000  0.11931000  0.23862000  1.0
  C  C46  1  0.91708000  0.88068000  0.76138000  1.0
  C  C47  1  0.22220000  0.07306000  0.04181000  1.0
  C  C48  1  0.77780000  0.92694000  0.95818000  1.0
  C  C49  1  0.20793000  0.23437000  0.95491000  1.0
  C  C50  1  0.79206000  0.76564000  0.04509000  1.0
  C  C51  1  0.22575000  0.46618000  0.92993000  1.0
  C  C52  1  0.77426000  0.53381000  0.07007000  1.0
  C  C53  1  0.28875000  0.54198000  0.97757000  1.0
  C  C54  1  0.71126000  0.45802000  0.02243000  1.0
  C  C55  1  0.23838000  0.67988000  0.11757000  1.0
  C  C56  1  0.76162000  0.32012000  0.88243000  1.0
  C  C57  1  0.17183000  0.68790000  0.25071000  1.0
  C  C58  1  0.82816000  0.31210000  0.74930000  1.0
  S  S59  1  0.03660000  0.42660000  0.33159000  1.0
  S  S60  1  0.96340000  0.57340000  0.66840000  1.0
  S  S61  1  0.88864000  0.18633000  0.45696000  1.0
  S  S62  1  0.11137000  0.81366000  0.54305000  1.0
  S  S63  1  0.96680000  0.77293000  0.27865000  1.0
  S  S64  1  0.03320000  0.22708000  0.72134000  1.0
  N  N65  1  0.76064000  0.49028000  0.43146000  1.0
  N  N66  1  0.23935000  0.50973000  0.56854000  1.0
  N  N67  1  0.78142000  0.62449000  0.39608000  1.0
  N  N68  1  0.21858000  0.37552000  0.60391000  1.0
  Cl  Cl69  1  0.48798000  0.65006000  0.65046000  1.0
  Cl  Cl70  1  0.51202000  0.34994000  0.34954000  1.0
  Cl  Cl71  1  0.45221000  0.75823000  0.30551000  1.0
  Cl  Cl72  1  0.54779000  0.24177000  0.69449000  1.0
  Cl  Cl73  1  0.30213000  0.07553000  0.46966000  1.0
  Cl  Cl74  1  0.69788000  0.92446000  0.53035000  1.0
  O  O75  1  0.09296000  0.06897000  0.13509000  1.0
  O  O76  1  0.90703000  0.93103000  0.86491000  1.0
  O  O77  1  0.24737000  0.31223000  0.01233000  1.0
  O  O78  1  0.75263000  0.68776000  0.98767000  1.0
  O  O79  1  0.20211000  0.57421000  0.09221000  1.0
  O  O80  1  0.79788000  0.42580000  0.90779000  1.0
  O  O81  1  0.59057000  0.06111000  0.23665000  1.0
  O  O82  1  0.40944000  0.93890000  0.76336000  1.0
