# generated using pymatgen
data_ZnH28C30(SN5)2
_symmetry_space_group_name_H-M   'P 1'
_cell_length_a   9.57165000
_cell_length_b   13.28701176
_cell_length_c   13.84570000
_cell_angle_alpha   93.32700494
_cell_angle_beta   110.22140000
_cell_angle_gamma   111.10926393
_symmetry_Int_Tables_number   1
_chemical_formula_structural   ZnH28C30(SN5)2
_chemical_formula_sum   'Zn2 H56 C60 S4 N20'
_cell_volume   1507.58624076
_cell_formula_units_Z   2
loop_
 _symmetry_equiv_pos_site_id
 _symmetry_equiv_pos_as_xyz
  1  'x, y, z'
loop_
 _atom_site_type_symbol
 _atom_site_label
 _atom_site_symmetry_multiplicity
 _atom_site_fract_x
 _atom_site_fract_y
 _atom_site_fract_z
 _atom_site_occupancy
  Zn  Zn0  1  0.76942000  0.24996000  0.24994000  1.0
  Zn  Zn1  1  0.23058000  0.75004000  0.75006000  1.0
  H  H2  1  0.48752000  0.33309000  0.15370000  1.0
  H  H3  1  0.50074000  0.16684000  0.34607000  1.0
  H  H4  1  0.51248000  0.66691000  0.84630000  1.0
  H  H5  1  0.49926000  0.83316000  0.65393000  1.0
  H  H6  1  0.42333000  0.49068000  0.19882000  1.0
  H  H7  1  0.23382000  0.00925000  0.30086000  1.0
  H  H8  1  0.57667000  0.50932000  0.80118000  1.0
  H  H9  1  0.76618000  0.99075000  0.69914000  1.0
  H  H10  1  0.87255000  0.61127000  0.47598000  1.0
  H  H11  1  0.28562000  0.88867000  0.02380000  1.0
  H  H12  1  0.12745000  0.38873000  0.52402000  1.0
  H  H13  1  0.71438000  0.11133000  0.97620000  1.0
  H  H14  1  0.91376000  0.44687000  0.42018000  1.0
  H  H15  1  0.54701000  0.05310000  0.07971000  1.0
  H  H16  1  0.08624000  0.55313000  0.57982000  1.0
  H  H17  1  0.45299000  0.94690000  0.92029000  1.0
  H  H18  1  0.55327000  0.92418000  0.42852000  1.0
  H  H19  1  0.70056000  0.57572000  0.07108000  1.0
  H  H20  1  0.44673000  0.07582000  0.57147000  1.0
  H  H21  1  0.29944000  0.42428000  0.92892000  1.0
  H  H22  1  0.59969000  0.87658000  0.32525000  1.0
  H  H23  1  0.89774000  0.62323000  0.17442000  1.0
  H  H24  1  0.40031000  0.12342000  0.67475000  1.0
  H  H25  1  0.10226000  0.37677000  0.82558000  1.0
  H  H26  1  0.83984000  0.92237000  0.49436000  1.0
  H  H27  1  0.92335000  0.57746000  0.00544000  1.0
  H  H28  1  0.16016000  0.07763000  0.50564000  1.0
  H  H29  1  0.07665000  0.42254000  0.99456000  1.0
  H  H30  1  0.71106000  0.83862000  0.55080000  1.0
  H  H31  1  0.82192000  0.66122000  0.94891000  1.0
  H  H32  1  0.28894000  0.16138000  0.44920000  1.0
  H  H33  1  0.17808000  0.33878000  0.05109000  1.0
  H  H34  1  0.15915000  0.62732000  0.21984000  1.0
  H  H35  1  0.81215000  0.87243000  0.27992000  1.0
  H  H36  1  0.84085000  0.37268000  0.78016000  1.0
  H  H37  1  0.18785000  0.12757000  0.72008000  1.0
  H  H38  1  0.89952000  0.45943000  0.17349000  1.0
  H  H39  1  0.76631000  0.04017000  0.32619000  1.0
  H  H40  1  0.10048000  0.54057000  0.82651000  1.0
  H  H41  1  0.23369000  0.95983000  0.67381000  1.0
  H  H42  1  0.13793000  0.30050000  0.37268000  1.0
  H  H43  1  0.96495000  0.19943000  0.12737000  1.0
  H  H44  1  0.86207000  0.69950000  0.62732000  1.0
  H  H45  1  0.03505000  0.80057000  0.87264000  1.0
  H  H46  1  0.40671000  0.45703000  0.42330000  1.0
  H  H47  1  0.02677000  0.04302000  0.07672000  1.0
  H  H48  1  0.59329000  0.54297000  0.57670000  1.0
  H  H49  1  0.97323000  0.95698000  0.92328000  1.0
  H  H50  1  0.84368000  0.76964000  0.41298000  1.0
  H  H51  1  0.16128000  0.73021000  0.08686000  1.0
  H  H52  1  0.15632000  0.23036000  0.58702000  1.0
  H  H53  1  0.83872000  0.26979000  0.91314000  1.0
  H  H54  1  0.34132000  0.75556000  0.38460000  1.0
  H  H55  1  0.70136000  0.74440000  0.11522000  1.0
  H  H56  1  0.65867000  0.24443000  0.61540000  1.0
  H  H57  1  0.29864000  0.25560000  0.88478000  1.0
  C  C58  1  0.56707000  0.39538000  0.22612000  1.0
  C  C59  1  0.44559000  0.10454000  0.27364000  1.0
  C  C60  1  0.43293000  0.60462000  0.77388000  1.0
  C  C61  1  0.55440000  0.89545000  0.72636000  1.0
  C  C62  1  0.53156000  0.48304000  0.25206000  1.0
  C  C63  1  0.29652000  0.01689000  0.24765000  1.0
  C  C64  1  0.46844000  0.51696000  0.74794000  1.0
  C  C65  1  0.70348000  0.98311000  0.75235000  1.0
  C  C66  1  0.63828000  0.56336000  0.34566000  1.0
  C  C67  1  0.22940000  0.93656000  0.15406000  1.0
  C  C68  1  0.36172000  0.43664000  0.65434000  1.0
  C  C69  1  0.77060000  0.06344000  0.84594000  1.0
  C  C70  1  0.78213000  0.55112000  0.40473000  1.0
  C  C71  1  0.32649000  0.94883000  0.09504000  1.0
  C  C72  1  0.21787000  0.44888000  0.59527000  1.0
  C  C73  1  0.67350000  0.05117000  0.90496000  1.0
  C  C74  1  0.80650000  0.46014000  0.37363000  1.0
  C  C75  1  0.47291000  0.03981000  0.12618000  1.0
  C  C76  1  0.19350000  0.53986000  0.62637000  1.0
  C  C77  1  0.52709000  0.96019000  0.87382000  1.0
  C  C78  1  0.60998000  0.65742000  0.37947000  1.0
  C  C79  1  0.07327000  0.84246000  0.12026000  1.0
  C  C80  1  0.39002000  0.34258000  0.62053000  1.0
  C  C81  1  0.92673000  0.15754000  0.87973000  1.0
  C  C82  1  0.57785000  0.85786000  0.39651000  1.0
  C  C83  1  0.82351000  0.64201000  0.10315000  1.0
  C  C84  1  0.42215000  0.14214000  0.60349000  1.0
  C  C85  1  0.17649000  0.35799000  0.89685000  1.0
  C  C86  1  0.72881000  0.84787000  0.47669000  1.0
  C  C87  1  0.90446000  0.65198000  0.02306000  1.0
  C  C88  1  0.27119000  0.15213000  0.52331000  1.0
  C  C89  1  0.09554000  0.34802000  0.97694000  1.0
  C  C90  1  0.45635000  0.65682000  0.35833000  1.0
  C  C91  1  0.94142000  0.84308000  0.14143000  1.0
  C  C92  1  0.54365000  0.34318000  0.64166000  1.0
  C  C93  1  0.05858000  0.15692000  0.85857000  1.0
  C  C94  1  0.30641000  0.55698000  0.32563000  1.0
  C  C95  1  0.92405000  0.94290000  0.17423000  1.0
  C  C96  1  0.69359000  0.44302000  0.67437000  1.0
  C  C97  1  0.07595000  0.05710000  0.82577000  1.0
  C  C98  1  0.15901000  0.55600000  0.25476000  1.0
  C  C99  1  0.84838000  0.94379000  0.24506000  1.0
  C  C100  1  0.84100000  0.44400000  0.74524000  1.0
  C  C101  1  0.15162000  0.05621000  0.75495000  1.0
  C  C102  1  0.01548000  0.46359000  0.22910000  1.0
  C  C103  1  0.82262000  0.03609000  0.27064000  1.0
  C  C104  1  0.98451000  0.53640000  0.77090000  1.0
  C  C105  1  0.17738000  0.96391000  0.72937000  1.0
  C  C106  1  0.14857000  0.37348000  0.33833000  1.0
  C  C107  1  0.93686000  0.12639000  0.16161000  1.0
  C  C108  1  0.85143000  0.62652000  0.66168000  1.0
  C  C109  1  0.06315000  0.87362000  0.83840000  1.0
  C  C110  1  0.29802000  0.46149000  0.36685000  1.0
  C  C111  1  0.96997000  0.03847000  0.13312000  1.0
  C  C112  1  0.70199000  0.53851000  0.63315000  1.0
  C  C113  1  0.03003000  0.96153000  0.86688000  1.0
  C  C114  1  0.85155000  0.21456000  0.49275000  1.0
  C  C115  1  0.64413000  0.28545000  0.00718000  1.0
  C  C116  1  0.14845000  0.78544000  0.50725000  1.0
  C  C117  1  0.35587000  0.71455000  0.99282000  1.0
  S  S118  1  0.87039000  0.17849000  0.60522000  1.0
  S  S119  1  0.58648000  0.32151000  0.89472000  1.0
  S  S120  1  0.12962000  0.82152000  0.39479000  1.0
  S  S121  1  0.41352000  0.67849000  0.10528000  1.0
  N  N122  1  0.70146000  0.38211000  0.28630000  1.0
  N  N123  1  0.53317000  0.11783000  0.21352000  1.0
  N  N124  1  0.29854000  0.61789000  0.71370000  1.0
  N  N125  1  0.46683000  0.88217000  0.78649000  1.0
  N  N126  1  0.74909000  0.75320000  0.43653000  1.0
  N  N127  1  0.05956000  0.74665000  0.06325000  1.0
  N  N128  1  0.25091000  0.24680000  0.56347000  1.0
  N  N129  1  0.94044000  0.25335000  0.93675000  1.0
  N  N130  1  0.43841000  0.75473000  0.36982000  1.0
  N  N131  1  0.81398000  0.74518000  0.12980000  1.0
  N  N132  1  0.56159000  0.24527000  0.63018000  1.0
  N  N133  1  0.18602000  0.25482000  0.87019000  1.0
  N  N134  1  0.00826000  0.37405000  0.27112000  1.0
  N  N135  1  0.86288000  0.12567000  0.22866000  1.0
  N  N136  1  0.99174000  0.62595000  0.72888000  1.0
  N  N137  1  0.13713000  0.87433000  0.77134000  1.0
  N  N138  1  0.84334000  0.24302000  0.41208000  1.0
  N  N139  1  0.68819000  0.25702000  0.08785000  1.0
  N  N140  1  0.15665000  0.75698000  0.58792000  1.0
  N  N141  1  0.31181000  0.74298000  0.91214000  1.0
