# generated using pymatgen
data_AgH2C2N3O
_symmetry_space_group_name_H-M   'P 1'
_cell_length_a   6.66242000
_cell_length_b   9.82217000
_cell_length_c   12.56670000
_cell_angle_alpha   90.00020000
_cell_angle_beta   89.99990000
_cell_angle_gamma   90.00000000
_symmetry_Int_Tables_number   1
_chemical_formula_structural   AgH2C2N3O
_chemical_formula_sum   'Ag8 H16 C16 N24 O8'
_cell_volume   822.35758257
_cell_formula_units_Z   8
loop_
 _symmetry_equiv_pos_site_id
 _symmetry_equiv_pos_as_xyz
  1  'x, y, z'
loop_
 _atom_site_type_symbol
 _atom_site_label
 _atom_site_symmetry_multiplicity
 _atom_site_fract_x
 _atom_site_fract_y
 _atom_site_fract_z
 _atom_site_occupancy
  Ag  Ag0  1  0.57550000  0.23784000  0.33468000  1.0
  Ag  Ag1  1  0.92451000  0.76217000  0.83468000  1.0
  Ag  Ag2  1  0.07550000  0.26217000  0.66531000  1.0
  Ag  Ag3  1  0.42450000  0.73783000  0.16531000  1.0
  Ag  Ag4  1  0.42453000  0.76217000  0.66532000  1.0
  Ag  Ag5  1  0.07546000  0.23782000  0.16532000  1.0
  Ag  Ag6  1  0.92454000  0.73785000  0.33468000  1.0
  Ag  Ag7  1  0.57546000  0.26216000  0.83468000  1.0
  H  H8  1  0.33588000  0.76221000  0.41184000  1.0
  H  H9  1  0.16412000  0.23779000  0.91185000  1.0
  H  H10  1  0.83588000  0.73779000  0.58816000  1.0
  H  H11  1  0.66411000  0.26220000  0.08815000  1.0
  H  H12  1  0.66415000  0.23780000  0.58816000  1.0
  H  H13  1  0.83585000  0.76221000  0.08815000  1.0
  H  H14  1  0.16414000  0.26221000  0.41184000  1.0
  H  H15  1  0.33585000  0.73780000  0.91184000  1.0
  H  H16  1  0.51284000  0.87989000  0.46116000  1.0
  H  H17  1  0.98716000  0.12012000  0.96115000  1.0
  H  H18  1  0.01283000  0.62012000  0.53885000  1.0
  H  H19  1  0.48718000  0.37988000  0.03885000  1.0
  H  H20  1  0.48720000  0.12012000  0.53886000  1.0
  H  H21  1  0.01281000  0.87987000  0.03886000  1.0
  H  H22  1  0.98720000  0.37988000  0.46114000  1.0
  H  H23  1  0.51282000  0.62012000  0.96114000  1.0
  C  C24  1  0.94297000  0.02723000  0.34502000  1.0
  C  C25  1  0.55704000  0.97278000  0.84503000  1.0
  C  C26  1  0.44296000  0.47279000  0.65498000  1.0
  C  C27  1  0.05706000  0.52721000  0.15497000  1.0
  C  C28  1  0.05706000  0.97278000  0.65499000  1.0
  C  C29  1  0.44294000  0.02722000  0.15500000  1.0
  C  C30  1  0.55707000  0.52723000  0.34501000  1.0
  C  C31  1  0.94294000  0.47278000  0.84501000  1.0
  C  C32  1  0.25365000  0.96433000  0.40777000  1.0
  C  C33  1  0.24633000  0.03569000  0.90777000  1.0
  C  C34  1  0.75366000  0.53569000  0.59223000  1.0
  C  C35  1  0.74633000  0.46428000  0.09222000  1.0
  C  C36  1  0.74636000  0.03570000  0.59224000  1.0
  C  C37  1  0.75364000  0.96432000  0.09224000  1.0
  C  C38  1  0.24637000  0.46433000  0.40775000  1.0
  C  C39  1  0.25362000  0.53568000  0.90776000  1.0
  N  N40  1  0.82294000  0.11083000  0.32266000  1.0
  N  N41  1  0.67707000  0.88918000  0.82266000  1.0
  N  N42  1  0.32293000  0.38918000  0.67734000  1.0
  N  N43  1  0.17707000  0.61081000  0.17733000  1.0
  N  N44  1  0.17708000  0.88917000  0.67735000  1.0
  N  N45  1  0.32291000  0.11083000  0.17736000  1.0
  N  N46  1  0.67708000  0.61083000  0.32265000  1.0
  N  N47  1  0.82290000  0.38917000  0.82265000  1.0
  N  N48  1  0.06926000  0.92965000  0.36334000  1.0
  N  N49  1  0.43074000  0.07035000  0.86334000  1.0
  N  N50  1  0.56927000  0.57034000  0.63666000  1.0
  N  N51  1  0.93073000  0.42967000  0.13665000  1.0
  N  N52  1  0.93075000  0.07034000  0.63667000  1.0
  N  N53  1  0.56926000  0.92967000  0.13667000  1.0
  N  N54  1  0.43076000  0.42966000  0.36333000  1.0
  N  N55  1  0.06925000  0.57033000  0.86333000  1.0
  N  N56  1  0.38370000  0.86104000  0.41886000  1.0
  N  N57  1  0.11630000  0.13895000  0.91886000  1.0
  N  N58  1  0.88370000  0.63897000  0.58114000  1.0
  N  N59  1  0.61631000  0.36104000  0.08113000  1.0
  N  N60  1  0.61633000  0.13897000  0.58115000  1.0
  N  N61  1  0.88368000  0.86103000  0.08115000  1.0
  N  N62  1  0.11632000  0.36103000  0.41884000  1.0
  N  N63  1  0.38368000  0.63896000  0.91884000  1.0
  O  O64  1  0.29438000  0.08569000  0.43413000  1.0
  O  O65  1  0.20563000  0.91431000  0.93412000  1.0
  O  O66  1  0.79437000  0.41433000  0.56588000  1.0
  O  O67  1  0.70564000  0.58566000  0.06588000  1.0
  O  O68  1  0.70565000  0.91433000  0.56590000  1.0
  O  O69  1  0.79435000  0.08566000  0.06591000  1.0
  O  O70  1  0.20564000  0.58567000  0.43410000  1.0
  O  O71  1  0.29436000  0.41432000  0.93410000  1.0
