# generated using pymatgen
data_ZnPH5C3NO3
_symmetry_space_group_name_H-M   'P 1'
_cell_length_a   7.95858000
_cell_length_b   8.09188000
_cell_length_c   18.83000000
_cell_angle_alpha   90.00000000
_cell_angle_beta   90.00000000
_cell_angle_gamma   90.00000000
_symmetry_Int_Tables_number   1
_chemical_formula_structural   ZnPH5C3NO3
_chemical_formula_sum   'Zn8 P8 H40 C24 N8 O24'
_cell_volume   1212.64963364
_cell_formula_units_Z   8
loop_
 _symmetry_equiv_pos_site_id
 _symmetry_equiv_pos_as_xyz
  1  'x, y, z'
loop_
 _atom_site_type_symbol
 _atom_site_label
 _atom_site_symmetry_multiplicity
 _atom_site_fract_x
 _atom_site_fract_y
 _atom_site_fract_z
 _atom_site_occupancy
  Zn  Zn0  1  0.15443000  0.41680000  0.20196000  1.0
  Zn  Zn1  1  0.65443000  0.41680000  0.29804000  1.0
  Zn  Zn2  1  0.15443000  0.08320000  0.70196000  1.0
  Zn  Zn3  1  0.34557000  0.91680000  0.20196000  1.0
  Zn  Zn4  1  0.84557000  0.58320000  0.79804000  1.0
  Zn  Zn5  1  0.34557000  0.58320000  0.70196000  1.0
  Zn  Zn6  1  0.84557000  0.91680000  0.29804000  1.0
  Zn  Zn7  1  0.65444000  0.08320000  0.79804000  1.0
  P  P8  1  0.99373000  0.04157000  0.16087000  1.0
  P  P9  1  0.49373000  0.04157000  0.33913000  1.0
  P  P10  1  0.99373000  0.45843000  0.66087000  1.0
  P  P11  1  0.50627000  0.54157000  0.16087000  1.0
  P  P12  1  0.00627000  0.95843000  0.83913000  1.0
  P  P13  1  0.50627000  0.95843000  0.66087000  1.0
  P  P14  1  0.00627000  0.54157000  0.33913000  1.0
  P  P15  1  0.49373000  0.45843000  0.83913000  1.0
  H  H16  1  0.94657000  0.08136000  0.09080000  1.0
  H  H17  1  0.44657000  0.08135000  0.40920000  1.0
  H  H18  1  0.94657000  0.41864000  0.59080000  1.0
  H  H19  1  0.55343000  0.58135000  0.09080000  1.0
  H  H20  1  0.05344000  0.91865000  0.90920000  1.0
  H  H21  1  0.55343000  0.91865000  0.59080000  1.0
  H  H22  1  0.05343000  0.58135000  0.40920000  1.0
  H  H23  1  0.44657000  0.41865000  0.90920000  1.0
  H  H24  1  0.87811000  0.55303000  0.16913000  1.0
  H  H25  1  0.37811000  0.55303000  0.33087000  1.0
  H  H26  1  0.87811000  0.94697000  0.66913000  1.0
  H  H27  1  0.62189000  0.05303000  0.16913000  1.0
  H  H28  1  0.12189000  0.44697000  0.83087000  1.0
  H  H29  1  0.62189000  0.44697000  0.66913000  1.0
  H  H30  1  0.12189000  0.05303000  0.33087000  1.0
  H  H31  1  0.37811000  0.94697000  0.83087000  1.0
  H  H32  1  0.03505000  0.69080000  0.15723000  1.0
  H  H33  1  0.53506000  0.69079000  0.34277000  1.0
  H  H34  1  0.03505000  0.80920000  0.65723000  1.0
  H  H35  1  0.46495000  0.19079000  0.15723000  1.0
  H  H36  1  0.96495000  0.30920000  0.84277000  1.0
  H  H37  1  0.46495000  0.30920000  0.65723000  1.0
  H  H38  1  0.96495000  0.19079000  0.34277000  1.0
  H  H39  1  0.53506000  0.80921000  0.84277000  1.0
  H  H40  1  0.79928000  0.35410000  0.07921000  1.0
  H  H41  1  0.29928000  0.35410000  0.42079000  1.0
  H  H42  1  0.79928000  0.14590000  0.57921000  1.0
  H  H43  1  0.70072000  0.85410000  0.07921000  1.0
  H  H44  1  0.20072000  0.64589000  0.92079000  1.0
  H  H45  1  0.70072000  0.64589000  0.57921000  1.0
  H  H46  1  0.20072000  0.85410000  0.42079000  1.0
  H  H47  1  0.29928000  0.14590000  0.92079000  1.0
  H  H48  1  0.19250000  0.71292000  0.04961000  1.0
  H  H49  1  0.69250000  0.71291000  0.45039000  1.0
  H  H50  1  0.19250000  0.78708000  0.54961000  1.0
  H  H51  1  0.30750000  0.21292000  0.04961000  1.0
  H  H52  1  0.80750000  0.28709000  0.95039000  1.0
  H  H53  1  0.30750000  0.28708000  0.54961000  1.0
  H  H54  1  0.80750000  0.21292000  0.45039000  1.0
  H  H55  1  0.69250000  0.78708000  0.95039000  1.0
  C  C56  1  0.99568000  0.53743000  0.07264000  1.0
  C  C57  1  0.49568000  0.53743000  0.42735000  1.0
  C  C58  1  0.99568000  0.96256000  0.57265000  1.0
  C  C59  1  0.50432000  0.03744000  0.07265000  1.0
  C  C60  1  0.00432000  0.46256000  0.92735000  1.0
  C  C61  1  0.50432000  0.46256000  0.57265000  1.0
  C  C62  1  0.00432000  0.03744000  0.42735000  1.0
  C  C63  1  0.49568000  0.96256000  0.92735000  1.0
  C  C64  1  0.88717000  0.41813000  0.04437000  1.0
  C  C65  1  0.38717000  0.41813000  0.45563000  1.0
  C  C66  1  0.88717000  0.08187000  0.54437000  1.0
  C  C67  1  0.61284000  0.91813000  0.04437000  1.0
  C  C68  1  0.11283000  0.58187000  0.95563000  1.0
  C  C69  1  0.61283000  0.58187000  0.54437000  1.0
  C  C70  1  0.11283000  0.91813000  0.45563000  1.0
  C  C71  1  0.38717000  0.08187000  0.95563000  1.0
  C  C72  1  0.10874000  0.61914000  0.02785000  1.0
  C  C73  1  0.60874000  0.61914000  0.47215000  1.0
  C  C74  1  0.10874000  0.88086000  0.52785000  1.0
  C  C75  1  0.39126000  0.11914000  0.02785000  1.0
  C  C76  1  0.89126000  0.38086000  0.97215000  1.0
  C  C77  1  0.39126000  0.38086000  0.52785000  1.0
  C  C78  1  0.89126000  0.11914000  0.47215000  1.0
  C  C79  1  0.60874000  0.88086000  0.97215000  1.0
  N  N80  1  0.99644000  0.57064000  0.14749000  1.0
  N  N81  1  0.49645000  0.57064000  0.35251000  1.0
  N  N82  1  0.99644000  0.92936000  0.64749000  1.0
  N  N83  1  0.50356000  0.07064000  0.14749000  1.0
  N  N84  1  0.00355000  0.42935000  0.85251000  1.0
  N  N85  1  0.50355000  0.42936000  0.64749000  1.0
  N  N86  1  0.00356000  0.07064000  0.35251000  1.0
  N  N87  1  0.49644000  0.92936000  0.85251000  1.0
  O  O88  1  0.06418000  0.19389000  0.19762000  1.0
  O  O89  1  0.56418000  0.19388000  0.30238000  1.0
  O  O90  1  0.06417000  0.30611000  0.69762000  1.0
  O  O91  1  0.43582000  0.69388000  0.19762000  1.0
  O  O92  1  0.93583000  0.80612000  0.80238000  1.0
  O  O93  1  0.43582000  0.80612000  0.69762000  1.0
  O  O94  1  0.93582000  0.69389000  0.30238000  1.0
  O  O95  1  0.56418000  0.30612000  0.80239000  1.0
  O  O96  1  0.12604000  0.90217000  0.15556000  1.0
  O  O97  1  0.62604000  0.90216000  0.34444000  1.0
  O  O98  1  0.12604000  0.59783000  0.65556000  1.0
  O  O99  1  0.37396000  0.40216000  0.15556000  1.0
  O  O100  1  0.87396000  0.09784000  0.84444000  1.0
  O  O101  1  0.37396000  0.09784000  0.65556000  1.0
  O  O102  1  0.87397000  0.40216000  0.34443000  1.0
  O  O103  1  0.62604000  0.59784000  0.84444000  1.0
  O  O104  1  0.83137000  0.97700000  0.19652000  1.0
  O  O105  1  0.33137000  0.97700000  0.30348000  1.0
  O  O106  1  0.83137000  0.52300000  0.69652000  1.0
  O  O107  1  0.66863000  0.47700000  0.19652000  1.0
  O  O108  1  0.16863000  0.02301000  0.80348000  1.0
  O  O109  1  0.66863000  0.02301000  0.69652000  1.0
  O  O110  1  0.16864000  0.47700000  0.30348000  1.0
  O  O111  1  0.33137000  0.52300000  0.80348000  1.0
