# generated using pymatgen
data_ZnSiH28C26(N2F3)2
_symmetry_space_group_name_H-M   'P 1'
_cell_length_a   7.81664000
_cell_length_b   11.44607716
_cell_length_c   11.44614129
_cell_angle_alpha   67.20463589
_cell_angle_beta   70.06544781
_cell_angle_gamma   70.06583139
_symmetry_Int_Tables_number   1
_chemical_formula_structural   ZnSiH28C26(N2F3)2
_chemical_formula_sum   'Zn1 Si1 H28 C26 N4 F6'
_cell_volume   861.37568249
_cell_formula_units_Z   1
loop_
 _symmetry_equiv_pos_site_id
 _symmetry_equiv_pos_as_xyz
  1  'x, y, z'
loop_
 _atom_site_type_symbol
 _atom_site_label
 _atom_site_symmetry_multiplicity
 _atom_site_fract_x
 _atom_site_fract_y
 _atom_site_fract_z
 _atom_site_occupancy
  Zn  Zn0  1  0.54338000  0.45648000  0.45648000  1.0
  Si  Si1  1  0.04343000  0.45651000  0.45651000  1.0
  H  H2  1  0.72044000  0.41298000  0.67648000  1.0
  H  H3  1  0.18937000  0.67653000  0.41291000  1.0
  H  H4  1  0.72045000  0.67648000  0.41297000  1.0
  H  H5  1  0.18938000  0.41290000  0.67653000  1.0
  H  H6  1  0.64477000  0.34282000  0.91909000  1.0
  H  H7  1  0.09292000  0.91917000  0.34270000  1.0
  H  H8  1  0.64477000  0.91909000  0.34282000  1.0
  H  H9  1  0.09292000  0.34270000  0.91917000  1.0
  H  H10  1  0.16155000  0.32565000  0.12622000  1.0
  H  H11  1  0.38693000  0.12612000  0.32570000  1.0
  H  H12  1  0.16155000  0.12622000  0.32565000  1.0
  H  H13  1  0.38693000  0.32570000  0.12612000  1.0
  H  H14  1  0.28629000  0.10074000  0.10073000  1.0
  H  H15  1  0.51208000  0.10067000  0.10066000  1.0
  H  H16  1  0.36613000  0.50054000  0.23638000  1.0
  H  H17  1  0.89721000  0.23666000  0.50027000  1.0
  H  H18  1  0.36613000  0.23638000  0.50054000  1.0
  H  H19  1  0.89722000  0.50026000  0.23666000  1.0
  H  H20  1  0.44202000  0.57063000  0.99376000  1.0
  H  H21  1  0.99401000  0.99403000  0.57045000  1.0
  H  H22  1  0.44201000  0.99375000  0.57064000  1.0
  H  H23  1  0.99399000  0.57046000  0.99404000  1.0
  H  H24  1  0.70036000  0.58730000  0.78697000  1.0
  H  H25  1  0.92577000  0.78697000  0.58735000  1.0
  H  H26  1  0.70036000  0.78696000  0.58731000  1.0
  H  H27  1  0.92577000  0.58735000  0.78697000  1.0
  H  H28  1  0.57508000  0.81231000  0.81231000  1.0
  H  H29  1  0.80066000  0.81240000  0.81240000  1.0
  C  C30  1  0.58222000  0.39744000  0.73362000  1.0
  C  C31  1  0.28607000  0.73365000  0.39739000  1.0
  C  C32  1  0.58222000  0.73363000  0.39743000  1.0
  C  C33  1  0.28606000  0.39739000  0.73365000  1.0
  C  C34  1  0.53878000  0.35765000  0.86938000  1.0
  C  C35  1  0.23370000  0.86945000  0.35757000  1.0
  C  C36  1  0.53879000  0.86938000  0.35764000  1.0
  C  C37  1  0.23370000  0.35757000  0.86945000  1.0
  C  C38  1  0.36093000  0.33669000  0.94116000  1.0
  C  C39  1  0.36092000  0.94117000  0.33669000  1.0
  C  C40  1  0.31197000  0.28860000  0.08762000  1.0
  C  C41  1  0.31198000  0.08762000  0.28859000  1.0
  C  C42  1  0.36136000  0.13866000  0.13866000  1.0
  C  C43  1  0.50442000  0.51596000  0.17925000  1.0
  C  C44  1  0.80066000  0.17941000  0.51579000  1.0
  C  C45  1  0.50441000  0.17924000  0.51597000  1.0
  C  C46  1  0.80066000  0.51579000  0.17941000  1.0
  C  C47  1  0.54807000  0.55560000  0.04351000  1.0
  C  C48  1  0.85321000  0.04368000  0.55546000  1.0
  C  C49  1  0.54808000  0.04350000  0.55560000  1.0
  C  C50  1  0.85321000  0.55546000  0.04368000  1.0
  C  C51  1  0.72612000  0.57638000  0.97187000  1.0
  C  C52  1  0.72612000  0.97187000  0.57638000  1.0
  C  C53  1  0.77532000  0.62441000  0.82545000  1.0
  C  C54  1  0.77532000  0.82544000  0.62442000  1.0
  C  C55  1  0.72587000  0.77437000  0.77438000  1.0
  N  N56  1  0.62866000  0.49606000  0.24687000  1.0
  N  N57  1  0.62866000  0.24686000  0.49606000  1.0
  N  N58  1  0.45793000  0.41730000  0.66610000  1.0
  N  N59  1  0.45793000  0.66610000  0.41730000  1.0
  F  F60  1  0.04347000  0.59083000  0.32219000  1.0
  F  F61  1  0.04344000  0.32221000  0.59084000  1.0
  F  F62  1  0.26870000  0.45631000  0.45631000  1.0
  F  F63  1  0.81821000  0.45665000  0.45665000  1.0
  F  F64  1  0.14067000  0.35871000  0.35873000  1.0
  F  F65  1  0.94616000  0.55429000  0.55428000  1.0
