# generated using pymatgen
data_TbH16C21I3O8
_symmetry_space_group_name_H-M   'P 1'
_cell_length_a   9.52984000
_cell_length_b   9.94605000
_cell_length_c   14.05070000
_cell_angle_alpha   74.57450000
_cell_angle_beta   85.47680000
_cell_angle_gamma   74.46770000
_symmetry_Int_Tables_number   1
_chemical_formula_structural   TbH16C21I3O8
_chemical_formula_sum   'Tb2 H32 C42 I6 O16'
_cell_volume   1236.88350498
_cell_formula_units_Z   2
loop_
 _symmetry_equiv_pos_site_id
 _symmetry_equiv_pos_as_xyz
  1  'x, y, z'
loop_
 _atom_site_type_symbol
 _atom_site_label
 _atom_site_symmetry_multiplicity
 _atom_site_fract_x
 _atom_site_fract_y
 _atom_site_fract_z
 _atom_site_occupancy
  Tb  Tb0  1  0.24144000  0.01852000  0.51622000  1.0
  Tb  Tb1  1  0.75857000  0.98148000  0.48378000  1.0
  H  H2  1  0.74192000  0.67584000  0.75453000  1.0
  H  H3  1  0.25807000  0.32416000  0.24547000  1.0
  H  H4  1  0.80064000  0.55992000  0.93209000  1.0
  H  H5  1  0.19936000  0.44008000  0.06791000  1.0
  H  H6  1  0.65088000  0.66692000  0.06149000  1.0
  H  H7  1  0.34912000  0.33308000  0.93852000  1.0
  H  H8  1  0.44838000  0.88591000  0.01216000  1.0
  H  H9  1  0.55163000  0.11408000  0.98785000  1.0
  H  H10  1  0.95779000  0.58293000  0.56925000  1.0
  H  H11  1  0.04222000  0.41707000  0.43075000  1.0
  H  H12  1  0.91790000  0.35004000  0.67264000  1.0
  H  H13  1  0.08209000  0.64997000  0.32735000  1.0
  H  H14  1  0.97558000  0.27509000  0.85232000  1.0
  H  H15  1  0.02440000  0.72491000  0.14767000  1.0
  H  H16  1  0.07687000  0.42854000  0.92586000  1.0
  H  H17  1  0.92313000  0.57146000  0.07414000  1.0
  H  H18  1  0.33876000  0.67735000  0.09989000  1.0
  H  H19  1  0.66124000  0.32265000  0.90011000  1.0
  H  H20  1  0.52118000  0.44804000  0.16619000  1.0
  H  H21  1  0.47882000  0.55197000  0.83381000  1.0
  H  H22  1  0.62152000  0.39256000  0.33520000  1.0
  H  H23  1  0.37849000  0.60744000  0.66480000  1.0
  H  H24  1  0.53342000  0.57165000  0.43589000  1.0
  H  H25  1  0.46657000  0.42834000  0.56411000  1.0
  H  H26  1  0.25061000  0.24520000  0.61064000  1.0
  H  H27  1  0.74939000  0.75480000  0.38936000  1.0
  H  H28  1  0.38709000  0.23239000  0.53990000  1.0
  H  H29  1  0.61290000  0.76761000  0.46009000  1.0
  H  H30  1  0.09703000  0.03623000  0.71028000  1.0
  H  H31  1  0.90297000  0.96376000  0.28972000  1.0
  H  H32  1  0.96727000  0.09753000  0.63376000  1.0
  H  H33  1  0.03273000  0.90246000  0.36624000  1.0
  C  C34  1  0.55853000  0.83980000  0.78259000  1.0
  C  C35  1  0.44147000  0.16022000  0.21741000  1.0
  C  C36  1  0.67758000  0.71949000  0.81214000  1.0
  C  C37  1  0.32242000  0.28052000  0.18786000  1.0
  C  C38  1  0.71044000  0.65579000  0.91132000  1.0
  C  C39  1  0.28956000  0.34422000  0.08868000  1.0
  C  C40  1  0.62676000  0.71461000  0.98338000  1.0
  C  C41  1  0.37324000  0.28539000  0.01662000  1.0
  C  C42  1  0.51125000  0.83733000  0.95600000  1.0
  C  C43  1  0.48875000  0.16267000  0.04401000  1.0
  C  C44  1  0.47651000  0.89861000  0.85639000  1.0
  C  C45  1  0.52349000  0.10140000  0.14362000  1.0
  C  C46  1  0.52713000  0.89313000  0.67420000  1.0
  C  C47  1  0.47287000  0.10688000  0.32580000  1.0
  C  C48  1  0.04870000  0.63292000  0.68666000  1.0
  C  C49  1  0.95131000  0.36707000  0.31333000  1.0
  C  C50  1  0.98838000  0.54536000  0.64687000  1.0
  C  C51  1  0.01163000  0.45464000  0.35312000  1.0
  C  C52  1  0.96412000  0.41650000  0.70497000  1.0
  C  C53  1  0.03588000  0.58350000  0.29503000  1.0
  C  C54  1  0.99741000  0.37415000  0.80539000  1.0
  C  C55  1  0.00258000  0.62585000  0.19460000  1.0
  C  C56  1  0.05485000  0.46057000  0.84697000  1.0
  C  C57  1  0.94515000  0.53942000  0.15302000  1.0
  C  C58  1  0.08075000  0.58910000  0.78782000  1.0
  C  C59  1  0.91925000  0.41089000  0.21218000  1.0
  C  C60  1  0.07172000  0.76857000  0.61654000  1.0
  C  C61  1  0.92829000  0.23143000  0.38345000  1.0
  C  C62  1  0.38417000  0.72304000  0.32725000  1.0
  C  C63  1  0.61583000  0.27696000  0.67276000  1.0
  C  C64  1  0.33080000  0.75305000  0.23105000  1.0
  C  C65  1  0.66920000  0.24695000  0.76895000  1.0
  C  C66  1  0.38028000  0.65348000  0.17419000  1.0
  C  C67  1  0.61973000  0.34651000  0.82581000  1.0
  C  C68  1  0.48388000  0.52436000  0.21159000  1.0
  C  C69  1  0.51613000  0.47564000  0.78841000  1.0
  C  C70  1  0.54023000  0.49345000  0.30593000  1.0
  C  C71  1  0.45977000  0.50655000  0.69407000  1.0
  C  C72  1  0.49064000  0.59299000  0.36216000  1.0
  C  C73  1  0.50935000  0.40701000  0.63785000  1.0
  C  C74  1  0.33486000  0.81703000  0.39679000  1.0
  C  C75  1  0.66514000  0.18297000  0.60321000  1.0
  I  I76  1  0.30422000  0.08991000  0.82779000  1.0
  I  I77  1  0.69577000  0.91010000  0.17221000  1.0
  I  I78  1  0.18577000  0.95036000  0.15923000  1.0
  I  I79  1  0.81423000  0.04963000  0.84077000  1.0
  I  I80  1  0.15413000  0.71885000  0.86046000  1.0
  I  I81  1  0.84587000  0.28114000  0.13954000  1.0
  O  O82  1  0.39593000  0.94929000  0.64758000  1.0
  O  O83  1  0.60407000  0.05072000  0.35242000  1.0
  O  O84  1  0.19151000  0.80034000  0.61748000  1.0
  O  O85  1  0.80850000  0.19965000  0.38251000  1.0
  O  O86  1  0.42284000  0.81575000  0.46143000  1.0
  O  O87  1  0.57717000  0.18425000  0.53857000  1.0
  O  O88  1  0.20475000  0.89772000  0.39351000  1.0
  O  O89  1  0.79525000  0.10228000  0.60649000  1.0
  O  O90  1  0.63454000  0.87532000  0.61526000  1.0
  O  O91  1  0.36546000  0.12469000  0.38475000  1.0
  O  O92  1  0.96905000  0.84242000  0.55710000  1.0
  O  O93  1  0.03095000  0.15758000  0.44290000  1.0
  O  O94  1  0.27969000  0.24273000  0.54281000  1.0
  O  O95  1  0.72031000  0.75728000  0.45719000  1.0
  O  O96  1  0.07214000  0.09103000  0.64236000  1.0
  O  O97  1  0.92786000  0.90896000  0.35764000  1.0
