# generated using pymatgen
data_MnH8C10N2F3
_symmetry_space_group_name_H-M   'P 1'
_cell_length_a   3.97098000
_cell_length_b   7.99831000
_cell_length_c   7.99813000
_cell_angle_alpha   82.63860000
_cell_angle_beta   76.25290000
_cell_angle_gamma   76.25200000
_symmetry_Int_Tables_number   1
_chemical_formula_structural   MnH8C10N2F3
_chemical_formula_sum   'Mn1 H8 C10 N2 F3'
_cell_volume   238.99121749
_cell_formula_units_Z   1
loop_
 _symmetry_equiv_pos_site_id
 _symmetry_equiv_pos_as_xyz
  1  'x, y, z'
loop_
 _atom_site_type_symbol
 _atom_site_label
 _atom_site_symmetry_multiplicity
 _atom_site_fract_x
 _atom_site_fract_y
 _atom_site_fract_z
 _atom_site_occupancy
  Mn  Mn0  1  0.00000000  0.99937000  0.00063000  1.0
  H  H1  1  0.60000000  0.37520000  0.01638000  1.0
  H  H2  1  0.98624000  0.62305000  0.98030000  1.0
  H  H3  1  0.40000000  0.98361000  0.62480000  1.0
  H  H4  1  0.01374000  0.01970000  0.37697000  1.0
  H  H5  1  0.36863000  0.60489000  0.22755000  1.0
  H  H6  1  0.20462000  0.39244000  0.77042000  1.0
  H  H7  1  0.63138000  0.77243000  0.39511000  1.0
  H  H8  1  0.79538000  0.22958000  0.60757000  1.0
  C  C9  1  0.63770000  0.35068000  0.14872000  1.0
  C  C10  1  0.13283000  0.64845000  0.84939000  1.0
  C  C11  1  0.36230000  0.85127000  0.64932000  1.0
  C  C12  1  0.86716000  0.15062000  0.35155000  1.0
  C  C13  1  0.51290000  0.47705000  0.26613000  1.0
  C  C14  1  0.25575000  0.52170000  0.73246000  1.0
  C  C15  1  0.48711000  0.73386000  0.52295000  1.0
  C  C16  1  0.74423000  0.26755000  0.47831000  1.0
  C  C17  1  0.56518000  0.43524000  0.43519000  1.0
  C  C18  1  0.43481000  0.56481000  0.56476000  1.0
  N  N19  1  0.81363000  0.19081000  0.19005000  1.0
  N  N20  1  0.18637000  0.80996000  0.80918000  1.0
  F  F21  1  0.00001000  0.17327000  0.82673000  1.0
  F  F22  1  0.00002000  0.82553000  0.17447000  1.0
  F  F23  1  0.50000000  0.99893000  0.00107000  1.0
