# generated using pymatgen
data_Al4H13C36Br2N3O20
_symmetry_space_group_name_H-M   'P 1'
_cell_length_a   6.69377000
_cell_length_b   18.28780000
_cell_length_c   20.70360000
_cell_angle_alpha   72.12600000
_cell_angle_beta   89.68690000
_cell_angle_gamma   89.64730000
_symmetry_Int_Tables_number   1
_chemical_formula_structural   Al4H13C36Br2N3O20
_chemical_formula_sum   'Al4 H13 C36 Br2 N3 O20'
_cell_volume   2412.02779823
_cell_formula_units_Z   1
loop_
 _symmetry_equiv_pos_site_id
 _symmetry_equiv_pos_as_xyz
  1  'x, y, z'
loop_
 _atom_site_type_symbol
 _atom_site_label
 _atom_site_symmetry_multiplicity
 _atom_site_fract_x
 _atom_site_fract_y
 _atom_site_fract_z
 _atom_site_occupancy
  Al  Al0  1  0.86220000  0.50209000  0.50059000  1.0
  Al  Al1  1  0.36235000  0.50131000  0.50073000  1.0
  Al  Al2  1  0.35777000  0.00155000  0.99989000  1.0
  Al  Al3  1  0.85766000  0.00197000  0.99962000  1.0
  H  H4  1  0.40094000  0.25661000  0.17374000  1.0
  H  H5  1  0.39919000  0.33616000  0.25268000  1.0
  H  H6  1  0.31998000  0.73951000  0.83554000  1.0
  H  H7  1  0.66242000  0.15757000  0.27514000  1.0
  H  H8  1  0.78337000  0.12939000  0.21141000  1.0
  H  H9  1  0.98947000  0.87029000  0.70323000  1.0
  H  H10  1  0.91302000  0.88134000  0.77841000  1.0
  H  H11  1  0.90395000  0.72508000  0.63144000  1.0
  H  H12  1  0.04738000  0.76682000  0.67631000  1.0
  H  H13  1  0.61532000  0.40586000  0.50120000  1.0
  H  H14  1  0.11216000  0.60191000  0.48547000  1.0
  H  H15  1  0.60567000  0.10097000  0.99013000  1.0
  H  H16  1  0.10796000  0.90070000  0.02263000  1.0
  C  C17  1  0.61385000  0.60734000  0.39559000  1.0
  C  C18  1  0.60729000  0.57942000  0.57597000  1.0
  C  C19  1  0.10942000  0.39681000  0.60533000  1.0
  C  C20  1  0.11652000  0.42373000  0.42501000  1.0
  C  C21  1  0.93744000  0.20656000  0.24613000  1.0
  C  C22  1  0.10878000  0.20925000  0.20369000  1.0
  C  C23  1  0.27308000  0.25590000  0.20675000  1.0
  C  C24  1  0.27300000  0.29983000  0.25043000  1.0
  C  C25  1  0.10793000  0.29705000  0.29417000  1.0
  C  C26  1  0.94410000  0.25007000  0.29182000  1.0
  C  C27  1  0.10955000  0.16452000  0.15919000  1.0
  C  C28  1  0.11065000  0.34118000  0.33946000  1.0
  C  C29  1  0.11535000  0.37968000  0.37812000  1.0
  C  C30  1  0.10443000  0.12464000  0.12150000  1.0
  C  C31  1  0.10990000  0.16857000  0.83217000  1.0
  C  C32  1  0.10976000  0.22206000  0.77938000  1.0
  C  C33  1  0.10975000  0.28117000  0.72113000  1.0
  C  C34  1  0.10997000  0.33478000  0.66841000  1.0
  C  C35  1  0.61191000  0.66892000  0.33217000  1.0
  C  C36  1  0.61066000  0.72217000  0.27920000  1.0
  C  C37  1  0.60920000  0.78102000  0.22075000  1.0
  C  C38  1  0.60768000  0.83439000  0.16785000  1.0
  C  C39  1  0.44013000  0.74329000  0.79909000  1.0
  C  C40  1  0.60174000  0.79385000  0.79675000  1.0
  C  C41  1  0.76133000  0.79979000  0.75029000  1.0
  C  C42  1  0.75625000  0.75532000  0.70489000  1.0
  C  C43  1  0.59426000  0.70489000  0.70739000  1.0
  C  C44  1  0.43839000  0.69963000  0.75549000  1.0
  C  C45  1  0.60419000  0.83924000  0.84081000  1.0
  C  C46  1  0.59559000  0.66045000  0.66268000  1.0
  C  C47  1  0.60525000  0.62360000  0.62258000  1.0
  C  C48  1  0.61073000  0.87936000  0.87824000  1.0
  C  C49  1  0.61344000  0.92409000  0.92446000  1.0
  C  C50  1  0.60465000  0.89620000  0.10466000  1.0
  C  C51  1  0.10231000  0.08006000  0.07514000  1.0
  C  C52  1  0.11167000  0.10670000  0.89527000  1.0
  Br  Br53  1  0.72561000  0.24355000  0.35222000  1.0
  Br  Br54  1  0.22982000  0.62743000  0.76224000  1.0
  N  N55  1  0.77598000  0.16393000  0.24138000  1.0
  N  N56  1  0.92450000  0.84582000  0.74920000  1.0
  N  N57  1  0.90810000  0.76419000  0.65746000  1.0
  O  O58  1  0.43790000  0.55886000  0.55992000  1.0
  O  O59  1  0.78518000  0.58227000  0.41868000  1.0
  O  O60  1  0.94668000  0.43857000  0.44639000  1.0
  O  O61  1  0.77767000  0.56563000  0.55420000  1.0
  O  O62  1  0.93889000  0.42287000  0.58231000  1.0
  O  O63  1  0.44409000  0.58536000  0.42226000  1.0
  O  O64  1  0.61326000  0.45645000  0.50700000  1.0
  O  O65  1  0.27939000  0.41823000  0.57868000  1.0
  O  O66  1  0.28699000  0.44294000  0.44154000  1.0
  O  O67  1  0.11203000  0.54697000  0.49313000  1.0
  O  O68  1  0.77343000  0.91687000  0.07649000  1.0
  O  O69  1  0.44484000  0.93634000  0.94836000  1.0
  O  O70  1  0.28212000  0.07919000  0.91705000  1.0
  O  O71  1  0.43347000  0.92319000  0.08308000  1.0
  O  O72  1  0.27142000  0.06728000  0.05183000  1.0
  O  O73  1  0.78358000  0.94650000  0.93815000  1.0
  O  O74  1  0.60701000  0.04707000  0.99318000  1.0
  O  O75  1  0.93163000  0.05839000  0.06103000  1.0
  O  O76  1  0.94271000  0.08641000  0.92337000  1.0
  O  O77  1  0.10804000  0.95633000  0.00754000  1.0
