# generated using pymatgen
data_ZnH10C14N3O4
_symmetry_space_group_name_H-M   'P 1'
_cell_length_a   6.77039000
_cell_length_b   7.74647000
_cell_length_c   13.22690000
_cell_angle_alpha   73.45350000
_cell_angle_beta   86.21080000
_cell_angle_gamma   87.37310000
_symmetry_Int_Tables_number   1
_chemical_formula_structural   ZnH10C14N3O4
_chemical_formula_sum   'Zn2 H20 C28 N6 O8'
_cell_volume   663.26080108
_cell_formula_units_Z   2
loop_
 _symmetry_equiv_pos_site_id
 _symmetry_equiv_pos_as_xyz
  1  'x, y, z'
loop_
 _atom_site_type_symbol
 _atom_site_label
 _atom_site_symmetry_multiplicity
 _atom_site_fract_x
 _atom_site_fract_y
 _atom_site_fract_z
 _atom_site_occupancy
  Zn  Zn0  1  0.39516000  0.39011000  0.13833000  1.0
  Zn  Zn1  1  0.60485000  0.60988000  0.86166000  1.0
  H  H2  1  0.86159000  0.45897000  0.20033000  1.0
  H  H3  1  0.13841000  0.54103000  0.79967000  1.0
  H  H4  1  0.57267000  0.91749000  0.26392000  1.0
  H  H5  1  0.42731000  0.08251000  0.73608000  1.0
  H  H6  1  0.94903000  0.88058000  0.28671000  1.0
  H  H7  1  0.05097000  0.11942000  0.71329000  1.0
  H  H8  1  0.08560000  0.72198000  0.23416000  1.0
  H  H9  1  0.91439000  0.27802000  0.76584000  1.0
  H  H10  1  0.28038000  0.53200000  0.36588000  1.0
  H  H11  1  0.71960000  0.46801000  0.63412000  1.0
  H  H12  1  0.68385000  0.67145000  0.45411000  1.0
  H  H13  1  0.31614000  0.32856000  0.54590000  1.0
  H  H14  1  0.36154000  0.93060000  0.49417000  1.0
  H  H15  1  0.63848000  0.06940000  0.50583000  1.0
  H  H16  1  0.15296000  0.78637000  0.65428000  1.0
  H  H17  1  0.84706000  0.21364000  0.34572000  1.0
  H  H18  1  0.89066000  0.70555000  0.98625000  1.0
  H  H19  1  0.10934000  0.29444000  0.01375000  1.0
  H  H20  1  0.64084000  0.94531000  0.00094000  1.0
  H  H21  1  0.35916000  0.05469000  0.99906000  1.0
  C  C22  1  0.74641000  0.55800000  0.20797000  1.0
  C  C23  1  0.25358000  0.44200000  0.79203000  1.0
  C  C24  1  0.59848000  0.79413000  0.24021000  1.0
  C  C25  1  0.40150000  0.20586000  0.75978000  1.0
  C  C26  1  0.95889000  0.73845000  0.28713000  1.0
  C  C27  1  0.04110000  0.26156000  0.71287000  1.0
  C  C28  1  0.98044000  0.61540000  0.39757000  1.0
  C  C29  1  0.01954000  0.38461000  0.60243000  1.0
  C  C30  1  0.15790000  0.51890000  0.42496000  1.0
  C  C31  1  0.84209000  0.48110000  0.57504000  1.0
  C  C32  1  0.82272000  0.59542000  0.47351000  1.0
  C  C33  1  0.17727000  0.40459000  0.52649000  1.0
  C  C34  1  0.25072000  0.17348000  0.31568000  1.0
  C  C35  1  0.74929000  0.82652000  0.68432000  1.0
  C  C36  1  0.11885000  0.08167000  0.40924000  1.0
  C  C37  1  0.88116000  0.91833000  0.59077000  1.0
  C  C38  1  0.20291000  0.96017000  0.49682000  1.0
  C  C39  1  0.79710000  0.03983000  0.50319000  1.0
  C  C40  1  0.08564000  0.87986000  0.58684000  1.0
  C  C41  1  0.91437000  0.12014000  0.41316000  1.0
  C  C42  1  0.28456000  0.72333000  0.98009000  1.0
  C  C43  1  0.71544000  0.27667000  0.01990000  1.0
  C  C44  1  0.13849000  0.86681000  0.99066000  1.0
  C  C45  1  0.86152000  0.13319000  0.00934000  1.0
  C  C46  1  0.93627000  0.83501000  0.99233000  1.0
  C  C47  1  0.06374000  0.16499000  0.00767000  1.0
  C  C48  1  0.79774000  0.96830000  0.00159000  1.0
  C  C49  1  0.20227000  0.03170000  0.99841000  1.0
  N  N50  1  0.55887000  0.56298000  0.18395000  1.0
  N  N51  1  0.44113000  0.43702000  0.81604000  1.0
  N  N52  1  0.46402000  0.71236000  0.20402000  1.0
  N  N53  1  0.53597000  0.28764000  0.79598000  1.0
  N  N54  1  0.77643000  0.70170000  0.24392000  1.0
  N  N55  1  0.22356000  0.29830000  0.75608000  1.0
  O  O56  1  0.16718000  0.28733000  0.23638000  1.0
  O  O57  1  0.83283000  0.71267000  0.76362000  1.0
  O  O58  1  0.43487000  0.14345000  0.31586000  1.0
  O  O59  1  0.56513000  0.85654000  0.68414000  1.0
  O  O60  1  0.23942000  0.55968000  0.02338000  1.0
  O  O61  1  0.76058000  0.44032000  0.97662000  1.0
  O  O62  1  0.44567000  0.77472000  0.92582000  1.0
  O  O63  1  0.55433000  0.22528000  0.07418000  1.0
