# generated using pymatgen
data_HgH10C11S2(BrN)2
_symmetry_space_group_name_H-M   'P 1'
_cell_length_a   7.57439000
_cell_length_b   8.21453000
_cell_length_c   23.87540000
_cell_angle_alpha   90.00010000
_cell_angle_beta   90.00010000
_cell_angle_gamma   94.04990000
_symmetry_Int_Tables_number   1
_chemical_formula_structural   HgH10C11S2(BrN)2
_chemical_formula_sum   'Hg4 H40 C44 S8 Br8 N8'
_cell_volume   1481.81919015
_cell_formula_units_Z   4
loop_
 _symmetry_equiv_pos_site_id
 _symmetry_equiv_pos_as_xyz
  1  'x, y, z'
loop_
 _atom_site_type_symbol
 _atom_site_label
 _atom_site_symmetry_multiplicity
 _atom_site_fract_x
 _atom_site_fract_y
 _atom_site_fract_z
 _atom_site_occupancy
  Hg  Hg0  1  0.04937000  0.51969000  0.79468000  1.0
  Hg  Hg1  1  0.54937000  0.51967000  0.70532000  1.0
  Hg  Hg2  1  0.95063000  0.48032000  0.20532000  1.0
  Hg  Hg3  1  0.45063000  0.48032000  0.29468000  1.0
  H  H4  1  0.13016000  0.93236000  0.90482000  1.0
  H  H5  1  0.63016000  0.93236000  0.59518000  1.0
  H  H6  1  0.86984000  0.06764000  0.09518000  1.0
  H  H7  1  0.36984000  0.06764000  0.40482000  1.0
  H  H8  1  0.35509000  0.02358000  0.89691000  1.0
  H  H9  1  0.85510000  0.02358000  0.60309000  1.0
  H  H10  1  0.64491000  0.97642000  0.10309000  1.0
  H  H11  1  0.14491000  0.97642000  0.39691000  1.0
  H  H12  1  0.25006000  0.91297000  0.81176000  1.0
  H  H13  1  0.75005000  0.91297000  0.68824000  1.0
  H  H14  1  0.74995000  0.08703000  0.18824000  1.0
  H  H15  1  0.24995000  0.08703000  0.31176000  1.0
  H  H16  1  0.26508000  0.85785000  0.70995000  1.0
  H  H17  1  0.76508000  0.85784000  0.79005000  1.0
  H  H18  1  0.73493000  0.14215000  0.29005000  1.0
  H  H19  1  0.23493000  0.14215000  0.20995000  1.0
  H  H20  1  0.16477000  0.06816000  0.64163000  1.0
  H  H21  1  0.66477000  0.06816000  0.85837000  1.0
  H  H22  1  0.83523000  0.93184000  0.35837000  1.0
  H  H23  1  0.33523000  0.93185000  0.14163000  1.0
  H  H24  1  0.06630000  0.33011000  0.67995000  1.0
  H  H25  1  0.56630000  0.33011000  0.82005000  1.0
  H  H26  1  0.93371000  0.66988000  0.32005000  1.0
  H  H27  1  0.43370000  0.66988000  0.17995000  1.0
  H  H28  1  0.38044000  0.28363000  0.07218000  1.0
  H  H29  1  0.88044000  0.28363000  0.42782000  1.0
  H  H30  1  0.61956000  0.71637000  0.92782000  1.0
  H  H31  1  0.11955000  0.71637000  0.57219000  1.0
  H  H32  1  0.67566000  0.43624000  0.08112000  1.0
  H  H33  1  0.17566000  0.43624000  0.41888000  1.0
  H  H34  1  0.32435000  0.56376000  0.91887000  1.0
  H  H35  1  0.82434000  0.56376000  0.58113000  1.0
  H  H36  1  0.88529000  0.43957000  0.99900000  1.0
  H  H37  1  0.38529000  0.43958000  0.50100000  1.0
  H  H38  1  0.11471000  0.56042000  0.00100000  1.0
  H  H39  1  0.61471000  0.56042000  0.49900000  1.0
  H  H40  1  0.78864000  0.29175000  0.91208000  1.0
  H  H41  1  0.28864000  0.29175000  0.58792000  1.0
  H  H42  1  0.21136000  0.70825000  0.08792000  1.0
  H  H43  1  0.71136000  0.70825000  0.41208000  1.0
  C  C44  1  0.21903000  0.04288000  0.90977000  1.0
  C  C45  1  0.71904000  0.04288000  0.59023000  1.0
  C  C46  1  0.78097000  0.95712000  0.09023000  1.0
  C  C47  1  0.28097000  0.95711000  0.40977000  1.0
  C  C48  1  0.15379000  0.15325000  0.80025000  1.0
  C  C49  1  0.65379000  0.15324000  0.69974000  1.0
  C  C50  1  0.84621000  0.84676000  0.19975000  1.0
  C  C51  1  0.34621000  0.84676000  0.30026000  1.0
  C  C52  1  0.21095000  0.00367000  0.78190000  1.0
  C  C53  1  0.71094000  0.00367000  0.71810000  1.0
  C  C54  1  0.78905000  0.99633000  0.21810000  1.0
  C  C55  1  0.28905000  0.99633000  0.28190000  1.0
  C  C56  1  0.21841000  0.97274000  0.72477000  1.0
  C  C57  1  0.71840000  0.97273000  0.77523000  1.0
  C  C58  1  0.78159000  0.02727000  0.27523000  1.0
  C  C59  1  0.28159000  0.02727000  0.22478000  1.0
  C  C60  1  0.16543000  0.08890000  0.68665000  1.0
  C  C61  1  0.66544000  0.08889000  0.81335000  1.0
  C  C62  1  0.83456000  0.91110000  0.31335000  1.0
  C  C63  1  0.33456000  0.91111000  0.18665000  1.0
  C  C64  1  0.11001000  0.23459000  0.70738000  1.0
  C  C65  1  0.61001000  0.23458000  0.79262000  1.0
  C  C66  1  0.88999000  0.76541000  0.29262000  1.0
  C  C67  1  0.38999000  0.76542000  0.20738000  1.0
  C  C68  1  0.43271000  0.20776000  0.98678000  1.0
  C  C69  1  0.93272000  0.20775000  0.51322000  1.0
  C  C70  1  0.56729000  0.79225000  0.01322000  1.0
  C  C71  1  0.06728000  0.79225000  0.48678000  1.0
  C  C72  1  0.47519000  0.28630000  0.03774000  1.0
  C  C73  1  0.97519000  0.28630000  0.46225000  1.0
  C  C74  1  0.52481000  0.71370000  0.96225000  1.0
  C  C75  1  0.02480000  0.71370000  0.53775000  1.0
  C  C76  1  0.63955000  0.37158000  0.04245000  1.0
  C  C77  1  0.13955000  0.37158000  0.45755000  1.0
  C  C78  1  0.36046000  0.62842000  0.95755000  1.0
  C  C79  1  0.86045000  0.62842000  0.54245000  1.0
  C  C80  1  0.75554000  0.37441000  0.99696000  1.0
  C  C81  1  0.25554000  0.37442000  0.50304000  1.0
  C  C82  1  0.24446000  0.62558000  0.00304000  1.0
  C  C83  1  0.74446000  0.62558000  0.49696000  1.0
  C  C84  1  0.70091000  0.29226000  0.94839000  1.0
  C  C85  1  0.20092000  0.29226000  0.55161000  1.0
  C  C86  1  0.29908000  0.70774000  0.05161000  1.0
  C  C87  1  0.79908000  0.70774000  0.44839000  1.0
  S  S88  1  0.13821000  0.21232000  0.87023000  1.0
  S  S89  1  0.63822000  0.21232000  0.62977000  1.0
  S  S90  1  0.86179000  0.78768000  0.12977000  1.0
  S  S91  1  0.36179000  0.78768000  0.37023000  1.0
  S  S92  1  0.22207000  0.09879000  0.98222000  1.0
  S  S93  1  0.72208000  0.09879000  0.51778000  1.0
  S  S94  1  0.77793000  0.90121000  0.01778000  1.0
  S  S95  1  0.27793000  0.90121000  0.48222000  1.0
  Br  Br96  1  0.91447000  0.62372000  0.69649000  1.0
  Br  Br97  1  0.41448000  0.62373000  0.80351000  1.0
  Br  Br98  1  0.08553000  0.37627000  0.30351000  1.0
  Br  Br99  1  0.58552000  0.37628000  0.19649000  1.0
  Br  Br100  1  0.92071000  0.66463000  0.87678000  1.0
  Br  Br101  1  0.42071000  0.66463000  0.62322000  1.0
  Br  Br102  1  0.07928000  0.33537000  0.12322000  1.0
  Br  Br103  1  0.57929000  0.33537000  0.37678000  1.0
  N  N104  1  0.10630000  0.26612000  0.76278000  1.0
  N  N105  1  0.60631000  0.26612000  0.73722000  1.0
  N  N106  1  0.89370000  0.73388000  0.23722000  1.0
  N  N107  1  0.39370000  0.73389000  0.26278000  1.0
  N  N108  1  0.54195000  0.21012000  0.94286000  1.0
  N  N109  1  0.04195000  0.21011000  0.55714000  1.0
  N  N110  1  0.45805000  0.78988000  0.05714000  1.0
  N  N111  1  0.95806000  0.78988000  0.44286000  1.0
