# generated using pymatgen
data_Ag2H22C25N4O5
_symmetry_space_group_name_H-M   'P 1'
_cell_length_a   9.23844000
_cell_length_b   10.15510000
_cell_length_c   25.73980000
_cell_angle_alpha   79.87300000
_cell_angle_beta   89.99980000
_cell_angle_gamma   89.99970000
_symmetry_Int_Tables_number   1
_chemical_formula_structural   Ag2H22C25N4O5
_chemical_formula_sum   'Ag8 H88 C100 N16 O20'
_cell_volume   2377.21593998
_cell_formula_units_Z   4
loop_
 _symmetry_equiv_pos_site_id
 _symmetry_equiv_pos_as_xyz
  1  'x, y, z'
loop_
 _atom_site_type_symbol
 _atom_site_label
 _atom_site_symmetry_multiplicity
 _atom_site_fract_x
 _atom_site_fract_y
 _atom_site_fract_z
 _atom_site_occupancy
  Ag  Ag0  1  0.14542000  0.87035000  0.00440000  1.0
  Ag  Ag1  1  0.64543000  0.62965000  0.49561000  1.0
  Ag  Ag2  1  0.85458000  0.12964000  0.99560000  1.0
  Ag  Ag3  1  0.35459000  0.37035000  0.50440000  1.0
  Ag  Ag4  1  0.13164000  0.59541000  0.98395000  1.0
  Ag  Ag5  1  0.63165000  0.90460000  0.51605000  1.0
  Ag  Ag6  1  0.86836000  0.40458000  0.01605000  1.0
  Ag  Ag7  1  0.36837000  0.09541000  0.48395000  1.0
  H  H8  1  0.07766000  0.04562000  0.87767000  1.0
  H  H9  1  0.57768000  0.45437000  0.62233000  1.0
  H  H10  1  0.92232000  0.95436000  0.12233000  1.0
  H  H11  1  0.42234000  0.54563000  0.37767000  1.0
  H  H12  1  0.21735000  0.12707000  0.79440000  1.0
  H  H13  1  0.71738000  0.37293000  0.70560000  1.0
  H  H14  1  0.78263000  0.87293000  0.20560000  1.0
  H  H15  1  0.28263000  0.62708000  0.29440000  1.0
  H  H16  1  0.59643000  0.94447000  0.87123000  1.0
  H  H17  1  0.09645000  0.55553000  0.62876000  1.0
  H  H18  1  0.40356000  0.05556000  0.12876000  1.0
  H  H19  1  0.90356000  0.44447000  0.37124000  1.0
  H  H20  1  0.68729000  0.87912000  0.94132000  1.0
  H  H21  1  0.18731000  0.62088000  0.55868000  1.0
  H  H22  1  0.31270000  0.12088000  0.05868000  1.0
  H  H23  1  0.81271000  0.37911000  0.44132000  1.0
  H  H24  1  0.62754000  0.71368000  0.10517000  1.0
  H  H25  1  0.12755000  0.78632000  0.39483000  1.0
  H  H26  1  0.37246000  0.28631000  0.89483000  1.0
  H  H27  1  0.87247000  0.21367000  0.60517000  1.0
  H  H28  1  0.36382000  0.77206000  0.09355000  1.0
  H  H29  1  0.86382000  0.72795000  0.40644000  1.0
  H  H30  1  0.63618000  0.22794000  0.90644000  1.0
  H  H31  1  0.13620000  0.27205000  0.59356000  1.0
  H  H32  1  0.94022000  0.82023000  0.92527000  1.0
  H  H33  1  0.44025000  0.67976000  0.57473000  1.0
  H  H34  1  0.05973000  0.17975000  0.07474000  1.0
  H  H35  1  0.55977000  0.32024000  0.42527000  1.0
  H  H36  1  0.82262000  0.87800000  0.83663000  1.0
  H  H37  1  0.32264000  0.62199000  0.66337000  1.0
  H  H38  1  0.17734000  0.12199000  0.16337000  1.0
  H  H39  1  0.67737000  0.37801000  0.33663000  1.0
  H  H40  1  0.07859000  0.56435000  0.78776000  1.0
  H  H41  1  0.57858000  0.93565000  0.71224000  1.0
  H  H42  1  0.92140000  0.43567000  0.21224000  1.0
  H  H43  1  0.42140000  0.06436000  0.28776000  1.0
  H  H44  1  0.18144000  0.51825000  0.87780000  1.0
  H  H45  1  0.68145000  0.98175000  0.62220000  1.0
  H  H46  1  0.81853000  0.48175000  0.12220000  1.0
  H  H47  1  0.31855000  0.01827000  0.37780000  1.0
  H  H48  1  0.76830000  0.81724000  0.75539000  1.0
  H  H49  1  0.26829000  0.68275000  0.74461000  1.0
  H  H50  1  0.23170000  0.18278000  0.24461000  1.0
  H  H51  1  0.73170000  0.31724000  0.25539000  1.0
  H  H52  1  0.80066000  0.64704000  0.75143000  1.0
  H  H53  1  0.30066000  0.85296000  0.74857000  1.0
  H  H54  1  0.19932000  0.35299000  0.24857000  1.0
  H  H55  1  0.69932000  0.14703000  0.25143000  1.0
  H  H56  1  0.03706000  0.71445000  0.70456000  1.0
  H  H57  1  0.53705000  0.78554000  0.79544000  1.0
  H  H58  1  0.96294000  0.28556000  0.29545000  1.0
  H  H59  1  0.46294000  0.21445000  0.20456000  1.0
  H  H60  1  0.87783000  0.77043000  0.67037000  1.0
  H  H61  1  0.37783000  0.72955000  0.82963000  1.0
  H  H62  1  0.12217000  0.22958000  0.32963000  1.0
  H  H63  1  0.62216000  0.27043000  0.17037000  1.0
  H  H64  1  0.40601000  0.11569000  0.60107000  1.0
  H  H65  1  0.90600000  0.38429000  0.89893000  1.0
  H  H66  1  0.59401000  0.88432000  0.39894000  1.0
  H  H67  1  0.09399000  0.61569000  0.10107000  1.0
  H  H68  1  0.26430000  0.06205000  0.68416000  1.0
  H  H69  1  0.76430000  0.43794000  0.81584000  1.0
  H  H70  1  0.73569000  0.93797000  0.31584000  1.0
  H  H71  1  0.23569000  0.56205000  0.18416000  1.0
  H  H72  1  0.94561000  0.87643000  0.59651000  1.0
  H  H73  1  0.44560000  0.62356000  0.90348000  1.0
  H  H74  1  0.05441000  0.12356000  0.40348000  1.0
  H  H75  1  0.55440000  0.37645000  0.09652000  1.0
  H  H76  1  0.10331000  0.93374000  0.51824000  1.0
  H  H77  1  0.60331000  0.56625000  0.98176000  1.0
  H  H78  1  0.89673000  0.06625000  0.48176000  1.0
  H  H79  1  0.39671000  0.43375000  0.01824000  1.0
  H  H80  1  0.90662000  0.99641000  0.69517000  1.0
  H  H81  1  0.40662000  0.50359000  0.80482000  1.0
  H  H82  1  0.09339000  0.00361000  0.30482000  1.0
  H  H83  1  0.59339000  0.49641000  0.19517000  1.0
  H  H84  1  0.06338000  0.94405000  0.73159000  1.0
  H  H85  1  0.56338000  0.55595000  0.76840000  1.0
  H  H86  1  0.93662000  0.05597000  0.26841000  1.0
  H  H87  1  0.43662000  0.44405000  0.23159000  1.0
  H  H88  1  0.23246000  0.88684000  0.18051000  1.0
  H  H89  1  0.73244000  0.61318000  0.31949000  1.0
  H  H90  1  0.76752000  0.11317000  0.81949000  1.0
  H  H91  1  0.26755000  0.38684000  0.68050000  1.0
  H  H92  1  0.11425000  0.77793000  0.18323000  1.0
  H  H93  1  0.61424000  0.72209000  0.31677000  1.0
  H  H94  1  0.88574000  0.22206000  0.81677000  1.0
  H  H95  1  0.38574000  0.27793000  0.68322000  1.0
  C  C96  1  0.19344000  0.02457000  0.87534000  1.0
  C  C97  1  0.69346000  0.47543000  0.62467000  1.0
  C  C98  1  0.80654000  0.97542000  0.12467000  1.0
  C  C99  1  0.30655000  0.52457000  0.37534000  1.0
  C  C100  1  0.27023000  0.06903000  0.82885000  1.0
  C  C101  1  0.77026000  0.43096000  0.67115000  1.0
  C  C102  1  0.72975000  0.93096000  0.17115000  1.0
  C  C103  1  0.22975000  0.56904000  0.32885000  1.0
  C  C104  1  0.41742000  0.03788000  0.82710000  1.0
  C  C105  1  0.91745000  0.46212000  0.67290000  1.0
  C  C106  1  0.58256000  0.96213000  0.17290000  1.0
  C  C107  1  0.08257000  0.53789000  0.32710000  1.0
  C  C108  1  0.48164000  0.96754000  0.87282000  1.0
  C  C109  1  0.98166000  0.53246000  0.62718000  1.0
  C  C110  1  0.51835000  0.03247000  0.12718000  1.0
  C  C111  1  0.01835000  0.46754000  0.37282000  1.0
  C  C112  1  0.39889000  0.93029000  0.91868000  1.0
  C  C113  1  0.89891000  0.56971000  0.58132000  1.0
  C  C114  1  0.60110000  0.06972000  0.08132000  1.0
  C  C115  1  0.10111000  0.43028000  0.41868000  1.0
  C  C116  1  0.46600000  0.86786000  0.96986000  1.0
  C  C117  1  0.96601000  0.63214000  0.53014000  1.0
  C  C118  1  0.53400000  0.13215000  0.03014000  1.0
  C  C119  1  0.03400000  0.36786000  0.46986000  1.0
  C  C120  1  0.61566000  0.84849000  0.97476000  1.0
  C  C121  1  0.11568000  0.65150000  0.52523000  1.0
  C  C122  1  0.38433000  0.15151000  0.02523000  1.0
  C  C123  1  0.88434000  0.34849000  0.47477000  1.0
  C  C124  1  0.67599000  0.79104000  0.02318000  1.0
  C  C125  1  0.17600000  0.70895000  0.47682000  1.0
  C  C126  1  0.32401000  0.20895000  0.97682000  1.0
  C  C127  1  0.82402000  0.29104000  0.52318000  1.0
  C  C128  1  0.58446000  0.75723000  0.06662000  1.0
  C  C129  1  0.08448000  0.74276000  0.43338000  1.0
  C  C130  1  0.41553000  0.24276000  0.93338000  1.0
  C  C131  1  0.91555000  0.25723000  0.56662000  1.0
  C  C132  1  0.43809000  0.78730000  0.06009000  1.0
  C  C133  1  0.93811000  0.71270000  0.43991000  1.0
  C  C134  1  0.56190000  0.21270000  0.93991000  1.0
  C  C135  1  0.06192000  0.28730000  0.56009000  1.0
  C  C136  1  0.50575000  0.07629000  0.77636000  1.0
  C  C137  1  0.00579000  0.42370000  0.72364000  1.0
  C  C138  1  0.49423000  0.92372000  0.22364000  1.0
  C  C139  1  0.99423000  0.57630000  0.27637000  1.0
  C  C140  1  0.83691000  0.76942000  0.02810000  1.0
  C  C141  1  0.33692000  0.73057000  0.47190000  1.0
  C  C142  1  0.16309000  0.23057000  0.97190000  1.0
  C  C143  1  0.66310000  0.26943000  0.52810000  1.0
  C  C144  1  0.96666000  0.76593000  0.89359000  1.0
  C  C145  1  0.46668000  0.73407000  0.60641000  1.0
  C  C146  1  0.03330000  0.23406000  0.10641000  1.0
  C  C147  1  0.53334000  0.26593000  0.39359000  1.0
  C  C148  1  0.90168000  0.79710000  0.84436000  1.0
  C  C149  1  0.40169000  0.70290000  0.65564000  1.0
  C  C150  1  0.09829000  0.20290000  0.15565000  1.0
  C  C151  1  0.59832000  0.29710000  0.34436000  1.0
  C  C152  1  0.93662000  0.72337000  0.80500000  1.0
  C  C153  1  0.43662000  0.77662000  0.69500000  1.0
  C  C154  1  0.06337000  0.27664000  0.19500000  1.0
  C  C155  1  0.56338000  0.22337000  0.30500000  1.0
  C  C156  1  0.04497000  0.62579000  0.81639000  1.0
  C  C157  1  0.54497000  0.87420000  0.68361000  1.0
  C  C158  1  0.95501000  0.37422000  0.18360000  1.0
  C  C159  1  0.45502000  0.12580000  0.31639000  1.0
  C  C160  1  0.10464000  0.59963000  0.86656000  1.0
  C  C161  1  0.60465000  0.90036000  0.63344000  1.0
  C  C162  1  0.89534000  0.40037000  0.13344000  1.0
  C  C163  1  0.39535000  0.09964000  0.36656000  1.0
  C  C164  1  0.85386000  0.74281000  0.75405000  1.0
  C  C165  1  0.35386000  0.75719000  0.74595000  1.0
  C  C166  1  0.14613000  0.25721000  0.24595000  1.0
  C  C167  1  0.64613000  0.24281000  0.25405000  1.0
  C  C168  1  0.94510000  0.78341000  0.70430000  1.0
  C  C169  1  0.44510000  0.71659000  0.79570000  1.0
  C  C170  1  0.05489000  0.21661000  0.29570000  1.0
  C  C171  1  0.55489000  0.28341000  0.20430000  1.0
  C  C172  1  0.30387000  0.06152000  0.60234000  1.0
  C  C173  1  0.80387000  0.43847000  0.89766000  1.0
  C  C174  1  0.69614000  0.93849000  0.39767000  1.0
  C  C175  1  0.19613000  0.56151000  0.10234000  1.0
  C  C176  1  0.22247000  0.03147000  0.64839000  1.0
  C  C177  1  0.72246000  0.46852000  0.85160000  1.0
  C  C178  1  0.77754000  0.96854000  0.35161000  1.0
  C  C179  1  0.27753000  0.53147000  0.14839000  1.0
  C  C180  1  0.04702000  0.92909000  0.59998000  1.0
  C  C181  1  0.54702000  0.57090000  0.90002000  1.0
  C  C182  1  0.95300000  0.07090000  0.40002000  1.0
  C  C183  1  0.45299000  0.42910000  0.09998000  1.0
  C  C184  1  0.13418000  0.96092000  0.55578000  1.0
  C  C185  1  0.63418000  0.53906000  0.94422000  1.0
  C  C186  1  0.86585000  0.03907000  0.44422000  1.0
  C  C187  1  0.36583000  0.46093000  0.05578000  1.0
  C  C188  1  0.00002000  0.92776000  0.69708000  1.0
  C  C189  1  0.50002000  0.57224000  0.80292000  1.0
  C  C190  1  0.99998000  0.07225000  0.30292000  1.0
  C  C191  1  0.49998000  0.42776000  0.19708000  1.0
  C  C192  1  0.09058000  0.96389000  0.64809000  1.0
  C  C193  1  0.59057000  0.53610000  0.85190000  1.0
  C  C194  1  0.90944000  0.03611000  0.35191000  1.0
  C  C195  1  0.40943000  0.46389000  0.14809000  1.0
  N  N196  1  0.25588000  0.95631000  0.91892000  1.0
  N  N197  1  0.75590000  0.54368000  0.58108000  1.0
  N  N198  1  0.74411000  0.04368000  0.08108000  1.0
  N  N199  1  0.24412000  0.45631000  0.41892000  1.0
  N  N200  1  0.37955000  0.83798000  0.01295000  1.0
  N  N201  1  0.87956000  0.66202000  0.48705000  1.0
  N  N202  1  0.62045000  0.16202000  0.98705000  1.0
  N  N203  1  0.12046000  0.33798000  0.51295000  1.0
  N  N204  1  0.06411000  0.66611000  0.90529000  1.0
  N  N205  1  0.56414000  0.83389000  0.59472000  1.0
  N  N206  1  0.93585000  0.33388000  0.09472000  1.0
  N  N207  1  0.43588000  0.16612000  0.40529000  1.0
  N  N208  1  0.26123000  0.02623000  0.55660000  1.0
  N  N209  1  0.76123000  0.47376000  0.94339000  1.0
  N  N210  1  0.73879000  0.97377000  0.44340000  1.0
  N  N211  1  0.23877000  0.52623000  0.05660000  1.0
  O  O212  1  0.63883000  0.04301000  0.77891000  1.0
  O  O213  1  0.13885000  0.45700000  0.72109000  1.0
  O  O214  1  0.36115000  0.95702000  0.22109000  1.0
  O  O215  1  0.86115000  0.54301000  0.27891000  1.0
  O  O216  1  0.43713000  0.13222000  0.73600000  1.0
  O  O217  1  0.93716000  0.36776000  0.76399000  1.0
  O  O218  1  0.56284000  0.86780000  0.26400000  1.0
  O  O219  1  0.06285000  0.63223000  0.23601000  1.0
  O  O220  1  0.88356000  0.66038000  0.05274000  1.0
  O  O221  1  0.38357000  0.83961000  0.44726000  1.0
  O  O222  1  0.11644000  0.33961000  0.94726000  1.0
  O  O223  1  0.61645000  0.16038000  0.55274000  1.0
  O  O224  1  0.91232000  0.86909000  0.00468000  1.0
  O  O225  1  0.41233000  0.63091000  0.49532000  1.0
  O  O226  1  0.08768000  0.13091000  0.99532000  1.0
  O  O227  1  0.58769000  0.36908000  0.50468000  1.0
  O  O228  1  0.16108000  0.84990000  0.15822000  1.0
  O  O229  1  0.66107000  0.65011000  0.34178000  1.0
  O  O230  1  0.83890000  0.15010000  0.84178000  1.0
  O  O231  1  0.33891000  0.34991000  0.65821000  1.0
