# generated using pymatgen
data_CdH10C11(N2Cl)2
_symmetry_space_group_name_H-M   'P 1'
_cell_length_a   8.46077000
_cell_length_b   9.29294577
_cell_length_c   9.54665000
_cell_angle_alpha   92.18746259
_cell_angle_beta   95.61310000
_cell_angle_gamma   115.85811564
_symmetry_Int_Tables_number   1
_chemical_formula_structural   CdH10C11(N2Cl)2
_chemical_formula_sum   'Cd2 H20 C22 N8 Cl4'
_cell_volume   669.47420189
_cell_formula_units_Z   2
loop_
 _symmetry_equiv_pos_site_id
 _symmetry_equiv_pos_as_xyz
  1  'x, y, z'
loop_
 _atom_site_type_symbol
 _atom_site_label
 _atom_site_symmetry_multiplicity
 _atom_site_fract_x
 _atom_site_fract_y
 _atom_site_fract_z
 _atom_site_occupancy
  Cd  Cd0  1  0.46583000  0.02040000  0.80209000  1.0
  Cd  Cd1  1  0.53417000  0.97960000  0.19791000  1.0
  H  H2  1  0.09432000  0.47750000  0.68387000  1.0
  H  H3  1  0.90568000  0.52249000  0.31613000  1.0
  H  H4  1  0.04679000  0.00344000  0.78298000  1.0
  H  H5  1  0.95323000  0.99658000  0.21702000  1.0
  H  H6  1  0.44287000  0.27244000  0.53361000  1.0
  H  H7  1  0.55712000  0.72756000  0.46637000  1.0
  H  H8  1  0.14074000  0.31477000  0.45520000  1.0
  H  H9  1  0.85924000  0.68522000  0.54480000  1.0
  H  H10  1  0.77898000  0.02465000  0.65089000  1.0
  H  H11  1  0.22103000  0.97534000  0.34912000  1.0
  H  H12  1  0.81270000  0.14398000  0.50556000  1.0
  H  H13  1  0.18728000  0.85599000  0.49445000  1.0
  H  H14  1  0.12361000  0.75623000  0.84536000  1.0
  H  H15  1  0.87639000  0.24376000  0.15464000  1.0
  H  H16  1  0.96284000  0.83231000  0.01583000  1.0
  H  H17  1  0.03716000  0.16769000  0.98417000  1.0
  H  H18  1  0.68537000  0.62937000  0.08929000  1.0
  H  H19  1  0.31463000  0.37063000  0.91071000  1.0
  H  H20  1  0.55222000  0.34410000  0.98771000  1.0
  H  H21  1  0.44778000  0.65591000  0.01230000  1.0
  C  C22  1  0.11648000  0.08246000  0.70582000  1.0
  C  C23  1  0.88353000  0.91754000  0.29417000  1.0
  C  C24  1  0.31717000  0.22527000  0.57608000  1.0
  C  C25  1  0.68284000  0.77474000  0.42391000  1.0
  C  C26  1  0.16922000  0.24738000  0.53593000  1.0
  C  C27  1  0.83078000  0.75263000  0.46407000  1.0
  C  C28  1  0.86400000  0.14148000  0.61560000  1.0
  C  C29  1  0.13599000  0.85851000  0.38440000  1.0
  C  C30  1  0.85276000  0.27054000  0.70622000  1.0
  C  C31  1  0.14724000  0.72946000  0.29378000  1.0
  C  C32  1  0.91968000  0.51014000  0.81405000  1.0
  C  C33  1  0.08032000  0.48986000  0.18595000  1.0
  C  C34  1  0.99690000  0.66926000  0.87193000  1.0
  C  C35  1  0.00310000  0.33073000  0.12807000  1.0
  C  C36  1  0.90666000  0.70895000  0.96896000  1.0
  C  C37  1  0.09334000  0.29105000  0.03103000  1.0
  C  C38  1  0.74814000  0.59342000  0.00968000  1.0
  C  C39  1  0.25186000  0.40658000  0.99032000  1.0
  C  C40  1  0.67116000  0.43459000  0.95207000  1.0
  C  C41  1  0.32885000  0.56541000  0.04794000  1.0
  C  C42  1  0.75746000  0.39421000  0.85071000  1.0
  C  C43  1  0.24254000  0.60579000  0.14929000  1.0
  N  N44  1  0.28204000  0.12170000  0.68155000  1.0
  N  N45  1  0.71798000  0.87831000  0.31845000  1.0
  N  N46  1  0.04311000  0.15601000  0.61933000  1.0
  N  N47  1  0.95689000  0.84399000  0.38068000  1.0
  N  N48  1  0.71874000  0.24671000  0.77941000  1.0
  N  N49  1  0.28125000  0.75329000  0.22059000  1.0
  N  N50  1  0.97494000  0.42761000  0.72180000  1.0
  N  N51  1  0.02506000  0.57239000  0.27821000  1.0
  Cl  Cl52  1  0.32053000  0.05087000  0.01950000  1.0
  Cl  Cl53  1  0.67946000  0.94913000  0.98049000  1.0
  Cl  Cl54  1  0.35320000  0.75620000  0.65581000  1.0
  Cl  Cl55  1  0.64681000  0.24380000  0.34420000  1.0
