# generated using pymatgen
data_FeH8Au2(C2N)8
_symmetry_space_group_name_H-M   'P 1'
_cell_length_a   8.16314000
_cell_length_b   15.84320000
_cell_length_c   15.84574425
_cell_angle_alpha   117.11145174
_cell_angle_beta   99.87618233
_cell_angle_gamma   99.85470000
_symmetry_Int_Tables_number   1
_chemical_formula_structural   FeH8Au2(C2N)8
_chemical_formula_sum   'Fe3 H24 Au6 C48 N24'
_cell_volume   1722.96403446
_cell_formula_units_Z   3
loop_
 _symmetry_equiv_pos_site_id
 _symmetry_equiv_pos_as_xyz
  1  'x, y, z'
loop_
 _atom_site_type_symbol
 _atom_site_label
 _atom_site_symmetry_multiplicity
 _atom_site_fract_x
 _atom_site_fract_y
 _atom_site_fract_z
 _atom_site_occupancy
  Fe  Fe0  1  0.49732000  0.48550000  0.99912000  1.0
  Fe  Fe1  1  0.49728000  0.99909000  0.48536000  1.0
  Fe  Fe2  1  0.98293000  0.48730000  0.48730000  1.0
  H  H3  1  0.36701000  0.27456000  0.84657000  1.0
  H  H4  1  0.51875000  0.15396000  0.43047000  1.0
  H  H5  1  0.08259000  0.57399000  0.72727000  1.0
  H  H6  1  0.48689000  0.57436000  0.84742000  1.0
  H  H7  1  0.90662000  0.27676000  0.43051000  1.0
  H  H8  1  0.64094000  0.15373000  0.72515000  1.0
  H  H9  1  0.64069000  0.72509000  0.15363000  1.0
  H  H10  1  0.48685000  0.84753000  0.57442000  1.0
  H  H11  1  0.90670000  0.43059000  0.27678000  1.0
  H  H12  1  0.51884000  0.43053000  0.15400000  1.0
  H  H13  1  0.08249000  0.72712000  0.57412000  1.0
  H  H14  1  0.36692000  0.84652000  0.27455000  1.0
  H  H15  1  0.29451000  0.11294000  0.84248000  1.0
  H  H16  1  0.45162000  0.16139000  0.27480000  1.0
  H  H17  1  0.17961000  0.73211000  0.89177000  1.0
  H  H18  1  0.55437000  0.73320000  0.84266000  1.0
  H  H19  1  0.82262000  0.11465000  0.27419000  1.0
  H  H20  1  0.71549000  0.16176000  0.89025000  1.0
  H  H21  1  0.71478000  0.89019000  0.16170000  1.0
  H  H22  1  0.55457000  0.84270000  0.73322000  1.0
  H  H23  1  0.82270000  0.27430000  0.11466000  1.0
  H  H24  1  0.45190000  0.27485000  0.16146000  1.0
  H  H25  1  0.17932000  0.89163000  0.73220000  1.0
  H  H26  1  0.29411000  0.84238000  0.11292000  1.0
  Au  Au27  1  0.69889000  0.40221000  0.70113000  1.0
  Au  Au28  1  0.99801000  0.29463000  0.69957000  1.0
  Au  Au29  1  0.29463000  0.29699000  0.59408000  1.0
  Au  Au30  1  0.29481000  0.59419000  0.29717000  1.0
  Au  Au31  1  0.99789000  0.69978000  0.29485000  1.0
  Au  Au32  1  0.69874000  0.70112000  0.40210000  1.0
  C  C33  1  0.38353000  0.27120000  0.91442000  1.0
  C  C34  1  0.46866000  0.08685000  0.35864000  1.0
  C  C35  1  0.10559000  0.64617000  0.73217000  1.0
  C  C36  1  0.53767000  0.64616000  0.91508000  1.0
  C  C37  1  0.88699000  0.27281000  0.35904000  1.0
  C  C38  1  0.62425000  0.08684000  0.73071000  1.0
  C  C39  1  0.62399000  0.73066000  0.08676000  1.0
  C  C40  1  0.53778000  0.91517000  0.64622000  1.0
  C  C41  1  0.88706000  0.35910000  0.27281000  1.0
  C  C42  1  0.46868000  0.35871000  0.08691000  1.0
  C  C43  1  0.10552000  0.73203000  0.64629000  1.0
  C  C44  1  0.38346000  0.91436000  0.27116000  1.0
  C  C45  1  0.34342000  0.18189000  0.91283000  1.0
  C  C46  1  0.43079000  0.09032000  0.27191000  1.0
  C  C47  1  0.15879000  0.73350000  0.82279000  1.0
  C  C48  1  0.57542000  0.73391000  0.91269000  1.0
  C  C49  1  0.84065000  0.18314000  0.27192000  1.0
  C  C50  1  0.66566000  0.09104000  0.82172000  1.0
  C  C51  1  0.66513000  0.82169000  0.09096000  1.0
  C  C52  1  0.57580000  0.91275000  0.73394000  1.0
  C  C53  1  0.84068000  0.27198000  0.18312000  1.0
  C  C54  1  0.43095000  0.27196000  0.09039000  1.0
  C  C55  1  0.15866000  0.82266000  0.73361000  1.0
  C  C56  1  0.34309000  0.91277000  0.18185000  1.0
  C  C57  1  0.36694000  0.18075000  0.00207000  1.0
  C  C58  1  0.36663000  0.00202000  0.18071000  1.0
  C  C59  1  0.18597000  0.82391000  0.82401000  1.0
  C  C60  1  0.64042000  0.82383000  0.00228000  1.0
  C  C61  1  0.81597000  0.18118000  0.18113000  1.0
  C  C62  1  0.64102000  0.00234000  0.82384000  1.0
  C  C63  1  0.32937000  0.08684000  0.00268000  1.0
  C  C64  1  0.32906000  0.00268000  0.08684000  1.0
  C  C65  1  0.24465000  0.91866000  0.91868000  1.0
  C  C66  1  0.67839000  0.91881000  0.00285000  1.0
  C  C67  1  0.76150000  0.08704000  0.08701000  1.0
  C  C68  1  0.67874000  0.00289000  0.91882000  1.0
  C  C69  1  0.64751000  0.41538000  0.82275000  1.0
  C  C70  1  0.82265000  0.17510000  0.59051000  1.0
  C  C71  1  0.21966000  0.40051000  0.57592000  1.0
  C  C72  1  0.17422000  0.39674000  0.82302000  1.0
  C  C73  1  0.76329000  0.41627000  0.59308000  1.0
  C  C74  1  0.35054000  0.17485000  0.57489000  1.0
  C  C75  1  0.35084000  0.57488000  0.17502000  1.0
  C  C76  1  0.17378000  0.82339000  0.39689000  1.0
  C  C77  1  0.76329000  0.59318000  0.41629000  1.0
  C  C78  1  0.82286000  0.59055000  0.17525000  1.0
  C  C79  1  0.21963000  0.57608000  0.40066000  1.0
  C  C80  1  0.64723000  0.82264000  0.41510000  1.0
  N  N81  1  0.44542000  0.35939000  0.00020000  1.0
  N  N82  1  0.44548000  0.00014000  0.35933000  1.0
  N  N83  1  0.07963000  0.64610000  0.64624000  1.0
  N  N84  1  0.56178000  0.64520000  0.00047000  1.0
  N  N85  1  0.91070000  0.36060000  0.36057000  1.0
  N  N86  1  0.56184000  0.00056000  0.64527000  1.0
  N  N87  1  0.60611000  0.43706000  0.89552000  1.0
  N  N88  1  0.70869000  0.10215000  0.54003000  1.0
  N  N89  1  0.14679000  0.44290000  0.54533000  1.0
  N  N90  1  0.28875000  0.44002000  0.89627000  1.0
  N  N91  1  0.82580000  0.43856000  0.54220000  1.0
  N  N92  1  0.39182000  0.10154000  0.54369000  1.0
  N  N93  1  0.39181000  0.54380000  0.10166000  1.0
  N  N94  1  0.28861000  0.89651000  0.44008000  1.0
  N  N95  1  0.82588000  0.54228000  0.43860000  1.0
  N  N96  1  0.70889000  0.54017000  0.10232000  1.0
  N  N97  1  0.14687000  0.54546000  0.44303000  1.0
  N  N98  1  0.60582000  0.89547000  0.43692000  1.0
  N  N99  1  0.35927000  0.09085000  0.09084000  1.0
  N  N100  1  0.27087000  0.91446000  0.00254000  1.0
  N  N101  1  0.27154000  0.00252000  0.91447000  1.0
  N  N102  1  0.73554000  0.00268000  0.09085000  1.0
  N  N103  1  0.73590000  0.09090000  0.00267000  1.0
  N  N104  1  0.64839000  0.91479000  0.91477000  1.0
