# generated using pymatgen
data_Zn2H9C44N4Cl6(O4F3)3
_symmetry_space_group_name_H-M   'P 1'
_cell_length_a   9.85352000
_cell_length_b   10.99590000
_cell_length_c   23.23240000
_cell_angle_alpha   90.73370000
_cell_angle_beta   91.05700000
_cell_angle_gamma   90.23190000
_symmetry_Int_Tables_number   1
_chemical_formula_structural   Zn2H9C44N4Cl6(O4F3)3
_chemical_formula_sum   'Zn2 H9 C44 N4 Cl6 O12 F9'
_cell_volume   2516.53374512
_cell_formula_units_Z   1
loop_
 _symmetry_equiv_pos_site_id
 _symmetry_equiv_pos_as_xyz
  1  'x, y, z'
loop_
 _atom_site_type_symbol
 _atom_site_label
 _atom_site_symmetry_multiplicity
 _atom_site_fract_x
 _atom_site_fract_y
 _atom_site_fract_z
 _atom_site_occupancy
  Zn  Zn0  1  0.36569000  0.52673000  0.49902000  1.0
  Zn  Zn1  1  0.64556000  0.52332000  0.50024000  1.0
  H  H2  1  0.80069000  0.23205000  0.94311000  1.0
  H  H3  1  0.38479000  0.30651000  0.65327000  1.0
  H  H4  1  0.61411000  0.55338000  0.80763000  1.0
  H  H5  1  0.26145000  0.89440000  0.42139000  1.0
  H  H6  1  0.26445000  0.12275000  0.41460000  1.0
  H  H7  1  0.85190000  0.48432000  0.36284000  1.0
  H  H8  1  0.15917000  0.43916000  0.94348000  1.0
  H  H9  1  0.66474000  0.60370000  0.30228000  1.0
  H  H10  1  0.36570000  0.32582000  0.33707000  1.0
  C  C11  1  0.49472000  0.29152000  0.50405000  1.0
  C  C12  1  0.71297000  0.26244000  0.96716000  1.0
  C  C13  1  0.71757000  0.26321000  0.02789000  1.0
  C  C14  1  0.60745000  0.30597000  0.05990000  1.0
  C  C15  1  0.48766000  0.34378000  0.02950000  1.0
  C  C16  1  0.37166000  0.38673000  0.05941000  1.0
  C  C17  1  0.25538000  0.41613000  0.02721000  1.0
  C  C18  1  0.25055000  0.41206000  0.96700000  1.0
  C  C19  1  0.61309000  0.31540000  0.12374000  1.0
  C  C20  1  0.37761000  0.40744000  0.12227000  1.0
  C  C21  1  0.59381000  0.49439000  0.23027000  1.0
  C  C22  1  0.51489000  0.50445000  0.38863000  1.0
  C  C23  1  0.59980000  0.52851000  0.28792000  1.0
  C  C24  1  0.51595000  0.46784000  0.32629000  1.0
  C  C25  1  0.43168000  0.37217000  0.30735000  1.0
  C  C26  1  0.43277000  0.33830000  0.24975000  1.0
  C  C27  1  0.51116000  0.39919000  0.20966000  1.0
  C  C28  1  0.43337000  0.32394000  0.74362000  1.0
  C  C29  1  0.43701000  0.36031000  0.68669000  1.0
  C  C30  1  0.50791000  0.46605000  0.67272000  1.0
  C  C31  1  0.57266000  0.53483000  0.71643000  1.0
  C  C32  1  0.56608000  0.49862000  0.77354000  1.0
  C  C33  1  0.50657000  0.75821000  0.50866000  1.0
  C  C34  1  0.49668000  0.39254000  0.78734000  1.0
  C  C35  1  0.39021000  0.08458000  0.49327000  1.0
  C  C36  1  0.49739000  0.15717000  0.51343000  1.0
  C  C37  1  0.60387000  0.09496000  0.54166000  1.0
  C  C38  1  0.60733000  0.96553000  0.54327000  1.0
  C  C39  1  0.50346000  0.89337000  0.51685000  1.0
  C  C40  1  0.39265000  0.95840000  0.49514000  1.0
  C  C41  1  0.25890000  0.94376000  0.46263000  1.0
  C  C42  1  0.25856000  0.08825000  0.45874000  1.0
  C  C43  1  0.93063000  0.48129000  0.45362000  1.0
  C  C44  1  0.51333000  0.50107000  0.61049000  1.0
  C  C45  1  0.93603000  0.57122000  0.54044000  1.0
  C  C46  1  0.08049000  0.57616000  0.53813000  1.0
  C  C47  1  0.07004000  0.48720000  0.45120000  1.0
  C  C48  1  0.07246000  0.43979000  0.38919000  1.0
  C  C49  1  0.90987000  0.42889000  0.39344000  1.0
  C  C50  1  0.36393000  0.38710000  0.87398000  1.0
  C  C51  1  0.60309000  0.30975000  0.87377000  1.0
  C  C52  1  0.59910000  0.30220000  0.93763000  1.0
  C  C53  1  0.48351000  0.34060000  0.96805000  1.0
  C  C54  1  0.36520000  0.37747000  0.93769000  1.0
  N  N55  1  0.48717000  0.35998000  0.84677000  1.0
  N  N56  1  0.50034000  0.37197000  0.14956000  1.0
  N  N57  1  0.85945000  0.52357000  0.49849000  1.0
  N  N58  1  0.14974000  0.53408000  0.49382000  1.0
  Cl  Cl59  1  0.65626000  0.66845000  0.70051000  1.0
  Cl  Cl60  1  0.72989000  0.17651000  0.57676000  1.0
  Cl  Cl61  1  0.74011000  0.89998000  0.58002000  1.0
  Cl  Cl62  1  0.11931000  0.88347000  0.50136000  1.0
  Cl  Cl63  1  0.86597000  0.21194000  0.05847000  1.0
  Cl  Cl64  1  0.12509000  0.54675000  0.33832000  1.0
  O  O65  1  0.38054000  0.34223000  0.51174000  1.0
  O  O66  1  0.70182000  0.27933000  0.84577000  1.0
  O  O67  1  0.70749000  0.28061000  0.15431000  1.0
  O  O68  1  0.28756000  0.45504000  0.15030000  1.0
  O  O69  1  0.60319000  0.34197000  0.48762000  1.0
  O  O70  1  0.40239000  0.49248000  0.41405000  1.0
  O  O71  1  0.62576000  0.54275000  0.41163000  1.0
  O  O72  1  0.39285000  0.70901000  0.49494000  1.0
  O  O73  1  0.61938000  0.70375000  0.51343000  1.0
  O  O74  1  0.40300000  0.53555000  0.58710000  1.0
  O  O75  1  0.62710000  0.48879000  0.58639000  1.0
  O  O76  1  0.26479000  0.42185000  0.84623000  1.0
  F  F77  1  0.14967000  0.14590000  0.48478000  1.0
  F  F78  1  0.87775000  0.61732000  0.58647000  1.0
  F  F79  1  0.14638000  0.62467000  0.58272000  1.0
  F  F80  1  0.13505000  0.33060000  0.38014000  1.0
  F  F81  1  0.86348000  0.31061000  0.39079000  1.0
  F  F82  1  0.14163000  0.45265000  0.05331000  1.0
  F  F83  1  0.66822000  0.55637000  0.19169000  1.0
  F  F84  1  0.35399000  0.24418000  0.23079000  1.0
  F  F85  1  0.36622000  0.22065000  0.75724000  1.0
