# generated using pymatgen
data_Mg2H12C21O8
_symmetry_space_group_name_H-M   'P 1'
_cell_length_a   6.83319000
_cell_length_b   34.98990000
_cell_length_c   34.99390000
_cell_angle_alpha   119.58600000
_cell_angle_beta   93.72410000
_cell_angle_gamma   93.72470000
_symmetry_Int_Tables_number   1
_chemical_formula_structural   Mg2H12C21O8
_chemical_formula_sum   'Mg6 H36 C63 O24'
_cell_volume   7214.99087774
_cell_formula_units_Z   3
loop_
 _symmetry_equiv_pos_site_id
 _symmetry_equiv_pos_as_xyz
  1  'x, y, z'
loop_
 _atom_site_type_symbol
 _atom_site_label
 _atom_site_symmetry_multiplicity
 _atom_site_fract_x
 _atom_site_fract_y
 _atom_site_fract_z
 _atom_site_occupancy
  Mg  Mg0  1  0.07130000  0.30702000  0.63398000  1.0
  Mg  Mg1  1  0.42278000  0.63420000  0.30660000  1.0
  Mg  Mg2  1  0.76447000  0.32699000  0.69299000  1.0
  Mg  Mg3  1  0.78843000  0.67236000  0.36579000  1.0
  Mg  Mg4  1  0.43728000  0.36599000  0.67297000  1.0
  Mg  Mg5  1  0.11600000  0.69341000  0.32762000  1.0
  H  H6  1  0.08429000  0.61587000  0.43437000  1.0
  H  H7  1  0.63343000  0.56343000  0.43952000  1.0
  H  H8  1  0.75601000  0.58783000  0.38928000  1.0
  H  H9  1  0.11140000  0.58060000  0.47559000  1.0
  H  H10  1  0.49616000  0.54071000  0.47993000  1.0
  H  H11  1  0.96092000  0.54231000  0.49337000  1.0
  H  H12  1  0.15309000  0.47776000  0.54264000  1.0
  H  H13  1  0.75430000  0.47625000  0.57829000  1.0
  H  H14  1  0.72681000  0.43402000  0.61584000  1.0
  H  H15  1  0.40471000  0.39198000  0.58996000  1.0
  H  H16  1  0.27877000  0.44167000  0.56544000  1.0
  H  H17  1  0.50471000  0.51765000  0.52745000  1.0
  H  H18  1  0.46855000  0.81863000  0.38425000  1.0
  H  H19  1  0.07041000  0.87599000  0.43652000  1.0
  H  H20  1  0.16799000  0.80129000  0.41213000  1.0
  H  H21  1  0.53145000  0.89510000  0.41952000  1.0
  H  H22  1  0.95642000  0.93927000  0.45908000  1.0
  H  H23  1  0.41971000  0.95107000  0.45762000  1.0
  H  H24  1  0.67598000  0.06490000  0.52219000  1.0
  H  H25  1  0.27859000  0.10204000  0.52381000  1.0
  H  H26  1  0.29335000  0.18184000  0.56605000  1.0
  H  H27  1  0.01302000  0.19799000  0.60815000  1.0
  H  H28  1  0.83765000  0.12381000  0.55848000  1.0
  H  H29  1  0.98800000  0.00988000  0.48228000  1.0
  H  H30  1  0.65030000  0.56554000  0.18136000  1.0
  H  H31  1  0.19497000  0.56049000  0.12405000  1.0
  H  H32  1  0.36700000  0.61079000  0.19874000  1.0
  H  H33  1  0.63710000  0.52432000  0.10490000  1.0
  H  H34  1  0.01787000  0.51995000  0.06076000  1.0
  H  H35  1  0.46938000  0.50655000  0.04891000  1.0
  H  H36  1  0.61168000  0.45728000  0.93506000  1.0
  H  H37  1  0.17708000  0.42185000  0.89797000  1.0
  H  H38  1  0.11172000  0.38431000  0.81824000  1.0
  H  H39  1  0.81519000  0.40994000  0.80180000  1.0
  H  H40  1  0.71428000  0.43460000  0.87606000  1.0
  H  H41  1  0.97901000  0.47240000  0.99015000  1.0
  C  C42  1  0.49095000  0.61413000  0.38164000  1.0
  C  C43  1  0.29739000  0.62228000  0.39516000  1.0
  C  C44  1  0.23177000  0.60888000  0.42442000  1.0
  C  C45  1  0.34627000  0.58723000  0.44069000  1.0
  C  C46  1  0.53841000  0.58003000  0.42750000  1.0
  C  C47  1  0.60798000  0.59331000  0.39924000  1.0
  C  C48  1  0.26107000  0.57210000  0.46847000  1.0
  C  C49  1  0.34389000  0.54833000  0.48490000  1.0
  C  C50  1  0.24482000  0.53037000  0.50934000  1.0
  C  C51  1  0.04237000  0.52839000  0.51047000  1.0
  C  C52  1  0.91765000  0.51049000  0.53089000  1.0
  C  C53  1  0.00181000  0.48434000  0.54885000  1.0
  C  C54  1  0.90531000  0.46856000  0.57160000  1.0
  C  C55  1  0.98857000  0.44110000  0.58757000  1.0
  C  C56  1  0.87526000  0.42464000  0.60919000  1.0
  C  C57  1  0.94396000  0.39594000  0.62309000  1.0
  C  C58  1  0.13859000  0.38296000  0.61528000  1.0
  C  C59  1  0.25519000  0.40114000  0.59493000  1.0
  C  C60  1  0.18317000  0.42900000  0.58141000  1.0
  C  C61  1  0.81107000  0.38088000  0.64570000  1.0
  C  C62  1  0.16262000  0.64472000  0.38019000  1.0
  C  C63  1  0.87652000  0.76746000  0.38587000  1.0
  C  C64  1  0.67488000  0.77290000  0.37776000  1.0
  C  C65  1  0.62293000  0.81558000  0.39120000  1.0
  C  C66  1  0.75934000  0.85348000  0.41282000  1.0
  C  C67  1  0.95861000  0.84741000  0.41995000  1.0
  C  C68  1  0.01460000  0.80584000  0.40667000  1.0
  C  C69  1  0.68964000  0.89643000  0.42795000  1.0
  C  C70  1  0.79647000  0.93663000  0.45158000  1.0
  C  C71  1  0.71540000  0.97902000  0.46949000  1.0
  C  C72  1  0.51494000  0.98211000  0.47150000  1.0
  C  C73  1  0.40794000  0.02039000  0.48953000  1.0
  C  C74  1  0.51811000  0.06451000  0.51564000  1.0
  C  C75  1  0.43729000  0.10304000  0.53149000  1.0
  C  C76  1  0.54794000  0.14647000  0.55901000  1.0
  C  C77  1  0.45108000  0.18455000  0.57549000  1.0
  C  C78  1  0.54832000  0.22716000  0.60422000  1.0
  C  C79  1  0.75593000  0.23237000  0.61719000  1.0
  C  C80  1  0.85432000  0.19381000  0.59902000  1.0
  C  C81  1  0.75456000  0.15243000  0.57115000  1.0
  C  C82  1  0.43036000  0.26483000  0.61920000  1.0
  C  C83  1  0.51769000  0.73549000  0.35530000  1.0
  C  C84  1  0.10931000  0.61836000  0.23255000  1.0
  C  C85  1  0.90224000  0.60479000  0.22710000  1.0
  C  C86  1  0.80772000  0.57553000  0.18442000  1.0
  C  C87  1  0.90635000  0.55928000  0.14653000  1.0
  C  C88  1  0.11164000  0.57250000  0.15262000  1.0
  C  C89  1  0.20904000  0.60079000  0.19418000  1.0
  C  C90  1  0.79391000  0.53146000  0.10357000  1.0
  C  C91  1  0.86057000  0.51500000  0.06338000  1.0
  C  C92  1  0.73725000  0.49055000  0.02098000  1.0
  C  C93  1  0.53371000  0.48945000  0.01789000  1.0
  C  C94  1  0.38837000  0.46906000  0.97961000  1.0
  C  C95  1  0.45420000  0.45112000  0.93547000  1.0
  C  C96  1  0.33481000  0.42848000  0.89694000  1.0
  C  C97  1  0.40191000  0.41253000  0.85349000  1.0
  C  C98  1  0.26674000  0.39095000  0.81545000  1.0
  C  C99  1  0.32114000  0.37703000  0.77281000  1.0
  C  C100  1  0.52355000  0.38474000  0.76757000  1.0
  C  C101  1  0.66073000  0.40506000  0.80607000  1.0
  C  C102  1  0.60253000  0.41864000  0.84747000  1.0
  C  C103  1  0.16556000  0.35438000  0.73517000  1.0
  C  C104  1  0.78221000  0.61975000  0.26449000  1.0
  O  O105  1  0.64635000  0.39616000  0.65575000  1.0
  O  O106  1  0.86486000  0.35118000  0.65484000  1.0
  O  O107  1  0.21614000  0.35494000  0.62613000  1.0
  O  O108  1  0.99749000  0.65434000  0.39540000  1.0
  O  O109  1  0.21540000  0.65416000  0.35064000  1.0
  O  O110  1  0.56750000  0.62504000  0.35355000  1.0
  O  O111  1  0.73678000  0.51647000  0.53150000  1.0
  O  O112  1  0.35895000  0.51475000  0.52984000  1.0
  O  O113  1  0.25040000  0.25959000  0.60390000  1.0
  O  O114  1  0.51389000  0.30368000  0.64883000  1.0
  O  O115  1  0.86153000  0.27124000  0.64514000  1.0
  O  O116  1  0.34305000  0.74107000  0.34561000  1.0
  O  O117  1  0.56099000  0.69650000  0.34592000  1.0
  O  O118  1  0.94207000  0.72845000  0.37492000  1.0
  O  O119  1  0.22107000  0.01496000  0.48372000  1.0
  O  O120  1  0.84501000  0.01514000  0.48502000  1.0
  O  O121  1  0.99087000  0.34432000  0.74042000  1.0
  O  O122  1  0.21010000  0.34518000  0.69631000  1.0
  O  O123  1  0.59014000  0.37384000  0.72868000  1.0
  O  O124  1  0.60197000  0.60450000  0.25890000  1.0
  O  O125  1  0.86438000  0.64937000  0.30349000  1.0
  O  O126  1  0.21373000  0.64643000  0.27156000  1.0
  O  O127  1  0.20701000  0.46849000  0.98510000  1.0
  O  O128  1  0.83085000  0.47002000  0.98486000  1.0
