# generated using pymatgen
data_AlH6C12S3(NO2)3
_symmetry_space_group_name_H-M   'P 1'
_cell_length_a   3.88859000
_cell_length_b   20.13080000
_cell_length_c   20.13090000
_cell_angle_alpha   60.00049297
_cell_angle_beta   89.99960000
_cell_angle_gamma   89.99950000
_symmetry_Int_Tables_number   1
_chemical_formula_structural   AlH6C12S3(NO2)3
_chemical_formula_sum   'Al2 H12 C24 S6 N6 O12'
_cell_volume   1364.73763977
_cell_formula_units_Z   2
loop_
 _symmetry_equiv_pos_site_id
 _symmetry_equiv_pos_as_xyz
  1  'x, y, z'
loop_
 _atom_site_type_symbol
 _atom_site_label
 _atom_site_symmetry_multiplicity
 _atom_site_fract_x
 _atom_site_fract_y
 _atom_site_fract_z
 _atom_site_occupancy
  Al  Al0  1  0.00486000  0.00000000  0.50000000  1.0
  Al  Al1  1  0.00491000  0.66666000  0.16667000  1.0
  H  H2  1  0.60662000  0.24826000  0.22516000  1.0
  H  H3  1  0.42633000  0.16640000  0.29379000  1.0
  H  H4  1  0.60664000  0.41841000  0.44151000  1.0
  H  H5  1  0.42635000  0.50025000  0.37289000  1.0
  H  H6  1  0.60663000  0.72515000  0.52659000  1.0
  H  H7  1  0.42632000  0.79378000  0.53980000  1.0
  H  H8  1  0.60663000  0.94151000  0.14008000  1.0
  H  H9  1  0.42633000  0.87289000  0.12686000  1.0
  H  H10  1  0.60663000  0.02659000  0.74825000  1.0
  H  H11  1  0.42633000  0.03981000  0.66641000  1.0
  H  H12  1  0.60664000  0.64008000  0.91841000  1.0
  H  H13  1  0.42633000  0.62686000  0.00025000  1.0
  C  C14  1  0.50415000  0.93816000  0.61872000  1.0
  C  C15  1  0.50415000  0.11872000  0.44312000  1.0
  C  C16  1  0.50416000  0.94312000  0.43816000  1.0
  C  C17  1  0.50422000  0.54794000  0.22355000  1.0
  C  C18  1  0.50420000  0.72354000  0.22851000  1.0
  C  C19  1  0.50420000  0.72851000  0.04794000  1.0
  C  C20  1  0.48023000  0.24910000  0.32238000  1.0
  C  C21  1  0.48031000  0.41755000  0.34430000  1.0
  C  C22  1  0.49292000  0.20261000  0.40198000  1.0
  C  C23  1  0.49301000  0.46406000  0.26469000  1.0
  C  C24  1  0.51505000  0.33912000  0.36483000  1.0
  C  C25  1  0.51504000  0.32753000  0.30184000  1.0
  C  C26  1  0.48028000  0.82236000  0.42853000  1.0
  C  C27  1  0.48027000  0.84430000  0.23814000  1.0
  C  C28  1  0.49296000  0.90197000  0.39542000  1.0
  C  C29  1  0.49296000  0.76468000  0.27126000  1.0
  C  C30  1  0.51506000  0.86483000  0.29605000  1.0
  C  C31  1  0.51507000  0.80184000  0.37062000  1.0
  C  C32  1  0.48026000  0.92853000  0.74910000  1.0
  C  C33  1  0.48026000  0.73814000  0.91756000  1.0
  C  C34  1  0.49294000  0.89541000  0.70261000  1.0
  C  C35  1  0.49297000  0.77125000  0.96406000  1.0
  C  C36  1  0.51503000  0.79604000  0.83912000  1.0
  C  C37  1  0.51504000  0.87062000  0.82754000  1.0
  S  S38  1  0.52047000  0.25383000  0.45044000  1.0
  S  S39  1  0.52053000  0.41283000  0.21623000  1.0
  S  S40  1  0.52050000  0.95044000  0.29573000  1.0
  S  S41  1  0.52052000  0.71623000  0.37093000  1.0
  S  S42  1  0.52047000  0.79573000  0.75383000  1.0
  S  S43  1  0.52051000  0.87093000  0.91284000  1.0
  N  N44  1  0.43634000  0.22450000  0.26948000  1.0
  N  N45  1  0.43639000  0.44215000  0.39720000  1.0
  N  N46  1  0.43638000  0.76947000  0.50602000  1.0
  N  N47  1  0.43636000  0.89720000  0.16065000  1.0
  N  N48  1  0.43636000  0.00602000  0.72451000  1.0
  N  N49  1  0.43636000  0.66065000  0.94215000  1.0
  O  O50  1  0.74069000  0.99291000  0.42288000  1.0
  O  O51  1  0.74068000  0.92288000  0.58421000  1.0
  O  O52  1  0.74069000  0.08422000  0.49291000  1.0
  O  O53  1  0.27539000  0.92505000  0.49053000  1.0
  O  O54  1  0.27539000  0.08441000  0.42506000  1.0
  O  O55  1  0.27538000  0.99053000  0.58442000  1.0
  O  O56  1  0.74075000  0.74379000  0.08245000  1.0
  O  O57  1  0.74076000  0.58245000  0.17376000  1.0
  O  O58  1  0.74074000  0.67376000  0.24379000  1.0
  O  O59  1  0.27543000  0.67614000  0.08225000  1.0
  O  O60  1  0.27543000  0.74162000  0.17613000  1.0
  O  O61  1  0.27544000  0.58225000  0.24161000  1.0
