# generated using pymatgen
data_UH6C8O7
_symmetry_space_group_name_H-M   'P 1'
_cell_length_a   6.58248000
_cell_length_b   8.14391000
_cell_length_c   10.25190000
_cell_angle_alpha   93.83640000
_cell_angle_beta   98.00770000
_cell_angle_gamma   102.39000000
_symmetry_Int_Tables_number   1
_chemical_formula_structural   UH6C8O7
_chemical_formula_sum   'U2 H12 C16 O14'
_cell_volume   528.87246730
_cell_formula_units_Z   2
loop_
 _symmetry_equiv_pos_site_id
 _symmetry_equiv_pos_as_xyz
  1  'x, y, z'
loop_
 _atom_site_type_symbol
 _atom_site_label
 _atom_site_symmetry_multiplicity
 _atom_site_fract_x
 _atom_site_fract_y
 _atom_site_fract_z
 _atom_site_occupancy
  U  U0  1  0.17688000  0.06230000  0.27114000  1.0
  U  U1  1  0.82313000  0.93772000  0.72885000  1.0
  H  H2  1  0.67980000  0.47251000  0.38157000  1.0
  H  H3  1  0.32021000  0.52748000  0.61843000  1.0
  H  H4  1  0.69166000  0.70500000  0.23578000  1.0
  H  H5  1  0.30834000  0.29500000  0.76424000  1.0
  H  H6  1  0.74166000  0.65817000  0.00189000  1.0
  H  H7  1  0.25833000  0.34184000  0.99811000  1.0
  H  H8  1  0.77018000  0.37530000  0.91102000  1.0
  H  H9  1  0.22980000  0.62470000  0.08898000  1.0
  H  H10  1  0.35846000  0.09625000  0.56103000  1.0
  H  H11  1  0.64154000  0.90374000  0.43896000  1.0
  H  H12  1  0.15883000  0.17345000  0.55022000  1.0
  H  H13  1  0.84117000  0.82654000  0.44978000  1.0
  C  C14  1  0.78075000  0.10229000  0.03880000  1.0
  C  C15  1  0.21925000  0.89774000  0.96120000  1.0
  C  C16  1  0.72425000  0.15834000  0.32088000  1.0
  C  C17  1  0.27574000  0.84165000  0.67912000  1.0
  C  C18  1  0.72623000  0.29409000  0.22938000  1.0
  C  C19  1  0.27377000  0.70590000  0.77063000  1.0
  C  C20  1  0.70357000  0.45189000  0.27914000  1.0
  C  C21  1  0.29644000  0.54811000  0.72087000  1.0
  C  C22  1  0.71002000  0.58227000  0.19720000  1.0
  C  C23  1  0.28997000  0.41772000  0.80281000  1.0
  C  C24  1  0.73687000  0.55624000  0.06560000  1.0
  C  C25  1  0.26312000  0.44377000  0.93442000  1.0
  C  C26  1  0.75257000  0.39785000  0.01429000  1.0
  C  C27  1  0.24742000  0.60214000  0.98572000  1.0
  C  C28  1  0.74981000  0.26592000  0.09558000  1.0
  C  C29  1  0.25019000  0.73408000  0.90443000  1.0
  O  O30  1  0.10220000  0.85524000  0.32783000  1.0
  O  O31  1  0.89781000  0.14478000  0.67216000  1.0
  O  O32  1  0.24286000  0.27123000  0.21922000  1.0
  O  O33  1  0.75716000  0.72880000  0.78077000  1.0
  O  O34  1  0.89922000  0.13423000  0.37558000  1.0
  O  O35  1  0.10076000  0.86575000  0.62442000  1.0
  O  O36  1  0.86789000  0.00832000  0.11370000  1.0
  O  O37  1  0.13212000  0.99168000  0.88630000  1.0
  O  O38  1  0.72240000  0.06098000  0.91488000  1.0
  O  O39  1  0.27759000  0.93903000  0.08512000  1.0
  O  O40  1  0.54984000  0.07098000  0.34563000  1.0
  O  O41  1  0.45016000  0.92900000  0.65436000  1.0
  O  O42  1  0.28815000  0.17529000  0.51210000  1.0
  O  O43  1  0.71185000  0.82470000  0.48790000  1.0
