# generated using pymatgen
data_KH13C18O
_symmetry_space_group_name_H-M   'P 1'
_cell_length_a   5.42771000
_cell_length_b   11.95900000
_cell_length_c   20.49440000
_cell_angle_alpha   90.00170000
_cell_angle_beta   90.00040000
_cell_angle_gamma   83.10680000
_symmetry_Int_Tables_number   1
_chemical_formula_structural   KH13C18O
_chemical_formula_sum   'K4 H52 C72 O4'
_cell_volume   1320.67528730
_cell_formula_units_Z   4
loop_
 _symmetry_equiv_pos_site_id
 _symmetry_equiv_pos_as_xyz
  1  'x, y, z'
loop_
 _atom_site_type_symbol
 _atom_site_label
 _atom_site_symmetry_multiplicity
 _atom_site_fract_x
 _atom_site_fract_y
 _atom_site_fract_z
 _atom_site_occupancy
  K  K0  1  0.24353000  0.05822000  0.54022000  1.0
  K  K1  1  0.75651000  0.44178000  0.04022000  1.0
  K  K2  1  0.75650000  0.94181000  0.45978000  1.0
  K  K3  1  0.24351000  0.55819000  0.95980000  1.0
  H  H4  1  0.90229000  0.38985000  0.67988000  1.0
  H  H5  1  0.09771000  0.11017000  0.17988000  1.0
  H  H6  1  0.09772000  0.61018000  0.32011000  1.0
  H  H7  1  0.90227000  0.88981000  0.82012000  1.0
  H  H8  1  0.60243000  0.53136000  0.62473000  1.0
  H  H9  1  0.39755000  0.96865000  0.12473000  1.0
  H  H10  1  0.39756000  0.46866000  0.37527000  1.0
  H  H11  1  0.60244000  0.03133000  0.87527000  1.0
  H  H12  1  0.34548000  0.47011000  0.53420000  1.0
  H  H13  1  0.65451000  0.02990000  0.03420000  1.0
  H  H14  1  0.65451000  0.52991000  0.46580000  1.0
  H  H15  1  0.34547000  0.97009000  0.96580000  1.0
  H  H16  1  0.26647000  0.29265000  0.67310000  1.0
  H  H17  1  0.73354000  0.20734000  0.17310000  1.0
  H  H18  1  0.73354000  0.70737000  0.32689000  1.0
  H  H19  1  0.26646000  0.79263000  0.82689000  1.0
  H  H20  1  0.53774000  0.17042000  0.74729000  1.0
  H  H21  1  0.46225000  0.32958000  0.24729000  1.0
  H  H22  1  0.46229000  0.82961000  0.25270000  1.0
  H  H23  1  0.53771000  0.67039000  0.75270000  1.0
  H  H24  1  0.44079000  0.97692000  0.77359000  1.0
  H  H25  1  0.55916000  0.52310000  0.27359000  1.0
  H  H26  1  0.55927000  0.02312000  0.22641000  1.0
  H  H27  1  0.44077000  0.47687000  0.72642000  1.0
  H  H28  1  0.06989000  0.90708000  0.72323000  1.0
  H  H29  1  0.93006000  0.59293000  0.22323000  1.0
  H  H30  1  0.93017000  0.09294000  0.27678000  1.0
  H  H31  1  0.06988000  0.40705000  0.77678000  1.0
  H  H32  1  0.79022000  0.03112000  0.65172000  1.0
  H  H33  1  0.20977000  0.46889000  0.15173000  1.0
  H  H34  1  0.20982000  0.96888000  0.34829000  1.0
  H  H35  1  0.79021000  0.53110000  0.84829000  1.0
  H  H36  1  0.03556000  0.38085000  0.50858000  1.0
  H  H37  1  0.96446000  0.11915000  0.00858000  1.0
  H  H38  1  0.96444000  0.61917000  0.49142000  1.0
  H  H39  1  0.03554000  0.88083000  0.99142000  1.0
  H  H40  1  0.80755000  0.37185000  0.40481000  1.0
  H  H41  1  0.19245000  0.12816000  0.90481000  1.0
  H  H42  1  0.19245000  0.62816000  0.59519000  1.0
  H  H43  1  0.80753000  0.87184000  0.09519000  1.0
  H  H44  1  0.99610000  0.26034000  0.31164000  1.0
  H  H45  1  0.00387000  0.23967000  0.81164000  1.0
  H  H46  1  0.00391000  0.73967000  0.68836000  1.0
  H  H47  1  0.99609000  0.76033000  0.18836000  1.0
  H  H48  1  0.42107000  0.15402000  0.32395000  1.0
  H  H49  1  0.57891000  0.34598000  0.82396000  1.0
  H  H50  1  0.57895000  0.84599000  0.67605000  1.0
  H  H51  1  0.42105000  0.65401000  0.17604000  1.0
  H  H52  1  0.65853000  0.17161000  0.42577000  1.0
  H  H53  1  0.34147000  0.32839000  0.92578000  1.0
  H  H54  1  0.34148000  0.82841000  0.57423000  1.0
  H  H55  1  0.65851000  0.67158000  0.07423000  1.0
  C  C56  1  0.69235000  0.21463000  0.56374000  1.0
  C  C57  1  0.30768000  0.28538000  0.06375000  1.0
  C  C58  1  0.30768000  0.78539000  0.43626000  1.0
  C  C59  1  0.69233000  0.71460000  0.93626000  1.0
  C  C60  1  0.82688000  0.25088000  0.61942000  1.0
  C  C61  1  0.17312000  0.24913000  0.11943000  1.0
  C  C62  1  0.17311000  0.74914000  0.38057000  1.0
  C  C63  1  0.82688000  0.75084000  0.88058000  1.0
  C  C64  1  0.79350000  0.36404000  0.63905000  1.0
  C  C65  1  0.20650000  0.13597000  0.13905000  1.0
  C  C66  1  0.20651000  0.63599000  0.36095000  1.0
  C  C67  1  0.79348000  0.86401000  0.86095000  1.0
  C  C68  1  0.62221000  0.44366000  0.60916000  1.0
  C  C69  1  0.37779000  0.05634000  0.10915000  1.0
  C  C70  1  0.37779000  0.55636000  0.39084000  1.0
  C  C71  1  0.62221000  0.94364000  0.89084000  1.0
  C  C72  1  0.48014000  0.40893000  0.55824000  1.0
  C  C73  1  0.51986000  0.09108000  0.05825000  1.0
  C  C74  1  0.51984000  0.59110000  0.44175000  1.0
  C  C75  1  0.48014000  0.90890000  0.94176000  1.0
  C  C76  1  0.51379000  0.29862000  0.53380000  1.0
  C  C77  1  0.48622000  0.20139000  0.03381000  1.0
  C  C78  1  0.48622000  0.70142000  0.46619000  1.0
  C  C79  1  0.51377000  0.79858000  0.96620000  1.0
  C  C80  1  0.00103000  0.17285000  0.65850000  1.0
  C  C81  1  0.99897000  0.32716000  0.15850000  1.0
  C  C82  1  0.99899000  0.82717000  0.34150000  1.0
  C  C83  1  0.00102000  0.67282000  0.84150000  1.0
  C  C84  1  0.21709000  0.20954000  0.68573000  1.0
  C  C85  1  0.78292000  0.29046000  0.18573000  1.0
  C  C86  1  0.78293000  0.79048000  0.31426000  1.0
  C  C87  1  0.21708000  0.70951000  0.81427000  1.0
  C  C88  1  0.37264000  0.14003000  0.72689000  1.0
  C  C89  1  0.62735000  0.35997000  0.22689000  1.0
  C  C90  1  0.62741000  0.86000000  0.27310000  1.0
  C  C91  1  0.37261000  0.63999000  0.77311000  1.0
  C  C92  1  0.32014000  0.03105000  0.74113000  1.0
  C  C93  1  0.67983000  0.46897000  0.24113000  1.0
  C  C94  1  0.67990000  0.96898000  0.25886000  1.0
  C  C95  1  0.32014000  0.53101000  0.75887000  1.0
  C  C96  1  0.11124000  0.99238000  0.71324000  1.0
  C  C97  1  0.88873000  0.50763000  0.21324000  1.0
  C  C98  1  0.88879000  0.00764000  0.28676000  1.0
  C  C99  1  0.11125000  0.49235000  0.78677000  1.0
  C  C100  1  0.95359000  0.06188000  0.67256000  1.0
  C  C101  1  0.04639000  0.43813000  0.17257000  1.0
  C  C102  1  0.04644000  0.93813000  0.32744000  1.0
  C  C103  1  0.95360000  0.56185000  0.82744000  1.0
  C  C104  1  0.36661000  0.27711000  0.47515000  1.0
  C  C105  1  0.63340000  0.22290000  0.97516000  1.0
  C  C106  1  0.63340000  0.72291000  0.52485000  1.0
  C  C107  1  0.36659000  0.77709000  0.02485000  1.0
  C  C108  1  0.12280000  0.33220000  0.46792000  1.0
  C  C109  1  0.87720000  0.16780000  0.96792000  1.0
  C  C110  1  0.87720000  0.66782000  0.53207000  1.0
  C  C111  1  0.12279000  0.83218000  0.03207000  1.0
  C  C112  1  0.99281000  0.32632000  0.40964000  1.0
  C  C113  1  0.00718000  0.17369000  0.90964000  1.0
  C  C114  1  0.00719000  0.67370000  0.59036000  1.0
  C  C115  1  0.99281000  0.82630000  0.09036000  1.0
  C  C116  1  0.09823000  0.26273000  0.35733000  1.0
  C  C117  1  0.90176000  0.23727000  0.85733000  1.0
  C  C118  1  0.90179000  0.73727000  0.64267000  1.0
  C  C119  1  0.09820000  0.76273000  0.14267000  1.0
  C  C120  1  0.33537000  0.20405000  0.36428000  1.0
  C  C121  1  0.66463000  0.29595000  0.86429000  1.0
  C  C122  1  0.66464000  0.79596000  0.63571000  1.0
  C  C123  1  0.33535000  0.70404000  0.13571000  1.0
  C  C124  1  0.46780000  0.21120000  0.42228000  1.0
  C  C125  1  0.53220000  0.28880000  0.92229000  1.0
  C  C126  1  0.53220000  0.78882000  0.57772000  1.0
  C  C127  1  0.46778000  0.71119000  0.07771000  1.0
  O  O128  1  0.72977000  0.11070000  0.54152000  1.0
  O  O129  1  0.27027000  0.38931000  0.04153000  1.0
  O  O130  1  0.27026000  0.88933000  0.45847000  1.0
  O  O131  1  0.72973000  0.61067000  0.95848000  1.0
