# generated using pymatgen
data_MnH6C12(NO2)2
_symmetry_space_group_name_H-M   'P 1'
_cell_length_a   9.01382000
_cell_length_b   9.06345000
_cell_length_c   9.52017231
_cell_angle_alpha   115.62117808
_cell_angle_beta   115.42582460
_cell_angle_gamma   95.27090000
_symmetry_Int_Tables_number   1
_chemical_formula_structural   MnH6C12(NO2)2
_chemical_formula_sum   'Mn2 H12 C24 N4 O8'
_cell_volume   595.44817908
_cell_formula_units_Z   2
loop_
 _symmetry_equiv_pos_site_id
 _symmetry_equiv_pos_as_xyz
  1  'x, y, z'
loop_
 _atom_site_type_symbol
 _atom_site_label
 _atom_site_symmetry_multiplicity
 _atom_site_fract_x
 _atom_site_fract_y
 _atom_site_fract_z
 _atom_site_occupancy
  Mn  Mn0  1  0.21645000  0.96643000  0.93289000  1.0
  Mn  Mn1  1  0.78357000  0.03359000  0.06715000  1.0
  H  H2  1  0.81779000  0.50140000  0.22453000  1.0
  H  H3  1  0.09339000  0.27737000  0.77557000  1.0
  H  H4  1  0.18217000  0.49859000  0.77544000  1.0
  H  H5  1  0.90662000  0.72261000  0.22441000  1.0
  H  H6  1  0.61645000  0.40819000  0.52449000  1.0
  H  H7  1  0.59263000  0.88393000  0.47579000  1.0
  H  H8  1  0.38354000  0.59182000  0.47552000  1.0
  H  H9  1  0.40739000  0.11608000  0.52422000  1.0
  H  H10  1  0.85975000  0.67953000  0.80914000  1.0
  H  H11  1  0.55126000  0.87060000  0.19108000  1.0
  H  H12  1  0.14028000  0.32046000  0.19086000  1.0
  H  H13  1  0.44871000  0.12941000  0.80892000  1.0
  C  C14  1  0.94573000  0.69622000  0.51339000  1.0
  C  C15  1  0.93267000  0.18316000  0.48666000  1.0
  C  C16  1  0.05426000  0.30378000  0.48660000  1.0
  C  C17  1  0.06733000  0.81682000  0.51334000  1.0
  C  C18  1  0.82108000  0.54217000  0.35173000  1.0
  C  C19  1  0.96961000  0.19088000  0.64842000  1.0
  C  C20  1  0.17891000  0.45784000  0.64827000  1.0
  C  C21  1  0.03041000  0.80910000  0.35158000  1.0
  C  C22  1  0.70101000  0.43477000  0.35278000  1.0
  C  C23  1  0.84859000  0.08237000  0.64743000  1.0
  C  C24  1  0.29898000  0.56521000  0.64720000  1.0
  C  C25  1  0.15140000  0.91762000  0.35255000  1.0
  C  C26  1  0.71035000  0.48604000  0.51831000  1.0
  C  C27  1  0.69260000  0.96799000  0.48193000  1.0
  C  C28  1  0.28965000  0.51397000  0.48170000  1.0
  C  C29  1  0.30741000  0.03201000  0.51808000  1.0
  C  C30  1  0.84501000  0.63613000  0.67620000  1.0
  C  C31  1  0.66939000  0.96016000  0.32397000  1.0
  C  C32  1  0.15499000  0.36387000  0.32380000  1.0
  C  C33  1  0.33061000  0.03984000  0.67603000  1.0
  C  C34  1  0.57185000  0.26689000  0.17784000  1.0
  C  C35  1  0.89430000  0.08936000  0.82237000  1.0
  C  C36  1  0.42817000  0.73311000  0.82217000  1.0
  C  C37  1  0.10570000  0.91065000  0.17764000  1.0
  N  N38  1  0.96169000  0.73952000  0.67557000  1.0
  N  N39  1  0.78661000  0.06419000  0.32450000  1.0
  N  N40  1  0.03830000  0.26047000  0.32441000  1.0
  N  N41  1  0.21338000  0.93580000  0.67548000  1.0
  O  O42  1  0.42132000  0.21315000  0.14952000  1.0
  O  O43  1  0.77211000  0.06401000  0.85080000  1.0
  O  O44  1  0.57871000  0.78685000  0.85049000  1.0
  O  O45  1  0.22786000  0.93600000  0.14921000  1.0
  O  O46  1  0.62479000  0.19310000  0.06940000  1.0
  O  O47  1  0.05560000  0.12383000  0.93069000  1.0
  O  O48  1  0.37522000  0.80691000  0.93060000  1.0
  O  O49  1  0.94439000  0.87617000  0.06933000  1.0
