# generated using pymatgen
data_ZnAg2H8C8N6O11
_symmetry_space_group_name_H-M   'P 1'
_cell_length_a   6.20545000
_cell_length_b   8.62012000
_cell_length_c   14.63230000
_cell_angle_alpha   73.39350000
_cell_angle_beta   88.79030000
_cell_angle_gamma   89.39990000
_symmetry_Int_Tables_number   1
_chemical_formula_structural   ZnAg2H8C8N6O11
_chemical_formula_sum   'Zn2 Ag4 H16 C16 N12 O22'
_cell_volume   749.88514200
_cell_formula_units_Z   2
loop_
 _symmetry_equiv_pos_site_id
 _symmetry_equiv_pos_as_xyz
  1  'x, y, z'
loop_
 _atom_site_type_symbol
 _atom_site_label
 _atom_site_symmetry_multiplicity
 _atom_site_fract_x
 _atom_site_fract_y
 _atom_site_fract_z
 _atom_site_occupancy
  Zn  Zn0  1  0.46669000  0.56536000  0.85801000  1.0
  Zn  Zn1  1  0.53331000  0.43464000  0.14199000  1.0
  Ag  Ag2  1  0.28661000  0.00264000  0.23656000  1.0
  Ag  Ag3  1  0.71339000  0.99736000  0.76344000  1.0
  Ag  Ag4  1  0.38118000  0.43190000  0.60838000  1.0
  Ag  Ag5  1  0.61883000  0.56810000  0.39162000  1.0
  H  H6  1  0.83664000  0.51225000  0.76262000  1.0
  H  H7  1  0.16336000  0.48775000  0.23738000  1.0
  H  H8  1  0.31949000  0.79826000  0.71321000  1.0
  H  H9  1  0.68052000  0.20174000  0.28679000  1.0
  H  H10  1  0.01068000  0.58306000  0.87127000  1.0
  H  H11  1  0.98932000  0.41694000  0.12873000  1.0
  H  H12  1  0.80728000  0.37439000  0.86257000  1.0
  H  H13  1  0.19273000  0.62561000  0.13744000  1.0
  H  H14  1  0.54825000  0.73726000  0.67669000  1.0
  H  H15  1  0.45175000  0.26274000  0.32331000  1.0
  H  H16  1  0.12652000  0.71869000  0.91262000  1.0
  H  H17  1  0.87348000  0.28132000  0.08738000  1.0
  H  H18  1  0.21386000  0.02571000  0.85785000  1.0
  H  H19  1  0.78614000  0.97429000  0.14215000  1.0
  H  H20  1  0.69201000  0.87104000  0.50336000  1.0
  H  H21  1  0.30799000  0.12896000  0.49664000  1.0
  C  C22  1  0.28786000  0.09160000  0.01382000  1.0
  C  C23  1  0.71214000  0.90840000  0.98618000  1.0
  C  C24  1  0.33047000  0.22168000  0.93325000  1.0
  C  C25  1  0.66953000  0.77833000  0.06675000  1.0
  C  C26  1  0.21070000  0.92580000  0.02104000  1.0
  C  C27  1  0.78930000  0.07420000  0.97896000  1.0
  C  C28  1  0.31386000  0.24793000  0.83002000  1.0
  C  C29  1  0.68614000  0.75207000  0.16998000  1.0
  C  C30  1  0.03812000  0.71254000  0.50700000  1.0
  C  C31  1  0.96188000  0.28746000  0.49300000  1.0
  C  C32  1  0.02919000  0.84251000  0.42331000  1.0
  C  C33  1  0.97081000  0.15749000  0.57669000  1.0
  C  C34  1  0.87199000  0.97601000  0.38997000  1.0
  C  C35  1  0.12801000  0.02399000  0.61003000  1.0
  C  C36  1  0.88888000  0.65835000  0.59091000  1.0
  C  C37  1  0.11112000  0.34165000  0.40909000  1.0
  N  N38  1  0.40812000  0.34282000  0.96432000  1.0
  N  N39  1  0.59188000  0.65719000  0.03568000  1.0
  N  N40  1  0.21139000  0.83447000  0.37164000  1.0
  N  N41  1  0.78862000  0.16553000  0.62836000  1.0
  N  N42  1  0.32679000  0.70773000  0.41992000  1.0
  N  N43  1  0.67321000  0.29227000  0.58008000  1.0
  N  N44  1  0.22520000  0.63342000  0.50223000  1.0
  N  N45  1  0.77480000  0.36658000  0.49777000  1.0
  N  N46  1  0.41024000  0.29332000  0.05861000  1.0
  N  N47  1  0.58976000  0.70668000  0.94139000  1.0
  N  N48  1  0.33776000  0.14161000  0.09044000  1.0
  N  N49  1  0.66224000  0.85839000  0.90956000  1.0
  O  O50  1  0.79265000  0.49418000  0.83228000  1.0
  O  O51  1  0.20735000  0.50583000  0.16772000  1.0
  O  O52  1  0.36300000  0.38449000  0.77565000  1.0
  O  O53  1  0.63701000  0.61551000  0.22435000  1.0
  O  O54  1  0.25235000  0.12948000  0.79815000  1.0
  O  O55  1  0.74765000  0.87051000  0.20185000  1.0
  O  O56  1  0.17230000  0.89801000  0.94082000  1.0
  O  O57  1  0.82770000  0.10199000  0.05918000  1.0
  O  O58  1  0.18826000  0.82616000  0.10181000  1.0
  O  O59  1  0.81174000  0.17384000  0.89819000  1.0
  O  O60  1  0.90763000  0.08906000  0.31635000  1.0
  O  O61  1  0.09237000  0.91094000  0.68365000  1.0
  O  O62  1  0.69500000  0.97277000  0.44132000  1.0
  O  O63  1  0.30500000  0.02722000  0.55868000  1.0
  O  O64  1  0.70824000  0.73616000  0.58589000  1.0
  O  O65  1  0.29175000  0.26384000  0.41411000  1.0
  O  O66  1  0.94533000  0.54174000  0.65942000  1.0
  O  O67  1  0.05468000  0.45826000  0.34058000  1.0
  O  O68  1  0.46216000  0.74560000  0.73393000  1.0
  O  O69  1  0.53784000  0.25440000  0.26607000  1.0
  O  O70  1  0.14752000  0.61901000  0.89284000  1.0
  O  O71  1  0.85248000  0.38099000  0.10715000  1.0
