# generated using pymatgen
data_CoH26C32(N5O3)2
_symmetry_space_group_name_H-M   'P 1'
_cell_length_a   8.06224000
_cell_length_b   8.88179000
_cell_length_c   11.07365260
_cell_angle_alpha   89.73486120
_cell_angle_beta   69.18435846
_cell_angle_gamma   80.25510000
_symmetry_Int_Tables_number   1
_chemical_formula_structural   CoH26C32(N5O3)2
_chemical_formula_sum   'Co1 H26 C32 N10 O6'
_cell_volume   729.17285656
_cell_formula_units_Z   1
loop_
 _symmetry_equiv_pos_site_id
 _symmetry_equiv_pos_as_xyz
  1  'x, y, z'
loop_
 _atom_site_type_symbol
 _atom_site_label
 _atom_site_symmetry_multiplicity
 _atom_site_fract_x
 _atom_site_fract_y
 _atom_site_fract_z
 _atom_site_occupancy
  Co  Co0  1  0.99998000  0.00001000  0.50001000  1.0
  H  H1  1  0.60878000  0.19018000  0.83871000  1.0
  H  H2  1  0.39126000  0.80975000  0.16129000  1.0
  H  H3  1  0.89274000  0.95773000  0.28149000  1.0
  H  H4  1  0.10722000  0.04227000  0.71854000  1.0
  H  H5  1  0.62699000  0.06162000  0.21916000  1.0
  H  H6  1  0.37299000  0.93839000  0.78086000  1.0
  H  H7  1  0.68508000  0.23298000  0.62033000  1.0
  H  H8  1  0.31488000  0.76704000  0.37970000  1.0
  H  H9  1  0.62685000  0.72462000  0.94320000  1.0
  H  H10  1  0.37321000  0.27531000  0.05681000  1.0
  H  H11  1  0.38257000  0.26386000  0.36571000  1.0
  H  H12  1  0.61743000  0.73619000  0.63429000  1.0
  H  H13  1  0.38802000  0.45739000  0.93936000  1.0
  H  H14  1  0.61197000  0.54259000  0.06064000  1.0
  H  H15  1  0.03436000  0.63159000  0.68567000  1.0
  H  H16  1  0.96563000  0.36843000  0.31433000  1.0
  H  H17  1  0.98368000  0.24817000  0.67189000  1.0
  H  H18  1  0.01628000  0.75186000  0.32813000  1.0
  H  H19  1  0.85888000  0.86513000  0.11096000  1.0
  H  H20  1  0.14116000  0.13492000  0.88900000  1.0
  H  H21  1  0.95244000  0.76684000  0.88379000  1.0
  H  H22  1  0.04760000  0.23318000  0.11618000  1.0
  H  H23  1  0.27129000  0.56384000  0.17041000  1.0
  H  H24  1  0.72869000  0.43615000  0.82959000  1.0
  H  H25  1  0.07726000  0.31122000  0.53652000  1.0
  H  H26  1  0.92273000  0.68878000  0.46350000  1.0
  C  C27  1  0.77928000  0.89480000  0.74898000  1.0
  C  C28  1  0.22075000  0.10517000  0.25100000  1.0
  C  C29  1  0.63395000  0.95115000  0.87825000  1.0
  C  C30  1  0.36608000  0.04877000  0.12176000  1.0
  C  C31  1  0.57018000  0.84516000  0.96970000  1.0
  C  C32  1  0.42986000  0.15477000  0.03031000  1.0
  C  C33  1  0.56168000  0.10713000  0.90958000  1.0
  C  C34  1  0.43836000  0.89280000  0.09043000  1.0
  C  C35  1  0.78219000  0.04344000  0.34275000  1.0
  C  C36  1  0.21777000  0.95658000  0.65728000  1.0
  C  C37  1  0.63482000  0.10270000  0.30914000  1.0
  C  C38  1  0.36516000  0.89731000  0.69088000  1.0
  C  C39  1  0.49831000  0.21409000  0.39073000  1.0
  C  C40  1  0.50168000  0.78594000  0.60927000  1.0
  C  C41  1  0.51423000  0.26166000  0.50593000  1.0
  C  C42  1  0.48576000  0.73837000  0.49408000  1.0
  C  C43  1  0.66607000  0.19640000  0.53365000  1.0
  C  C44  1  0.33390000  0.80362000  0.46637000  1.0
  C  C45  1  0.37888000  0.37888000  0.59690000  1.0
  C  C46  1  0.62112000  0.62114000  0.40309000  1.0
  C  C47  1  0.23777000  0.52896000  0.76381000  1.0
  C  C48  1  0.76223000  0.47105000  0.23618000  1.0
  C  C49  1  0.17871000  0.60198000  0.89326000  1.0
  C  C50  1  0.82130000  0.39802000  0.10673000  1.0
  C  C51  1  0.27030000  0.54782000  0.97586000  1.0
  C  C52  1  0.72969000  0.45217000  0.02414000  1.0
  C  C53  1  0.20599000  0.60788000  0.10296000  1.0
  C  C54  1  0.79401000  0.39211000  0.89703000  1.0
  C  C55  1  0.97659000  0.77449000  0.07098000  1.0
  C  C56  1  0.02343000  0.22553000  0.92900000  1.0
  C  C57  1  0.02929000  0.72021000  0.94280000  1.0
  C  C58  1  0.97073000  0.27980000  0.05718000  1.0
  N  N59  1  0.79776000  0.08909000  0.45398000  1.0
  N  N60  1  0.20222000  0.91093000  0.54604000  1.0
  N  N61  1  0.38310000  0.41855000  0.71414000  1.0
  N  N62  1  0.61690000  0.58146000  0.28585000  1.0
  N  N63  1  0.23806000  0.45866000  0.57176000  1.0
  N  N64  1  0.76192000  0.54136000  0.42824000  1.0
  N  N65  1  0.15106000  0.55351000  0.67833000  1.0
  N  N66  1  0.84893000  0.44650000  0.32167000  1.0
  N  N67  1  0.06053000  0.71962000  0.15158000  1.0
  N  N68  1  0.93947000  0.28039000  0.84841000  1.0
  O  O69  1  0.83349000  0.00147000  0.67492000  1.0
  O  O70  1  0.16647000  0.99853000  0.32509000  1.0
  O  O71  1  0.83474000  0.75235000  0.72475000  1.0
  O  O72  1  0.16530000  0.24763000  0.27521000  1.0
  O  O73  1  0.99438000  0.24225000  0.57958000  1.0
  O  O74  1  0.00558000  0.75778000  0.42043000  1.0
