# generated using pymatgen
data_Zn4H12C40Cl8O17
_symmetry_space_group_name_H-M   'P 1'
_cell_length_a   23.80766786
_cell_length_b   23.80790000
_cell_length_c   23.80630000
_cell_angle_alpha   66.51330000
_cell_angle_beta   72.49558606
_cell_angle_gamma   107.50106090
_symmetry_Int_Tables_number   1
_chemical_formula_structural   Zn4H12C40Cl8O17
_chemical_formula_sum   'Zn8 H24 C80 Cl16 O34'
_cell_volume   10348.59104187
_cell_formula_units_Z   2
loop_
 _symmetry_equiv_pos_site_id
 _symmetry_equiv_pos_as_xyz
  1  'x, y, z'
loop_
 _atom_site_type_symbol
 _atom_site_label
 _atom_site_symmetry_multiplicity
 _atom_site_fract_x
 _atom_site_fract_y
 _atom_site_fract_z
 _atom_site_occupancy
  Zn  Zn0  1  0.05748000  0.09972000  0.45775000  1.0
  Zn  Zn1  1  0.05748000  0.95776000  0.48476000  1.0
  Zn  Zn2  1  0.94252000  0.95775000  0.59973000  1.0
  Zn  Zn3  1  0.94254000  0.98478000  0.45774000  1.0
  Zn  Zn4  1  0.94252000  0.40028000  0.04225000  1.0
  Zn  Zn5  1  0.05748000  0.54225000  0.90027000  1.0
  Zn  Zn6  1  0.94252000  0.54224000  0.01524000  1.0
  Zn  Zn7  1  0.05746000  0.51522000  0.04226000  1.0
  H  H8  1  0.92333000  0.27117000  0.96449000  1.0
  H  H9  1  0.07667000  0.46450000  0.77113000  1.0
  H  H10  1  0.92333000  0.03550000  0.72886000  1.0
  H  H11  1  0.07662000  0.22884000  0.53549000  1.0
  H  H12  1  0.07668000  0.61221000  0.15214000  1.0
  H  H13  1  0.92334000  0.65220000  0.11215000  1.0
  H  H14  1  0.07662000  0.84778000  0.38787000  1.0
  H  H15  1  0.92333000  0.88783000  0.34782000  1.0
  H  H16  1  0.73565000  0.27116000  0.15220000  1.0
  H  H17  1  0.73565000  0.46450000  0.11215000  1.0
  H  H18  1  0.26435000  0.03550000  0.38785000  1.0
  H  H19  1  0.26435000  0.22882000  0.34787000  1.0
  H  H20  1  0.26436000  0.65223000  0.77115000  1.0
  H  H21  1  0.26434000  0.61215000  0.96452000  1.0
  H  H22  1  0.73566000  0.88785000  0.53548000  1.0
  H  H23  1  0.73564000  0.84784000  0.72884000  1.0
  H  H24  1  0.91942000  0.08218000  0.33725000  1.0
  H  H25  1  0.08058000  0.41782000  0.16275000  1.0
  H  H26  1  0.91942000  0.25667000  0.16275000  1.0
  H  H27  1  0.08059000  0.24334000  0.33724000  1.0
  H  H28  1  0.91941000  0.83723000  0.74336000  1.0
  H  H29  1  0.08059000  0.66277000  0.75664000  1.0
  H  H30  1  0.91942000  0.66275000  0.91784000  1.0
  H  H31  1  0.08058000  0.83725000  0.58216000  1.0
  C  C32  1  0.18216000  0.09107000  0.40893000  1.0
  C  C33  1  0.99999000  0.86034000  0.63966000  1.0
  C  C34  1  0.99999000  0.09108000  0.59108000  1.0
  C  C35  1  0.81784000  0.90893000  0.59106000  1.0
  C  C36  1  0.00001000  0.13966000  0.36033000  1.0
  C  C37  1  0.99999000  0.90891000  0.40892000  1.0
  C  C38  1  0.00000000  0.40893000  0.90891000  1.0
  C  C39  1  0.00000000  0.63965000  0.86034000  1.0
  C  C40  1  0.81784000  0.40893000  0.09108000  1.0
  C  C41  1  0.00000000  0.59110000  0.09107000  1.0
  C  C42  1  0.00000000  0.36035000  0.13966000  1.0
  C  C43  1  0.18216000  0.59108000  0.90894000  1.0
  C  C44  1  0.00000000  0.19577000  0.30423000  1.0
  C  C45  1  0.00000000  0.30423000  0.19577000  1.0
  C  C46  1  0.95612000  0.17924000  0.27688000  1.0
  C  C47  1  0.04389000  0.32077000  0.22311000  1.0
  C  C48  1  0.95611000  0.23300000  0.22312000  1.0
  C  C49  1  0.04389000  0.26700000  0.27688000  1.0
  C  C50  1  0.00000000  0.80423000  0.69577000  1.0
  C  C51  1  0.00000000  0.69577000  0.80423000  1.0
  C  C52  1  0.95611000  0.77687000  0.76701000  1.0
  C  C53  1  0.04389000  0.72313000  0.73298000  1.0
  C  C54  1  0.95612000  0.72312000  0.82077000  1.0
  C  C55  1  0.04388000  0.77688000  0.67923000  1.0
  C  C56  1  0.00000000  0.37147000  0.87146000  1.0
  C  C57  1  0.95670000  0.29949000  0.90858000  1.0
  C  C58  1  0.95679000  0.26475000  0.87357000  1.0
  C  C59  1  0.99999000  0.30059000  0.80058000  1.0
  C  C60  1  0.04320000  0.37358000  0.76473000  1.0
  C  C61  1  0.04329000  0.40859000  0.79947000  1.0
  C  C62  1  0.99998000  0.26533000  0.76532000  1.0
  C  C63  1  0.99998000  0.23468000  0.73466000  1.0
  C  C64  1  0.99997000  0.19942000  0.69942000  1.0
  C  C65  1  0.95678000  0.12642000  0.73527000  1.0
  C  C66  1  0.95669000  0.09141000  0.70053000  1.0
  C  C67  1  0.99997000  0.12852000  0.62854000  1.0
  C  C68  1  0.04325000  0.20052000  0.59141000  1.0
  C  C69  1  0.04317000  0.23526000  0.62642000  1.0
  C  C70  1  0.00001000  0.62856000  0.12851000  1.0
  C  C71  1  0.04331000  0.63475000  0.15719000  1.0
  C  C72  1  0.04322000  0.66966000  0.19202000  1.0
  C  C73  1  0.00001000  0.69945000  0.19939000  1.0
  C  C74  1  0.95680000  0.69207000  0.16961000  1.0
  C  C75  1  0.95672000  0.65725000  0.13468000  1.0
  C  C76  1  0.00000000  0.73469000  0.23466000  1.0
  C  C77  1  0.99998000  0.76532000  0.26534000  1.0
  C  C78  1  0.99998000  0.80056000  0.30060000  1.0
  C  C79  1  0.04317000  0.80791000  0.33041000  1.0
  C  C80  1  0.04325000  0.84273000  0.36533000  1.0
  C  C81  1  0.99998000  0.87145000  0.37148000  1.0
  C  C82  1  0.95669000  0.86528000  0.34279000  1.0
  C  C83  1  0.95678000  0.83036000  0.30796000  1.0
  C  C84  1  0.74293000  0.37147000  0.12854000  1.0
  C  C85  1  0.70806000  0.29948000  0.15725000  1.0
  C  C86  1  0.63832000  0.26475000  0.19207000  1.0
  C  C87  1  0.60116000  0.30058000  0.19943000  1.0
  C  C88  1  0.63832000  0.37358000  0.16962000  1.0
  C  C89  1  0.70806000  0.40859000  0.13470000  1.0
  C  C90  1  0.53065000  0.26532000  0.23470000  1.0
  C  C91  1  0.46935000  0.23467000  0.26536000  1.0
  C  C92  1  0.39884000  0.19941000  0.30062000  1.0
  C  C93  1  0.36168000  0.12641000  0.33040000  1.0
  C  C94  1  0.29194000  0.09141000  0.36532000  1.0
  C  C95  1  0.25707000  0.12852000  0.37150000  1.0
  C  C96  1  0.29194000  0.20051000  0.34281000  1.0
  C  C97  1  0.36168000  0.23524000  0.30800000  1.0
  C  C98  1  0.25707000  0.62855000  0.87148000  1.0
  C  C99  1  0.29194000  0.65726000  0.79948000  1.0
  C  C100  1  0.36169000  0.69209000  0.76474000  1.0
  C  C101  1  0.39884000  0.69944000  0.80058000  1.0
  C  C102  1  0.36168000  0.66963000  0.87359000  1.0
  C  C103  1  0.29193000  0.63470000  0.90861000  1.0
  C  C104  1  0.46935000  0.73470000  0.76532000  1.0
  C  C105  1  0.53065000  0.76535000  0.73467000  1.0
  C  C106  1  0.60116000  0.80060000  0.69940000  1.0
  C  C107  1  0.63832000  0.83039000  0.62641000  1.0
  C  C108  1  0.70807000  0.86532000  0.59139000  1.0
  C  C109  1  0.74293000  0.87148000  0.62852000  1.0
  C  C110  1  0.70806000  0.84279000  0.70050000  1.0
  C  C111  1  0.63832000  0.80797000  0.73524000  1.0
  Cl  Cl112  1  0.09657000  0.41956000  0.67634000  1.0
  Cl  Cl113  1  0.90342000  0.17637000  0.91956000  1.0
  Cl  Cl114  1  0.09652000  0.32365000  0.58041000  1.0
  Cl  Cl115  1  0.90343000  0.08044000  0.82366000  1.0
  Cl  Cl116  1  0.90343000  0.72708000  0.17700000  1.0
  Cl  Cl117  1  0.09658000  0.67705000  0.22704000  1.0
  Cl  Cl118  1  0.90343000  0.82299000  0.27292000  1.0
  Cl  Cl119  1  0.09652000  0.77288000  0.32304000  1.0
  Cl  Cl120  1  0.59591000  0.41956000  0.17699000  1.0
  Cl  Cl121  1  0.59592000  0.17636000  0.22710000  1.0
  Cl  Cl122  1  0.40408000  0.32361000  0.27298000  1.0
  Cl  Cl123  1  0.40409000  0.08044000  0.32301000  1.0
  Cl  Cl124  1  0.40407000  0.67698000  0.91959000  1.0
  Cl  Cl125  1  0.40409000  0.72713000  0.67635000  1.0
  Cl  Cl126  1  0.59591000  0.77295000  0.82363000  1.0
  Cl  Cl127  1  0.59593000  0.82302000  0.58041000  1.0
  O  O128  1  0.00000000  0.00000000  0.50000000  1.0
  O  O129  1  0.15308000  0.12765000  0.41263000  1.0
  O  O130  1  0.04019000  0.88421000  0.57560000  1.0
  O  O131  1  0.95969000  0.02540000  0.62768000  1.0
  O  O132  1  0.15309000  0.02541000  0.43428000  1.0
  O  O133  1  0.04029000  0.12766000  0.52542000  1.0
  O  O134  1  0.95980000  0.88420000  0.65599000  1.0
  O  O135  1  0.84691000  0.91263000  0.62766000  1.0
  O  O136  1  0.95981000  0.07560000  0.38420000  1.0
  O  O137  1  0.84692000  0.93430000  0.52540000  1.0
  O  O138  1  0.04020000  0.15599000  0.38420000  1.0
  O  O139  1  0.04029000  0.91262000  0.43429000  1.0
  O  O140  1  0.95971000  0.93430000  0.41262000  1.0
  O  O141  1  0.00000000  0.50000000  0.00000000  1.0
  O  O142  1  0.95971000  0.37235000  0.97457000  1.0
  O  O143  1  0.04020000  0.61579000  0.84400000  1.0
  O  O144  1  0.84691000  0.47458000  0.06572000  1.0
  O  O145  1  0.04030000  0.47459000  0.87232000  1.0
  O  O146  1  0.84692000  0.37234000  0.08738000  1.0
  O  O147  1  0.95981000  0.61579000  0.92440000  1.0
  O  O148  1  0.95970000  0.58738000  0.06571000  1.0
  O  O149  1  0.04019000  0.42440000  0.11580000  1.0
  O  O150  1  0.04028000  0.56571000  0.08738000  1.0
  O  O151  1  0.95980000  0.34401000  0.11580000  1.0
  O  O152  1  0.15309000  0.58738000  0.87234000  1.0
  O  O153  1  0.15308000  0.56571000  0.97460000  1.0
  O  O154  1  0.91301000  0.11314000  0.29988000  1.0
  O  O155  1  0.08699000  0.38686000  0.20012000  1.0
  O  O156  1  0.91301000  0.21289000  0.20013000  1.0
  O  O157  1  0.08699000  0.28711000  0.29987000  1.0
  O  O158  1  0.91301000  0.79986000  0.78713000  1.0
  O  O159  1  0.08699000  0.70014000  0.71286000  1.0
  O  O160  1  0.91302000  0.70012000  0.88687000  1.0
  O  O161  1  0.08699000  0.79989000  0.61312000  1.0
