# generated using pymatgen
data_Zn4H12C58Cl24O13
_symmetry_space_group_name_H-M   'P 1'
_cell_length_a   21.53470000
_cell_length_b   21.53470000
_cell_length_c   34.54930000
_cell_angle_alpha   89.99960000
_cell_angle_beta   90.00040000
_cell_angle_gamma   89.99980000
_symmetry_Int_Tables_number   1
_chemical_formula_structural   Zn4H12C58Cl24O13
_chemical_formula_sum   'Zn8 H24 C116 Cl48 O26'
_cell_volume   16022.00653512
_cell_formula_units_Z   2
loop_
 _symmetry_equiv_pos_site_id
 _symmetry_equiv_pos_as_xyz
  1  'x, y, z'
loop_
 _atom_site_type_symbol
 _atom_site_label
 _atom_site_symmetry_multiplicity
 _atom_site_fract_x
 _atom_site_fract_y
 _atom_site_fract_z
 _atom_site_occupancy
  Zn  Zn0  1  0.44861000  0.44754000  0.96642000  1.0
  Zn  Zn1  1  0.44861000  0.55247000  0.03358000  1.0
  Zn  Zn2  1  0.55139000  0.55247000  0.96642000  1.0
  Zn  Zn3  1  0.55139000  0.44754000  0.03358000  1.0
  Zn  Zn4  1  0.55247000  0.55139000  0.53358000  1.0
  Zn  Zn5  1  0.44753000  0.55139000  0.46642000  1.0
  Zn  Zn6  1  0.44753000  0.44861000  0.53358000  1.0
  Zn  Zn7  1  0.55247000  0.44860000  0.46642000  1.0
  H  H8  1  0.56168000  0.57847000  0.84809000  1.0
  H  H9  1  0.43832000  0.42154000  0.84809000  1.0
  H  H10  1  0.42154000  0.43832000  0.65191000  1.0
  H  H11  1  0.57847000  0.56168000  0.65191000  1.0
  H  H12  1  0.53539000  0.63245000  0.76193000  1.0
  H  H13  1  0.60526000  0.61529000  0.78662000  1.0
  H  H14  1  0.46462000  0.36755000  0.76193000  1.0
  H  H15  1  0.39475000  0.38471000  0.78662000  1.0
  H  H16  1  0.36755000  0.46462000  0.73807000  1.0
  H  H17  1  0.38471000  0.39475000  0.71338000  1.0
  H  H18  1  0.63246000  0.53538000  0.73807000  1.0
  H  H19  1  0.61529000  0.60526000  0.71338000  1.0
  H  H20  1  0.56168000  0.42154000  0.15191000  1.0
  H  H21  1  0.43832000  0.57846000  0.15191000  1.0
  H  H22  1  0.42154000  0.56168000  0.34809000  1.0
  H  H23  1  0.57847000  0.43832000  0.34809000  1.0
  H  H24  1  0.53538000  0.36755000  0.23807000  1.0
  H  H25  1  0.60525000  0.38471000  0.21338000  1.0
  H  H26  1  0.46462000  0.63245000  0.23807000  1.0
  H  H27  1  0.39475000  0.61529000  0.21338000  1.0
  H  H28  1  0.36755000  0.53538000  0.26193000  1.0
  H  H29  1  0.38471000  0.60526000  0.28662000  1.0
  H  H30  1  0.63245000  0.46461000  0.26193000  1.0
  H  H31  1  0.61529000  0.39474000  0.28662000  1.0
  C  C32  1  0.33566000  0.50000000  1.00000000  1.0
  C  C33  1  0.50000000  0.66546000  1.00000000  1.0
  C  C34  1  0.50000000  0.50000000  0.89513000  1.0
  C  C35  1  0.66434000  0.50000000  1.00000000  1.0
  C  C36  1  0.50000000  0.33454000  1.00000000  1.0
  C  C37  1  0.50000000  0.50000000  0.10488000  1.0
  C  C38  1  0.50000000  0.66434000  0.50000000  1.0
  C  C39  1  0.33453000  0.50000000  0.50000000  1.0
  C  C40  1  0.50000000  0.50000000  0.60488000  1.0
  C  C41  1  0.49999000  0.33566000  0.50000000  1.0
  C  C42  1  0.66547000  0.50000000  0.50000000  1.0
  C  C43  1  0.50000000  0.49999000  0.39512000  1.0
  C  C44  1  0.50000000  0.73531000  1.00000000  1.0
  C  C45  1  0.55623000  0.76770000  0.00294000  1.0
  C  C46  1  0.55615000  0.83289000  0.00280000  1.0
  C  C47  1  0.44376000  0.76770000  0.99706000  1.0
  C  C48  1  0.44385000  0.83289000  0.99720000  1.0
  C  C49  1  0.50000000  0.86568000  1.00000000  1.0
  C  C50  1  0.50000000  0.93461000  1.00000000  1.0
  C  C51  1  0.49982000  0.96740000  0.03511000  1.0
  C  C52  1  0.50018000  0.96740000  0.96488000  1.0
  C  C53  1  0.50000000  0.26469000  0.00000000  1.0
  C  C54  1  0.44377000  0.23230000  0.00294000  1.0
  C  C55  1  0.44385000  0.16711000  0.00280000  1.0
  C  C56  1  0.55624000  0.23231000  0.99706000  1.0
  C  C57  1  0.55615000  0.16711000  0.99720000  1.0
  C  C58  1  0.50000000  0.13432000  1.00000000  1.0
  C  C59  1  0.50000000  0.06539000  1.00000000  1.0
  C  C60  1  0.49981000  0.03260000  0.96488000  1.0
  C  C61  1  0.50019000  0.03260000  0.03511000  1.0
  C  C62  1  0.56828000  0.59466000  0.76886000  1.0
  C  C63  1  0.43173000  0.40534000  0.76886000  1.0
  C  C64  1  0.40534000  0.43173000  0.73114000  1.0
  C  C65  1  0.59467000  0.56828000  0.73114000  1.0
  C  C66  1  0.53481000  0.54437000  0.83184000  1.0
  C  C67  1  0.53438000  0.54540000  0.79157000  1.0
  C  C68  1  0.46519000  0.45564000  0.83184000  1.0
  C  C69  1  0.46563000  0.45460000  0.79157000  1.0
  C  C70  1  0.45564000  0.46519000  0.66816000  1.0
  C  C71  1  0.45460000  0.46563000  0.70843000  1.0
  C  C72  1  0.54437000  0.53481000  0.66816000  1.0
  C  C73  1  0.54541000  0.53438000  0.70843000  1.0
  C  C74  1  0.50000000  0.50000000  0.85213000  1.0
  C  C75  1  0.50001000  0.50000000  0.77121000  1.0
  C  C76  1  0.50000000  0.50000000  0.64787000  1.0
  C  C77  1  0.50000000  0.50000000  0.72879000  1.0
  C  C78  1  0.56827000  0.40534000  0.23114000  1.0
  C  C79  1  0.43173000  0.59466000  0.23114000  1.0
  C  C80  1  0.40534000  0.56828000  0.26886000  1.0
  C  C81  1  0.59466000  0.43172000  0.26886000  1.0
  C  C82  1  0.53481000  0.45564000  0.16816000  1.0
  C  C83  1  0.53438000  0.45459000  0.20843000  1.0
  C  C84  1  0.46518000  0.54436000  0.16816000  1.0
  C  C85  1  0.46562000  0.54540000  0.20843000  1.0
  C  C86  1  0.45564000  0.53481000  0.33184000  1.0
  C  C87  1  0.45459000  0.53438000  0.29157000  1.0
  C  C88  1  0.54436000  0.46518000  0.33184000  1.0
  C  C89  1  0.54540000  0.46562000  0.29157000  1.0
  C  C90  1  0.50000000  0.50000000  0.14787000  1.0
  C  C91  1  0.50000000  0.50000000  0.22879000  1.0
  C  C92  1  0.50000000  0.49999000  0.35213000  1.0
  C  C93  1  0.50000000  0.50000000  0.27121000  1.0
  C  C94  1  0.73442000  0.50001000  1.00000000  1.0
  C  C95  1  0.76707000  0.49642000  0.96495000  1.0
  C  C96  1  0.83234000  0.49652000  0.96500000  1.0
  C  C97  1  0.76707000  0.50358000  0.03505000  1.0
  C  C98  1  0.83234000  0.50347000  0.03500000  1.0
  C  C99  1  0.86532000  0.50000000  1.00000000  1.0
  C  C100  1  0.93441000  0.50000000  1.00000000  1.0
  C  C101  1  0.96738000  0.44375000  0.00009000  1.0
  C  C102  1  0.96738000  0.55625000  0.99990000  1.0
  C  C103  1  0.26558000  0.50000000  1.00000000  1.0
  C  C104  1  0.23293000  0.49642000  0.03505000  1.0
  C  C105  1  0.16766000  0.49653000  0.03500000  1.0
  C  C106  1  0.23293000  0.50359000  0.96495000  1.0
  C  C107  1  0.16766000  0.50348000  0.96500000  1.0
  C  C108  1  0.13468000  0.50000000  1.00000000  1.0
  C  C109  1  0.06559000  0.50000000  0.00000000  1.0
  C  C110  1  0.03262000  0.55625000  0.00009000  1.0
  C  C111  1  0.03262000  0.44375000  0.99990000  1.0
  C  C112  1  0.26469000  0.50000000  0.50000000  1.0
  C  C113  1  0.23230000  0.44376000  0.49706000  1.0
  C  C114  1  0.16711000  0.44385000  0.49720000  1.0
  C  C115  1  0.23230000  0.55624000  0.50293000  1.0
  C  C116  1  0.16711000  0.55615000  0.50280000  1.0
  C  C117  1  0.13432000  0.50000000  0.50000000  1.0
  C  C118  1  0.06539000  0.50001000  0.50000000  1.0
  C  C119  1  0.03260000  0.50019000  0.46489000  1.0
  C  C120  1  0.03260000  0.49982000  0.53511000  1.0
  C  C121  1  0.73531000  0.50000000  0.50000000  1.0
  C  C122  1  0.76770000  0.55624000  0.49706000  1.0
  C  C123  1  0.83289000  0.55615000  0.49719000  1.0
  C  C124  1  0.76770000  0.44377000  0.50293000  1.0
  C  C125  1  0.83289000  0.44385000  0.50280000  1.0
  C  C126  1  0.86568000  0.50000000  0.50000000  1.0
  C  C127  1  0.93461000  0.50000000  0.50000000  1.0
  C  C128  1  0.96740000  0.50019000  0.53511000  1.0
  C  C129  1  0.96740000  0.49981000  0.46489000  1.0
  C  C130  1  0.49999000  0.26558000  0.50000000  1.0
  C  C131  1  0.50357000  0.23294000  0.53506000  1.0
  C  C132  1  0.50347000  0.16766000  0.53500000  1.0
  C  C133  1  0.49642000  0.23293000  0.46495000  1.0
  C  C134  1  0.49653000  0.16766000  0.46501000  1.0
  C  C135  1  0.50000000  0.13468000  0.50000000  1.0
  C  C136  1  0.50001000  0.06559000  0.50000000  1.0
  C  C137  1  0.55626000  0.03262000  0.49991000  1.0
  C  C138  1  0.44376000  0.03262000  0.50010000  1.0
  C  C139  1  0.50000000  0.73442000  0.50000000  1.0
  C  C140  1  0.50357000  0.76707000  0.46495000  1.0
  C  C141  1  0.50347000  0.83234000  0.46500000  1.0
  C  C142  1  0.49642000  0.76707000  0.53505000  1.0
  C  C143  1  0.49652000  0.83234000  0.53500000  1.0
  C  C144  1  0.50000000  0.86532000  0.50000000  1.0
  C  C145  1  0.50001000  0.93441000  0.50000000  1.0
  C  C146  1  0.44376000  0.96738000  0.49991000  1.0
  C  C147  1  0.55625000  0.96738000  0.50010000  1.0
  Cl  Cl148  1  0.37526000  0.72751000  0.99246000  1.0
  Cl  Cl149  1  0.37532000  0.87335000  0.99405000  1.0
  Cl  Cl150  1  0.62474000  0.72750000  0.00754000  1.0
  Cl  Cl151  1  0.62467000  0.87335000  0.00594000  1.0
  Cl  Cl152  1  0.49907000  0.92701000  0.07796000  1.0
  Cl  Cl153  1  0.50093000  0.07299000  0.07796000  1.0
  Cl  Cl154  1  0.50092000  0.92702000  0.92204000  1.0
  Cl  Cl155  1  0.49908000  0.07299000  0.92204000  1.0
  Cl  Cl156  1  0.62468000  0.12665000  0.99405000  1.0
  Cl  Cl157  1  0.62474000  0.27249000  0.99246000  1.0
  Cl  Cl158  1  0.37533000  0.12665000  0.00595000  1.0
  Cl  Cl159  1  0.37526000  0.27249000  0.00754000  1.0
  Cl  Cl160  1  0.72710000  0.50992000  0.07790000  1.0
  Cl  Cl161  1  0.87274000  0.50762000  0.07778000  1.0
  Cl  Cl162  1  0.72709000  0.49008000  0.92210000  1.0
  Cl  Cl163  1  0.87272000  0.49237000  0.92221000  1.0
  Cl  Cl164  1  0.92709000  0.37495000  0.00047000  1.0
  Cl  Cl165  1  0.07291000  0.37496000  0.99953000  1.0
  Cl  Cl166  1  0.92709000  0.62504000  0.99952000  1.0
  Cl  Cl167  1  0.07291000  0.62504000  0.00047000  1.0
  Cl  Cl168  1  0.12727000  0.50763000  0.92221000  1.0
  Cl  Cl169  1  0.27291000  0.50992000  0.92210000  1.0
  Cl  Cl170  1  0.12727000  0.49238000  0.07778000  1.0
  Cl  Cl171  1  0.27290000  0.49009000  0.07790000  1.0
  Cl  Cl172  1  0.27250000  0.62474000  0.50753000  1.0
  Cl  Cl173  1  0.12665000  0.62468000  0.50594000  1.0
  Cl  Cl174  1  0.27249000  0.37526000  0.49246000  1.0
  Cl  Cl175  1  0.12664000  0.37533000  0.49405000  1.0
  Cl  Cl176  1  0.07299000  0.50092000  0.42204000  1.0
  Cl  Cl177  1  0.92701000  0.49907000  0.42204000  1.0
  Cl  Cl178  1  0.07299000  0.49908000  0.57796000  1.0
  Cl  Cl179  1  0.92701000  0.50093000  0.57796000  1.0
  Cl  Cl180  1  0.87336000  0.37533000  0.50594000  1.0
  Cl  Cl181  1  0.72751000  0.37526000  0.50753000  1.0
  Cl  Cl182  1  0.87335000  0.62467000  0.49405000  1.0
  Cl  Cl183  1  0.72751000  0.62474000  0.49246000  1.0
  Cl  Cl184  1  0.49008000  0.27290000  0.42210000  1.0
  Cl  Cl185  1  0.49239000  0.12727000  0.42222000  1.0
  Cl  Cl186  1  0.50990000  0.27291000  0.57791000  1.0
  Cl  Cl187  1  0.50762000  0.12727000  0.57779000  1.0
  Cl  Cl188  1  0.62505000  0.07291000  0.49953000  1.0
  Cl  Cl189  1  0.62505000  0.92709000  0.50047000  1.0
  Cl  Cl190  1  0.37497000  0.07292000  0.50047000  1.0
  Cl  Cl191  1  0.37496000  0.92709000  0.49954000  1.0
  Cl  Cl192  1  0.49238000  0.87272000  0.57779000  1.0
  Cl  Cl193  1  0.49008000  0.72709000  0.57790000  1.0
  Cl  Cl194  1  0.50762000  0.87273000  0.42222000  1.0
  Cl  Cl195  1  0.50990000  0.72710000  0.42210000  1.0
  O  O196  1  0.50000000  0.50000000  1.00000000  1.0
  O  O197  1  0.36160000  0.45294000  0.98484000  1.0
  O  O198  1  0.47654000  0.63964000  0.02960000  1.0
  O  O199  1  0.54364000  0.52999000  0.91200000  1.0
  O  O200  1  0.36160000  0.54706000  0.01516000  1.0
  O  O201  1  0.45635000  0.47001000  0.91199000  1.0
  O  O202  1  0.52346000  0.63963000  0.97040000  1.0
  O  O203  1  0.63840000  0.54706000  0.98484000  1.0
  O  O204  1  0.52345000  0.36037000  0.02960000  1.0
  O  O205  1  0.63840000  0.45295000  0.01516000  1.0
  O  O206  1  0.47654000  0.36037000  0.97040000  1.0
  O  O207  1  0.45634000  0.52999000  0.08801000  1.0
  O  O208  1  0.54365000  0.47002000  0.08801000  1.0
  O  O209  1  0.50000000  0.50000000  0.50000000  1.0
  O  O210  1  0.54706000  0.63840000  0.51515000  1.0
  O  O211  1  0.36037000  0.52345000  0.47040000  1.0
  O  O212  1  0.47001000  0.45636000  0.58801000  1.0
  O  O213  1  0.45294000  0.63840000  0.48484000  1.0
  O  O214  1  0.53000000  0.54365000  0.58801000  1.0
  O  O215  1  0.36037000  0.47655000  0.52960000  1.0
  O  O216  1  0.45294000  0.36160000  0.51516000  1.0
  O  O217  1  0.63963000  0.47654000  0.47040000  1.0
  O  O218  1  0.54705000  0.36160000  0.48484000  1.0
  O  O219  1  0.63963000  0.52346000  0.52960000  1.0
  O  O220  1  0.47001000  0.54365000  0.41199000  1.0
  O  O221  1  0.52999000  0.45634000  0.41199000  1.0
