# generated using pymatgen
data_Mn2NbH12C12(N5O3)2
_symmetry_space_group_name_H-M   'P 1'
_cell_length_a   9.87291000
_cell_length_b   9.88178000
_cell_length_c   12.37100000
_cell_angle_alpha   80.16540000
_cell_angle_beta   80.16370000
_cell_angle_gamma   83.16600000
_symmetry_Int_Tables_number   1
_chemical_formula_structural   Mn2NbH12C12(N5O3)2
_chemical_formula_sum   'Mn4 Nb2 H24 C24 N20 O12'
_cell_volume   1166.69608134
_cell_formula_units_Z   2
loop_
 _symmetry_equiv_pos_site_id
 _symmetry_equiv_pos_as_xyz
  1  'x, y, z'
loop_
 _atom_site_type_symbol
 _atom_site_label
 _atom_site_symmetry_multiplicity
 _atom_site_fract_x
 _atom_site_fract_y
 _atom_site_fract_z
 _atom_site_occupancy
  Mn  Mn0  1  0.25378000  0.30838000  0.09306000  1.0
  Mn  Mn1  1  0.69190000  0.74613000  0.40682000  1.0
  Mn  Mn2  1  0.74621000  0.69162000  0.90695000  1.0
  Mn  Mn3  1  0.30808000  0.25387000  0.59319000  1.0
  Nb  Nb4  1  0.73206000  0.26801000  0.24994000  1.0
  Nb  Nb5  1  0.26794000  0.73199000  0.75006000  1.0
  H  H6  1  0.26480000  0.05245000  0.01628000  1.0
  H  H7  1  0.19552000  0.17309000  0.93842000  1.0
  H  H8  1  0.17452000  0.98343000  0.41207000  1.0
  H  H9  1  0.14820000  0.09784000  0.30987000  1.0
  H  H10  1  0.22724000  0.48116000  0.39274000  1.0
  H  H11  1  0.35671000  0.61694000  0.05667000  1.0
  H  H12  1  0.94746000  0.73530000  0.48347000  1.0
  H  H13  1  0.82706000  0.80453000  0.56162000  1.0
  H  H14  1  0.01629000  0.82565000  0.08779000  1.0
  H  H15  1  0.90210000  0.85172000  0.19018000  1.0
  H  H16  1  0.51844000  0.77284000  0.10729000  1.0
  H  H17  1  0.38297000  0.64305000  0.44339000  1.0
  H  H18  1  0.73519000  0.94755000  0.98372000  1.0
  H  H19  1  0.80446000  0.82690000  0.06159000  1.0
  H  H20  1  0.82554000  0.01657000  0.58792000  1.0
  H  H21  1  0.85186000  0.90216000  0.69013000  1.0
  H  H22  1  0.77275000  0.51886000  0.60725000  1.0
  H  H23  1  0.64329000  0.38307000  0.94333000  1.0
  H  H24  1  0.05252000  0.26471000  0.51649000  1.0
  H  H25  1  0.17296000  0.19549000  0.43837000  1.0
  H  H26  1  0.98367000  0.17428000  0.91221000  1.0
  H  H27  1  0.09785000  0.14820000  0.80982000  1.0
  H  H28  1  0.48156000  0.22718000  0.89271000  1.0
  H  H29  1  0.61703000  0.35697000  0.55661000  1.0
  C  C30  1  0.95711000  0.25311000  0.20635000  1.0
  C  C31  1  0.78689000  0.18199000  0.08929000  1.0
  C  C32  1  0.55181000  0.25953000  0.38401000  1.0
  C  C33  1  0.54073000  0.26496000  0.18146000  1.0
  C  C34  1  0.29169000  0.54876000  0.33159000  1.0
  C  C35  1  0.36557000  0.62363000  0.14172000  1.0
  C  C36  1  0.74687000  0.04309000  0.29343000  1.0
  C  C37  1  0.81819000  0.21320000  0.41058000  1.0
  C  C38  1  0.74048000  0.44814000  0.11595000  1.0
  C  C39  1  0.73507000  0.45921000  0.31845000  1.0
  C  C40  1  0.45098000  0.70821000  0.16844000  1.0
  C  C41  1  0.37628000  0.63417000  0.35833000  1.0
  C  C42  1  0.04289000  0.74689000  0.79365000  1.0
  C  C43  1  0.21311000  0.81800000  0.91071000  1.0
  C  C44  1  0.44820000  0.74045000  0.61601000  1.0
  C  C45  1  0.45927000  0.73504000  0.81854000  1.0
  C  C46  1  0.70830000  0.45126000  0.66841000  1.0
  C  C47  1  0.63444000  0.37640000  0.85827000  1.0
  C  C48  1  0.25314000  0.95690000  0.70657000  1.0
  C  C49  1  0.18184000  0.78681000  0.58941000  1.0
  C  C50  1  0.25952000  0.55184000  0.88405000  1.0
  C  C51  1  0.26492000  0.54078000  0.68156000  1.0
  C  C52  1  0.54902000  0.29180000  0.83156000  1.0
  C  C53  1  0.62371000  0.36585000  0.64167000  1.0
  N  N54  1  0.07722000  0.23508000  0.17991000  1.0
  N  N55  1  0.81479000  0.13580000  0.00601000  1.0
  N  N56  1  0.45654000  0.25536000  0.45527000  1.0
  N  N57  1  0.44109000  0.26655000  0.14107000  1.0
  N  N58  1  0.28452000  0.54419000  0.22299000  1.0
  N  N59  1  0.76471000  0.92307000  0.31999000  1.0
  N  N60  1  0.86398000  0.18524000  0.49406000  1.0
  N  N61  1  0.74468000  0.54336000  0.04471000  1.0
  N  N62  1  0.73349000  0.55877000  0.35884000  1.0
  N  N63  1  0.45571000  0.71525000  0.27705000  1.0
  N  N64  1  0.92278000  0.76491000  0.82010000  1.0
  N  N65  1  0.18519000  0.86418000  0.99400000  1.0
  N  N66  1  0.54347000  0.74465000  0.54474000  1.0
  N  N67  1  0.55892000  0.73346000  0.85892000  1.0
  N  N68  1  0.71548000  0.45583000  0.77700000  1.0
  N  N69  1  0.23529000  0.07692000  0.68000000  1.0
  N  N70  1  0.13604000  0.81478000  0.50594000  1.0
  N  N71  1  0.25532000  0.45663000  0.95529000  1.0
  N  N72  1  0.26649000  0.44121000  0.64118000  1.0
  N  N73  1  0.54428000  0.28478000  0.72295000  1.0
  O  O74  1  0.27237000  0.15034000  0.98646000  1.0
  O  O75  1  0.20481000  0.07149000  0.36906000  1.0
  O  O76  1  0.20024000  0.46541000  0.19916000  1.0
  O  O77  1  0.84961000  0.72757000  0.51369000  1.0
  O  O78  1  0.92858000  0.79482000  0.13122000  1.0
  O  O79  1  0.53471000  0.79934000  0.30085000  1.0
  O  O80  1  0.72761000  0.84966000  0.01355000  1.0
  O  O81  1  0.79525000  0.92850000  0.63094000  1.0
  O  O82  1  0.79976000  0.53461000  0.80083000  1.0
  O  O83  1  0.15037000  0.27246000  0.48629000  1.0
  O  O84  1  0.07139000  0.20511000  0.86878000  1.0
  O  O85  1  0.46527000  0.20069000  0.69915000  1.0
