# generated using pymatgen
data_Sm3P3H47C37(NO8)3
_symmetry_space_group_name_H-M   'P 1'
_cell_length_a   14.95820000
_cell_length_b   15.04700000
_cell_length_c   15.11740000
_cell_angle_alpha   103.51300000
_cell_angle_beta   106.47700000
_cell_angle_gamma   116.96700000
_symmetry_Int_Tables_number   1
_chemical_formula_structural   Sm3P3H47C37(NO8)3
_chemical_formula_sum   'Sm6 P6 H94 C74 N6 O48'
_cell_volume   2633.86659911
_cell_formula_units_Z   2
loop_
 _symmetry_equiv_pos_site_id
 _symmetry_equiv_pos_as_xyz
  1  'x, y, z'
loop_
 _atom_site_type_symbol
 _atom_site_label
 _atom_site_symmetry_multiplicity
 _atom_site_fract_x
 _atom_site_fract_y
 _atom_site_fract_z
 _atom_site_occupancy
  Sm  Sm0  1  0.11126000  0.81682000  0.68115000  1.0
  Sm  Sm1  1  0.88874000  0.18318000  0.31884000  1.0
  Sm  Sm2  1  0.86234000  0.55843000  0.69562000  1.0
  Sm  Sm3  1  0.13766000  0.44157000  0.30438000  1.0
  Sm  Sm4  1  0.06158000  0.41888000  0.64402000  1.0
  Sm  Sm5  1  0.93843000  0.58112000  0.35598000  1.0
  P  P6  1  0.14364000  0.61757000  0.52173000  1.0
  P  P7  1  0.85636000  0.38243000  0.47827000  1.0
  P  P8  1  0.17404000  0.69553000  0.80138000  1.0
  P  P9  1  0.82596000  0.30447000  0.19862000  1.0
  P  P10  1  0.80064000  0.61741000  0.51245000  1.0
  P  P11  1  0.19936000  0.38259000  0.48755000  1.0
  H  H12  1  0.66805000  0.89344000  0.11922000  1.0
  H  H13  1  0.33194000  0.10657000  0.88078000  1.0
  H  H14  1  0.14321000  0.31672000  0.74961000  1.0
  H  H15  1  0.85679000  0.68328000  0.25039000  1.0
  H  H16  1  0.22662000  0.38760000  0.71399000  1.0
  H  H17  1  0.77338000  0.61240000  0.28601000  1.0
  H  H18  1  0.31545000  0.76193000  0.71637000  1.0
  H  H19  1  0.68455000  0.23807000  0.28362000  1.0
  H  H20  1  0.08334000  0.64688000  0.92825000  1.0
  H  H21  1  0.91666000  0.35312000  0.07175000  1.0
  H  H22  1  0.89860000  0.83586000  0.56116000  1.0
  H  H23  1  0.10141000  0.16414000  0.43883000  1.0
  H  H24  1  0.32363000  0.67436000  0.52268000  1.0
  H  H25  1  0.67637000  0.32564000  0.47732000  1.0
  H  H26  1  0.30643000  0.78635000  0.55194000  1.0
  H  H27  1  0.69357000  0.21366000  0.44805000  1.0
  H  H28  1  0.52579000  0.85903000  0.69360000  1.0
  H  H29  1  0.47421000  0.14097000  0.30640000  1.0
  H  H30  1  0.44761000  0.91972000  0.70036000  1.0
  H  H31  1  0.55240000  0.08028000  0.29963000  1.0
  H  H32  1  0.60029000  0.98986000  0.87405000  1.0
  H  H33  1  0.39971000  0.01014000  0.12595000  1.0
  H  H34  1  0.46491000  0.92238000  0.86671000  1.0
  H  H35  1  0.53509000  0.07763000  0.13329000  1.0
  H  H36  1  0.61589000  0.83610000  0.87285000  1.0
  H  H37  1  0.38411000  0.16390000  0.12716000  1.0
  H  H38  1  0.46512000  0.65437000  0.83124000  1.0
  H  H39  1  0.53488000  0.34563000  0.16876000  1.0
  H  H40  1  0.37329000  0.69555000  0.83810000  1.0
  H  H41  1  0.62670000  0.30444000  0.16189000  1.0
  H  H42  1  0.31454000  0.59357000  0.65978000  1.0
  H  H43  1  0.68546000  0.40643000  0.34022000  1.0
  H  H44  1  0.45028000  0.67694000  0.67000000  1.0
  H  H45  1  0.54972000  0.32307000  0.32999000  1.0
  H  H46  1  0.21892000  0.84351000  0.94277000  1.0
  H  H47  1  0.78108000  0.15649000  0.05723000  1.0
  H  H48  1  0.31815000  0.80660000  0.97789000  1.0
  H  H49  1  0.68185000  0.19340000  0.02210000  1.0
  H  H50  1  0.30563000  0.72554000  0.08598000  1.0
  H  H51  1  0.69437000  0.27445000  0.91401000  1.0
  H  H52  1  0.22259000  0.60659000  0.96720000  1.0
  H  H53  1  0.77742000  0.39341000  0.03280000  1.0
  H  H54  1  0.19993000  0.55786000  0.11249000  1.0
  H  H55  1  0.80007000  0.44214000  0.88751000  1.0
  H  H56  1  0.07390000  0.51884000  0.01654000  1.0
  H  H57  1  0.92610000  0.48116000  0.98346000  1.0
  H  H58  1  0.21819000  0.72102000  0.22189000  1.0
  H  H59  1  0.78181000  0.27898000  0.77811000  1.0
  H  H60  1  0.08352000  0.77042000  0.16897000  1.0
  H  H61  1  0.91649000  0.22959000  0.83104000  1.0
  H  H62  1  0.00028000  0.65513000  0.04978000  1.0
  H  H63  1  0.99973000  0.34487000  0.95022000  1.0
  H  H64  1  0.11302000  0.81481000  0.02435000  1.0
  H  H65  1  0.88698000  0.18519000  0.97565000  1.0
  H  H66  1  0.24105000  0.84861000  0.12101000  1.0
  H  H67  1  0.75896000  0.15139000  0.87899000  1.0
  H  H68  1  0.65990000  0.66479000  0.48415000  1.0
  H  H69  1  0.34010000  0.33521000  0.51585000  1.0
  H  H70  1  0.75314000  0.71549000  0.61561000  1.0
  H  H71  1  0.24686000  0.28451000  0.38439000  1.0
  H  H72  1  0.73853000  0.88214000  0.60134000  1.0
  H  H73  1  0.26147000  0.11786000  0.39866000  1.0
  H  H74  1  0.85952000  0.90066000  0.69439000  1.0
  H  H75  1  0.14048000  0.09934000  0.30561000  1.0
  H  H76  1  0.90325000  0.07954000  0.68381000  1.0
  H  H77  1  0.09675000  0.92046000  0.31619000  1.0
  H  H78  1  0.98673000  0.03553000  0.65408000  1.0
  H  H79  1  0.01327000  0.96446000  0.34592000  1.0
  H  H80  1  0.78234000  0.01434000  0.50400000  1.0
  H  H81  1  0.21766000  0.98566000  0.49600000  1.0
  H  H82  1  0.80836000  0.92289000  0.36465000  1.0
  H  H83  1  0.19163000  0.07711000  0.63535000  1.0
  H  H84  1  0.92673000  0.93882000  0.45117000  1.0
  H  H85  1  0.07327000  0.06119000  0.54883000  1.0
  H  H86  1  0.76659000  0.74889000  0.38531000  1.0
  H  H87  1  0.23341000  0.25111000  0.61469000  1.0
  H  H88  1  0.68601000  0.79475000  0.42145000  1.0
  H  H89  1  0.31399000  0.20525000  0.57855000  1.0
  H  H90  1  0.16377000  0.98659000  0.03169000  1.0
  H  H91  1  0.83623000  0.01340000  0.96831000  1.0
  H  H92  1  0.17782000  0.12866000  0.17238000  1.0
  H  H93  1  0.82218000  0.87134000  0.82762000  1.0
  H  H94  1  0.06865000  0.24690000  0.96146000  1.0
  H  H95  1  0.93136000  0.75310000  0.03855000  1.0
  H  H96  1  0.05335000  0.10436000  0.82084000  1.0
  H  H97  1  0.94666000  0.89565000  0.17916000  1.0
  H  H98  1  0.41534000  0.00564000  0.58408000  1.0
  H  H99  1  0.58465000  0.99436000  0.41592000  1.0
  H  H100  1  0.56976000  0.16786000  0.57855000  1.0
  H  H101  1  0.43024000  0.83214000  0.42145000  1.0
  H  H102  1  0.57231000  0.38897000  0.81820000  1.0
  H  H103  1  0.42769000  0.61103000  0.18181000  1.0
  H  H104  1  0.42279000  0.22849000  0.82782000  1.0
  H  H105  1  0.57721000  0.77151000  0.17219000  1.0
  C  C106  1  0.29520000  0.71492000  0.56652000  1.0
  C  C107  1  0.70480000  0.28508000  0.43348000  1.0
  C  C108  1  0.47002000  0.86652000  0.72479000  1.0
  C  C109  1  0.52998000  0.13348000  0.27521000  1.0
  C  C110  1  0.52086000  0.90885000  0.84027000  1.0
  C  C111  1  0.47914000  0.09115000  0.15973000  1.0
  C  C112  1  0.54157000  0.83026000  0.87783000  1.0
  C  C113  1  0.45842000  0.16974000  0.12217000  1.0
  C  C114  1  0.44024000  0.70951000  0.81524000  1.0
  C  C115  1  0.55975000  0.29048000  0.18475000  1.0
  C  C116  1  0.39188000  0.67597000  0.70115000  1.0
  C  C117  1  0.60812000  0.32403000  0.29885000  1.0
  C  C118  1  0.56308000  0.86171000  0.98865000  1.0
  C  C119  1  0.43690000  0.13828000  0.01135000  1.0
  C  C120  1  0.22886000  0.77481000  0.93724000  1.0
  C  C121  1  0.77114000  0.22519000  0.06276000  1.0
  C  C122  1  0.21931000  0.65751000  0.02971000  1.0
  C  C123  1  0.78070000  0.34249000  0.97029000  1.0
  C  C124  1  0.15504000  0.59090000  0.07736000  1.0
  C  C125  1  0.84496000  0.40910000  0.92264000  1.0
  C  C126  1  0.13619000  0.65758000  0.15486000  1.0
  C  C127  1  0.86381000  0.34242000  0.84514000  1.0
  C  C128  1  0.08715000  0.71569000  0.10979000  1.0
  C  C129  1  0.91285000  0.28431000  0.89021000  1.0
  C  C130  1  0.15459000  0.78166000  0.06382000  1.0
  C  C131  1  0.84541000  0.21834000  0.93618000  1.0
  C  C132  1  0.06391000  0.58835000  0.19764000  1.0
  C  C133  1  0.93609000  0.41165000  0.80236000  1.0
  C  C134  1  0.74735000  0.70423000  0.53929000  1.0
  C  C135  1  0.25266000  0.29577000  0.46071000  1.0
  C  C136  1  0.82509000  0.90465000  0.62217000  1.0
  C  C137  1  0.17491000  0.09535000  0.37783000  1.0
  C  C138  1  0.90102000  0.01695000  0.62685000  1.0
  C  C139  1  0.09898000  0.98305000  0.37314000  1.0
  C  C140  1  0.86326000  0.02178000  0.52372000  1.0
  C  C141  1  0.13674000  0.97822000  0.47628000  1.0
  C  C142  1  0.84546000  0.92614000  0.44010000  1.0
  C  C143  1  0.15454000  0.07386000  0.55990000  1.0
  C  C144  1  0.77170000  0.81580000  0.43953000  1.0
  C  C145  1  0.22830000  0.18420000  0.56047000  1.0
  C  C146  1  0.94308000  0.13473000  0.52892000  1.0
  C  C147  1  0.05692000  0.86527000  0.47108000  1.0
  C  C148  1  0.09471000  0.95045000  0.83450000  1.0
  C  C149  1  0.90529000  0.04956000  0.16550000  1.0
  C  C150  1  0.10469000  0.03555000  0.91794000  1.0
  C  C151  1  0.89531000  0.96445000  0.08207000  1.0
  C  C152  1  0.14228000  0.04365000  0.01730000  1.0
  C  C153  1  0.85773000  0.95635000  0.98270000  1.0
  C  C154  1  0.15047000  0.12224000  0.09492000  1.0
  C  C155  1  0.84953000  0.87776000  0.90509000  1.0
  C  C156  1  0.12108000  0.19378000  0.07399000  1.0
  C  C157  1  0.87893000  0.80623000  0.92602000  1.0
  C  C158  1  0.08736000  0.18813000  0.97540000  1.0
  C  C159  1  0.91265000  0.81187000  0.02460000  1.0
  C  C160  1  0.07893000  0.10935000  0.89775000  1.0
  C  C161  1  0.92108000  0.89065000  0.10225000  1.0
  C  C162  1  0.12129000  0.27323000  0.15444000  1.0
  C  C163  1  0.87872000  0.72676000  0.84557000  1.0
  C  C164  1  0.31632000  0.01002000  0.70564000  1.0
  C  C165  1  0.68368000  0.98998000  0.29437000  1.0
  C  C166  1  0.41064000  0.10726000  0.70666000  1.0
  C  C167  1  0.58935000  0.89274000  0.29335000  1.0
  C  C168  1  0.45165000  0.09001000  0.63598000  1.0
  C  C169  1  0.54835000  0.90999000  0.36402000  1.0
  C  C170  1  0.53568000  0.17916000  0.63196000  1.0
  C  C171  1  0.46431000  0.82084000  0.36804000  1.0
  C  C172  1  0.57867000  0.28691000  0.69750000  1.0
  C  C173  1  0.42133000  0.71309000  0.30250000  1.0
  C  C174  1  0.53766000  0.30448000  0.76792000  1.0
  C  C175  1  0.46234000  0.69552000  0.23209000  1.0
  C  C176  1  0.45463000  0.21514000  0.77297000  1.0
  C  C177  1  0.54538000  0.78486000  0.22704000  1.0
  C  C178  1  0.67077000  0.38237000  0.69351000  1.0
  C  C179  1  0.32923000  0.61763000  0.30649000  1.0
  N  N180  1  0.36405000  0.75435000  0.67767000  1.0
  N  N181  1  0.63595000  0.24565000  0.32233000  1.0
  N  N182  1  0.16484000  0.71009000  0.98484000  1.0
  N  N183  1  0.83516000  0.28991000  0.01516000  1.0
  N  N184  1  0.81694000  0.81606000  0.54217000  1.0
  N  N185  1  0.18306000  0.18394000  0.45783000  1.0
  O  O186  1  0.09270000  0.55315000  0.40530000  1.0
  O  O187  1  0.90730000  0.44685000  0.59469000  1.0
  O  O188  1  0.13116000  0.54830000  0.58115000  1.0
  O  O189  1  0.86884000  0.45170000  0.41885000  1.0
  O  O190  1  0.08829000  0.68270000  0.53389000  1.0
  O  O191  1  0.91171000  0.31730000  0.46610000  1.0
  O  O192  1  0.50788000  0.88671000  0.02245000  1.0
  O  O193  1  0.49210000  0.11327000  0.97754000  1.0
  O  O194  1  0.64580000  0.85605000  0.04390000  1.0
  O  O195  1  0.35419000  0.14395000  0.95610000  1.0
  O  O196  1  0.24912000  0.78050000  0.77030000  1.0
  O  O197  1  0.75088000  0.21949000  0.22969000  1.0
  O  O198  1  0.05723000  0.67382000  0.74861000  1.0
  O  O199  1  0.94277000  0.32618000  0.25139000  1.0
  O  O200  1  0.17567000  0.59281000  0.78673000  1.0
  O  O201  1  0.82433000  0.40719000  0.21326000  1.0
  O  O202  1  0.04895000  0.49455000  0.18273000  1.0
  O  O203  1  0.95104000  0.50545000  0.81726000  1.0
  O  O204  1  0.02476000  0.62916000  0.24547000  1.0
  O  O205  1  0.97524000  0.37084000  0.75453000  1.0
  O  O206  1  0.80383000  0.60438000  0.40968000  1.0
  O  O207  1  0.19617000  0.39562000  0.59031000  1.0
  O  O208  1  0.91886000  0.68222000  0.60277000  1.0
  O  O209  1  0.08114000  0.31777000  0.39722000  1.0
  O  O210  1  0.72747000  0.51467000  0.52435000  1.0
  O  O211  1  0.27253000  0.48533000  0.47565000  1.0
  O  O212  1  0.98477000  0.21967000  0.60839000  1.0
  O  O213  1  0.01523000  0.78033000  0.39161000  1.0
  O  O214  1  0.96097000  0.13557000  0.45126000  1.0
  O  O215  1  0.03903000  0.86443000  0.54874000  1.0
  O  O216  1  0.27633000  0.91382000  0.64201000  1.0
  O  O217  1  0.72367000  0.08619000  0.35800000  1.0
  O  O218  1  0.27249000  0.02432000  0.76467000  1.0
  O  O219  1  0.72751000  0.97568000  0.23534000  1.0
  O  O220  1  0.71687000  0.36127000  0.63952000  1.0
  O  O221  1  0.28313000  0.63872000  0.36048000  1.0
  O  O222  1  0.70266000  0.47991000  0.74525000  1.0
  O  O223  1  0.29734000  0.52009000  0.25475000  1.0
  O  O224  1  0.04143000  0.92971000  0.74170000  1.0
  O  O225  1  0.95857000  0.07029000  0.25830000  1.0
  O  O226  1  0.14212000  0.90122000  0.85746000  1.0
  O  O227  1  0.85788000  0.09879000  0.14254000  1.0
  O  O228  1  0.17222000  0.29519000  0.24792000  1.0
  O  O229  1  0.82778000  0.70481000  0.75209000  1.0
  O  O230  1  0.06882000  0.31713000  0.12717000  1.0
  O  O231  1  0.93118000  0.68287000  0.87284000  1.0
  O  O232  1  0.19840000  0.39294000  0.76545000  1.0
  O  O233  1  0.80160000  0.60706000  0.23455000  1.0
