# generated using pymatgen
data_Zn4H13C29NO15
_symmetry_space_group_name_H-M   'P 1'
_cell_length_a   16.11600000
_cell_length_b   16.12380000
_cell_length_c   16.12480000
_cell_angle_alpha   89.85770000
_cell_angle_beta   83.94060000
_cell_angle_gamma   84.37810000
_symmetry_Int_Tables_number   1
_chemical_formula_structural   Zn4H13C29NO15
_chemical_formula_sum   'Zn4 H13 C29 N1 O15'
_cell_volume   4146.46606171
_cell_formula_units_Z   1
loop_
 _symmetry_equiv_pos_site_id
 _symmetry_equiv_pos_as_xyz
  1  'x, y, z'
loop_
 _atom_site_type_symbol
 _atom_site_label
 _atom_site_symmetry_multiplicity
 _atom_site_fract_x
 _atom_site_fract_y
 _atom_site_fract_z
 _atom_site_occupancy
  Zn  Zn0  1  0.57035000  0.57150000  0.42935000  1.0
  Zn  Zn1  1  0.57124000  0.42271000  0.56318000  1.0
  Zn  Zn2  1  0.43438000  0.43688000  0.42972000  1.0
  Zn  Zn3  1  0.42061000  0.57060000  0.57759000  1.0
  H  H4  1  0.42793000  0.00827000  0.57263000  1.0
  H  H5  1  0.94380000  0.33629000  0.39372000  1.0
  H  H6  1  0.08967000  0.28390000  0.33202000  1.0
  H  H7  1  0.01846000  0.29076000  0.25439000  1.0
  H  H8  1  0.08923000  0.36823000  0.26045000  1.0
  H  H9  1  0.57112000  0.99189000  0.42822000  1.0
  H  H10  1  0.98139000  0.55923000  0.56930000  1.0
  H  H11  1  0.66762000  0.57717000  0.06387000  1.0
  H  H12  1  0.58668000  0.66143000  0.07202000  1.0
  H  H13  1  0.64201000  0.71311000  0.93104000  1.0
  H  H14  1  0.72065000  0.70684000  0.00117000  1.0
  H  H15  1  0.72286000  0.62875000  0.92286000  1.0
  H  H16  1  0.94321000  0.42095000  0.32199000  1.0
  C  C17  1  0.48974000  0.48871000  0.72411000  1.0
  C  C18  1  0.51665000  0.51503000  0.18591000  1.0
  C  C19  1  0.81650000  0.48321000  0.48053000  1.0
  C  C20  1  0.51232000  0.51095000  0.27552000  1.0
  C  C21  1  0.98143000  0.47398000  0.46985000  1.0
  C  C22  1  0.02084000  0.51974000  0.52304000  1.0
  C  C23  1  0.10770000  0.51722000  0.51985000  1.0
  C  C24  1  0.89277000  0.47883000  0.47548000  1.0
  C  C25  1  0.18404000  0.51485000  0.51696000  1.0
  C  C26  1  0.72599000  0.48853000  0.48667000  1.0
  C  C27  1  0.27313000  0.51092000  0.51227000  1.0
  C  C28  1  0.47979000  0.88987000  0.52053000  1.0
  C  C29  1  0.51360000  0.27601000  0.48674000  1.0
  C  C30  1  0.48897000  0.72474000  0.51178000  1.0
  C  C31  1  0.51839000  0.18641000  0.48159000  1.0
  C  C32  1  0.52469000  0.02343000  0.47503000  1.0
  C  C33  1  0.47444000  0.97706000  0.52576000  1.0
  C  C34  1  0.62878000  0.62075000  0.02791000  1.0
  C  C35  1  0.68147000  0.67011000  0.96667000  1.0
  C  C36  1  0.42055000  0.42492000  0.01936000  1.0
  C  C37  1  0.98372000  0.37691000  0.35591000  1.0
  C  C38  1  0.04949000  0.32716000  0.29737000  1.0
  C  C39  1  0.52083000  0.11055000  0.47898000  1.0
  C  C40  1  0.48376000  0.81397000  0.51679000  1.0
  C  C41  1  0.48504000  0.48461000  0.81384000  1.0
  C  C42  1  0.47685000  0.47762000  0.97728000  1.0
  C  C43  1  0.52546000  0.52343000  0.02262000  1.0
  C  C44  1  0.52041000  0.51881000  0.11011000  1.0
  C  C45  1  0.48143000  0.48165000  0.88962000  1.0
  N  N46  1  0.37370000  0.38112000  0.05226000  1.0
  O  O47  1  0.50062000  0.49986000  0.49957000  1.0
  O  O48  1  0.55973000  0.30562000  0.53670000  1.0
  O  O49  1  0.43863000  0.68885000  0.56322000  1.0
  O  O50  1  0.46379000  0.31593000  0.44114000  1.0
  O  O51  1  0.54388000  0.69003000  0.45607000  1.0
  O  O52  1  0.57783000  0.57271000  0.98010000  1.0
  O  O53  1  0.02748000  0.42397000  0.41148000  1.0
  O  O54  1  0.69085000  0.54273000  0.44073000  1.0
  O  O55  1  0.30416000  0.55675000  0.56363000  1.0
  O  O56  1  0.54521000  0.43759000  0.68418000  1.0
  O  O57  1  0.46273000  0.46166000  0.31063000  1.0
  O  O58  1  0.43842000  0.54282000  0.69416000  1.0
  O  O59  1  0.55904000  0.55744000  0.30967000  1.0
  O  O60  1  0.69135000  0.43834000  0.53725000  1.0
  O  O61  1  0.31426000  0.46160000  0.45677000  1.0
