# generated using pymatgen
data_CuH8C12N5
_symmetry_space_group_name_H-M   'P 1'
_cell_length_a   9.19198000
_cell_length_b   9.99932000
_cell_length_c   11.93710000
_cell_angle_alpha   109.63400000
_cell_angle_beta   89.99980000
_cell_angle_gamma   89.99990000
_symmetry_Int_Tables_number   1
_chemical_formula_structural   CuH8C12N5
_chemical_formula_sum   'Cu4 H32 C48 N20'
_cell_volume   1033.38916795
_cell_formula_units_Z   4
loop_
 _symmetry_equiv_pos_site_id
 _symmetry_equiv_pos_as_xyz
  1  'x, y, z'
loop_
 _atom_site_type_symbol
 _atom_site_label
 _atom_site_symmetry_multiplicity
 _atom_site_fract_x
 _atom_site_fract_y
 _atom_site_fract_z
 _atom_site_occupancy
  Cu  Cu0  1  0.09391000  0.95401000  0.11602000  1.0
  Cu  Cu1  1  0.59391000  0.54599000  0.88399000  1.0
  Cu  Cu2  1  0.90608000  0.04599000  0.88399000  1.0
  Cu  Cu3  1  0.40608000  0.45401000  0.11602000  1.0
  H  H4  1  0.86639000  0.87245000  0.26376000  1.0
  H  H5  1  0.36640000  0.62755000  0.73624000  1.0
  H  H6  1  0.13361000  0.12755000  0.73624000  1.0
  H  H7  1  0.63361000  0.37245000  0.26376000  1.0
  H  H8  1  0.05994000  0.80751000  0.72510000  1.0
  H  H9  1  0.55994000  0.69249000  0.27491000  1.0
  H  H10  1  0.94006000  0.19249000  0.27491000  1.0
  H  H11  1  0.44006000  0.30751000  0.72510000  1.0
  H  H12  1  0.06110000  0.65829000  0.51218000  1.0
  H  H13  1  0.56110000  0.84170000  0.48782000  1.0
  H  H14  1  0.93890000  0.34171000  0.48782000  1.0
  H  H15  1  0.43890000  0.15830000  0.51218000  1.0
  H  H16  1  0.94156000  0.50711000  0.37144000  1.0
  H  H17  1  0.44156000  0.99288000  0.62856000  1.0
  H  H18  1  0.05844000  0.49288000  0.62856000  1.0
  H  H19  1  0.55844000  0.00711000  0.37144000  1.0
  H  H20  1  0.91810000  0.35066000  0.16210000  1.0
  H  H21  1  0.41810000  0.14934000  0.83790000  1.0
  H  H22  1  0.08190000  0.64935000  0.83791000  1.0
  H  H23  1  0.58190000  0.85066000  0.16210000  1.0
  H  H24  1  0.78122000  0.10036000  0.66397000  1.0
  H  H25  1  0.28121000  0.39963000  0.33603000  1.0
  H  H26  1  0.21879000  0.89964000  0.33603000  1.0
  H  H27  1  0.71878000  0.60036000  0.66397000  1.0
  H  H28  1  0.77030000  0.96284000  0.44694000  1.0
  H  H29  1  0.27030000  0.53715000  0.55307000  1.0
  H  H30  1  0.22970000  0.03716000  0.55307000  1.0
  H  H31  1  0.72970000  0.46285000  0.44694000  1.0
  H  H32  1  0.86874000  0.45394000  0.00357000  1.0
  H  H33  1  0.36874000  0.04606000  0.99643000  1.0
  H  H34  1  0.13126000  0.54607000  0.99643000  1.0
  H  H35  1  0.63126000  0.95394000  0.00357000  1.0
  C  C36  1  0.90949000  0.79282000  0.45967000  1.0
  C  C37  1  0.40948000  0.70718000  0.54033000  1.0
  C  C38  1  0.09051000  0.20718000  0.54034000  1.0
  C  C39  1  0.59051000  0.29282000  0.45967000  1.0
  C  C40  1  0.90142000  0.70134000  0.33387000  1.0
  C  C41  1  0.40142000  0.79865000  0.66613000  1.0
  C  C42  1  0.09858000  0.29866000  0.66613000  1.0
  C  C43  1  0.59858000  0.20134000  0.33387000  1.0
  C  C44  1  0.87559000  0.75817000  0.24305000  1.0
  C  C45  1  0.37559000  0.74182000  0.75696000  1.0
  C  C46  1  0.12441000  0.24183000  0.75696000  1.0
  C  C47  1  0.62441000  0.25817000  0.24305000  1.0
  C  C48  1  0.99467000  0.83671000  0.66062000  1.0
  C  C49  1  0.49467000  0.66329000  0.33938000  1.0
  C  C50  1  0.00533000  0.16329000  0.33939000  1.0
  C  C51  1  0.50533000  0.33671000  0.66062000  1.0
  C  C52  1  0.99326000  0.75291000  0.54172000  1.0
  C  C53  1  0.49326000  0.74709000  0.45828000  1.0
  C  C54  1  0.00674000  0.24709000  0.45829000  1.0
  C  C55  1  0.50674000  0.25291000  0.54172000  1.0
  C  C56  1  0.91886000  0.55343000  0.30270000  1.0
  C  C57  1  0.41886000  0.94656000  0.69730000  1.0
  C  C58  1  0.08114000  0.44657000  0.69731000  1.0
  C  C59  1  0.58114000  0.05343000  0.30270000  1.0
  C  C60  1  0.90548000  0.46502000  0.18505000  1.0
  C  C61  1  0.40548000  0.03497000  0.81494000  1.0
  C  C62  1  0.09452000  0.53498000  0.81495000  1.0
  C  C63  1  0.59452000  0.96503000  0.18506000  1.0
  C  C64  1  0.84959000  0.73096000  0.02910000  1.0
  C  C65  1  0.34959000  0.76904000  0.97090000  1.0
  C  C66  1  0.15042000  0.26904000  0.97090000  1.0
  C  C67  1  0.65041000  0.23096000  0.02910000  1.0
  C  C68  1  0.83998000  0.00025000  0.62621000  1.0
  C  C69  1  0.33998000  0.49974000  0.37380000  1.0
  C  C70  1  0.16002000  0.99975000  0.37380000  1.0
  C  C71  1  0.66002000  0.50025000  0.62621000  1.0
  C  C72  1  0.83418000  0.92226000  0.50543000  1.0
  C  C73  1  0.33418000  0.57774000  0.49457000  1.0
  C  C74  1  0.16582000  0.07774000  0.49457000  1.0
  C  C75  1  0.66582000  0.42226000  0.50544000  1.0
  C  C76  1  0.86495000  0.66972000  0.12403000  1.0
  C  C77  1  0.36496000  0.83027000  0.87597000  1.0
  C  C78  1  0.13505000  0.33027000  0.87597000  1.0
  C  C79  1  0.63505000  0.16972000  0.12403000  1.0
  C  C80  1  0.87694000  0.52220000  0.09590000  1.0
  C  C81  1  0.37694000  0.97780000  0.90410000  1.0
  C  C82  1  0.12305000  0.47780000  0.90411000  1.0
  C  C83  1  0.62305000  0.02220000  0.09590000  1.0
  N  N84  1  0.76445000  0.68043000  0.93125000  1.0
  N  N85  1  0.26445000  0.81957000  0.06875000  1.0
  N  N86  1  0.23555000  0.31957000  0.06875000  1.0
  N  N87  1  0.73555000  0.18043000  0.93125000  1.0
  N  N88  1  0.92342000  0.84613000  0.02533000  1.0
  N  N89  1  0.42341000  0.65387000  0.97467000  1.0
  N  N90  1  0.07658000  0.15386000  0.97467000  1.0
  N  N91  1  0.57658000  0.34613000  0.02533000  1.0
  N  N92  1  0.88062000  0.86550000  0.92334000  1.0
  N  N93  1  0.38063000  0.63450000  0.07666000  1.0
  N  N94  1  0.11938000  0.13450000  0.07666000  1.0
  N  N95  1  0.61938000  0.36550000  0.92334000  1.0
  N  N96  1  0.91743000  0.95809000  0.70471000  1.0
  N  N97  1  0.41743000  0.54191000  0.29529000  1.0
  N  N98  1  0.08257000  0.04191000  0.29529000  1.0
  N  N99  1  0.58257000  0.45809000  0.70471000  1.0
  N  N100  1  0.78605000  0.76632000  0.86664000  1.0
  N  N101  1  0.28606000  0.73368000  0.13337000  1.0
  N  N102  1  0.21394000  0.23368000  0.13336000  1.0
  N  N103  1  0.71395000  0.26632000  0.86664000  1.0
