# generated using pymatgen
data_SrH13C11N(O2F)4
_symmetry_space_group_name_H-M   'P 1'
_cell_length_a   8.83834000
_cell_length_b   8.89107000
_cell_length_c   10.78360000
_cell_angle_alpha   93.69250000
_cell_angle_beta   94.14030000
_cell_angle_gamma   101.17600000
_symmetry_Int_Tables_number   1
_chemical_formula_structural   SrH13C11N(O2F)4
_chemical_formula_sum   'Sr2 H26 C22 N2 O16 F8'
_cell_volume   826.49522176
_cell_formula_units_Z   2
loop_
 _symmetry_equiv_pos_site_id
 _symmetry_equiv_pos_as_xyz
  1  'x, y, z'
loop_
 _atom_site_type_symbol
 _atom_site_label
 _atom_site_symmetry_multiplicity
 _atom_site_fract_x
 _atom_site_fract_y
 _atom_site_fract_z
 _atom_site_occupancy
  Sr  Sr0  1  0.41772000  0.27344000  0.57604000  1.0
  Sr  Sr1  1  0.58228000  0.72656000  0.42396000  1.0
  H  H2  1  0.27372000  0.41018000  0.34928000  1.0
  H  H3  1  0.72628000  0.58982000  0.65073000  1.0
  H  H4  1  0.14493000  0.26780000  0.37038000  1.0
  H  H5  1  0.85507000  0.73220000  0.62962000  1.0
  H  H6  1  0.27070000  0.92878000  0.55139000  1.0
  H  H7  1  0.72930000  0.07122000  0.44861000  1.0
  H  H8  1  0.16989000  0.96803000  0.43973000  1.0
  H  H9  1  0.83012000  0.03198000  0.56027000  1.0
  H  H10  1  0.64556000  0.10894000  0.70266000  1.0
  H  H11  1  0.35444000  0.89106000  0.29734000  1.0
  H  H12  1  0.49923000  0.96957000  0.67172000  1.0
  H  H13  1  0.50077000  0.03043000  0.32828000  1.0
  H  H14  1  0.15672000  0.16367000  0.88526000  1.0
  H  H15  1  0.84328000  0.83632000  0.11474000  1.0
  H  H16  1  0.21624000  0.08198000  0.06161000  1.0
  H  H17  1  0.78375000  0.91802000  0.93840000  1.0
  H  H18  1  0.35177000  0.22007000  0.16184000  1.0
  H  H19  1  0.64823000  0.77993000  0.83816000  1.0
  H  H20  1  0.41076000  0.05726000  0.08944000  1.0
  H  H21  1  0.58924000  0.94274000  0.91056000  1.0
  H  H22  1  0.57275000  0.38200000  0.05590000  1.0
  H  H23  1  0.42725000  0.61800000  0.94410000  1.0
  H  H24  1  0.54627000  0.38113000  0.88934000  1.0
  H  H25  1  0.45372000  0.61887000  0.11066000  1.0
  H  H26  1  0.61445000  0.22728000  0.95765000  1.0
  H  H27  1  0.38554000  0.77272000  0.04235000  1.0
  C  C28  1  0.34006000  0.66575000  0.62173000  1.0
  C  C29  1  0.65994000  0.33425000  0.37826000  1.0
  C  C30  1  0.27336000  0.23009000  0.87323000  1.0
  C  C31  1  0.72663000  0.76990000  0.12677000  1.0
  C  C32  1  0.20327000  0.63817000  0.69903000  1.0
  C  C33  1  0.79673000  0.36183000  0.30097000  1.0
  C  C34  1  0.33728000  0.14243000  0.07634000  1.0
  C  C35  1  0.66272000  0.85757000  0.92366000  1.0
  C  C36  1  0.18937000  0.74180000  0.79876000  1.0
  C  C37  1  0.81063000  0.25820000  0.20123000  1.0
  C  C38  1  0.53722000  0.30951000  0.96821000  1.0
  C  C39  1  0.46277000  0.69049000  0.03178000  1.0
  C  C40  1  0.06967000  0.71254000  0.87653000  1.0
  C  C41  1  0.93033000  0.28746000  0.12347000  1.0
  C  C42  1  0.95629000  0.57991000  0.85039000  1.0
  C  C43  1  0.04372000  0.42009000  0.14961000  1.0
  C  C44  1  0.95924000  0.47552000  0.74893000  1.0
  C  C45  1  0.04076000  0.52448000  0.25108000  1.0
  C  C46  1  0.81956000  0.34751000  0.70978000  1.0
  C  C47  1  0.18044000  0.65249000  0.29022000  1.0
  C  C48  1  0.08571000  0.50633000  0.67830000  1.0
  C  C49  1  0.91429000  0.49368000  0.32170000  1.0
  N  N50  1  0.37802000  0.22796000  0.96896000  1.0
  N  N51  1  0.62198000  0.77203000  0.03104000  1.0
  O  O52  1  0.40469000  0.55532000  0.59465000  1.0
  O  O53  1  0.59531000  0.44469000  0.40535000  1.0
  O  O54  1  0.29961000  0.30071000  0.77803000  1.0
  O  O55  1  0.70039000  0.69928000  0.22197000  1.0
  O  O56  1  0.25625000  0.29936000  0.36802000  1.0
  O  O57  1  0.74376000  0.70064000  0.63198000  1.0
  O  O58  1  0.38503000  0.80072000  0.58692000  1.0
  O  O59  1  0.61497000  0.19928000  0.41308000  1.0
  O  O60  1  0.22022000  0.01209000  0.52118000  1.0
  O  O61  1  0.77978000  0.98791000  0.47882000  1.0
  O  O62  1  0.69758000  0.39717000  0.67702000  1.0
  O  O63  1  0.30243000  0.60283000  0.32299000  1.0
  O  O64  1  0.53075000  0.07891000  0.70063000  1.0
  O  O65  1  0.46926000  0.92109000  0.29937000  1.0
  O  O66  1  0.83415000  0.21007000  0.71267000  1.0
  O  O67  1  0.16585000  0.78993000  0.28733000  1.0
  F  F68  1  0.29622000  0.87288000  0.82626000  1.0
  F  F69  1  0.70377000  0.12713000  0.17374000  1.0
  F  F70  1  0.06413000  0.81234000  0.97561000  1.0
  F  F71  1  0.93587000  0.18766000  0.02439000  1.0
  F  F72  1  0.83913000  0.55484000  0.92556000  1.0
  F  F73  1  0.16088000  0.44516000  0.07444000  1.0
  F  F74  1  0.08874000  0.40660000  0.57798000  1.0
  F  F75  1  0.91126000  0.59341000  0.42202000  1.0
