# generated using pymatgen
data_CdH28C28(NO)4
_symmetry_space_group_name_H-M   'P 1'
_cell_length_a   9.02190000
_cell_length_b   11.38490000
_cell_length_c   15.11890000
_cell_angle_alpha   110.02500000
_cell_angle_beta   90.00000000
_cell_angle_gamma   113.34200000
_symmetry_Int_Tables_number   1
_chemical_formula_structural   CdH28C28(NO)4
_chemical_formula_sum   'Cd2 H56 C56 N8 O8'
_cell_volume   1322.94460635
_cell_formula_units_Z   2
loop_
 _symmetry_equiv_pos_site_id
 _symmetry_equiv_pos_as_xyz
  1  'x, y, z'
loop_
 _atom_site_type_symbol
 _atom_site_label
 _atom_site_symmetry_multiplicity
 _atom_site_fract_x
 _atom_site_fract_y
 _atom_site_fract_z
 _atom_site_occupancy
  Cd  Cd0  1  0.27669000  0.99997000  0.74995000  1.0
  Cd  Cd1  1  0.72331000  0.00003000  0.25005000  1.0
  H  H2  1  0.03044000  0.09836000  0.51759000  1.0
  H  H3  1  0.93212000  0.90154000  0.98236000  1.0
  H  H4  1  0.96956000  0.90164000  0.48241000  1.0
  H  H5  1  0.06788000  0.09846000  0.01763000  1.0
  H  H6  1  0.95275000  0.24042000  0.45411000  1.0
  H  H7  1  0.71248000  0.75946000  0.04587000  1.0
  H  H8  1  0.04725000  0.75958000  0.54589000  1.0
  H  H9  1  0.28751000  0.24054000  0.95413000  1.0
  H  H10  1  0.15409000  0.58154000  0.72448000  1.0
  H  H11  1  0.57243000  0.41843000  0.77538000  1.0
  H  H12  1  0.84591000  0.41846000  0.27552000  1.0
  H  H13  1  0.42757000  0.58157000  0.22462000  1.0
  H  H14  1  0.23136000  0.43479000  0.78881000  1.0
  H  H15  1  0.79657000  0.56517000  0.71112000  1.0
  H  H16  1  0.76864000  0.56521000  0.21119000  1.0
  H  H17  1  0.20343000  0.43483000  0.28888000  1.0
  H  H18  1  0.03646000  0.61409000  0.59990000  1.0
  H  H19  1  0.42220000  0.38591000  0.90011000  1.0
  H  H20  1  0.96353000  0.38591000  0.40010000  1.0
  H  H21  1  0.57780000  0.61409000  0.09989000  1.0
  H  H22  1  0.43786000  0.08830000  0.97858000  1.0
  H  H23  1  0.34963000  0.91162000  0.52142000  1.0
  H  H24  1  0.56214000  0.91170000  0.02142000  1.0
  H  H25  1  0.65037000  0.08838000  0.47858000  1.0
  H  H26  1  0.77348000  0.22005000  0.04655000  1.0
  H  H27  1  0.55362000  0.78000000  0.45349000  1.0
  H  H28  1  0.22652000  0.77995000  0.95345000  1.0
  H  H29  1  0.44639000  0.22000000  0.54651000  1.0
  H  H30  1  0.75371000  0.13443000  0.69930000  1.0
  H  H31  1  0.61928000  0.86538000  0.80063000  1.0
  H  H32  1  0.24629000  0.86557000  0.30070000  1.0
  H  H33  1  0.38072000  0.13462000  0.19937000  1.0
  H  H34  1  0.78692000  0.30985000  0.74787000  1.0
  H  H35  1  0.47707000  0.68997000  0.75211000  1.0
  H  H36  1  0.21308000  0.69015000  0.25213000  1.0
  H  H37  1  0.52293000  0.31003000  0.24789000  1.0
  H  H38  1  0.58665000  0.17848000  0.69568000  1.0
  H  H39  1  0.40818000  0.82135000  0.80431000  1.0
  H  H40  1  0.41335000  0.82152000  0.30432000  1.0
  H  H41  1  0.59183000  0.17865000  0.19570000  1.0
  H  H42  1  0.99220000  0.27312000  0.84398000  1.0
  H  H43  1  0.71917000  0.72682000  0.65602000  1.0
  H  H44  1  0.00780000  0.72688000  0.15602000  1.0
  H  H45  1  0.28083000  0.27318000  0.34398000  1.0
  H  H46  1  0.01862000  0.28596000  0.96249000  1.0
  H  H47  1  0.73275000  0.71399000  0.53751000  1.0
  H  H48  1  0.98139000  0.71404000  0.03751000  1.0
  H  H49  1  0.26725000  0.28601000  0.46249000  1.0
  H  H50  1  0.14737000  0.51272000  0.94668000  1.0
  H  H51  1  0.63460000  0.48715000  0.55326000  1.0
  H  H52  1  0.85263000  0.48728000  0.05332000  1.0
  H  H53  1  0.36540000  0.51285000  0.44673000  1.0
  H  H54  1  0.95660000  0.49500000  0.89992000  1.0
  H  H55  1  0.46166000  0.50499000  0.60009000  1.0
  H  H56  1  0.04340000  0.50500000  0.10008000  1.0
  H  H57  1  0.53834000  0.49501000  0.39991000  1.0
  C  C58  1  0.19079000  0.17159000  0.69322000  1.0
  C  C59  1  0.01922000  0.82846000  0.80674000  1.0
  C  C60  1  0.80920000  0.82840000  0.30678000  1.0
  C  C61  1  0.98078000  0.17155000  0.19326000  1.0
  C  C62  1  0.13856000  0.25798000  0.65709000  1.0
  C  C63  1  0.88061000  0.74199000  0.84285000  1.0
  C  C64  1  0.86144000  0.74202000  0.34291000  1.0
  C  C65  1  0.11939000  0.25802000  0.15715000  1.0
  C  C66  1  0.05794000  0.20419000  0.56321000  1.0
  C  C67  1  0.85376000  0.79573000  0.93674000  1.0
  C  C68  1  0.94206000  0.79581000  0.43679000  1.0
  C  C69  1  0.14623000  0.20427000  0.06326000  1.0
  C  C70  1  0.01368000  0.28463000  0.52750000  1.0
  C  C71  1  0.72914000  0.71526000  0.97246000  1.0
  C  C72  1  0.98632000  0.71537000  0.47250000  1.0
  C  C73  1  0.27086000  0.28474000  0.02754000  1.0
  C  C74  1  0.05194000  0.42335000  0.58410000  1.0
  C  C75  1  0.62855000  0.57657000  0.91583000  1.0
  C  C76  1  0.94806000  0.57665000  0.41589000  1.0
  C  C77  1  0.37145000  0.42343000  0.08417000  1.0
  C  C78  1  0.12710000  0.47509000  0.67960000  1.0
  C  C79  1  0.65195000  0.52485000  0.82031000  1.0
  C  C80  1  0.87290000  0.52491000  0.32040000  1.0
  C  C81  1  0.34805000  0.47515000  0.17969000  1.0
  C  C82  1  0.17017000  0.39379000  0.71564000  1.0
  C  C83  1  0.77637000  0.60616000  0.78430000  1.0
  C  C84  1  0.82983000  0.60621000  0.28436000  1.0
  C  C85  1  0.22363000  0.39384000  0.21570000  1.0
  C  C86  1  0.02109000  0.51471000  0.54682000  1.0
  C  C87  1  0.50629000  0.48527000  0.95316000  1.0
  C  C88  1  0.97891000  0.48529000  0.45318000  1.0
  C  C89  1  0.49371000  0.51472000  0.04684000  1.0
  C  C90  1  0.66556000  0.19188000  0.83244000  1.0
  C  C91  1  0.47363000  0.80793000  0.66752000  1.0
  C  C92  1  0.33444000  0.80812000  0.16756000  1.0
  C  C93  1  0.52637000  0.19207000  0.33248000  1.0
  C  C94  1  0.54057000  0.13370000  0.94539000  1.0
  C  C95  1  0.40695000  0.86621000  0.55460000  1.0
  C  C96  1  0.45943000  0.86630000  0.05461000  1.0
  C  C97  1  0.59305000  0.13379000  0.44540000  1.0
  C  C98  1  0.70477000  0.19987000  0.98013000  1.0
  C  C99  1  0.50504000  0.80011000  0.51989000  1.0
  C  C100  1  0.29523000  0.80013000  0.01987000  1.0
  C  C101  1  0.49496000  0.19989000  0.48011000  1.0
  C  C102  1  0.70064000  0.20501000  0.73932000  1.0
  C  C103  1  0.49560000  0.79480000  0.76064000  1.0
  C  C104  1  0.29936000  0.79499000  0.26068000  1.0
  C  C105  1  0.50440000  0.20520000  0.23936000  1.0
  C  C106  1  0.95815000  0.31224000  0.91415000  1.0
  C  C107  1  0.64601000  0.68769000  0.58584000  1.0
  C  C108  1  0.04185000  0.68776000  0.08585000  1.0
  C  C109  1  0.35399000  0.31231000  0.41416000  1.0
  C  C110  1  0.01540000  0.46848000  0.94946000  1.0
  C  C111  1  0.54695000  0.53148000  0.55052000  1.0
  C  C112  1  0.98460000  0.53152000  0.05054000  1.0
  C  C113  1  0.45305000  0.46852000  0.44947000  1.0
  N  N114  1  0.78217000  0.23636000  0.90831000  1.0
  N  N115  1  0.54590000  0.76357000  0.59169000  1.0
  N  N116  1  0.21783000  0.76364000  0.09169000  1.0
  N  N117  1  0.45410000  0.23643000  0.40831000  1.0
  N  N118  1  0.51789000  0.12953000  0.85380000  1.0
  N  N119  1  0.38830000  0.87027000  0.64616000  1.0
  N  N120  1  0.48211000  0.87047000  0.14620000  1.0
  N  N121  1  0.61170000  0.12973000  0.35384000  1.0
  O  O122  1  0.21302000  0.20010000  0.78276000  1.0
  O  O123  1  0.01299000  0.79984000  0.71718000  1.0
  O  O124  1  0.78698000  0.79990000  0.21724000  1.0
  O  O125  1  0.98701000  0.20016000  0.28282000  1.0
  O  O126  1  0.21235000  0.07135000  0.63219000  1.0
  O  O127  1  0.14092000  0.92878000  0.86777000  1.0
  O  O128  1  0.78764000  0.92865000  0.36781000  1.0
  O  O129  1  0.85908000  0.07122000  0.13223000  1.0
