# generated using pymatgen
data_Cd3H64Ir2C78(N4O9)2
_symmetry_space_group_name_H-M   'P 1'
_cell_length_a   14.24270000
_cell_length_b   14.40850000
_cell_length_c   21.04290000
_cell_angle_alpha   89.99980000
_cell_angle_beta   101.48100000
_cell_angle_gamma   89.99990000
_symmetry_Int_Tables_number   1
_chemical_formula_structural   Cd3H64Ir2C78(N4O9)2
_chemical_formula_sum   'Cd6 H128 Ir4 C156 N16 O36'
_cell_volume   4231.93190886
_cell_formula_units_Z   2
loop_
 _symmetry_equiv_pos_site_id
 _symmetry_equiv_pos_as_xyz
  1  'x, y, z'
loop_
 _atom_site_type_symbol
 _atom_site_label
 _atom_site_symmetry_multiplicity
 _atom_site_fract_x
 _atom_site_fract_y
 _atom_site_fract_z
 _atom_site_occupancy
  Cd  Cd0  1  0.50000000  0.50000000  0.00000000  1.0
  Cd  Cd1  1  0.00000000  0.00000000  0.50000000  1.0
  Cd  Cd2  1  0.76643000  0.12148000  0.53341000  1.0
  Cd  Cd3  1  0.73357000  0.62147000  0.96659000  1.0
  Cd  Cd4  1  0.23356000  0.87852000  0.46659000  1.0
  Cd  Cd5  1  0.26643000  0.37852000  0.03341000  1.0
  H  H6  1  0.41505000  0.35320000  0.70499000  1.0
  H  H7  1  0.08495000  0.85320000  0.79502000  1.0
  H  H8  1  0.58495000  0.64680000  0.29502000  1.0
  H  H9  1  0.91505000  0.14680000  0.20498000  1.0
  H  H10  1  0.52148000  0.22424000  0.68519000  1.0
  H  H11  1  0.97852000  0.72424000  0.81481000  1.0
  H  H12  1  0.47852000  0.77576000  0.31481000  1.0
  H  H13  1  0.02148000  0.27576000  0.18519000  1.0
  H  H14  1  0.50060000  0.31340000  0.48899000  1.0
  H  H15  1  0.99940000  0.81340000  0.01101000  1.0
  H  H16  1  0.49940000  0.68660000  0.51101000  1.0
  H  H17  1  0.00060000  0.18660000  0.98899000  1.0
  H  H18  1  0.44217000  0.41057000  0.41699000  1.0
  H  H19  1  0.05783000  0.91057000  0.08301000  1.0
  H  H20  1  0.55784000  0.58943000  0.58301000  1.0
  H  H21  1  0.94217000  0.08943000  0.91699000  1.0
  H  H22  1  0.35985000  0.52574000  0.33752000  1.0
  H  H23  1  0.14015000  0.02575000  0.16248000  1.0
  H  H24  1  0.64015000  0.47425000  0.66248000  1.0
  H  H25  1  0.85985000  0.97425000  0.83752000  1.0
  H  H26  1  0.24205000  0.63813000  0.37314000  1.0
  H  H27  1  0.25795000  0.13813000  0.12685000  1.0
  H  H28  1  0.75795000  0.36187000  0.62685000  1.0
  H  H29  1  0.74205000  0.86187000  0.87315000  1.0
  H  H30  1  0.21525000  0.62775000  0.48493000  1.0
  H  H31  1  0.28475000  0.12775000  0.01507000  1.0
  H  H32  1  0.78475000  0.37225000  0.51507000  1.0
  H  H33  1  0.71525000  0.87225000  0.98493000  1.0
  H  H34  1  0.26876000  0.27800000  0.57660000  1.0
  H  H35  1  0.23124000  0.77800000  0.92339000  1.0
  H  H36  1  0.73124000  0.72200000  0.42339000  1.0
  H  H37  1  0.76876000  0.22200000  0.07660000  1.0
  H  H38  1  0.13187000  0.17024000  0.56327000  1.0
  H  H39  1  0.36813000  0.67023000  0.93672000  1.0
  H  H40  1  0.86813000  0.82977000  0.43673000  1.0
  H  H41  1  0.63187000  0.32977000  0.06327000  1.0
  H  H42  1  0.94051000  0.39720000  0.57248000  1.0
  H  H43  1  0.55949000  0.89720000  0.92752000  1.0
  H  H44  1  0.05949000  0.60280000  0.42752000  1.0
  H  H45  1  0.44051000  0.10280000  0.07248000  1.0
  H  H46  1  0.92319000  0.53821000  0.57407000  1.0
  H  H47  1  0.57681000  0.03821000  0.92593000  1.0
  H  H48  1  0.07681000  0.46179000  0.42593000  1.0
  H  H49  1  0.42319000  0.96179000  0.07407000  1.0
  H  H50  1  0.91739000  0.70842000  0.58677000  1.0
  H  H51  1  0.58261000  0.20842000  0.91322000  1.0
  H  H52  1  0.08261000  0.29158000  0.41323000  1.0
  H  H53  1  0.41739000  0.79158000  0.08677000  1.0
  H  H54  1  0.07229000  0.79942000  0.60975000  1.0
  H  H55  1  0.42770000  0.29942000  0.89025000  1.0
  H  H56  1  0.92770000  0.20058000  0.39025000  1.0
  H  H57  1  0.57230000  0.70058000  0.10975000  1.0
  H  H58  1  0.22515000  0.71368000  0.61517000  1.0
  H  H59  1  0.27485000  0.21368000  0.88482000  1.0
  H  H60  1  0.77485000  0.28632000  0.38482000  1.0
  H  H61  1  0.72515000  0.78632000  0.11518000  1.0
  H  H62  1  0.18912000  0.36250000  0.69681000  1.0
  H  H63  1  0.31088000  0.86250000  0.80319000  1.0
  H  H64  1  0.81088000  0.63750000  0.30319000  1.0
  H  H65  1  0.68912000  0.13750000  0.19681000  1.0
  H  H66  1  0.19891000  0.35035000  0.81473000  1.0
  H  H67  1  0.30109000  0.85035000  0.68526000  1.0
  H  H68  1  0.80109000  0.64965000  0.18527000  1.0
  H  H69  1  0.69891000  0.14965000  0.31474000  1.0
  H  H70  1  0.39663000  0.57805000  0.84830000  1.0
  H  H71  1  0.10337000  0.07806000  0.65170000  1.0
  H  H72  1  0.60337000  0.42194000  0.15170000  1.0
  H  H73  1  0.89663000  0.92194000  0.34831000  1.0
  H  H74  1  0.46840000  0.68252000  0.80441000  1.0
  H  H75  1  0.03160000  0.18253000  0.69559000  1.0
  H  H76  1  0.53160000  0.31748000  0.19559000  1.0
  H  H77  1  0.96840000  0.81748000  0.30441000  1.0
  H  H78  1  0.53283000  0.80758000  0.74408000  1.0
  H  H79  1  0.96716000  0.30758000  0.75592000  1.0
  H  H80  1  0.46716000  0.19242000  0.25592000  1.0
  H  H81  1  0.03284000  0.69242000  0.24408000  1.0
  H  H82  1  0.48856000  0.80761000  0.62093000  1.0
  H  H83  1  0.01144000  0.30761000  0.87907000  1.0
  H  H84  1  0.51144000  0.19239000  0.37907000  1.0
  H  H85  1  0.98856000  0.69239000  0.12093000  1.0
  H  H86  1  0.38989000  0.67794000  0.56608000  1.0
  H  H87  1  0.11011000  0.17794000  0.93392000  1.0
  H  H88  1  0.61011000  0.32206000  0.43392000  1.0
  H  H89  1  0.88989000  0.82206000  0.06608000  1.0
  H  H90  1  0.68344000  0.37255000  0.97497000  1.0
  H  H91  1  0.81655000  0.87255000  0.52502000  1.0
  H  H92  1  0.31656000  0.62745000  0.02502000  1.0
  H  H93  1  0.18344000  0.12745000  0.47497000  1.0
  H  H94  1  0.61370000  0.25274000  0.79894000  1.0
  H  H95  1  0.88630000  0.75274000  0.70106000  1.0
  H  H96  1  0.38630000  0.74726000  0.20106000  1.0
  H  H97  1  0.11370000  0.24726000  0.29894000  1.0
  H  H98  1  0.67771000  0.35336000  0.78266000  1.0
  H  H99  1  0.82229000  0.85336000  0.71734000  1.0
  H  H100  1  0.32229000  0.64664000  0.21734000  1.0
  H  H101  1  0.17771000  0.14664000  0.28266000  1.0
  H  H102  1  0.56427000  0.36534000  0.80675000  1.0
  H  H103  1  0.93573000  0.86534000  0.69325000  1.0
  H  H104  1  0.43573000  0.63466000  0.19325000  1.0
  H  H105  1  0.06427000  0.13466000  0.30675000  1.0
  H  H106  1  0.79276000  0.28142000  0.95287000  1.0
  H  H107  1  0.70724000  0.78142000  0.54713000  1.0
  H  H108  1  0.20724000  0.71858000  0.04713000  1.0
  H  H109  1  0.29276000  0.21858000  0.45287000  1.0
  H  H110  1  0.81911000  0.29390000  0.87392000  1.0
  H  H111  1  0.68089000  0.79390000  0.62608000  1.0
  H  H112  1  0.18089000  0.70610000  0.12608000  1.0
  H  H113  1  0.31911000  0.20610000  0.37392000  1.0
  H  H114  1  0.74789000  0.19854000  0.89115000  1.0
  H  H115  1  0.75211000  0.69855000  0.60885000  1.0
  H  H116  1  0.25211000  0.80145000  0.10885000  1.0
  H  H117  1  0.24789000  0.30146000  0.39115000  1.0
  H  H118  1  0.78280000  0.03912000  0.65825000  1.0
  H  H119  1  0.71720000  0.53912000  0.84174000  1.0
  H  H120  1  0.21720000  0.96088000  0.34174000  1.0
  H  H121  1  0.28280000  0.46088000  0.15825000  1.0
  H  H122  1  0.88068000  0.02807000  0.63552000  1.0
  H  H123  1  0.61932000  0.52807000  0.86448000  1.0
  H  H124  1  0.11932000  0.97193000  0.36448000  1.0
  H  H125  1  0.38068000  0.47193000  0.13552000  1.0
  H  H126  1  0.62648000  0.97431000  0.51054000  1.0
  H  H127  1  0.87352000  0.47431000  0.98946000  1.0
  H  H128  1  0.37352000  0.02569000  0.48946000  1.0
  H  H129  1  0.12648000  0.52569000  0.01054000  1.0
  H  H130  1  0.63257000  0.03396000  0.57596000  1.0
  H  H131  1  0.86743000  0.53396000  0.92404000  1.0
  H  H132  1  0.36743000  0.96604000  0.42404000  1.0
  H  H133  1  0.13257000  0.46604000  0.07596000  1.0
  Ir  Ir134  1  0.28687000  0.49974000  0.60853000  1.0
  Ir  Ir135  1  0.21313000  0.99974000  0.89147000  1.0
  Ir  Ir136  1  0.71313000  0.50026000  0.39147000  1.0
  Ir  Ir137  1  0.78687000  0.00026000  0.10853000  1.0
  C  C138  1  0.39113000  0.40642000  0.60701000  1.0
  C  C139  1  0.10886000  0.90643000  0.89299000  1.0
  C  C140  1  0.60886000  0.59357000  0.39299000  1.0
  C  C141  1  0.89114000  0.09357000  0.10701000  1.0
  C  C142  1  0.43325000  0.34565000  0.65729000  1.0
  C  C143  1  0.06675000  0.84565000  0.84271000  1.0
  C  C144  1  0.56674000  0.65435000  0.34271000  1.0
  C  C145  1  0.93325000  0.15436000  0.15729000  1.0
  C  C146  1  0.49301000  0.27334000  0.64669000  1.0
  C  C147  1  0.00699000  0.77334000  0.85331000  1.0
  C  C148  1  0.50699000  0.72666000  0.35331000  1.0
  C  C149  1  0.99301000  0.22666000  0.14669000  1.0
  C  C150  1  0.51768000  0.26136000  0.58576000  1.0
  C  C151  1  0.98232000  0.76136000  0.91424000  1.0
  C  C152  1  0.48231000  0.73864000  0.41425000  1.0
  C  C153  1  0.01768000  0.23864000  0.08575000  1.0
  C  C154  1  0.48016000  0.32273000  0.53578000  1.0
  C  C155  1  0.01984000  0.82273000  0.96422000  1.0
  C  C156  1  0.51984000  0.67727000  0.46423000  1.0
  C  C157  1  0.98016000  0.17727000  0.03578000  1.0
  C  C158  1  0.41700000  0.39321000  0.54539000  1.0
  C  C159  1  0.08300000  0.89321000  0.95461000  1.0
  C  C160  1  0.58300000  0.60679000  0.45461000  1.0
  C  C161  1  0.91700000  0.10680000  0.04539000  1.0
  C  C162  1  0.37239000  0.45608000  0.49375000  1.0
  C  C163  1  0.12761000  0.95608000  0.00625000  1.0
  C  C164  1  0.62761000  0.54392000  0.50625000  1.0
  C  C165  1  0.87239000  0.04392000  0.99375000  1.0
  C  C166  1  0.39033000  0.45833000  0.43060000  1.0
  C  C167  1  0.10967000  0.95833000  0.06940000  1.0
  C  C168  1  0.60967000  0.54167000  0.56940000  1.0
  C  C169  1  0.89033000  0.04167000  0.93060000  1.0
  C  C170  1  0.34383000  0.52277000  0.38603000  1.0
  C  C171  1  0.15617000  0.02277000  0.11397000  1.0
  C  C172  1  0.65617000  0.47722000  0.61397000  1.0
  C  C173  1  0.84383000  0.97722000  0.88603000  1.0
  C  C174  1  0.27942000  0.58483000  0.40518000  1.0
  C  C175  1  0.22057000  0.08483000  0.09481000  1.0
  C  C176  1  0.72058000  0.41517000  0.59482000  1.0
  C  C177  1  0.77943000  0.91517000  0.90519000  1.0
  C  C178  1  0.26419000  0.57972000  0.46831000  1.0
  C  C179  1  0.23581000  0.07972000  0.03169000  1.0
  C  C180  1  0.73581000  0.42028000  0.53169000  1.0
  C  C181  1  0.76419000  0.92028000  0.96831000  1.0
  C  C182  1  0.58436000  0.18628000  0.57455000  1.0
  C  C183  1  0.91564000  0.68628000  0.92545000  1.0
  C  C184  1  0.41564000  0.81372000  0.42545000  1.0
  C  C185  1  0.08436000  0.31372000  0.07455000  1.0
  C  C186  1  0.18560000  0.40235000  0.58262000  1.0
  C  C187  1  0.31440000  0.90235000  0.91738000  1.0
  C  C188  1  0.81440000  0.59765000  0.41738000  1.0
  C  C189  1  0.68560000  0.09765000  0.08262000  1.0
  C  C190  1  0.19701000  0.30599000  0.57420000  1.0
  C  C191  1  0.30299000  0.80599000  0.92580000  1.0
  C  C192  1  0.80299000  0.69401000  0.42580000  1.0
  C  C193  1  0.69701000  0.19401000  0.07420000  1.0
  C  C194  1  0.12010000  0.24473000  0.56682000  1.0
  C  C195  1  0.37990000  0.74473000  0.93317000  1.0
  C  C196  1  0.87990000  0.75527000  0.43318000  1.0
  C  C197  1  0.62010000  0.25527000  0.06682000  1.0
  C  C198  1  0.02690000  0.27758000  0.56622000  1.0
  C  C199  1  0.47310000  0.77757000  0.93378000  1.0
  C  C200  1  0.97310000  0.72243000  0.43378000  1.0
  C  C201  1  0.52690000  0.22243000  0.06622000  1.0
  C  C202  1  0.01300000  0.37279000  0.57295000  1.0
  C  C203  1  0.48700000  0.87279000  0.92705000  1.0
  C  C204  1  0.98700000  0.62721000  0.42705000  1.0
  C  C205  1  0.51300000  0.12721000  0.07295000  1.0
  C  C206  1  0.08993000  0.43432000  0.58032000  1.0
  C  C207  1  0.41007000  0.93432000  0.91968000  1.0
  C  C208  1  0.91007000  0.56568000  0.41968000  1.0
  C  C209  1  0.58993000  0.06568000  0.08032000  1.0
  C  C210  1  0.07752000  0.53384000  0.58831000  1.0
  C  C211  1  0.42248000  0.03384000  0.91170000  1.0
  C  C212  1  0.92248000  0.46616000  0.41170000  1.0
  C  C213  1  0.57752000  0.96616000  0.08831000  1.0
  C  C214  1  0.98921000  0.57839000  0.58432000  1.0
  C  C215  1  0.51079000  0.07839000  0.91568000  1.0
  C  C216  1  0.01079000  0.42161000  0.41568000  1.0
  C  C217  1  0.48921000  0.92161000  0.08432000  1.0
  C  C218  1  0.98620000  0.67383000  0.59180000  1.0
  C  C219  1  0.51380000  0.17383000  0.90820000  1.0
  C  C220  1  0.01380000  0.32617000  0.40820000  1.0
  C  C221  1  0.48620000  0.82617000  0.09180000  1.0
  C  C222  1  0.07155000  0.72442000  0.60366000  1.0
  C  C223  1  0.42845000  0.22442000  0.89634000  1.0
  C  C224  1  0.92845000  0.27558000  0.39634000  1.0
  C  C225  1  0.57155000  0.77558000  0.10366000  1.0
  C  C226  1  0.15710000  0.67679000  0.60688000  1.0
  C  C227  1  0.34290000  0.17678000  0.89312000  1.0
  C  C228  1  0.84289000  0.32322000  0.39312000  1.0
  C  C229  1  0.65710000  0.82322000  0.10688000  1.0
  C  C230  1  0.94300000  0.21530000  0.55737000  1.0
  C  C231  1  0.55701000  0.71530000  0.94263000  1.0
  C  C232  1  0.05700000  0.78470000  0.44263000  1.0
  C  C233  1  0.44300000  0.28470000  0.05737000  1.0
  C  C234  1  0.28639000  0.47926000  0.70261000  1.0
  C  C235  1  0.21361000  0.97926000  0.79739000  1.0
  C  C236  1  0.71361000  0.52074000  0.29739000  1.0
  C  C237  1  0.78639000  0.02074000  0.20261000  1.0
  C  C238  1  0.23470000  0.41066000  0.72897000  1.0
  C  C239  1  0.26530000  0.91067000  0.77103000  1.0
  C  C240  1  0.76530000  0.58933000  0.27103000  1.0
  C  C241  1  0.73470000  0.08933000  0.22897000  1.0
  C  C242  1  0.24032000  0.40283000  0.79512000  1.0
  C  C243  1  0.25968000  0.90283000  0.70488000  1.0
  C  C244  1  0.75969000  0.59717000  0.20488000  1.0
  C  C245  1  0.74032000  0.09717000  0.29512000  1.0
  C  C246  1  0.29850000  0.46344000  0.83851000  1.0
  C  C247  1  0.20151000  0.96344000  0.66149000  1.0
  C  C248  1  0.70151000  0.53656000  0.16149000  1.0
  C  C249  1  0.79849000  0.03656000  0.33851000  1.0
  C  C250  1  0.35173000  0.53161000  0.81416000  1.0
  C  C251  1  0.14828000  0.03162000  0.68584000  1.0
  C  C252  1  0.64828000  0.46838000  0.18584000  1.0
  C  C253  1  0.85172000  0.96838000  0.31416000  1.0
  C  C254  1  0.34590000  0.53992000  0.74716000  1.0
  C  C255  1  0.15410000  0.03992000  0.75284000  1.0
  C  C256  1  0.65410000  0.46007000  0.25284000  1.0
  C  C257  1  0.84590000  0.96008000  0.24716000  1.0
  C  C258  1  0.39520000  0.61242000  0.71787000  1.0
  C  C259  1  0.10479000  0.11242000  0.78213000  1.0
  C  C260  1  0.60479000  0.38758000  0.28213000  1.0
  C  C261  1  0.89520000  0.88758000  0.21787000  1.0
  C  C262  1  0.45314000  0.68247000  0.75162000  1.0
  C  C263  1  0.04686000  0.18247000  0.74838000  1.0
  C  C264  1  0.54686000  0.31753000  0.24838000  1.0
  C  C265  1  0.95314000  0.81753000  0.25162000  1.0
  C  C266  1  0.48912000  0.75244000  0.71773000  1.0
  C  C267  1  0.01087000  0.25243000  0.78226000  1.0
  C  C268  1  0.51087000  0.24757000  0.28227000  1.0
  C  C269  1  0.98913000  0.74757000  0.21774000  1.0
  C  C270  1  0.46609000  0.75233000  0.64991000  1.0
  C  C271  1  0.03391000  0.25233000  0.85009000  1.0
  C  C272  1  0.53391000  0.24767000  0.35009000  1.0
  C  C273  1  0.96609000  0.74767000  0.14991000  1.0
  C  C274  1  0.41063000  0.68006000  0.61881000  1.0
  C  C275  1  0.08937000  0.18006000  0.88118000  1.0
  C  C276  1  0.58937000  0.31993000  0.38118000  1.0
  C  C277  1  0.91063000  0.81994000  0.11882000  1.0
  C  C278  1  0.29976000  0.45449000  0.90858000  1.0
  C  C279  1  0.20024000  0.95449000  0.59142000  1.0
  C  C280  1  0.70024000  0.54551000  0.09142000  1.0
  C  C281  1  0.79976000  0.04551000  0.40858000  1.0
  C  C282  1  0.64229000  0.37749000  0.92503000  1.0
  C  C283  1  0.85771000  0.87749000  0.57497000  1.0
  C  C284  1  0.35772000  0.62251000  0.07497000  1.0
  C  C285  1  0.14229000  0.12251000  0.42503000  1.0
  C  C286  1  0.63067000  0.32505000  0.81353000  1.0
  C  C287  1  0.86933000  0.82506000  0.68647000  1.0
  C  C288  1  0.36933000  0.67495000  0.18647000  1.0
  C  C289  1  0.13067000  0.17495000  0.31353000  1.0
  C  C290  1  0.76420000  0.27246000  0.90095000  1.0
  C  C291  1  0.73580000  0.77246000  0.59906000  1.0
  C  C292  1  0.23580000  0.72754000  0.09905000  1.0
  C  C293  1  0.26420000  0.22754000  0.40095000  1.0
  N  N294  1  0.30868000  0.51717000  0.51152000  1.0
  N  N295  1  0.19132000  0.01717000  0.98848000  1.0
  N  N296  1  0.69132000  0.48283000  0.48848000  1.0
  N  N297  1  0.80868000  0.98283000  0.01152000  1.0
  N  N298  1  0.16057000  0.58402000  0.59944000  1.0
  N  N299  1  0.33943000  0.08401000  0.90056000  1.0
  N  N300  1  0.83943000  0.41599000  0.40056000  1.0
  N  N301  1  0.66057000  0.91599000  0.09944000  1.0
  N  N302  1  0.37749000  0.61074000  0.65139000  1.0
  N  N303  1  0.12251000  0.11074000  0.84860000  1.0
  N  N304  1  0.62250000  0.38926000  0.34861000  1.0
  N  N305  1  0.87749000  0.88926000  0.15140000  1.0
  N  N306  1  0.67811000  0.32824000  0.88144000  1.0
  N  N307  1  0.82188000  0.82824000  0.61857000  1.0
  N  N308  1  0.32189000  0.67176000  0.11856000  1.0
  N  N309  1  0.17812000  0.17176000  0.38144000  1.0
  O  O310  1  0.59565000  0.11554000  0.61192000  1.0
  O  O311  1  0.90435000  0.61553000  0.88808000  1.0
  O  O312  1  0.40435000  0.88446000  0.38808000  1.0
  O  O313  1  0.09565000  0.38446000  0.11192000  1.0
  O  O314  1  0.62726000  0.19808000  0.52684000  1.0
  O  O315  1  0.87274000  0.69808000  0.97316000  1.0
  O  O316  1  0.37273000  0.80192000  0.47316000  1.0
  O  O317  1  0.12727000  0.30192000  0.02684000  1.0
  O  O318  1  0.95134000  0.12764000  0.54767000  1.0
  O  O319  1  0.54866000  0.62764000  0.95232000  1.0
  O  O320  1  0.04866000  0.87236000  0.45233000  1.0
  O  O321  1  0.45134000  0.37236000  0.04768000  1.0
  O  O322  1  0.86125000  0.24976000  0.55986000  1.0
  O  O323  1  0.63875000  0.74976000  0.94014000  1.0
  O  O324  1  0.13874000  0.75024000  0.44014000  1.0
  O  O325  1  0.36125000  0.25024000  0.05986000  1.0
  O  O326  1  0.25061000  0.38878000  0.92650000  1.0
  O  O327  1  0.24938000  0.88878000  0.57350000  1.0
  O  O328  1  0.74939000  0.61121000  0.07350000  1.0
  O  O329  1  0.75061000  0.11122000  0.42650000  1.0
  O  O330  1  0.34740000  0.51276000  0.94902000  1.0
  O  O331  1  0.15260000  0.01277000  0.55098000  1.0
  O  O332  1  0.65260000  0.48724000  0.05098000  1.0
  O  O333  1  0.84740000  0.98724000  0.44902000  1.0
  O  O334  1  0.56803000  0.42704000  0.91129000  1.0
  O  O335  1  0.93197000  0.92704000  0.58871000  1.0
  O  O336  1  0.43197000  0.57296000  0.08871000  1.0
  O  O337  1  0.06803000  0.07296000  0.41129000  1.0
  O  O338  1  0.83371000  0.07407000  0.64436000  1.0
  O  O339  1  0.66629000  0.57407000  0.85564000  1.0
  O  O340  1  0.16629000  0.92594000  0.35564000  1.0
  O  O341  1  0.33371000  0.42593000  0.14436000  1.0
  O  O342  1  0.66902000  0.98799000  0.55172000  1.0
  O  O343  1  0.83098000  0.48799000  0.94828000  1.0
  O  O344  1  0.33098000  0.01201000  0.44828000  1.0
  O  O345  1  0.16902000  0.51201000  0.05172000  1.0
