# generated using pymatgen
data_ZnH18C27(NO4)2
_symmetry_space_group_name_H-M   'P 1'
_cell_length_a   9.81684000
_cell_length_b   10.02680000
_cell_length_c   14.01840000
_cell_angle_alpha   96.29530000
_cell_angle_beta   107.00400000
_cell_angle_gamma   110.52700000
_symmetry_Int_Tables_number   1
_chemical_formula_structural   ZnH18C27(NO4)2
_chemical_formula_sum   'Zn2 H36 C54 N4 O16'
_cell_volume   1200.56101034
_cell_formula_units_Z   2
loop_
 _symmetry_equiv_pos_site_id
 _symmetry_equiv_pos_as_xyz
  1  'x, y, z'
loop_
 _atom_site_type_symbol
 _atom_site_label
 _atom_site_symmetry_multiplicity
 _atom_site_fract_x
 _atom_site_fract_y
 _atom_site_fract_z
 _atom_site_occupancy
  Zn  Zn0  1  0.99248000  0.34814000  0.16169000  1.0
  Zn  Zn1  1  0.00752000  0.65186000  0.83831000  1.0
  H  H2  1  0.63453000  0.51239000  0.74231000  1.0
  H  H3  1  0.36547000  0.48761000  0.25769000  1.0
  H  H4  1  0.17439000  0.22292000  0.71973000  1.0
  H  H5  1  0.82560000  0.77707000  0.28027000  1.0
  H  H6  1  0.10694000  0.13176000  0.53226000  1.0
  H  H7  1  0.89306000  0.86824000  0.46774000  1.0
  H  H8  1  0.56630000  0.42317000  0.55677000  1.0
  H  H9  1  0.43370000  0.57683000  0.44323000  1.0
  H  H10  1  0.98108000  0.83520000  0.16221000  1.0
  H  H11  1  0.01893000  0.16480000  0.83779000  1.0
  H  H12  1  0.39506000  0.03810000  0.50718000  1.0
  H  H13  1  0.60495000  0.96190000  0.49282000  1.0
  H  H14  1  0.31134000  0.77813000  0.41512000  1.0
  H  H15  1  0.68866000  0.22187000  0.58489000  1.0
  H  H16  1  0.99655000  0.40597000  0.39594000  1.0
  H  H17  1  0.00345000  0.59403000  0.60406000  1.0
  H  H18  1  0.79526000  0.37821000  0.47895000  1.0
  H  H19  1  0.20474000  0.62179000  0.52104000  1.0
  H  H20  1  0.51371000  0.28346000  0.36577000  1.0
  H  H21  1  0.48629000  0.71653000  0.63423000  1.0
  H  H22  1  0.31269000  0.18935000  0.18563000  1.0
  H  H23  1  0.68731000  0.81065000  0.81437000  1.0
  H  H24  1  0.25137000  0.11161000  0.99770000  1.0
  H  H25  1  0.74863000  0.88839000  0.00230000  1.0
  H  H26  1  0.34130000  0.07980000  0.85138000  1.0
  H  H27  1  0.65870000  0.92019000  0.14862000  1.0
  H  H28  1  0.56784000  0.11372000  0.79081000  1.0
  H  H29  1  0.43217000  0.88627000  0.20919000  1.0
  H  H30  1  0.83676000  0.21925000  0.92038000  1.0
  H  H31  1  0.16324000  0.78075000  0.07962000  1.0
  H  H32  1  0.21645000  0.40899000  0.07744000  1.0
  H  H33  1  0.78354000  0.59100000  0.92256000  1.0
  H  H34  1  0.06671000  0.38237000  0.98317000  1.0
  H  H35  1  0.93329000  0.61763000  0.01683000  1.0
  H  H36  1  0.36847000  0.43147000  0.96467000  1.0
  H  H37  1  0.63151000  0.56852000  0.03533000  1.0
  C  C38  1  0.44981000  0.42718000  0.85503000  1.0
  C  C39  1  0.55019000  0.57282000  0.14497000  1.0
  C  C40  1  0.40890000  0.37318000  0.74395000  1.0
  C  C41  1  0.59109000  0.62682000  0.25605000  1.0
  C  C42  1  0.51887000  0.42918000  0.69760000  1.0
  C  C43  1  0.48113000  0.57082000  0.30240000  1.0
  C  C44  1  0.25997000  0.26599000  0.68389000  1.0
  C  C45  1  0.74003000  0.73401000  0.31611000  1.0
  C  C46  1  0.22225000  0.21431000  0.57947000  1.0
  C  C47  1  0.77775000  0.78569000  0.42053000  1.0
  C  C48  1  0.48111000  0.37926000  0.59284000  1.0
  C  C49  1  0.51888000  0.62074000  0.40716000  1.0
  C  C50  1  0.33345000  0.27156000  0.53434000  1.0
  C  C51  1  0.66655000  0.72844000  0.46566000  1.0
  C  C52  1  0.03846000  0.11264000  0.23070000  1.0
  C  C53  1  0.96154000  0.88736000  0.76930000  1.0
  C  C54  1  0.12238000  0.02698000  0.28527000  1.0
  C  C55  1  0.87763000  0.97303000  0.71473000  1.0
  C  C56  1  0.24022000  0.08274000  0.38288000  1.0
  C  C57  1  0.75979000  0.91726000  0.61712000  1.0
  C  C58  1  0.07560000  0.88045000  0.23653000  1.0
  C  C59  1  0.92441000  0.11955000  0.76347000  1.0
  C  C60  1  0.30617000  0.99284000  0.43055000  1.0
  C  C61  1  0.69383000  0.00716000  0.56946000  1.0
  C  C62  1  0.25926000  0.84840000  0.37957000  1.0
  C  C63  1  0.74075000  0.15161000  0.62043000  1.0
  C  C64  1  0.14373000  0.79070000  0.28117000  1.0
  C  C65  1  0.85627000  0.20930000  0.71884000  1.0
  C  C66  1  0.08878000  0.63444000  0.22627000  1.0
  C  C67  1  0.91122000  0.36557000  0.77373000  1.0
  C  C68  1  0.87272000  0.36315000  0.34997000  1.0
  C  C69  1  0.12728000  0.63685000  0.65003000  1.0
  C  C70  1  0.75948000  0.34761000  0.39557000  1.0
  C  C71  1  0.24052000  0.65239000  0.60443000  1.0
  C  C72  1  0.60433000  0.29410000  0.33333333  1.0
  C  C73  1  0.39566000  0.70590000  0.66666667  1.0
  C  C74  1  0.56212000  0.25361000  0.22555000  1.0
  C  C75  1  0.43788000  0.74639000  0.77445000  1.0
  C  C76  1  0.68469000  0.27187000  0.18713000  1.0
  C  C77  1  0.31531000  0.72812000  0.81287000  1.0
  C  C78  1  0.40483000  0.19695000  0.15516000  1.0
  C  C79  1  0.59517000  0.80305000  0.84483000  1.0
  C  C80  1  0.37099000  0.15610000  0.05176000  1.0
  C  C81  1  0.62901000  0.84389000  0.94823000  1.0
  C  C82  1  0.64909000  0.22988000  0.07829000  1.0
  C  C83  1  0.35092000  0.77012000  0.92171000  1.0
  C  C84  1  0.49181000  0.17030000  0.01079000  1.0
  C  C85  1  0.50819000  0.82969000  0.98921000  1.0
  C  C86  1  0.46173000  0.12750000  0.90451000  1.0
  C  C87  1  0.53827000  0.87250000  0.09549000  1.0
  C  C88  1  0.58546000  0.14559000  0.87179000  1.0
  C  C89  1  0.41454000  0.85441000  0.12821000  1.0
  C  C90  1  0.73776000  0.20551000  0.94429000  1.0
  C  C91  1  0.26224000  0.79448000  0.05571000  1.0
  N  N92  1  0.76911000  0.24730000  0.04442000  1.0
  N  N93  1  0.23089000  0.75270000  0.95558000  1.0
  N  N94  1  0.83604000  0.32711000  0.24895000  1.0
  N  N95  1  0.16396000  0.67289000  0.75105000  1.0
  O  O96  1  0.14348000  0.55191000  0.27347000  1.0
  O  O97  1  0.85652000  0.44810000  0.72653000  1.0
  O  O98  1  0.98721000  0.58555000  0.13582000  1.0
  O  O99  1  0.01279000  0.41446000  0.86418000  1.0
  O  O100  1  0.89529000  0.04672000  0.18192000  1.0
  O  O101  1  0.10472000  0.95328000  0.81808000  1.0
  O  O102  1  0.12198000  0.24720000  0.23646000  1.0
  O  O103  1  0.87803000  0.75280000  0.76355000  1.0
  O  O104  1  0.29664000  0.23019000  0.42944000  1.0
  O  O105  1  0.70336000  0.76982000  0.57057000  1.0
  O  O106  1  0.58646000  0.50421000  0.91484000  1.0
  O  O107  1  0.41353000  0.49578000  0.08516000  1.0
  O  O108  1  0.10234000  0.35685000  0.05022000  1.0
  O  O109  1  0.89766000  0.64315000  0.94978000  1.0
  O  O110  1  0.33128000  0.38874000  0.88751000  1.0
  O  O111  1  0.66871000  0.61125000  0.11249000  1.0
