# generated using pymatgen
data_CaH18C14(NO4)2
_symmetry_space_group_name_H-M   'P 1'
_cell_length_a   9.61543000
_cell_length_b   9.73249000
_cell_length_c   10.40394634
_cell_angle_alpha   86.54045661
_cell_angle_beta   62.48742054
_cell_angle_gamma   90.00170000
_symmetry_Int_Tables_number   1
_chemical_formula_structural   CaH18C14(NO4)2
_chemical_formula_sum   'Ca2 H36 C28 N4 O16'
_cell_volume   861.51341347
_cell_formula_units_Z   2
loop_
 _symmetry_equiv_pos_site_id
 _symmetry_equiv_pos_as_xyz
  1  'x, y, z'
loop_
 _atom_site_type_symbol
 _atom_site_label
 _atom_site_symmetry_multiplicity
 _atom_site_fract_x
 _atom_site_fract_y
 _atom_site_fract_z
 _atom_site_occupancy
  Ca  Ca0  1  0.92088000  0.24998000  0.99998000  1.0
  Ca  Ca1  1  0.07911000  0.75002000  0.00003000  1.0
  H  H2  1  0.96851000  0.25002000  0.30387000  1.0
  H  H3  1  0.27226000  0.25005000  0.69619000  1.0
  H  H4  1  0.03148000  0.74998000  0.69614000  1.0
  H  H5  1  0.72775000  0.74996000  0.30381000  1.0
  H  H6  1  0.04036000  0.80120000  0.34839000  1.0
  H  H7  1  0.38898000  0.69888000  0.65148000  1.0
  H  H8  1  0.95964000  0.19879000  0.65162000  1.0
  H  H9  1  0.61103000  0.30111000  0.34852000  1.0
  H  H10  1  0.54370000  0.78364000  0.10222000  1.0
  H  H11  1  0.64575000  0.71637000  0.89778000  1.0
  H  H12  1  0.45630000  0.21636000  0.89778000  1.0
  H  H13  1  0.35425000  0.28363000  0.10222000  1.0
  H  H14  1  0.34080000  0.82399000  0.19849000  1.0
  H  H15  1  0.53914000  0.67597000  0.80150000  1.0
  H  H16  1  0.65919000  0.17601000  0.80151000  1.0
  H  H17  1  0.46085000  0.32403000  0.19851000  1.0
  H  H18  1  0.43628000  0.74149000  0.29276000  1.0
  H  H19  1  0.72883000  0.75853000  0.70725000  1.0
  H  H20  1  0.56372000  0.25851000  0.70724000  1.0
  H  H21  1  0.27116000  0.24147000  0.29276000  1.0
  H  H22  1  0.69651000  0.96129000  0.03518000  1.0
  H  H23  1  0.73173000  0.53907000  0.96483000  1.0
  H  H24  1  0.30350000  0.03871000  0.96481000  1.0
  H  H25  1  0.26827000  0.46094000  0.03517000  1.0
  H  H26  1  0.45078000  0.10003000  0.38186000  1.0
  H  H27  1  0.83256000  0.39993000  0.61820000  1.0
  H  H28  1  0.54922000  0.89997000  0.61814000  1.0
  H  H29  1  0.16744000  0.60007000  0.38179000  1.0
  H  H30  1  0.39341000  0.92773000  0.45876000  1.0
  H  H31  1  0.85206000  0.57220000  0.54126000  1.0
  H  H32  1  0.60660000  0.07226000  0.54123000  1.0
  H  H33  1  0.14793000  0.42781000  0.45874000  1.0
  H  H34  1  0.28155000  0.01915000  0.38631000  1.0
  H  H35  1  0.66779000  0.48079000  0.61371000  1.0
  H  H36  1  0.71845000  0.98085000  0.61368000  1.0
  H  H37  1  0.33220000  0.51922000  0.38629000  1.0
  C  C38  1  0.01163000  0.03712000  0.21614000  1.0
  C  C39  1  0.22768000  0.46310000  0.78377000  1.0
  C  C40  1  0.98838000  0.96288000  0.78386000  1.0
  C  C41  1  0.77232000  0.53691000  0.21623000  1.0
  C  C42  1  0.00472000  0.01888000  0.36274000  1.0
  C  C43  1  0.36744000  0.48120000  0.63723000  1.0
  C  C44  1  0.99527000  0.98111000  0.63727000  1.0
  C  C45  1  0.63256000  0.51880000  0.36277000  1.0
  C  C46  1  0.98096000  0.13303000  0.44890000  1.0
  C  C47  1  0.42978000  0.36701000  0.55112000  1.0
  C  C48  1  0.01905000  0.86696000  0.55110000  1.0
  C  C49  1  0.57023000  0.63299000  0.44888000  1.0
  C  C50  1  0.02207000  0.88775000  0.41575000  1.0
  C  C51  1  0.43792000  0.61228000  0.58420000  1.0
  C  C52  1  0.97793000  0.11224000  0.58425000  1.0
  C  C53  1  0.56208000  0.38772000  0.41580000  1.0
  C  C54  1  0.45170000  0.81775000  0.20473000  1.0
  C  C55  1  0.65627000  0.68226000  0.79526000  1.0
  C  C56  1  0.54830000  0.18225000  0.79527000  1.0
  C  C57  1  0.34373000  0.31774000  0.20474000  1.0
  C  C58  1  0.62967000  0.01692000  0.13410000  1.0
  C  C59  1  0.76380000  0.48330000  0.86596000  1.0
  C  C60  1  0.37033000  0.98308000  0.86589000  1.0
  C  C61  1  0.23620000  0.51670000  0.13404000  1.0
  C  C62  1  0.40032000  0.00299000  0.37287000  1.0
  C  C63  1  0.77309000  0.49697000  0.62721000  1.0
  C  C64  1  0.59968000  0.99701000  0.62713000  1.0
  C  C65  1  0.22690000  0.50303000  0.37279000  1.0
  N  N66  1  0.49843000  0.95030000  0.23198000  1.0
  N  N67  1  0.73032000  0.54974000  0.76805000  1.0
  N  N68  1  0.50157000  0.04970000  0.76802000  1.0
  N  N69  1  0.26968000  0.45026000  0.23195000  1.0
  O  O70  1  0.00125000  0.16156000  0.17040000  1.0
  O  O71  1  0.17136000  0.33870000  0.82946000  1.0
  O  O72  1  0.99874000  0.83843000  0.82961000  1.0
  O  O73  1  0.82864000  0.66131000  0.17054000  1.0
  O  O74  1  0.95901000  0.26135000  0.40414000  1.0
  O  O75  1  0.36306000  0.23869000  0.59596000  1.0
  O  O76  1  0.04099000  0.73864000  0.59587000  1.0
  O  O77  1  0.63695000  0.76131000  0.40404000  1.0
  O  O78  1  0.67729000  0.13201000  0.14869000  1.0
  O  O79  1  0.82608000  0.36827000  0.85149000  1.0
  O  O80  1  0.32270000  0.86800000  0.85131000  1.0
  O  O81  1  0.17391000  0.63174000  0.14852000  1.0
  O  O82  1  0.02897000  0.93406000  0.14302000  1.0
  O  O83  1  0.17203000  0.56618000  0.85687000  1.0
  O  O84  1  0.97104000  0.06594000  0.85698000  1.0
  O  O85  1  0.82797000  0.43384000  0.14312000  1.0
