# generated using pymatgen
data_Zn2H25C36S2N7O10
_symmetry_space_group_name_H-M   'P 1'
_cell_length_a   12.86320000
_cell_length_b   16.37620000
_cell_length_c   17.61640000
_cell_angle_alpha   96.06570000
_cell_angle_beta   90.16090000
_cell_angle_gamma   92.95210000
_symmetry_Int_Tables_number   1
_chemical_formula_structural   Zn2H25C36S2N7O10
_chemical_formula_sum   'Zn2 H25 C36 S2 N7 O10'
_cell_volume   3685.10045995
_cell_formula_units_Z   1
loop_
 _symmetry_equiv_pos_site_id
 _symmetry_equiv_pos_as_xyz
  1  'x, y, z'
loop_
 _atom_site_type_symbol
 _atom_site_label
 _atom_site_symmetry_multiplicity
 _atom_site_fract_x
 _atom_site_fract_y
 _atom_site_fract_z
 _atom_site_occupancy
  Zn  Zn0  1  0.49821000  0.41061000  0.49781000  1.0
  Zn  Zn1  1  0.50272000  0.58826000  0.50006000  1.0
  H  H2  1  0.39939000  0.71169000  0.42836000  1.0
  H  H3  1  0.39429000  0.86330000  0.43151000  1.0
  H  H4  1  0.64805000  0.88319000  0.59563000  1.0
  H  H5  1  0.34595000  0.11557000  0.40937000  1.0
  H  H6  1  0.60603000  0.13664000  0.56821000  1.0
  H  H7  1  0.60513000  0.28784000  0.56645000  1.0
  H  H8  1  0.58541000  0.00596000  0.56256000  1.0
  H  H9  1  0.40912000  0.99335000  0.44263000  1.0
  H  H10  1  0.50414000  0.61291000  0.26523000  1.0
  H  H11  1  0.50259000  0.61040000  0.12455000  1.0
  H  H12  1  0.49984000  0.34521000  0.10580000  1.0
  H  H13  1  0.50948000  0.65469000  0.89197000  1.0
  H  H14  1  0.49262000  0.38932000  0.87399000  1.0
  H  H15  1  0.49021000  0.38633000  0.73328000  1.0
  H  H16  1  0.49806000  0.40559000  0.99417000  1.0
  H  H17  1  0.50487000  0.59447000  0.00402000  1.0
  H  H18  1  0.86378000  0.62693000  0.50248000  1.0
  H  H19  1  0.67121000  0.66006000  0.57551000  1.0
  H  H20  1  0.71392000  0.75436000  0.62483000  1.0
  H  H21  1  0.33304000  0.33800000  0.41978000  1.0
  H  H22  1  0.27626000  0.24416000  0.38529000  1.0
  H  H23  1  0.50511000  0.33434000  0.30995000  1.0
  H  H24  1  0.50494000  0.27888000  0.21821000  1.0
  H  H25  1  0.50251000  0.66440000  0.68822000  1.0
  H  H26  1  0.49740000  0.71958000  0.77904000  1.0
  C  C27  1  0.50448000  0.49028000  0.35078000  1.0
  C  C28  1  0.29384000  0.50579000  0.49543000  1.0
  C  C29  1  0.49621000  0.50879000  0.64729000  1.0
  C  C30  1  0.70715000  0.49484000  0.50476000  1.0
  C  C31  1  0.45332000  0.75257000  0.46428000  1.0
  C  C32  1  0.45064000  0.83681000  0.46663000  1.0
  C  C33  1  0.52165000  0.88663000  0.51542000  1.0
  C  C34  1  0.59133000  0.84722000  0.55792000  1.0
  C  C35  1  0.59166000  0.76047000  0.55128000  1.0
  C  C36  1  0.52697000  0.97618000  0.52217000  1.0
  C  C37  1  0.46782000  0.02319000  0.48278000  1.0
  C  C38  1  0.40475000  0.15162000  0.44514000  1.0
  C  C39  1  0.47459000  0.11267000  0.48781000  1.0
  C  C40  1  0.54892000  0.16275000  0.53343000  1.0
  C  C41  1  0.54892000  0.24682000  0.53276000  1.0
  C  C42  1  0.40827000  0.23826000  0.44767000  1.0
  C  C43  1  0.50321000  0.48246000  0.26648000  1.0
  C  C44  1  0.50320000  0.55456000  0.22915000  1.0
  C  C45  1  0.50239000  0.55297000  0.15062000  1.0
  C  C46  1  0.50127000  0.47646000  0.10464000  1.0
  C  C47  1  0.50100000  0.40452000  0.14079000  1.0
  C  C48  1  0.50205000  0.40487000  0.22100000  1.0
  C  C49  1  0.50032000  0.46884000  0.02149000  1.0
  C  C50  1  0.50215000  0.53117000  0.97677000  1.0
  C  C51  1  0.50526000  0.59521000  0.85718000  1.0
  C  C52  1  0.50115000  0.52334000  0.89362000  1.0
  C  C53  1  0.49623000  0.44670000  0.84776000  1.0
  C  C54  1  0.49517000  0.44483000  0.76919000  1.0
  C  C55  1  0.49941000  0.51691000  0.73170000  1.0
  C  C56  1  0.50526000  0.59456000  0.77704000  1.0
  C  C57  1  0.10863000  0.43502000  0.50009000  1.0
  C  C58  1  0.89031000  0.56494000  0.50250000  1.0
  C  C59  1  0.17868000  0.50217000  0.49988000  1.0
  C  C60  1  0.82228000  0.49697000  0.50323000  1.0
  C  C61  1  0.99475000  0.54185000  0.50077000  1.0
  C  C62  1  0.00353000  0.45623000  0.49970000  1.0
  S  S63  1  0.11528000  0.59314000  0.50011000  1.0
  S  S64  1  0.88379000  0.40457000  0.50082000  1.0
  N  N65  1  0.52109000  0.71410000  0.50555000  1.0
  N  N66  1  0.48119000  0.28485000  0.49103000  1.0
  N  N67  1  0.66087000  0.72122000  0.59040000  1.0
  N  N68  1  0.34165000  0.27657000  0.40521000  1.0
  N  N69  1  0.50056000  0.33221000  0.25213000  1.0
  N  N70  1  0.51345000  0.66768000  0.74578000  1.0
  N  N71  1  0.13700000  0.34958000  0.50065000  1.0
  O  O72  1  0.50979000  0.42451000  0.38445000  1.0
  O  O73  1  0.50036000  0.56224000  0.38646000  1.0
  O  O74  1  0.33848000  0.57720000  0.50212000  1.0
  O  O75  1  0.33744000  0.43746000  0.48488000  1.0
  O  O76  1  0.49991000  0.57505000  0.61365000  1.0
  O  O77  1  0.48976000  0.43660000  0.61168000  1.0
  O  O78  1  0.66067000  0.42447000  0.50476000  1.0
  O  O79  1  0.66482000  0.56381000  0.50570000  1.0
  O  O80  1  0.10755000  0.30144000  0.44428000  1.0
  O  O81  1  0.18458000  0.33062000  0.55645000  1.0
