# generated using pymatgen
data_HgH10C14S2(IN2)2
_symmetry_space_group_name_H-M   'P 1'
_cell_length_a   9.76852000
_cell_length_b   10.44620000
_cell_length_c   10.44620000
_cell_angle_alpha   74.54960000
_cell_angle_beta   69.28610000
_cell_angle_gamma   69.28580000
_symmetry_Int_Tables_number   1
_chemical_formula_structural   HgH10C14S2(IN2)2
_chemical_formula_sum   'Hg2 H20 C28 S4 I4 N8'
_cell_volume   920.36800047
_cell_formula_units_Z   2
loop_
 _symmetry_equiv_pos_site_id
 _symmetry_equiv_pos_as_xyz
  1  'x, y, z'
loop_
 _atom_site_type_symbol
 _atom_site_label
 _atom_site_symmetry_multiplicity
 _atom_site_fract_x
 _atom_site_fract_y
 _atom_site_fract_z
 _atom_site_occupancy
  Hg  Hg0  1  0.75000000  0.73992000  0.26008000  1.0
  Hg  Hg1  1  0.25000000  0.26008000  0.73992000  1.0
  H  H2  1  0.95837000  0.11212000  0.37295000  1.0
  H  H3  1  0.54163000  0.62704000  0.88788000  1.0
  H  H4  1  0.04163000  0.88788000  0.62704000  1.0
  H  H5  1  0.45837000  0.37296000  0.11212000  1.0
  H  H6  1  0.90110000  0.31284000  0.18438000  1.0
  H  H7  1  0.59890000  0.81561000  0.68717000  1.0
  H  H8  1  0.09890000  0.68717000  0.81561000  1.0
  H  H9  1  0.40110000  0.18438000  0.31283000  1.0
  H  H10  1  0.77340000  0.28880000  0.02370000  1.0
  H  H11  1  0.72659000  0.97629000  0.71121000  1.0
  H  H12  1  0.22659000  0.71120000  0.97629000  1.0
  H  H13  1  0.27341000  0.02371000  0.28879000  1.0
  H  H14  1  0.70800000  0.07145000  0.05825000  1.0
  H  H15  1  0.79199000  0.94175000  0.92856000  1.0
  H  H16  1  0.29200000  0.92855000  0.94175000  1.0
  H  H17  1  0.20801000  0.05825000  0.07145000  1.0
  H  H18  1  0.11170000  0.58463000  0.52958000  1.0
  H  H19  1  0.38830000  0.47042000  0.41538000  1.0
  H  H20  1  0.88830000  0.41537000  0.47042000  1.0
  H  H21  1  0.61170000  0.52958000  0.58463000  1.0
  C  C22  1  0.87078000  0.98576000  0.30702000  1.0
  C  C23  1  0.62922000  0.69297000  0.01425000  1.0
  C  C24  1  0.12922000  0.01424000  0.69297000  1.0
  C  C25  1  0.37078000  0.30703000  0.98576000  1.0
  C  C26  1  0.90497000  0.10691000  0.29959000  1.0
  C  C27  1  0.59503000  0.70040000  0.89309000  1.0
  C  C28  1  0.09503000  0.89309000  0.70040000  1.0
  C  C29  1  0.40497000  0.29960000  0.10691000  1.0
  C  C30  1  0.87204000  0.21791000  0.19546000  1.0
  C  C31  1  0.62796000  0.80453000  0.78209000  1.0
  C  C32  1  0.12796000  0.78209000  0.80454000  1.0
  C  C33  1  0.37204000  0.19546000  0.21791000  1.0
  C  C34  1  0.80141000  0.20510000  0.10660000  1.0
  C  C35  1  0.69859000  0.89339000  0.79491000  1.0
  C  C36  1  0.19859000  0.79491000  0.89339000  1.0
  C  C37  1  0.30141000  0.10660000  0.20509000  1.0
  C  C38  1  0.76729000  0.08181000  0.12404000  1.0
  C  C39  1  0.73270000  0.87595000  0.91820000  1.0
  C  C40  1  0.23271000  0.91819000  0.87595000  1.0
  C  C41  1  0.26729000  0.12404000  0.08181000  1.0
  C  C42  1  0.10440000  0.76104000  0.36044000  1.0
  C  C43  1  0.39560000  0.63956000  0.23896000  1.0
  C  C44  1  0.89560000  0.23896000  0.63956000  1.0
  C  C45  1  0.60440000  0.36044000  0.76104000  1.0
  C  C46  1  0.17465000  0.63224000  0.43015000  1.0
  C  C47  1  0.32535000  0.56985000  0.36776000  1.0
  C  C48  1  0.82535000  0.36776000  0.56985000  1.0
  C  C49  1  0.67465000  0.43015000  0.63224000  1.0
  S  S50  1  0.91006000  0.84145000  0.43868000  1.0
  S  S51  1  0.58994000  0.56131000  0.15856000  1.0
  S  S52  1  0.08994000  0.15856000  0.56131000  1.0
  S  S53  1  0.41006000  0.43869000  0.84145000  1.0
  I  I54  1  0.48185000  0.80791000  0.46193000  1.0
  I  I55  1  0.01816000  0.53806000  0.19209000  1.0
  I  I56  1  0.51815000  0.19209000  0.53807000  1.0
  I  I57  1  0.98184000  0.46194000  0.80791000  1.0
  N  N58  1  0.80364000  0.97258000  0.22101000  1.0
  N  N59  1  0.69636000  0.77898000  0.02742000  1.0
  N  N60  1  0.19636000  0.02742000  0.77898000  1.0
  N  N61  1  0.30364000  0.22102000  0.97258000  1.0
  N  N62  1  0.17665000  0.82277000  0.23880000  1.0
  N  N63  1  0.32335000  0.76120000  0.17723000  1.0
  N  N64  1  0.82335000  0.17723000  0.76120000  1.0
  N  N65  1  0.67665000  0.23880000  0.82277000  1.0
