# generated using pymatgen
data_GdP2H17C16O11
_symmetry_space_group_name_H-M   'P 1'
_cell_length_a   5.59421000
_cell_length_b   9.29231000
_cell_length_c   18.37630000
_cell_angle_alpha   104.51700000
_cell_angle_beta   92.01180000
_cell_angle_gamma   96.51650000
_symmetry_Int_Tables_number   1
_chemical_formula_structural   GdP2H17C16O11
_chemical_formula_sum   'Gd2 P4 H34 C32 O22'
_cell_volume   916.77683376
_cell_formula_units_Z   2
loop_
 _symmetry_equiv_pos_site_id
 _symmetry_equiv_pos_as_xyz
  1  'x, y, z'
loop_
 _atom_site_type_symbol
 _atom_site_label
 _atom_site_symmetry_multiplicity
 _atom_site_fract_x
 _atom_site_fract_y
 _atom_site_fract_z
 _atom_site_occupancy
  Gd  Gd0  1  0.11823000  0.80482000  0.00252000  1.0
  Gd  Gd1  1  0.88178000  0.19518000  0.99748000  1.0
  P  P2  1  0.38647000  0.09827000  0.10560000  1.0
  P  P3  1  0.61354000  0.90172000  0.89440000  1.0
  P  P4  1  0.25866000  0.53217000  0.10504000  1.0
  P  P5  1  0.74134000  0.46783000  0.89496000  1.0
  H  H6  1  0.60274000  0.14480000  0.31627000  1.0
  H  H7  1  0.39727000  0.85520000  0.68373000  1.0
  H  H8  1  0.48246000  0.00458000  0.40914000  1.0
  H  H9  1  0.51753000  0.99543000  0.59086000  1.0
  H  H10  1  0.77235000  0.88096000  0.29814000  1.0
  H  H11  1  0.22766000  0.11904000  0.70186000  1.0
  H  H12  1  0.88978000  0.02464000  0.20485000  1.0
  H  H13  1  0.11023000  0.97536000  0.79515000  1.0
  H  H14  1  0.50404000  0.26187000  0.22537000  1.0
  H  H15  1  0.49597000  0.73813000  0.77463000  1.0
  H  H16  1  0.20129000  0.26762000  0.19683000  1.0
  H  H17  1  0.79871000  0.73238000  0.80317000  1.0
  H  H18  1  0.53421000  0.65351000  0.31042000  1.0
  H  H19  1  0.46578000  0.34649000  0.68958000  1.0
  H  H20  1  0.47714000  0.52049000  0.41098000  1.0
  H  H21  1  0.52286000  0.47951000  0.58902000  1.0
  H  H22  1  0.74801000  0.35879000  0.32436000  1.0
  H  H23  1  0.25199000  0.64121000  0.67564000  1.0
  H  H24  1  0.80437000  0.48647000  0.22068000  1.0
  H  H25  1  0.19562000  0.51353000  0.77932000  1.0
  H  H26  1  0.35225000  0.74659000  0.20881000  1.0
  H  H27  1  0.64774000  0.25341000  0.79119000  1.0
  H  H28  1  0.03989000  0.70159000  0.18453000  1.0
  H  H29  1  0.96010000  0.29841000  0.81547000  1.0
  H  H30  1  0.17177000  0.81268000  0.51117000  1.0
  H  H31  1  0.82822000  0.18732000  0.48883000  1.0
  H  H32  1  0.54977000  0.38858000  0.10113000  1.0
  H  H33  1  0.45023000  0.61142000  0.89887000  1.0
  H  H34  1  0.20089000  0.30305000  0.52195000  1.0
  H  H35  1  0.79911000  0.69695000  0.47805000  1.0
  H  H36  1  0.72414000  0.66894000  0.08248000  1.0
  H  H37  1  0.27586000  0.33106000  0.91751000  1.0
  H  H38  1  0.66890000  0.83623000  0.08848000  1.0
  H  H39  1  0.33109000  0.16377000  0.91152000  1.0
  C  C40  1  0.25554000  0.09526000  0.25369000  1.0
  C  C41  1  0.74447000  0.90473000  0.74631000  1.0
  C  C42  1  0.42047000  0.08648000  0.31110000  1.0
  C  C43  1  0.57954000  0.91352000  0.68890000  1.0
  C  C44  1  0.35430000  0.00815000  0.36388000  1.0
  C  C45  1  0.64570000  0.99185000  0.63612000  1.0
  C  C46  1  0.11970000  0.93404000  0.35960000  1.0
  C  C47  1  0.88030000  0.06596000  0.64041000  1.0
  C  C48  1  0.95456000  0.93883000  0.30131000  1.0
  C  C49  1  0.04544000  0.06117000  0.69869000  1.0
  C  C50  1  0.02124000  0.01957000  0.24914000  1.0
  C  C51  1  0.97876000  0.98043000  0.75086000  1.0
  C  C52  1  0.33427000  0.19139000  0.20202000  1.0
  C  C53  1  0.66574000  0.80860000  0.79798000  1.0
  C  C54  1  0.05119000  0.85409000  0.41759000  1.0
  C  C55  1  0.94880000  0.14590000  0.58240000  1.0
  C  C56  1  0.17446000  0.57626000  0.25735000  1.0
  C  C57  1  0.82553000  0.42375000  0.74265000  1.0
  C  C58  1  0.36242000  0.58610000  0.31156000  1.0
  C  C59  1  0.63758000  0.41390000  0.68844000  1.0
  C  C60  1  0.33186000  0.51247000  0.36866000  1.0
  C  C61  1  0.66814000  0.48754000  0.63134000  1.0
  C  C62  1  0.11075000  0.42833000  0.37241000  1.0
  C  C63  1  0.88925000  0.57167000  0.62759000  1.0
  C  C64  1  0.92104000  0.42031000  0.31900000  1.0
  C  C65  1  0.07895000  0.57969000  0.68100000  1.0
  C  C66  1  0.95259000  0.49247000  0.26190000  1.0
  C  C67  1  0.04740000  0.50753000  0.73810000  1.0
  C  C68  1  0.20429000  0.65359000  0.19516000  1.0
  C  C69  1  0.79570000  0.34641000  0.80484000  1.0
  C  C70  1  0.06811000  0.34666000  0.43107000  1.0
  C  C71  1  0.93188000  0.65334000  0.56893000  1.0
  O  O72  1  0.45417000  0.93910000  0.09644000  1.0
  O  O73  1  0.54583000  0.06090000  0.90356000  1.0
  O  O74  1  0.14345000  0.07167000  0.05693000  1.0
  O  O75  1  0.85655000  0.92834000  0.94307000  1.0
  O  O76  1  0.58048000  0.20505000  0.08059000  1.0
  O  O77  1  0.41953000  0.79494000  0.91941000  1.0
  O  O78  1  0.21976000  0.87414000  0.47233000  1.0
  O  O79  1  0.78024000  0.12586000  0.52767000  1.0
  O  O80  1  0.85163000  0.77605000  0.41456000  1.0
  O  O81  1  0.14836000  0.22395000  0.58544000  1.0
  O  O82  1  0.25080000  0.62163000  0.04643000  1.0
  O  O83  1  0.74920000  0.37837000  0.95357000  1.0
  O  O84  1  0.53169000  0.49871000  0.11506000  1.0
  O  O85  1  0.46831000  0.50129000  0.88494000  1.0
  O  O86  1  0.08904000  0.38661000  0.08829000  1.0
  O  O87  1  0.91096000  0.61339000  0.91171000  1.0
  O  O88  1  0.24585000  0.36360000  0.48279000  1.0
  O  O89  1  0.75415000  0.63641000  0.51721000  1.0
  O  O90  1  0.87156000  0.26679000  0.43005000  1.0
  O  O91  1  0.12844000  0.73322000  0.56996000  1.0
  O  O92  1  0.79982000  0.76863000  0.08081000  1.0
  O  O93  1  0.20017000  0.23137000  0.91919000  1.0
