# generated using pymatgen
data_MnH9(CN)9
_symmetry_space_group_name_H-M   'P 1'
_cell_length_a   10.10270000
_cell_length_b   10.10270000
_cell_length_c   12.29830000
_cell_angle_alpha   102.65000000
_cell_angle_beta   102.65000000
_cell_angle_gamma   91.99810000
_symmetry_Int_Tables_number   1
_chemical_formula_structural   MnH9(CN)9
_chemical_formula_sum   'Mn4 H36 C36 N36'
_cell_volume   1190.49077606
_cell_formula_units_Z   4
loop_
 _symmetry_equiv_pos_site_id
 _symmetry_equiv_pos_as_xyz
  1  'x, y, z'
loop_
 _atom_site_type_symbol
 _atom_site_label
 _atom_site_symmetry_multiplicity
 _atom_site_fract_x
 _atom_site_fract_y
 _atom_site_fract_z
 _atom_site_occupancy
  Mn  Mn0  1  0.93270000  0.19848000  0.15238000  1.0
  Mn  Mn1  1  0.80151000  0.06730000  0.34762000  1.0
  Mn  Mn2  1  0.06730000  0.80152000  0.84763000  1.0
  Mn  Mn3  1  0.19848000  0.93270000  0.65238000  1.0
  H  H4  1  0.62590000  0.21743000  0.06852000  1.0
  H  H5  1  0.78257000  0.37410000  0.43149000  1.0
  H  H6  1  0.37411000  0.78256000  0.93149000  1.0
  H  H7  1  0.21743000  0.62589000  0.56852000  1.0
  H  H8  1  0.44575000  0.37662000  0.06364000  1.0
  H  H9  1  0.62338000  0.55426000  0.43637000  1.0
  H  H10  1  0.55425000  0.62337000  0.93636000  1.0
  H  H11  1  0.37661000  0.44574000  0.56364000  1.0
  H  H12  1  0.51106000  0.62739000  0.15472000  1.0
  H  H13  1  0.37261000  0.48895000  0.34529000  1.0
  H  H14  1  0.48894000  0.37260000  0.84528000  1.0
  H  H15  1  0.62739000  0.51105000  0.65471000  1.0
  H  H16  1  0.75770000  0.70187000  0.24778000  1.0
  H  H17  1  0.29813000  0.24231000  0.25222000  1.0
  H  H18  1  0.24230000  0.29812000  0.75221000  1.0
  H  H19  1  0.70187000  0.75769000  0.74778000  1.0
  H  H20  1  0.97844000  0.64985000  0.30492000  1.0
  H  H21  1  0.35015000  0.02157000  0.19509000  1.0
  H  H22  1  0.02156000  0.35015000  0.69508000  1.0
  H  H23  1  0.64985000  0.97843000  0.80491000  1.0
  H  H24  1  0.99347000  0.49183000  0.34414000  1.0
  H  H25  1  0.50817000  0.00653000  0.15587000  1.0
  H  H26  1  0.00653000  0.50817000  0.65587000  1.0
  H  H27  1  0.49183000  0.99347000  0.84413000  1.0
  H  H28  1  0.11498000  0.69758000  0.16894000  1.0
  H  H29  1  0.30241000  0.88503000  0.33107000  1.0
  H  H30  1  0.88502000  0.30242000  0.83106000  1.0
  H  H31  1  0.69758000  0.11498000  0.66893000  1.0
  H  H32  1  0.25796000  0.54270000  0.02997000  1.0
  H  H33  1  0.45730000  0.74205000  0.47004000  1.0
  H  H34  1  0.74204000  0.45730000  0.97003000  1.0
  H  H35  1  0.54270000  0.25796000  0.52996000  1.0
  H  H36  1  0.19613000  0.27937000  0.04466000  1.0
  H  H37  1  0.72063000  0.80387000  0.45534000  1.0
  H  H38  1  0.80388000  0.72063000  0.95534000  1.0
  H  H39  1  0.27937000  0.19613000  0.54466000  1.0
  C  C40  1  0.65107000  0.32547000  0.10828000  1.0
  C  C41  1  0.67453000  0.34893000  0.39173000  1.0
  C  C42  1  0.34893000  0.67452000  0.89172000  1.0
  C  C43  1  0.32547000  0.65107000  0.60828000  1.0
  C  C44  1  0.55035000  0.41594000  0.10499000  1.0
  C  C45  1  0.58406000  0.44965000  0.39501000  1.0
  C  C46  1  0.44965000  0.58405000  0.89501000  1.0
  C  C47  1  0.41594000  0.55035000  0.60499000  1.0
  C  C48  1  0.58723000  0.55357000  0.15547000  1.0
  C  C49  1  0.44643000  0.41278000  0.34453000  1.0
  C  C50  1  0.41278000  0.44642000  0.84453000  1.0
  C  C51  1  0.55357000  0.58721000  0.65547000  1.0
  C  C52  1  0.72338000  0.59541000  0.20778000  1.0
  C  C53  1  0.40459000  0.27662000  0.29222000  1.0
  C  C54  1  0.27662000  0.40459000  0.79222000  1.0
  C  C55  1  0.59541000  0.72338000  0.70778000  1.0
  C  C56  1  0.81756000  0.49770000  0.21034000  1.0
  C  C57  1  0.50229000  0.18245000  0.28967000  1.0
  C  C58  1  0.18244000  0.50229000  0.78966000  1.0
  C  C59  1  0.49770000  0.81755000  0.71034000  1.0
  C  C60  1  0.96450000  0.53957000  0.27135000  1.0
  C  C61  1  0.46043000  0.03550000  0.22866000  1.0
  C  C62  1  0.03550000  0.46043000  0.72865000  1.0
  C  C63  1  0.53957000  0.96450000  0.77134000  1.0
  C  C64  1  0.12356000  0.58870000  0.15052000  1.0
  C  C65  1  0.41130000  0.87644000  0.34948000  1.0
  C  C66  1  0.87644000  0.41130000  0.84948000  1.0
  C  C67  1  0.58870000  0.12356000  0.65051000  1.0
  C  C68  1  0.19370000  0.50791000  0.07960000  1.0
  C  C69  1  0.49209000  0.80630000  0.42040000  1.0
  C  C70  1  0.80630000  0.49209000  0.92040000  1.0
  C  C71  1  0.50791000  0.19370000  0.57960000  1.0
  C  C72  1  0.16167000  0.37391000  0.08602000  1.0
  C  C73  1  0.62609000  0.83833000  0.41398000  1.0
  C  C74  1  0.83833000  0.62609000  0.91398000  1.0
  C  C75  1  0.37391000  0.16167000  0.58602000  1.0
  N  N76  1  0.78248000  0.36457000  0.16074000  1.0
  N  N77  1  0.63542000  0.21752000  0.33927000  1.0
  N  N78  1  0.21753000  0.63542000  0.83927000  1.0
  N  N79  1  0.36457000  0.78248000  0.66073000  1.0
  N  N80  1  0.05659000  0.50426000  0.19601000  1.0
  N  N81  1  0.49574000  0.94341000  0.30399000  1.0
  N  N82  1  0.94341000  0.49574000  0.80399000  1.0
  N  N83  1  0.50426000  0.05659000  0.69600000  1.0
  N  N84  1  0.07791000  0.37212000  0.15728000  1.0
  N  N85  1  0.62787000  0.92209000  0.34272000  1.0
  N  N86  1  0.92209000  0.62788000  0.84272000  1.0
  N  N87  1  0.37212000  0.07791000  0.65728000  1.0
  N  N88  1  0.10117000  0.06876000  0.15123000  1.0
  N  N89  1  0.93123000  0.89883000  0.34877000  1.0
  N  N90  1  0.89884000  0.93123000  0.84877000  1.0
  N  N91  1  0.06876000  0.10117000  0.65123000  1.0
  N  N92  1  0.11353000  0.96246000  0.09219000  1.0
  N  N93  1  0.03754000  0.88648000  0.40781000  1.0
  N  N94  1  0.88648000  0.03754000  0.90781000  1.0
  N  N95  1  0.96246000  0.11352000  0.59219000  1.0
  N  N96  1  0.13049000  0.85569000  0.03569000  1.0
  N  N97  1  0.14431000  0.86951000  0.46431000  1.0
  N  N98  1  0.86951000  0.14431000  0.96431000  1.0
  N  N99  1  0.85569000  0.13048000  0.53569000  1.0
  N  N100  1  0.78074000  0.04167000  0.16075000  1.0
  N  N101  1  0.95833000  0.21927000  0.33925000  1.0
  N  N102  1  0.21927000  0.95833000  0.83925000  1.0
  N  N103  1  0.04167000  0.78074000  0.66075000  1.0
  N  N104  1  0.71155000  0.95317000  0.08574000  1.0
  N  N105  1  0.04683000  0.28845000  0.41426000  1.0
  N  N106  1  0.28846000  0.04684000  0.91427000  1.0
  N  N107  1  0.95317000  0.71155000  0.58574000  1.0
  N  N108  1  0.64204000  0.86775000  0.01392000  1.0
  N  N109  1  0.13225000  0.35796000  0.48608000  1.0
  N  N110  1  0.35796000  0.13225000  0.98607000  1.0
  N  N111  1  0.86775000  0.64205000  0.51393000  1.0
