# generated using pymatgen
data_Na2H8C6S2O11
_symmetry_space_group_name_H-M   'P 1'
_cell_length_a   7.00279000
_cell_length_b   9.22568000
_cell_length_c   10.47600000
_cell_angle_alpha   68.46480000
_cell_angle_beta   76.89290000
_cell_angle_gamma   67.81460000
_symmetry_Int_Tables_number   1
_chemical_formula_structural   Na2H8C6S2O11
_chemical_formula_sum   'Na4 H16 C12 S4 O22'
_cell_volume   579.89056138
_cell_formula_units_Z   2
loop_
 _symmetry_equiv_pos_site_id
 _symmetry_equiv_pos_as_xyz
  1  'x, y, z'
loop_
 _atom_site_type_symbol
 _atom_site_label
 _atom_site_symmetry_multiplicity
 _atom_site_fract_x
 _atom_site_fract_y
 _atom_site_fract_z
 _atom_site_occupancy
  Na  Na0  1  0.78259000  0.04841000  0.32677000  1.0
  Na  Na1  1  0.21741000  0.95159000  0.67323000  1.0
  Na  Na2  1  0.60429000  0.77853000  0.23285000  1.0
  Na  Na3  1  0.39571000  0.22147000  0.76715000  1.0
  H  H4  1  0.14001000  0.43826000  0.34157000  1.0
  H  H5  1  0.85999000  0.56174000  0.65843000  1.0
  H  H6  1  0.23822000  0.10368000  0.07802000  1.0
  H  H7  1  0.76177000  0.89632000  0.92198000  1.0
  H  H8  1  0.28502000  0.58323000  0.74738000  1.0
  H  H9  1  0.71498000  0.41677000  0.25262000  1.0
  H  H10  1  0.25998000  0.81930000  0.95005000  1.0
  H  H11  1  0.74003000  0.18070000  0.04995000  1.0
  H  H12  1  0.58402000  0.30474000  0.46014000  1.0
  H  H13  1  0.41597000  0.69526000  0.53986000  1.0
  H  H14  1  0.82699000  0.24790000  0.46280000  1.0
  H  H15  1  0.17301000  0.75211000  0.53719000  1.0
  H  H16  1  0.71308000  0.52298000  0.53212000  1.0
  H  H17  1  0.28693000  0.47702000  0.46788000  1.0
  H  H18  1  0.72368000  0.70377000  0.49165000  1.0
  H  H19  1  0.27632000  0.29623000  0.50835000  1.0
  C  C20  1  0.18940000  0.59388000  0.13648000  1.0
  C  C21  1  0.81060000  0.40612000  0.86352000  1.0
  C  C22  1  0.18048000  0.44622000  0.23378000  1.0
  C  C23  1  0.81952000  0.55378000  0.76622000  1.0
  C  C24  1  0.22088000  0.30847000  0.19478000  1.0
  C  C25  1  0.77912000  0.69153000  0.80522000  1.0
  C  C26  1  0.25354000  0.32109000  0.05421000  1.0
  C  C27  1  0.74646000  0.67891000  0.94579000  1.0
  C  C28  1  0.26303000  0.47100000  0.95361000  1.0
  C  C29  1  0.73696000  0.52900000  0.04639000  1.0
  C  C30  1  0.23737000  0.60698000  0.99538000  1.0
  C  C31  1  0.76263000  0.39302000  0.00462000  1.0
  S  S32  1  0.14678000  0.75776000  0.20038000  1.0
  S  S33  1  0.85322000  0.24224000  0.79962000  1.0
  S  S34  1  0.24983000  0.11750000  0.32467000  1.0
  S  S35  1  0.75017000  0.88251000  0.67533000  1.0
  O  O36  1  0.28063000  0.19467000  0.00709000  1.0
  O  O37  1  0.71936000  0.80533000  0.99291000  1.0
  O  O38  1  0.30338000  0.47232000  0.82031000  1.0
  O  O39  1  0.69662000  0.52767000  0.17969000  1.0
  O  O40  1  0.25871000  0.74728000  0.89797000  1.0
  O  O41  1  0.74130000  0.25272000  0.10203000  1.0
  O  O42  1  0.92177000  0.84089000  0.21679000  1.0
  O  O43  1  0.07823000  0.15911000  0.78321000  1.0
  O  O44  1  0.23914000  0.68219000  0.33231000  1.0
  O  O45  1  0.76086000  0.31782000  0.66768000  1.0
  O  O46  1  0.25750000  0.86487000  0.09292000  1.0
  O  O47  1  0.74250000  0.13513000  0.90707000  1.0
  O  O48  1  0.18441000  0.15632000  0.45611000  1.0
  O  O49  1  0.81559000  0.84368000  0.54389000  1.0
  O  O50  1  0.47104000  0.01840000  0.31150000  1.0
  O  O51  1  0.52896000  0.98160000  0.68850000  1.0
  O  O52  1  0.11871000  0.04295000  0.29756000  1.0
  O  O53  1  0.88128000  0.95705000  0.70244000  1.0
  O  O54  1  0.72049000  0.27219000  0.40450000  1.0
  O  O55  1  0.27952000  0.72780000  0.59550000  1.0
  O  O56  1  0.66340000  0.63648000  0.46871000  1.0
  O  O57  1  0.33661000  0.36352000  0.53129000  1.0
