# generated using pymatgen
data_ZnH13C17NClO4
_symmetry_space_group_name_H-M   'P 1'
_cell_length_a   11.56730000
_cell_length_b   11.56730000
_cell_length_c   14.57280000
_cell_angle_alpha   68.87510000
_cell_angle_beta   68.87500000
_cell_angle_gamma   68.06940000
_symmetry_Int_Tables_number   1
_chemical_formula_structural   ZnH13C17NClO4
_chemical_formula_sum   'Zn4 H52 C68 N4 Cl4 O16'
_cell_volume   1628.76321365
_cell_formula_units_Z   4
loop_
 _symmetry_equiv_pos_site_id
 _symmetry_equiv_pos_as_xyz
  1  'x, y, z'
loop_
 _atom_site_type_symbol
 _atom_site_label
 _atom_site_symmetry_multiplicity
 _atom_site_fract_x
 _atom_site_fract_y
 _atom_site_fract_z
 _atom_site_occupancy
  Zn  Zn0  1  0.37023000  0.73394000  0.17987000  1.0
  Zn  Zn1  1  0.73394000  0.37023000  0.67987000  1.0
  Zn  Zn2  1  0.36647000  0.00468000  0.09986000  1.0
  Zn  Zn3  1  0.00467000  0.36647000  0.59986000  1.0
  H  H4  1  0.56618000  0.47846000  0.17957000  1.0
  H  H5  1  0.47845000  0.56618000  0.67958000  1.0
  H  H6  1  0.57010000  0.24656000  0.24887000  1.0
  H  H7  1  0.24656000  0.57010000  0.74887000  1.0
  H  H8  1  0.15364000  0.37070000  0.34752000  1.0
  H  H9  1  0.37070000  0.15364000  0.84752000  1.0
  H  H10  1  0.16648000  0.59775000  0.27233000  1.0
  H  H11  1  0.59775000  0.16648000  0.77234000  1.0
  H  H12  1  0.55730000  0.16045000  0.00187000  1.0
  H  H13  1  0.16045000  0.55730000  0.50187000  1.0
  H  H14  1  0.55203000  0.39235000  0.94408000  1.0
  H  H15  1  0.39235000  0.55203000  0.44408000  1.0
  H  H16  1  0.16145000  0.24534000  0.12411000  1.0
  H  H17  1  0.24534000  0.16145000  0.62411000  1.0
  H  H18  1  0.13871000  0.48219000  0.07202000  1.0
  H  H19  1  0.48220000  0.13871000  0.57202000  1.0
  H  H20  1  0.39681000  0.62337000  0.99301000  1.0
  H  H21  1  0.62337000  0.39681000  0.49301000  1.0
  H  H22  1  0.23459000  0.65841000  0.99077000  1.0
  H  H23  1  0.65841000  0.23459000  0.49077000  1.0
  H  H24  1  0.36425000  0.62888000  0.88185000  1.0
  H  H25  1  0.62888000  0.36425000  0.38185000  1.0
  H  H26  1  0.27501000  0.14102000  0.41623000  1.0
  H  H27  1  0.14102000  0.27501000  0.91623000  1.0
  H  H28  1  0.44694000  0.08914000  0.37478000  1.0
  H  H29  1  0.08914000  0.44694000  0.87478000  1.0
  H  H30  1  0.35301000  0.11062000  0.29428000  1.0
  H  H31  1  0.11062000  0.35301000  0.79428000  1.0
  H  H32  1  0.12500000  0.10375000  0.88532000  1.0
  H  H33  1  0.10375000  0.12500000  0.38532000  1.0
  H  H34  1  0.98926000  0.81327000  0.14362000  1.0
  H  H35  1  0.81327000  0.98926000  0.64362000  1.0
  H  H36  1  0.78560000  0.87841000  0.09078000  1.0
  H  H37  1  0.87841000  0.78560000  0.59078000  1.0
  H  H38  1  0.75139000  0.06236000  0.93799000  1.0
  H  H39  1  0.06236000  0.75139000  0.43799000  1.0
  H  H40  1  0.59610000  0.65673000  0.86544000  1.0
  H  H41  1  0.65673000  0.59610000  0.36544000  1.0
  H  H42  1  0.99814000  0.63097000  0.72687000  1.0
  H  H43  1  0.63097000  0.99814000  0.22687000  1.0
  H  H44  1  0.98119000  0.79434000  0.81082000  1.0
  H  H45  1  0.79434000  0.98119000  0.31082000  1.0
  H  H46  1  0.76845000  0.88892000  0.91934000  1.0
  H  H47  1  0.88892000  0.76845000  0.41934000  1.0
  H  H48  1  0.15465000  0.89927000  0.77483000  1.0
  H  H49  1  0.89927000  0.15464000  0.27483000  1.0
  H  H50  1  0.53104000  0.81299000  0.48036000  1.0
  H  H51  1  0.81299000  0.53104000  0.98036000  1.0
  H  H52  1  0.31932000  0.79524000  0.48821000  1.0
  H  H53  1  0.79524000  0.31932000  0.98821000  1.0
  H  H54  1  0.12967000  0.84071000  0.63501000  1.0
  H  H55  1  0.84071000  0.12967000  0.13501000  1.0
  C  C56  1  0.47698000  0.44992000  0.21688000  1.0
  C  C57  1  0.44992000  0.47698000  0.71688000  1.0
  C  C58  1  0.47787000  0.32103000  0.25573000  1.0
  C  C59  1  0.32103000  0.47787000  0.75573000  1.0
  C  C60  1  0.36139000  0.28779000  0.30494000  1.0
  C  C61  1  0.28779000  0.36139000  0.80494000  1.0
  C  C62  1  0.24733000  0.38975000  0.30969000  1.0
  C  C63  1  0.38975000  0.24734000  0.80969000  1.0
  C  C64  1  0.25348000  0.51653000  0.26873000  1.0
  C  C65  1  0.51653000  0.25348000  0.76874000  1.0
  C  C66  1  0.46666000  0.23533000  0.01598000  1.0
  C  C67  1  0.23533000  0.46666000  0.51598000  1.0
  C  C68  1  0.46259000  0.36487000  0.98451000  1.0
  C  C69  1  0.36487000  0.46259000  0.48451000  1.0
  C  C70  1  0.34339000  0.45864000  0.00231000  1.0
  C  C71  1  0.45864000  0.34339000  0.50231000  1.0
  C  C72  1  0.24505000  0.28286000  0.08379000  1.0
  C  C73  1  0.28286000  0.24505000  0.58379000  1.0
  C  C74  1  0.81124000  0.54411000  0.73369000  1.0
  C  C75  1  0.54411000  0.81124000  0.23369000  1.0
  C  C76  1  0.18229000  0.92494000  0.05857000  1.0
  C  C77  1  0.92494000  0.18229000  0.55857000  1.0
  C  C78  1  0.91495000  0.19481000  0.80625000  1.0
  C  C79  1  0.19481000  0.91495000  0.30625000  1.0
  C  C80  1  0.93715000  0.09120000  0.90105000  1.0
  C  C81  1  0.09120000  0.93715000  0.40105000  1.0
  C  C82  1  0.55061000  0.82423000  0.97847000  1.0
  C  C83  1  0.82423000  0.55061000  0.47848000  1.0
  C  C84  1  0.67025000  0.77768000  0.90073000  1.0
  C  C85  1  0.77768000  0.67025000  0.40073000  1.0
  C  C86  1  0.23367000  0.41413000  0.05459000  1.0
  C  C87  1  0.41413000  0.23367000  0.55459000  1.0
  C  C88  1  0.33356000  0.59970000  0.96566000  1.0
  C  C89  1  0.59969000  0.33356000  0.46566000  1.0
  C  C90  1  0.35888000  0.14998000  0.35045000  1.0
  C  C91  1  0.14998000  0.35888000  0.85045000  1.0
  C  C92  1  0.06750000  0.95702000  0.01965000  1.0
  C  C93  1  0.95702000  0.06750000  0.51965000  1.0
  C  C94  1  0.05048000  0.05502000  0.93077000  1.0
  C  C95  1  0.05502000  0.05048000  0.43077000  1.0
  C  C96  1  0.97341000  0.89102000  0.07579000  1.0
  C  C97  1  0.89102000  0.97341000  0.57579000  1.0
  C  C98  1  0.85979000  0.92802000  0.04658000  1.0
  C  C99  1  0.92802000  0.85979000  0.54658000  1.0
  C  C100  1  0.84043000  0.02986000  0.96112000  1.0
  C  C101  1  0.02986000  0.84044000  0.46112000  1.0
  C  C102  1  0.79766000  0.63778000  0.78862000  1.0
  C  C103  1  0.63778000  0.79766000  0.28862000  1.0
  C  C104  1  0.67974000  0.68796000  0.85287000  1.0
  C  C105  1  0.68796000  0.67974000  0.35287000  1.0
  C  C106  1  0.90695000  0.67411000  0.77534000  1.0
  C  C107  1  0.67411000  0.90695000  0.27534000  1.0
  C  C108  1  0.89694000  0.76487000  0.82164000  1.0
  C  C109  1  0.76487000  0.89694000  0.32164000  1.0
  C  C110  1  0.77813000  0.81817000  0.88252000  1.0
  C  C111  1  0.81817000  0.77813000  0.38252000  1.0
  C  C112  1  0.35578000  0.88711000  0.70616000  1.0
  C  C113  1  0.88711000  0.35578000  0.20616000  1.0
  C  C114  1  0.46143000  0.86466000  0.62215000  1.0
  C  C115  1  0.86466000  0.46143000  0.12215000  1.0
  C  C116  1  0.23642000  0.87826000  0.71036000  1.0
  C  C117  1  0.87826000  0.23642000  0.21036000  1.0
  C  C118  1  0.44786000  0.83089000  0.54444000  1.0
  C  C119  1  0.83089000  0.44786000  0.04444000  1.0
  C  C120  1  0.32918000  0.82085000  0.54953000  1.0
  C  C121  1  0.82085000  0.32918000  0.04953000  1.0
  C  C122  1  0.22330000  0.84547000  0.63212000  1.0
  C  C123  1  0.84547000  0.22330000  0.13212000  1.0
  N  N124  1  0.36647000  0.54673000  0.22394000  1.0
  N  N125  1  0.54673000  0.36647000  0.72394000  1.0
  N  N126  1  0.35974000  0.19431000  0.06396000  1.0
  N  N127  1  0.19431000  0.35974000  0.56396000  1.0
  Cl  Cl128  1  0.37099000  0.92648000  0.80382000  1.0
  Cl  Cl129  1  0.92648000  0.37099000  0.30382000  1.0
  Cl  Cl130  1  0.60820000  0.88065000  0.61207000  1.0
  Cl  Cl131  1  0.88066000  0.60820000  0.11207000  1.0
  O  O132  1  0.52424000  0.93848000  0.98526000  1.0
  O  O133  1  0.93848000  0.52424000  0.48526000  1.0
  O  O134  1  0.48747000  0.74236000  0.03466000  1.0
  O  O135  1  0.74236000  0.48747000  0.53466000  1.0
  O  O136  1  0.92700000  0.48960000  0.69121000  1.0
  O  O137  1  0.48960000  0.92700000  0.19121000  1.0
  O  O138  1  0.70970000  0.52612000  0.73273000  1.0
  O  O139  1  0.52612000  0.70970000  0.23273000  1.0
  O  O140  1  0.24332000  0.01007000  0.02573000  1.0
  O  O141  1  0.01007000  0.24332000  0.52573000  1.0
  O  O142  1  0.20788000  0.81679000  0.12324000  1.0
  O  O143  1  0.81679000  0.20788000  0.62324000  1.0
  O  O144  1  0.01319000  0.21327000  0.73321000  1.0
  O  O145  1  0.21327000  0.01319000  0.23321000  1.0
  O  O146  1  0.79705000  0.25505000  0.80718000  1.0
  O  O147  1  0.25505000  0.79706000  0.30718000  1.0
