# generated using pymatgen
data_FeH20(C13N5)2
_symmetry_space_group_name_H-M   'P 1'
_cell_length_a   9.42211000
_cell_length_b   9.42304000
_cell_length_c   14.27810000
_cell_angle_alpha   104.57700000
_cell_angle_beta   92.81130000
_cell_angle_gamma   110.93300000
_symmetry_Int_Tables_number   1
_chemical_formula_structural   FeH20(C13N5)2
_chemical_formula_sum   'Fe2 H40 C52 N20'
_cell_volume   1132.27630210
_cell_formula_units_Z   2
loop_
 _symmetry_equiv_pos_site_id
 _symmetry_equiv_pos_as_xyz
  1  'x, y, z'
loop_
 _atom_site_type_symbol
 _atom_site_label
 _atom_site_symmetry_multiplicity
 _atom_site_fract_x
 _atom_site_fract_y
 _atom_site_fract_z
 _atom_site_occupancy
  Fe  Fe0  1  0.00000000  0.50000000  0.00000000  1.0
  Fe  Fe1  1  0.50000000  0.50001000  0.50000000  1.0
  H  H2  1  0.39429000  0.13978000  0.00583000  1.0
  H  H3  1  0.60571000  0.86022000  0.99417000  1.0
  H  H4  1  0.49179000  0.42772000  0.10531000  1.0
  H  H5  1  0.50821000  0.57228000  0.89469000  1.0
  H  H6  1  0.32462000  0.58070000  0.09987000  1.0
  H  H7  1  0.67537000  0.41930000  0.90013000  1.0
  H  H8  1  0.52073000  0.15988000  0.71339000  1.0
  H  H9  1  0.47927000  0.84012000  0.28661000  1.0
  H  H10  1  0.33131000  0.99086000  0.56102000  1.0
  H  H11  1  0.66869000  0.00914000  0.43898000  1.0
  H  H12  1  0.33438000  0.72419000  0.47688000  1.0
  H  H13  1  0.66562000  0.27580000  0.52312000  1.0
  H  H14  1  0.68167000  0.78007000  0.69054000  1.0
  H  H15  1  0.31834000  0.21993000  0.30945000  1.0
  H  H16  1  0.19720000  0.91395000  0.90140000  1.0
  H  H17  1  0.80280000  0.08605000  0.09860000  1.0
  H  H18  1  0.10406000  0.95977000  0.80806000  1.0
  H  H19  1  0.89594000  0.04023000  0.19194000  1.0
  H  H20  1  0.00399000  0.90402000  0.90100000  1.0
  H  H21  1  0.99600000  0.09598000  0.09900000  1.0
  H  H22  1  0.90933000  0.83453000  0.25548000  1.0
  H  H23  1  0.09068000  0.16547000  0.74452000  1.0
  H  H24  1  0.62461000  0.70833000  0.19713000  1.0
  H  H25  1  0.37540000  0.29168000  0.80287000  1.0
  H  H26  1  0.45169000  0.56585000  0.30241000  1.0
  H  H27  1  0.54832000  0.43416000  0.69759000  1.0
  H  H28  1  0.23249000  0.70734000  0.66389000  1.0
  H  H29  1  0.76750000  0.29266000  0.33611000  1.0
  H  H30  1  0.41531000  0.73358000  0.80797000  1.0
  H  H31  1  0.58469000  0.26642000  0.19203000  1.0
  H  H32  1  0.30681000  0.65004000  0.95115000  1.0
  H  H33  1  0.69319000  0.34996000  0.04885000  1.0
  H  H34  1  0.86021000  0.49123000  0.80847000  1.0
  H  H35  1  0.13979000  0.50877000  0.19153000  1.0
  H  H36  1  0.09318000  0.80949000  0.48674000  1.0
  H  H37  1  0.90682000  0.19050000  0.51326000  1.0
  H  H38  1  0.10649000  0.95436000  0.42296000  1.0
  H  H39  1  0.89352000  0.04564000  0.57704000  1.0
  H  H40  1  0.12226000  0.77366000  0.36203000  1.0
  H  H41  1  0.87775000  0.22634000  0.63797000  1.0
  C  C42  1  0.94064000  0.18359000  0.89632000  1.0
  C  C43  1  0.05936000  0.81641000  0.10368000  1.0
  C  C44  1  0.73403000  0.08331000  0.79804000  1.0
  C  C45  1  0.26597000  0.91669000  0.20196000  1.0
  C  C46  1  0.09244000  0.23515000  0.94991000  1.0
  C  C47  1  0.90755000  0.76485000  0.05009000  1.0
  C  C48  1  0.17940000  0.14019000  0.94753000  1.0
  C  C49  1  0.82060000  0.85981000  0.05247000  1.0
  C  C50  1  0.32494000  0.21083000  0.00476000  1.0
  C  C51  1  0.67506000  0.78917000  0.99525000  1.0
  C  C52  1  0.37915000  0.36952000  0.05997000  1.0
  C  C53  1  0.62085000  0.63048000  0.94004000  1.0
  C  C54  1  0.28730000  0.45614000  0.05756000  1.0
  C  C55  1  0.71269000  0.54386000  0.94244000  1.0
  C  C56  1  0.61554000  0.98320000  0.71411000  1.0
  C  C57  1  0.38446000  0.01680000  0.28588000  1.0
  C  C58  1  0.51400000  0.04120000  0.67670000  1.0
  C  C59  1  0.48600000  0.95880000  0.32330000  1.0
  C  C60  1  0.41068000  0.94831000  0.59186000  1.0
  C  C61  1  0.58932000  0.05168000  0.40814000  1.0
  C  C62  1  0.41085000  0.79969000  0.54484000  1.0
  C  C63  1  0.58916000  0.20031000  0.45516000  1.0
  C  C64  1  0.60597000  0.83064000  0.66394000  1.0
  C  C65  1  0.39403000  0.16936000  0.33606000  1.0
  C  C66  1  0.11863000  0.97045000  0.88670000  1.0
  C  C67  1  0.88137000  0.02954000  0.11330000  1.0
  C  C68  1  0.82866000  0.63453000  0.52568000  1.0
  C  C69  1  0.17134000  0.36547000  0.47432000  1.0
  C  C70  1  0.92203000  0.59718000  0.64990000  1.0
  C  C71  1  0.07797000  0.40282000  0.35010000  1.0
  C  C72  1  0.78910000  0.66775000  0.43623000  1.0
  C  C73  1  0.21090000  0.33225000  0.56377000  1.0
  C  C74  1  0.89270000  0.75290000  0.38349000  1.0
  C  C75  1  0.10730000  0.24710000  0.61651000  1.0
  C  C76  1  0.83112000  0.76781000  0.29697000  1.0
  C  C77  1  0.16889000  0.23219000  0.70303000  1.0
  C  C78  1  0.67333000  0.69850000  0.26496000  1.0
  C  C79  1  0.32667000  0.30150000  0.73505000  1.0
  C  C80  1  0.57692000  0.61844000  0.32177000  1.0
  C  C81  1  0.42308000  0.38157000  0.67823000  1.0
  C  C82  1  0.03230000  0.60231000  0.72720000  1.0
  C  C83  1  0.96770000  0.39769000  0.27280000  1.0
  C  C84  1  0.19120000  0.66717000  0.72607000  1.0
  C  C85  1  0.80879000  0.33283000  0.27394000  1.0
  C  C86  1  0.29134000  0.68191000  0.80604000  1.0
  C  C87  1  0.70866000  0.31809000  0.19396000  1.0
  C  C88  1  0.23257000  0.63374000  0.88531000  1.0
  C  C89  1  0.76743000  0.36626000  0.11469000  1.0
  C  C90  1  0.98246000  0.54823000  0.80722000  1.0
  C  C91  1  0.01754000  0.45177000  0.19278000  1.0
  C  C92  1  0.06337000  0.82683000  0.41663000  1.0
  C  C93  1  0.93664000  0.17316000  0.58337000  1.0
  N  N94  1  0.87427000  0.29268000  0.91196000  1.0
  N  N95  1  0.12573000  0.70732000  0.08804000  1.0
  N  N96  1  0.74105000  0.22892000  0.84954000  1.0
  N  N97  1  0.25895000  0.77108000  0.15046000  1.0
  N  N98  1  0.85552000  0.04969000  0.82536000  1.0
  N  N99  1  0.14448000  0.95030000  0.17464000  1.0
  N  N100  1  0.14559000  0.39146000  0.00429000  1.0
  N  N101  1  0.85441000  0.60854000  0.99571000  1.0
  N  N102  1  0.50639000  0.74220000  0.58125000  1.0
  N  N103  1  0.49361000  0.25780000  0.41874000  1.0
  N  N104  1  0.70786000  0.55506000  0.56655000  1.0
  N  N105  1  0.29214000  0.44494000  0.43345000  1.0
  N  N106  1  0.76721000  0.53084000  0.64648000  1.0
  N  N107  1  0.23278000  0.46916000  0.35352000  1.0
  N  N108  1  0.96497000  0.66334000  0.57651000  1.0
  N  N109  1  0.03503000  0.33667000  0.42349000  1.0
  N  N110  1  0.63268000  0.60448000  0.40602000  1.0
  N  N111  1  0.36732000  0.39553000  0.59398000  1.0
  N  N112  1  0.07958000  0.56567000  0.88555000  1.0
  N  N113  1  0.92041000  0.43433000  0.11445000  1.0
