# generated using pymatgen
data_CuP2H10C10IO2
_symmetry_space_group_name_H-M   'P 1'
_cell_length_a   4.10077000
_cell_length_b   7.24584000
_cell_length_c   11.20619783
_cell_angle_alpha   108.85400188
_cell_angle_beta   92.22950665
_cell_angle_gamma   90.04620000
_symmetry_Int_Tables_number   1
_chemical_formula_structural   CuP2H10C10IO2
_chemical_formula_sum   'Cu1 P2 H10 C10 I1 O2'
_cell_volume   314.83980225
_cell_formula_units_Z   1
loop_
 _symmetry_equiv_pos_site_id
 _symmetry_equiv_pos_as_xyz
  1  'x, y, z'
loop_
 _atom_site_type_symbol
 _atom_site_label
 _atom_site_symmetry_multiplicity
 _atom_site_fract_x
 _atom_site_fract_y
 _atom_site_fract_z
 _atom_site_occupancy
  Cu  Cu0  1  0.49964000  0.39916000  0.99998000  1.0
  P  P1  1  0.45352000  0.31501000  0.17015000  1.0
  P  P2  1  0.54630000  0.14509000  0.82975000  1.0
  H  H3  1  0.08668000  0.45560000  0.48725000  1.0
  H  H4  1  0.91335000  0.96880000  0.51269000  1.0
  H  H5  1  0.30612000  0.14882000  0.49063000  1.0
  H  H6  1  0.69416000  0.65840000  0.50947000  1.0
  H  H7  1  0.58913000  0.92295000  0.31560000  1.0
  H  H8  1  0.41123000  0.60744000  0.68458000  1.0
  H  H9  1  0.69824000  0.99844000  0.12238000  1.0
  H  H10  1  0.30173000  0.87617000  0.87766000  1.0
  H  H11  1  0.11465000  0.64369000  0.23629000  1.0
  H  H12  1  0.88548000  0.40781000  0.76361000  1.0
  C  C13  1  0.24751000  0.44139000  0.30564000  1.0
  C  C14  1  0.75234000  0.13610000  0.69423000  1.0
  C  C15  1  0.21754000  0.36797000  0.40562000  1.0
  C  C16  1  0.78229000  0.96269000  0.59429000  1.0
  C  C17  1  0.34030000  0.18908000  0.40637000  1.0
  C  C18  1  0.65973000  0.78298000  0.59366000  1.0
  C  C19  1  0.50398000  0.06071000  0.30651000  1.0
  C  C20  1  0.49614000  0.75434000  0.69356000  1.0
  C  C21  1  0.56517000  0.10253000  0.19693000  1.0
  C  C22  1  0.43476000  0.90575000  0.80307000  1.0
  I  I23  1  0.99992000  0.63238000  0.00016000  1.0
  O  O24  1  0.11382000  0.61913000  0.31801000  1.0
  O  O25  1  0.88628000  0.30156000  0.68191000  1.0
