# generated using pymatgen
data_CuH5C4S2IN
_symmetry_space_group_name_H-M   'P 1'
_cell_length_a   7.42856000
_cell_length_b   7.43884000
_cell_length_c   14.12150000
_cell_angle_alpha   89.99960000
_cell_angle_beta   89.99970000
_cell_angle_gamma   91.64200000
_symmetry_Int_Tables_number   1
_chemical_formula_structural   CuH5C4S2IN
_chemical_formula_sum   'Cu4 H20 C16 S8 I4 N4'
_cell_volume   780.03181473
_cell_formula_units_Z   4
loop_
 _symmetry_equiv_pos_site_id
 _symmetry_equiv_pos_as_xyz
  1  'x, y, z'
loop_
 _atom_site_type_symbol
 _atom_site_label
 _atom_site_symmetry_multiplicity
 _atom_site_fract_x
 _atom_site_fract_y
 _atom_site_fract_z
 _atom_site_occupancy
  Cu  Cu0  1  0.29567000  0.66319000  0.27954000  1.0
  Cu  Cu1  1  0.20433000  0.33681000  0.77954000  1.0
  Cu  Cu2  1  0.70433000  0.33681000  0.72046000  1.0
  Cu  Cu3  1  0.79567000  0.66318000  0.22046000  1.0
  H  H4  1  0.21563000  0.61368000  0.49050000  1.0
  H  H5  1  0.28438000  0.38634000  0.99050000  1.0
  H  H6  1  0.78438000  0.38632000  0.50950000  1.0
  H  H7  1  0.71560000  0.61366000  0.00951000  1.0
  H  H8  1  0.43798000  0.67508000  0.63754000  1.0
  H  H9  1  0.06205000  0.32493000  0.13754000  1.0
  H  H10  1  0.56204000  0.32491000  0.36246000  1.0
  H  H11  1  0.93793000  0.67509000  0.86246000  1.0
  H  H12  1  0.98636000  0.04384000  0.32314000  1.0
  H  H13  1  0.51366000  0.95616000  0.82314000  1.0
  H  H14  1  0.01365000  0.95616000  0.67686000  1.0
  H  H15  1  0.48633000  0.04384000  0.17686000  1.0
  H  H16  1  0.97682000  0.86444000  0.40811000  1.0
  H  H17  1  0.52319000  0.13556000  0.90811000  1.0
  H  H18  1  0.02318000  0.13556000  0.59189000  1.0
  H  H19  1  0.47679000  0.86443000  0.09188000  1.0
  H  H20  1  0.86259000  0.07464000  0.42977000  1.0
  H  H21  1  0.63744000  0.92536000  0.92978000  1.0
  H  H22  1  0.13741000  0.92535000  0.57023000  1.0
  H  H23  1  0.36255000  0.07464000  0.07022000  1.0
  C  C24  1  0.34914000  0.67779000  0.48765000  1.0
  C  C25  1  0.15088000  0.32222000  0.98766000  1.0
  C  C26  1  0.65088000  0.32221000  0.51235000  1.0
  C  C27  1  0.84910000  0.67778000  0.01234000  1.0
  C  C28  1  0.46033000  0.70864000  0.56332000  1.0
  C  C29  1  0.03968000  0.29138000  0.06333000  1.0
  C  C30  1  0.53968000  0.29136000  0.43668000  1.0
  C  C31  1  0.96031000  0.70863000  0.93667000  1.0
  C  C32  1  0.58391000  0.80264000  0.41078000  1.0
  C  C33  1  0.91611000  0.19739000  0.91078000  1.0
  C  C34  1  0.41609000  0.19737000  0.58922000  1.0
  C  C35  1  0.08389000  0.80262000  0.08922000  1.0
  C  C36  1  0.90305000  0.97572000  0.37689000  1.0
  C  C37  1  0.59696000  0.02427000  0.87689000  1.0
  C  C38  1  0.09695000  0.02427000  0.62311000  1.0
  C  C39  1  0.40303000  0.97572000  0.12310000  1.0
  S  S40  1  0.66093000  0.80500000  0.52637000  1.0
  S  S41  1  0.83909000  0.19500000  0.02638000  1.0
  S  S42  1  0.33909000  0.19500000  0.47362000  1.0
  S  S43  1  0.16089000  0.80500000  0.97362000  1.0
  S  S44  1  0.70686000  0.88966000  0.31516000  1.0
  S  S45  1  0.79315000  0.11035000  0.81516000  1.0
  S  S46  1  0.29314000  0.11034000  0.68484000  1.0
  S  S47  1  0.20684000  0.88965000  0.18484000  1.0
  I  I48  1  0.00874000  0.46953000  0.32486000  1.0
  I  I49  1  0.49127000  0.53047000  0.82486000  1.0
  I  I50  1  0.99126000  0.53047000  0.67514000  1.0
  I  I51  1  0.50873000  0.46953000  0.17515000  1.0
  N  N52  1  0.41927000  0.73013000  0.40103000  1.0
  N  N53  1  0.08075000  0.26989000  0.90103000  1.0
  N  N54  1  0.58074000  0.26987000  0.59897000  1.0
  N  N55  1  0.91924000  0.73010000  0.09897000  1.0
