# generated using pymatgen
data_H4PbC5N2O5
_symmetry_space_group_name_H-M   'P 1'
_cell_length_a   6.71734000
_cell_length_b   8.56674000
_cell_length_c   12.32510000
_cell_angle_alpha   86.01050000
_cell_angle_beta   89.99850000
_cell_angle_gamma   89.99900000
_symmetry_Int_Tables_number   1
_chemical_formula_structural   H4PbC5N2O5
_chemical_formula_sum   'H16 Pb4 C20 N8 O20'
_cell_volume   707.53791328
_cell_formula_units_Z   4
loop_
 _symmetry_equiv_pos_site_id
 _symmetry_equiv_pos_as_xyz
  1  'x, y, z'
loop_
 _atom_site_type_symbol
 _atom_site_label
 _atom_site_symmetry_multiplicity
 _atom_site_fract_x
 _atom_site_fract_y
 _atom_site_fract_z
 _atom_site_occupancy
  H  H0  1  0.28574000  0.08368000  0.06604000  1.0
  H  H1  1  0.78573000  0.41632000  0.43396000  1.0
  H  H2  1  0.71428000  0.91632000  0.93396000  1.0
  H  H3  1  0.21424000  0.58368000  0.56604000  1.0
  H  H4  1  0.97047000  0.58104000  0.10413000  1.0
  H  H5  1  0.47045000  0.91897000  0.39587000  1.0
  H  H6  1  0.02954000  0.41895000  0.89587000  1.0
  H  H7  1  0.52954000  0.08103000  0.60412000  1.0
  H  H8  1  0.95809000  0.76142000  0.09365000  1.0
  H  H9  1  0.45812000  0.73859000  0.40637000  1.0
  H  H10  1  0.04190000  0.23858000  0.90636000  1.0
  H  H11  1  0.54187000  0.26142000  0.59364000  1.0
  H  H12  1  0.23931000  0.14706000  0.40266000  1.0
  H  H13  1  0.73931000  0.35295000  0.09733000  1.0
  H  H14  1  0.76070000  0.85295000  0.59733000  1.0
  H  H15  1  0.26067000  0.64705000  0.90267000  1.0
  Pb  Pb16  1  0.40433000  0.69064000  0.14541000  1.0
  Pb  Pb17  1  0.90430000  0.80931000  0.35461000  1.0
  Pb  Pb18  1  0.59569000  0.30934000  0.85458000  1.0
  Pb  Pb19  1  0.09569000  0.19064000  0.64542000  1.0
  C  C20  1  0.27350000  0.35204000  0.29234000  1.0
  C  C21  1  0.77353000  0.14796000  0.20766000  1.0
  C  C22  1  0.72650000  0.64796000  0.70765000  1.0
  C  C23  1  0.22648000  0.85204000  0.79234000  1.0
  C  C24  1  0.25638000  0.19400000  0.31909000  1.0
  C  C25  1  0.75637000  0.30600000  0.18091000  1.0
  C  C26  1  0.74364000  0.80601000  0.68091000  1.0
  C  C27  1  0.24364000  0.69400000  0.81909000  1.0
  C  C28  1  0.25980000  0.08976000  0.23374000  1.0
  C  C29  1  0.75978000  0.41024000  0.26626000  1.0
  C  C30  1  0.74022000  0.91024000  0.76626000  1.0
  C  C31  1  0.24021000  0.58976000  0.73375000  1.0
  C  C32  1  0.31054000  0.31733000  0.10604000  1.0
  C  C33  1  0.81054000  0.18266000  0.39396000  1.0
  C  C34  1  0.68947000  0.68268000  0.89396000  1.0
  C  C35  1  0.18946000  0.81733000  0.60605000  1.0
  C  C36  1  0.26374000  0.47143000  0.37805000  1.0
  C  C37  1  0.76375000  0.02857000  0.12194000  1.0
  C  C38  1  0.73625000  0.52858000  0.62194000  1.0
  C  C39  1  0.23626000  0.97142000  0.87806000  1.0
  N  N40  1  0.30082000  0.41296000  0.18927000  1.0
  N  N41  1  0.80081000  0.08703000  0.31072000  1.0
  N  N42  1  0.69919000  0.58704000  0.81072000  1.0
  N  N43  1  0.19918000  0.91296000  0.68928000  1.0
  N  N44  1  0.28277000  0.15823000  0.12971000  1.0
  N  N45  1  0.78276000  0.34177000  0.37029000  1.0
  N  N46  1  0.71724000  0.84178000  0.87029000  1.0
  N  N47  1  0.21723000  0.65823000  0.62971000  1.0
  O  O48  1  0.30074000  0.61389000  0.34443000  1.0
  O  O49  1  0.80072000  0.88611000  0.15557000  1.0
  O  O50  1  0.69924000  0.38612000  0.65557000  1.0
  O  O51  1  0.19929000  0.11389000  0.84442000  1.0
  O  O52  1  0.21748000  0.42798000  0.47427000  1.0
  O  O53  1  0.71747000  0.07203000  0.02573000  1.0
  O  O54  1  0.78253000  0.57202000  0.52572000  1.0
  O  O55  1  0.28253000  0.92798000  0.97427000  1.0
  O  O56  1  0.24284000  0.94198000  0.24848000  1.0
  O  O57  1  0.74285000  0.55802000  0.25152000  1.0
  O  O58  1  0.75718000  0.05802000  0.75152000  1.0
  O  O59  1  0.25713000  0.44198000  0.74848000  1.0
  O  O60  1  0.34319000  0.37239000  0.01050000  1.0
  O  O61  1  0.84319000  0.12760000  0.48950000  1.0
  O  O62  1  0.65681000  0.62760000  0.98949000  1.0
  O  O63  1  0.15679000  0.87239000  0.51051000  1.0
  O  O64  1  0.04980000  0.67285000  0.08119000  1.0
  O  O65  1  0.54980000  0.82717000  0.41881000  1.0
  O  O66  1  0.95021000  0.32715000  0.91882000  1.0
  O  O67  1  0.45020000  0.17283000  0.58118000  1.0
