# generated using pymatgen
data_AgH14C11N(OF2)3
_symmetry_space_group_name_H-M   'P 1'
_cell_length_a   5.98346000
_cell_length_b   9.35870000
_cell_length_c   13.51400000
_cell_angle_alpha   89.67630000
_cell_angle_beta   79.99540000
_cell_angle_gamma   76.86320000
_symmetry_Int_Tables_number   1
_chemical_formula_structural   AgH14C11N(OF2)3
_chemical_formula_sum   'Ag2 H28 C22 N2 O6 F12'
_cell_volume   725.28705452
_cell_formula_units_Z   2
loop_
 _symmetry_equiv_pos_site_id
 _symmetry_equiv_pos_as_xyz
  1  'x, y, z'
loop_
 _atom_site_type_symbol
 _atom_site_label
 _atom_site_symmetry_multiplicity
 _atom_site_fract_x
 _atom_site_fract_y
 _atom_site_fract_z
 _atom_site_occupancy
  Ag  Ag0  1  0.70286000  0.51545000  0.43419000  1.0
  Ag  Ag1  1  0.29716000  0.48455000  0.56579000  1.0
  H  H2  1  0.24950000  0.95880000  0.26764000  1.0
  H  H3  1  0.75050000  0.04120000  0.73236000  1.0
  H  H4  1  0.15616000  0.75572000  0.44057000  1.0
  H  H5  1  0.84385000  0.24428000  0.55944000  1.0
  H  H6  1  0.26070000  0.91962000  0.44198000  1.0
  H  H7  1  0.73930000  0.08039000  0.55803000  1.0
  H  H8  1  0.43960000  0.76048000  0.37445000  1.0
  H  H9  1  0.56040000  0.23953000  0.62556000  1.0
  H  H10  1  0.83177000  0.00031000  0.26070000  1.0
  H  H11  1  0.16823000  0.99968000  0.73931000  1.0
  H  H12  1  0.88140000  0.05162000  0.37921000  1.0
  H  H13  1  0.11860000  0.94838000  0.62079000  1.0
  H  H14  1  0.79060000  0.88538000  0.36518000  1.0
  H  H15  1  0.20940000  0.11463000  0.63482000  1.0
  H  H16  1  0.40897000  0.67494000  0.08598000  1.0
  H  H17  1  0.59103000  0.32506000  0.91402000  1.0
  H  H18  1  0.55316000  0.93403000  0.17177000  1.0
  H  H19  1  0.44682000  0.06597000  0.82823000  1.0
  H  H20  1  0.70974000  0.79839000  0.07910000  1.0
  H  H21  1  0.29026000  0.20162000  0.92090000  1.0
  H  H22  1  0.65000000  0.74928000  0.20633000  1.0
  H  H23  1  0.35000000  0.25073000  0.79368000  1.0
  H  H24  1  0.07821000  0.86192000  0.04184000  1.0
  H  H25  1  0.92179000  0.13807000  0.95817000  1.0
  H  H26  1  0.34640000  0.90949000  0.99373000  1.0
  H  H27  1  0.65358000  0.09051000  0.00627000  1.0
  H  H28  1  0.16550000  0.00275000  0.10349000  1.0
  H  H29  1  0.83449000  0.99725000  0.89652000  1.0
  C  C30  1  0.34169000  0.37934000  0.35273000  1.0
  C  C31  1  0.65832000  0.62065000  0.64727000  1.0
  C  C32  1  0.28178000  0.30275000  0.26222000  1.0
  C  C33  1  0.71825000  0.69724000  0.73777000  1.0
  C  C34  1  0.28496000  0.38281000  0.16036000  1.0
  C  C35  1  0.71503000  0.61720000  0.83964000  1.0
  C  C36  1  0.10129000  0.53044000  0.15846000  1.0
  C  C37  1  0.89871000  0.46956000  0.84154000  1.0
  C  C38  1  0.09638000  0.64881000  0.24076000  1.0
  C  C39  1  0.90362000  0.35119000  0.75925000  1.0
  C  C40  1  0.15528000  0.87865000  0.30244000  1.0
  C  C41  1  0.84472000  0.12135000  0.69757000  1.0
  C  C42  1  0.25876000  0.82416000  0.39548000  1.0
  C  C43  1  0.74125000  0.17584000  0.60453000  1.0
  C  C44  1  0.89810000  0.95742000  0.32824000  1.0
  C  C45  1  0.10190000  0.04258000  0.67177000  1.0
  C  C46  1  0.35649000  0.78087000  0.12685000  1.0
  C  C47  1  0.64351000  0.21912000  0.87315000  1.0
  C  C48  1  0.57949000  0.81868000  0.14836000  1.0
  C  C49  1  0.42050000  0.18132000  0.85165000  1.0
  C  C50  1  0.22789000  0.89563000  0.06300000  1.0
  C  C51  1  0.77210000  0.10437000  0.93701000  1.0
  N  N52  1  0.19989000  0.76130000  0.22189000  1.0
  N  N53  1  0.80011000  0.23870000  0.77811000  1.0
  O  O54  1  0.52164000  0.42957000  0.32921000  1.0
  O  O55  1  0.47840000  0.57043000  0.67077000  1.0
  O  O56  1  0.21406000  0.37461000  0.43664000  1.0
  O  O57  1  0.78599000  0.62536000  0.56335000  1.0
  O  O58  1  0.98253000  0.63069000  0.32455000  1.0
  O  O59  1  0.01747000  0.36931000  0.67545000  1.0
  F  F60  1  0.45097000  0.17250000  0.24153000  1.0
  F  F61  1  0.54903000  0.82750000  0.75845000  1.0
  F  F62  1  0.07144000  0.26487000  0.28619000  1.0
  F  F63  1  0.92856000  0.73514000  0.71380000  1.0
  F  F64  1  0.24348000  0.28694000  0.09222000  1.0
  F  F65  1  0.75649000  0.71306000  0.90779000  1.0
  F  F66  1  0.50154000  0.40624000  0.12596000  1.0
  F  F67  1  0.49846000  0.59375000  0.87402000  1.0
  F  F68  1  0.13293000  0.57776000  0.06138000  1.0
  F  F69  1  0.86705000  0.42225000  0.93863000  1.0
  F  F70  1  0.88672000  0.49748000  0.17559000  1.0
  F  F71  1  0.11327000  0.50252000  0.82442000  1.0
