# generated using pymatgen
data_CuH6C5BrN2
_symmetry_space_group_name_H-M   'P 1'
_cell_length_a   3.94226000
_cell_length_b   10.73550000
_cell_length_c   15.44930000
_cell_angle_alpha   90.00380000
_cell_angle_beta   89.99970000
_cell_angle_gamma   89.99810000
_symmetry_Int_Tables_number   1
_chemical_formula_structural   CuH6C5BrN2
_chemical_formula_sum   'Cu4 H24 C20 Br4 N8'
_cell_volume   653.84731565
_cell_formula_units_Z   4
loop_
 _symmetry_equiv_pos_site_id
 _symmetry_equiv_pos_as_xyz
  1  'x, y, z'
loop_
 _atom_site_type_symbol
 _atom_site_label
 _atom_site_symmetry_multiplicity
 _atom_site_fract_x
 _atom_site_fract_y
 _atom_site_fract_z
 _atom_site_occupancy
  Cu  Cu0  1  0.18167000  0.51316000  0.19439000  1.0
  Cu  Cu1  1  0.68180000  0.48692000  0.30563000  1.0
  Cu  Cu2  1  0.81832000  0.98683000  0.69439000  1.0
  Cu  Cu3  1  0.31820000  0.01310000  0.80561000  1.0
  H  H4  1  0.31616000  0.70259000  0.06202000  1.0
  H  H5  1  0.81641000  0.29743000  0.43797000  1.0
  H  H6  1  0.68384000  0.79741000  0.56200000  1.0
  H  H7  1  0.18359000  0.20257000  0.93797000  1.0
  H  H8  1  0.19816000  0.73520000  0.90509000  1.0
  H  H9  1  0.69831000  0.26474000  0.59491000  1.0
  H  H10  1  0.80183000  0.76478000  0.40506000  1.0
  H  H11  1  0.30169000  0.23527000  0.09491000  1.0
  H  H12  1  0.69680000  0.51744000  0.77533000  1.0
  H  H13  1  0.19674000  0.48250000  0.72468000  1.0
  H  H14  1  0.30323000  0.98258000  0.27534000  1.0
  H  H15  1  0.80326000  0.01750000  0.22464000  1.0
  H  H16  1  0.88438000  0.66077000  0.78079000  1.0
  H  H17  1  0.38442000  0.33913000  0.71920000  1.0
  H  H18  1  0.11563000  0.83922000  0.28078000  1.0
  H  H19  1  0.61562000  0.16088000  0.21919000  1.0
  H  H20  1  0.70223000  0.37534000  0.90418000  1.0
  H  H21  1  0.20217000  0.62463000  0.59585000  1.0
  H  H22  1  0.29780000  0.12467000  0.40420000  1.0
  H  H23  1  0.79776000  0.87536000  0.09582000  1.0
  H  H24  1  0.82976000  0.36053000  0.06095000  1.0
  H  H25  1  0.32989000  0.63947000  0.43908000  1.0
  H  H26  1  0.17024000  0.13945000  0.56098000  1.0
  H  H27  1  0.67006000  0.86052000  0.93904000  1.0
  C  C28  1  0.17800000  0.63281000  0.02463000  1.0
  C  C29  1  0.67817000  0.36720000  0.47536000  1.0
  C  C30  1  0.82203000  0.86719000  0.52464000  1.0
  C  C31  1  0.32182000  0.13281000  0.97534000  1.0
  C  C32  1  0.11246000  0.65081000  0.93768000  1.0
  C  C33  1  0.61260000  0.34915000  0.56231000  1.0
  C  C34  1  0.88755000  0.84919000  0.43768000  1.0
  C  C35  1  0.38738000  0.15085000  0.06231000  1.0
  C  C36  1  0.93963000  0.55789000  0.89054000  1.0
  C  C37  1  0.43963000  0.44206000  0.60946000  1.0
  C  C38  1  0.06041000  0.94210000  0.39055000  1.0
  C  C39  1  0.56036000  0.05795000  0.10944000  1.0
  C  C40  1  0.83966000  0.45034000  0.93641000  1.0
  C  C41  1  0.33969000  0.54964000  0.56359000  1.0
  C  C42  1  0.16035000  0.04968000  0.43643000  1.0
  C  C43  1  0.66025000  0.95035000  0.06357000  1.0
  C  C44  1  0.91219000  0.44154000  0.02385000  1.0
  C  C45  1  0.41227000  0.55844000  0.47615000  1.0
  C  C46  1  0.08786000  0.05844000  0.52388000  1.0
  C  C47  1  0.58771000  0.94156000  0.97612000  1.0
  Br  Br48  1  0.58046000  0.67954000  0.23437000  1.0
  Br  Br49  1  0.08054000  0.32052000  0.26565000  1.0
  Br  Br50  1  0.41971000  0.82043000  0.73440000  1.0
  Br  Br51  1  0.91936000  0.17948000  0.76567000  1.0
  N  N52  1  0.08139000  0.53000000  0.06879000  1.0
  N  N53  1  0.58159000  0.47001000  0.43119000  1.0
  N  N54  1  0.91859000  0.96999000  0.56882000  1.0
  N  N55  1  0.41837000  0.02998000  0.93117000  1.0
  N  N56  1  0.88084000  0.57154000  0.80364000  1.0
  N  N57  1  0.38081000  0.42838000  0.69636000  1.0
  N  N58  1  0.11919000  0.92848000  0.30364000  1.0
  N  N59  1  0.61919000  0.07162000  0.19635000  1.0
