# generated using pymatgen
data_MgH4C7O5
_symmetry_space_group_name_H-M   'P 1'
_cell_length_a   10.23010000
_cell_length_b   15.13662261
_cell_length_c   15.13560000
_cell_angle_alpha   120.00529461
_cell_angle_beta   90.00090000
_cell_angle_gamma   89.99700030
_symmetry_Int_Tables_number   1
_chemical_formula_structural   MgH4C7O5
_chemical_formula_sum   'Mg9 H36 C63 O45'
_cell_volume   2029.62573945
_cell_formula_units_Z   9
loop_
 _symmetry_equiv_pos_site_id
 _symmetry_equiv_pos_as_xyz
  1  'x, y, z'
loop_
 _atom_site_type_symbol
 _atom_site_label
 _atom_site_symmetry_multiplicity
 _atom_site_fract_x
 _atom_site_fract_y
 _atom_site_fract_z
 _atom_site_occupancy
  Mg  Mg0  1  0.02108000  0.03247000  0.01475000  1.0
  Mg  Mg1  1  0.35439000  0.98526000  0.01765000  1.0
  Mg  Mg2  1  0.68766000  0.98233000  0.96750000  1.0
  Mg  Mg3  1  0.09219000  0.31729000  0.62975000  1.0
  Mg  Mg4  1  0.42548000  0.37024000  0.68749000  1.0
  Mg  Mg5  1  0.75884000  0.31255000  0.68277000  1.0
  Mg  Mg6  1  0.52211000  0.66214000  0.33614000  1.0
  Mg  Mg7  1  0.85536000  0.66376000  0.32597000  1.0
  Mg  Mg8  1  0.18881000  0.67394000  0.33768000  1.0
  H  H9  1  0.61683000  0.12739000  0.32661000  1.0
  H  H10  1  0.95023000  0.67351000  0.80084000  1.0
  H  H11  1  0.28342000  0.19913000  0.87249000  1.0
  H  H12  1  0.01215000  0.18226000  0.26413000  1.0
  H  H13  1  0.34561000  0.73593000  0.91805000  1.0
  H  H14  1  0.67884000  0.08195000  0.81780000  1.0
  H  H15  1  0.57171000  0.20270000  0.52268000  1.0
  H  H16  1  0.90500000  0.47738000  0.68009000  1.0
  H  H17  1  0.23832000  0.32007000  0.79729000  1.0
  H  H18  1  0.15105000  0.26738000  0.41455000  1.0
  H  H19  1  0.48442000  0.58544000  0.85276000  1.0
  H  H20  1  0.81777000  0.14732000  0.73261000  1.0
  H  H21  1  0.13456000  0.02856000  0.43753000  1.0
  H  H22  1  0.46788000  0.56251000  0.59112000  1.0
  H  H23  1  0.80121000  0.40894000  0.97134000  1.0
  H  H24  1  0.54373000  0.05299000  0.51822000  1.0
  H  H25  1  0.87705000  0.48179000  0.53476000  1.0
  H  H26  1  0.21048000  0.46515000  0.94711000  1.0
  H  H27  1  0.05222000  0.84256000  0.36505000  1.0
  H  H28  1  0.38548000  0.63501000  0.47755000  1.0
  H  H29  1  0.71878000  0.52247000  0.15736000  1.0
  H  H30  1  0.65145000  0.88597000  0.45898000  1.0
  H  H31  1  0.98471000  0.54108000  0.42695000  1.0
  H  H32  1  0.31800000  0.57306000  0.11423000  1.0
  H  H33  1  0.16966000  0.91804000  0.67640000  1.0
  H  H34  1  0.50329000  0.32342000  0.24144000  1.0
  H  H35  1  0.83649000  0.75849000  0.08200000  1.0
  H  H36  1  0.77581000  0.80375000  0.58710000  1.0
  H  H37  1  0.10933000  0.41289000  0.21686000  1.0
  H  H38  1  0.44258000  0.78335000  0.19619000  1.0
  H  H39  1  0.20137000  0.02914000  0.87291000  1.0
  H  H40  1  0.53491000  0.12699000  0.15608000  1.0
  H  H41  1  0.86820000  0.84393000  0.97099000  1.0
  H  H42  1  0.63933000  0.83411000  0.73314000  1.0
  H  H43  1  0.97285000  0.26691000  0.10113000  1.0
  H  H44  1  0.30605000  0.89903000  0.16585000  1.0
  C  C45  1  0.81267000  0.14903000  0.28452000  1.0
  C  C46  1  0.14606000  0.71556000  0.86448000  1.0
  C  C47  1  0.47929000  0.13549000  0.85094000  1.0
  C  C48  1  0.71502000  0.15654000  0.35351000  1.0
  C  C49  1  0.04840000  0.64656000  0.80306000  1.0
  C  C50  1  0.38163000  0.19693000  0.84337000  1.0
  C  C51  1  0.74907000  0.19593000  0.45553000  1.0
  C  C52  1  0.08238000  0.54454000  0.74047000  1.0
  C  C53  1  0.41567000  0.25954000  0.80399000  1.0
  C  C54  1  0.87794000  0.22895000  0.48980000  1.0
  C  C55  1  0.21125000  0.51024000  0.73924000  1.0
  C  C56  1  0.54455000  0.26078000  0.77095000  1.0
  C  C57  1  0.96810000  0.23100000  0.42106000  1.0
  C  C58  1  0.30143000  0.57899000  0.81000000  1.0
  C  C59  1  0.63470000  0.19000000  0.76892000  1.0
  C  C60  1  0.93880000  0.18813000  0.31892000  1.0
  C  C61  1  0.27221000  0.68115000  0.86918000  1.0
  C  C62  1  0.60544000  0.13079000  0.81185000  1.0
  C  C63  1  0.79671000  0.09119000  0.17229000  1.0
  C  C64  1  0.13002000  0.82774000  0.91883000  1.0
  C  C65  1  0.46321000  0.08118000  0.90881000  1.0
  C  C66  1  0.33807000  0.05125000  0.48162000  1.0
  C  C67  1  0.67137000  0.51843000  0.56968000  1.0
  C  C68  1  0.00478000  0.43026000  0.94875000  1.0
  C  C69  1  0.22732000  0.99124000  0.43329000  1.0
  C  C70  1  0.56062000  0.56677000  0.55802000  1.0
  C  C71  1  0.89399000  0.44192000  0.00870000  1.0
  C  C72  1  0.23787000  0.88606000  0.38405000  1.0
  C  C73  1  0.57114000  0.61600000  0.50207000  1.0
  C  C74  1  0.90445000  0.49781000  0.11390000  1.0
  C  C75  1  0.35596000  0.83883000  0.38496000  1.0
  C  C76  1  0.68921000  0.61504000  0.45389000  1.0
  C  C77  1  0.02254000  0.54594000  0.16118000  1.0
  C  C78  1  0.46622000  0.90022000  0.43166000  1.0
  C  C79  1  0.79947000  0.56831000  0.46854000  1.0
  C  C80  1  0.13284000  0.53126000  0.09985000  1.0
  C  C81  1  0.45895000  0.00580000  0.47916000  1.0
  C  C82  1  0.79224000  0.52085000  0.52666000  1.0
  C  C83  1  0.12567000  0.47321000  0.99426000  1.0
  C  C84  1  0.31942000  0.16320000  0.54245000  1.0
  C  C85  1  0.65272000  0.45756000  0.62076000  1.0
  C  C86  1  0.98619000  0.37928000  0.83679000  1.0
  C  C87  1  0.97596000  0.85735000  0.62078000  1.0
  C  C88  1  0.30951000  0.37914000  0.23664000  1.0
  C  C89  1  0.64272000  0.76344000  0.14258000  1.0
  C  C90  1  0.06819000  0.91578000  0.69715000  1.0
  C  C91  1  0.40174000  0.30274000  0.21860000  1.0
  C  C92  1  0.73498000  0.78145000  0.08423000  1.0
  C  C93  1  0.02717000  0.97087000  0.79826000  1.0
  C  C94  1  0.36069000  0.20166000  0.17263000  1.0
  C  C95  1  0.69399000  0.82751000  0.02918000  1.0
  C  C96  1  0.89677000  0.96453000  0.82615000  1.0
  C  C97  1  0.23024000  0.17381000  0.13848000  1.0
  C  C98  1  0.56356000  0.86168000  0.03549000  1.0
  C  C99  1  0.80963000  0.90001000  0.74885000  1.0
  C  C100  1  0.14311000  0.25114000  0.15136000  1.0
  C  C101  1  0.47642000  0.84887000  0.09997000  1.0
  C  C102  1  0.84561000  0.85067000  0.64677000  1.0
  C  C103  1  0.17910000  0.35319000  0.20410000  1.0
  C  C104  1  0.51236000  0.79609000  0.14926000  1.0
  C  C105  1  0.01345000  0.79885000  0.51122000  1.0
  C  C106  1  0.34705000  0.48866000  0.28757000  1.0
  C  C107  1  0.68019000  0.71238000  0.20107000  1.0
  O  O108  1  0.89896000  0.04827000  0.12156000  1.0
  O  O109  1  0.23216000  0.87856000  0.92663000  1.0
  O  O110  1  0.56537000  0.07335000  0.95182000  1.0
  O  O111  1  0.68644000  0.08288000  0.12768000  1.0
  O  O112  1  0.01971000  0.87228000  0.95512000  1.0
  O  O113  1  0.35290000  0.04498000  0.91714000  1.0
  O  O114  1  0.66945000  0.20530000  0.53311000  1.0
  O  O115  1  0.00275000  0.46695000  0.67227000  1.0
  O  O116  1  0.33610000  0.32780000  0.79465000  1.0
  O  O117  1  0.91170000  0.26035000  0.58596000  1.0
  O  O118  1  0.24499000  0.41409000  0.67446000  1.0
  O  O119  1  0.57833000  0.32558000  0.73962000  1.0
  O  O120  1  0.08552000  0.27855000  0.46571000  1.0
  O  O121  1  0.41882000  0.53429000  0.81294000  1.0
  O  O122  1  0.75210000  0.18714000  0.72134000  1.0
  O  O123  1  0.20525000  0.19439000  0.57547000  1.0
  O  O124  1  0.53855000  0.42454000  0.61890000  1.0
  O  O125  1  0.87209000  0.38116000  0.80557000  1.0
  O  O126  1  0.41741000  0.22381000  0.56101000  1.0
  O  O127  1  0.75069000  0.43899000  0.66282000  1.0
  O  O128  1  0.08423000  0.33731000  0.77620000  1.0
  O  O129  1  0.13747000  0.81736000  0.33202000  1.0
  O  O130  1  0.47075000  0.66803000  0.48540000  1.0
  O  O131  1  0.80399000  0.51457000  0.18257000  1.0
  O  O132  1  0.36116000  0.73809000  0.34512000  1.0
  O  O133  1  0.69440000  0.65482000  0.39293000  1.0
  O  O134  1  0.02770000  0.60695000  0.26192000  1.0
  O  O135  1  0.57446000  0.84382000  0.42802000  1.0
  O  O136  1  0.90763000  0.57186000  0.41565000  1.0
  O  O137  1  0.24100000  0.58409000  0.15631000  1.0
  O  O138  1  0.12588000  0.75743000  0.48569000  1.0
  O  O139  1  0.45950000  0.51411000  0.27163000  1.0
  O  O140  1  0.79263000  0.72828000  0.24249000  1.0
  O  O141  1  0.92758000  0.79185000  0.44529000  1.0
  O  O142  1  0.26122000  0.55467000  0.34645000  1.0
  O  O143  1  0.59436000  0.65344000  0.20808000  1.0
  O  O144  1  0.10334000  0.03273000  0.88196000  1.0
  O  O145  1  0.43687000  0.11794000  0.15065000  1.0
  O  O146  1  0.77017000  0.84943000  0.96741000  1.0
  O  O147  1  0.86132000  0.01349000  0.92401000  1.0
  O  O148  1  0.19474000  0.07598000  0.08951000  1.0
  O  O149  1  0.52808000  0.91055000  0.98652000  1.0
  O  O150  1  0.68895000  0.89086000  0.78588000  1.0
  O  O151  1  0.02241000  0.21416000  0.10518000  1.0
  O  O152  1  0.35572000  0.89506000  0.10913000  1.0
