# generated using pymatgen
data_Cd2PH14C5NO7
_symmetry_space_group_name_H-M   'P 1'
_cell_length_a   6.95654000
_cell_length_b   7.95108000
_cell_length_c   9.87747000
_cell_angle_alpha   99.85950000
_cell_angle_beta   102.88900000
_cell_angle_gamma   92.38740000
_symmetry_Int_Tables_number   1
_chemical_formula_structural   Cd2PH14C5NO7
_chemical_formula_sum   'Cd4 P2 H28 C10 N2 O14'
_cell_volume   522.89444277
_cell_formula_units_Z   2
loop_
 _symmetry_equiv_pos_site_id
 _symmetry_equiv_pos_as_xyz
  1  'x, y, z'
loop_
 _atom_site_type_symbol
 _atom_site_label
 _atom_site_symmetry_multiplicity
 _atom_site_fract_x
 _atom_site_fract_y
 _atom_site_fract_z
 _atom_site_occupancy
  Cd  Cd0  1  0.50000000  0.49999000  0.00000000  1.0
  Cd  Cd1  1  0.21885000  0.12798000  0.11693000  1.0
  Cd  Cd2  1  0.78116000  0.87202000  0.88308000  1.0
  Cd  Cd3  1  0.00000000  0.50001000  0.00000000  1.0
  P  P4  1  0.76253000  0.21492000  0.15571000  1.0
  P  P5  1  0.23747000  0.78508000  0.84430000  1.0
  H  H6  1  0.91530000  0.17604000  0.80327000  1.0
  H  H7  1  0.08470000  0.82396000  0.19673000  1.0
  H  H8  1  0.15240000  0.25393000  0.81112000  1.0
  H  H9  1  0.84760000  0.74606000  0.18888000  1.0
  H  H10  1  0.55027000  0.18048000  0.77998000  1.0
  H  H11  1  0.44971000  0.81951000  0.22001000  1.0
  H  H12  1  0.42137000  0.10514000  0.86294000  1.0
  H  H13  1  0.57861000  0.89484000  0.13704000  1.0
  H  H14  1  0.87036000  0.30532000  0.41269000  1.0
  H  H15  1  0.12964000  0.69468000  0.58731000  1.0
  H  H16  1  0.90084000  0.08831000  0.35003000  1.0
  H  H17  1  0.09916000  0.91169000  0.64997000  1.0
  H  H18  1  0.23772000  0.49890000  0.47287000  1.0
  H  H19  1  0.76229000  0.50110000  0.52713000  1.0
  H  H20  1  0.05363000  0.50534000  0.31629000  1.0
  H  H21  1  0.94637000  0.49466000  0.68372000  1.0
  H  H22  1  0.37669000  0.62664000  0.30590000  1.0
  H  H23  1  0.62331000  0.37336000  0.69410000  1.0
  H  H24  1  0.48520000  0.43050000  0.32527000  1.0
  H  H25  1  0.51480000  0.56951000  0.67473000  1.0
  H  H26  1  0.23846000  0.22046000  0.55148000  1.0
  H  H27  1  0.76155000  0.77954000  0.44852000  1.0
  H  H28  1  0.41709000  0.22396000  0.44777000  1.0
  H  H29  1  0.58292000  0.77604000  0.55223000  1.0
  H  H30  1  0.35315000  0.93588000  0.48685000  1.0
  H  H31  1  0.64685000  0.06412000  0.51316000  1.0
  H  H32  1  0.09685000  0.93515000  0.41982000  1.0
  H  H33  1  0.90314000  0.06485000  0.58018000  1.0
  C  C34  1  0.92255000  0.21890000  0.33100000  1.0
  C  C35  1  0.07745000  0.78110000  0.66900000  1.0
  C  C36  1  0.18712000  0.44423000  0.35873000  1.0
  C  C37  1  0.81288000  0.55577000  0.64127000  1.0
  C  C38  1  0.34637000  0.48646000  0.28300000  1.0
  C  C39  1  0.65363000  0.51355000  0.71700000  1.0
  C  C40  1  0.26409000  0.17875000  0.44438000  1.0
  C  C41  1  0.73591000  0.82125000  0.55563000  1.0
  C  C42  1  0.24231000  0.98293000  0.40609000  1.0
  C  C43  1  0.75769000  0.01707000  0.59391000  1.0
  N  N44  1  0.13377000  0.25869000  0.33852000  1.0
  N  N45  1  0.86623000  0.74131000  0.66149000  1.0
  O  O46  1  0.86572000  0.10315000  0.05501000  1.0
  O  O47  1  0.13429000  0.89686000  0.94499000  1.0
  O  O48  1  0.56062000  0.13418000  0.15705000  1.0
  O  O49  1  0.43939000  0.86582000  0.84295000  1.0
  O  O50  1  0.76468000  0.40212000  0.12941000  1.0
  O  O51  1  0.23532000  0.59789000  0.87059000  1.0
  O  O52  1  0.28529000  0.42385000  0.13460000  1.0
  O  O53  1  0.71471000  0.57615000  0.86541000  1.0
  O  O54  1  0.26118000  0.91989000  0.26793000  1.0
  O  O55  1  0.73881000  0.08011000  0.73207000  1.0
  O  O56  1  0.04884000  0.25206000  0.86365000  1.0
  O  O57  1  0.95116000  0.74795000  0.13635000  1.0
  O  O58  1  0.44068000  0.21375000  0.82935000  1.0
  O  O59  1  0.55931000  0.78623000  0.17064000  1.0
