# generated using pymatgen
data_DyH13C12S3(N3O4)2
_symmetry_space_group_name_H-M   'P 1'
_cell_length_a   9.74234000
_cell_length_b   9.77513000
_cell_length_c   11.04130000
_cell_angle_alpha   85.14900000
_cell_angle_beta   81.63230000
_cell_angle_gamma   83.85040000
_symmetry_Int_Tables_number   1
_chemical_formula_structural   DyH13C12S3(N3O4)2
_chemical_formula_sum   'Dy2 H26 C24 S6 N12 O16'
_cell_volume   1031.76622955
_cell_formula_units_Z   2
loop_
 _symmetry_equiv_pos_site_id
 _symmetry_equiv_pos_as_xyz
  1  'x, y, z'
loop_
 _atom_site_type_symbol
 _atom_site_label
 _atom_site_symmetry_multiplicity
 _atom_site_fract_x
 _atom_site_fract_y
 _atom_site_fract_z
 _atom_site_occupancy
  Dy  Dy0  1  0.51587000  0.74885000  0.49765000  1.0
  Dy  Dy1  1  0.48413000  0.25115000  0.50235000  1.0
  H  H2  1  0.64558000  0.70841000  0.82434000  1.0
  H  H3  1  0.35442000  0.29160000  0.17566000  1.0
  H  H4  1  0.58233000  0.70917000  0.98450000  1.0
  H  H5  1  0.41767000  0.29082000  0.01549000  1.0
  H  H6  1  0.76421000  0.69837000  0.93639000  1.0
  H  H7  1  0.23579000  0.30164000  0.06361000  1.0
  H  H8  1  0.00499000  0.09459000  0.55460000  1.0
  H  H9  1  0.99501000  0.90541000  0.44540000  1.0
  H  H10  1  0.90706000  0.20101000  0.45206000  1.0
  H  H11  1  0.09294000  0.79898000  0.54793000  1.0
  H  H12  1  0.81978000  0.13311000  0.59021000  1.0
  H  H13  1  0.18022000  0.86689000  0.40978000  1.0
  H  H14  1  0.08057000  0.94623000  0.71999000  1.0
  H  H15  1  0.91944000  0.05378000  0.28000000  1.0
  H  H16  1  0.05597000  0.01934000  0.86486000  1.0
  H  H17  1  0.94404000  0.98067000  0.13514000  1.0
  H  H18  1  0.92257000  0.93019000  0.82318000  1.0
  H  H19  1  0.07744000  0.06981000  0.17682000  1.0
  H  H20  1  0.79438000  0.82394000  0.36898000  1.0
  H  H21  1  0.20562000  0.17606000  0.63101000  1.0
  H  H22  1  0.70228000  0.97267000  0.37783000  1.0
  H  H23  1  0.29772000  0.02733000  0.62216000  1.0
  H  H24  1  0.59210000  0.54111000  0.30564000  1.0
  H  H25  1  0.40791000  0.45889000  0.69436000  1.0
  H  H26  1  0.70676000  0.64239000  0.28148000  1.0
  H  H27  1  0.29325000  0.35760000  0.71852000  1.0
  C  C28  1  0.60141000  0.96949000  0.68365000  1.0
  C  C29  1  0.39858000  0.03052000  0.31636000  1.0
  C  C30  1  0.63665000  0.99134000  0.80623000  1.0
  C  C31  1  0.36334000  0.00866000  0.19378000  1.0
  C  C32  1  0.65948000  0.89717000  0.90507000  1.0
  C  C33  1  0.34052000  0.10283000  0.09494000  1.0
  C  C34  1  0.66298000  0.74398000  0.91164000  1.0
  C  C35  1  0.33701000  0.25603000  0.08835000  1.0
  C  C36  1  0.72779000  0.46840000  0.57269000  1.0
  C  C37  1  0.27221000  0.53159000  0.42732000  1.0
  C  C38  1  0.86313000  0.42324000  0.61885000  1.0
  C  C39  1  0.13687000  0.57676000  0.38115000  1.0
  C  C40  1  0.94366000  0.29688000  0.60999000  1.0
  C  C41  1  0.05634000  0.70312000  0.39000000  1.0
  C  C42  1  0.91761000  0.17414000  0.54903000  1.0
  C  C43  1  0.08239000  0.82586000  0.45097000  1.0
  C  C44  1  0.31474000  0.73068000  0.71372000  1.0
  C  C45  1  0.68526000  0.26932000  0.28627000  1.0
  C  C46  1  0.21636000  0.71650000  0.82807000  1.0
  C  C47  1  0.78363000  0.28351000  0.17192000  1.0
  C  C48  1  0.09825000  0.80018000  0.87348000  1.0
  C  C49  1  0.90176000  0.19983000  0.12651000  1.0
  C  C50  1  0.03593000  0.93121000  0.81625000  1.0
  C  C51  1  0.96408000  0.06880000  0.18375000  1.0
  S  S52  1  0.64771000  0.15260000  0.84841000  1.0
  S  S53  1  0.35228000  0.84740000  0.15161000  1.0
  S  S54  1  0.94898000  0.52889000  0.68957000  1.0
  S  S55  1  0.05102000  0.47111000  0.31043000  1.0
  S  S56  1  0.24431000  0.58497000  0.93514000  1.0
  S  S57  1  0.75568000  0.41503000  0.06486000  1.0
  N  N58  1  0.67988000  0.09347000  0.99043000  1.0
  N  N59  1  0.32012000  0.90652000  0.00958000  1.0
  N  N60  1  0.68265000  0.96008000  0.00576000  1.0
  N  N61  1  0.31735000  0.03991000  0.99425000  1.0
  N  N62  1  0.08195000  0.40972000  0.70603000  1.0
  N  N63  1  0.91806000  0.59028000  0.29396000  1.0
  N  N64  1  0.06386000  0.29550000  0.66000000  1.0
  N  N65  1  0.93614000  0.70450000  0.34000000  1.0
  N  N66  1  0.10375000  0.64094000  0.03267000  1.0
  N  N67  1  0.89624000  0.35907000  0.96732000  1.0
  N  N68  1  0.03894000  0.75222000  0.98742000  1.0
  N  N69  1  0.96106000  0.24779000  0.01258000  1.0
  O  O70  1  0.58714000  0.84873000  0.65916000  1.0
  O  O71  1  0.41284000  0.15128000  0.34084000  1.0
  O  O72  1  0.70160000  0.87292000  0.39918000  1.0
  O  O73  1  0.29840000  0.12708000  0.60082000  1.0
  O  O74  1  0.58765000  0.07656000  0.61024000  1.0
  O  O75  1  0.41236000  0.92345000  0.38978000  1.0
  O  O76  1  0.60671000  0.64001000  0.30954000  1.0
  O  O77  1  0.39329000  0.35999000  0.69046000  1.0
  O  O78  1  0.69756000  0.59756000  0.55814000  1.0
  O  O79  1  0.30244000  0.40244000  0.44187000  1.0
  O  O80  1  0.65501000  0.37564000  0.55187000  1.0
  O  O81  1  0.34500000  0.62435000  0.44813000  1.0
  O  O82  1  0.41106000  0.63241000  0.69026000  1.0
  O  O83  1  0.58893000  0.36758000  0.30974000  1.0
  O  O84  1  0.30549000  0.83762000  0.63993000  1.0
  O  O85  1  0.69451000  0.16237000  0.36007000  1.0
