# generated using pymatgen
data_ZnH8(C5N4)2
_symmetry_space_group_name_H-M   'P 1'
_cell_length_a   6.46930000
_cell_length_b   10.76110000
_cell_length_c   16.88500000
_cell_angle_alpha   96.36530000
_cell_angle_beta   95.43530000
_cell_angle_gamma   90.47870000
_symmetry_Int_Tables_number   1
_chemical_formula_structural   ZnH8(C5N4)2
_chemical_formula_sum   'Zn4 H32 C40 N32'
_cell_volume   1162.76900409
_cell_formula_units_Z   4
loop_
 _symmetry_equiv_pos_site_id
 _symmetry_equiv_pos_as_xyz
  1  'x, y, z'
loop_
 _atom_site_type_symbol
 _atom_site_label
 _atom_site_symmetry_multiplicity
 _atom_site_fract_x
 _atom_site_fract_y
 _atom_site_fract_z
 _atom_site_occupancy
  Zn  Zn0  1  0.55125000  0.14811000  0.24388000  1.0
  Zn  Zn1  1  0.44875000  0.85189000  0.75612000  1.0
  Zn  Zn2  1  0.05608000  0.26858000  0.24574000  1.0
  Zn  Zn3  1  0.94392000  0.73142000  0.75426000  1.0
  H  H4  1  0.72548000  0.15614000  0.41915000  1.0
  H  H5  1  0.27453000  0.84386000  0.58085000  1.0
  H  H6  1  0.22656000  0.30008000  0.42239000  1.0
  H  H7  1  0.77344000  0.69992000  0.57761000  1.0
  H  H8  1  0.79197000  0.00276000  0.52172000  1.0
  H  H9  1  0.20804000  0.99724000  0.47828000  1.0
  H  H10  1  0.71910000  0.77402000  0.47555000  1.0
  H  H11  1  0.28090000  0.22598000  0.52445000  1.0
  H  H12  1  0.58327000  0.70921000  0.33512000  1.0
  H  H13  1  0.41673000  0.29079000  0.66488000  1.0
  H  H14  1  0.34385000  0.03959000  0.07289000  1.0
  H  H15  1  0.65615000  0.96040000  0.92711000  1.0
  H  H16  1  0.30550000  0.82832000  0.99440000  1.0
  H  H17  1  0.69450000  0.17168000  0.00560000  1.0
  H  H18  1  0.39156000  0.63848000  0.06636000  1.0
  H  H19  1  0.60843000  0.36151000  0.93364000  1.0
  H  H20  1  0.50979000  0.66849000  0.21132000  1.0
  H  H21  1  0.49020000  0.33151000  0.78868000  1.0
  H  H22  1  0.02956000  0.74470000  0.23976000  1.0
  H  H23  1  0.97044000  0.25530000  0.76024000  1.0
  H  H24  1  0.89166000  0.74278000  0.09740000  1.0
  H  H25  1  0.10834000  0.25722000  0.90260000  1.0
  H  H26  1  0.79270000  0.53736000  0.01615000  1.0
  H  H27  1  0.20730000  0.46264000  0.98385000  1.0
  H  H28  1  0.85223000  0.33952000  0.08190000  1.0
  H  H29  1  0.14778000  0.66048000  0.91810000  1.0
  H  H30  1  0.10723000  0.73154000  0.36132000  1.0
  H  H31  1  0.89277000  0.26846000  0.63868000  1.0
  H  H32  1  0.24463000  0.69670000  0.50003000  1.0
  H  H33  1  0.75537000  0.30330000  0.49997000  1.0
  H  H34  1  0.30557000  0.47825000  0.53364000  1.0
  H  H35  1  0.69444000  0.52175000  0.46636000  1.0
  C  C36  1  0.69541000  0.05600000  0.40466000  1.0
  C  C37  1  0.30459000  0.94400000  0.59534000  1.0
  C  C38  1  0.20203000  0.39787000  0.41342000  1.0
  C  C39  1  0.79797000  0.60212000  0.58658000  1.0
  C  C40  1  0.73255000  0.97064000  0.46022000  1.0
  C  C41  1  0.26745000  0.02936000  0.53978000  1.0
  C  C42  1  0.69155000  0.84438000  0.43433000  1.0
  C  C43  1  0.30845000  0.15562000  0.56567000  1.0
  C  C44  1  0.61502000  0.80770000  0.35535000  1.0
  C  C45  1  0.38498000  0.19230000  0.64465000  1.0
  C  C46  1  0.57998000  0.89944000  0.30325000  1.0
  C  C47  1  0.42002000  0.10056000  0.69675000  1.0
  C  C48  1  0.49832000  0.87095000  0.21811000  1.0
  C  C49  1  0.50168000  0.12905000  0.78189000  1.0
  C  C50  1  0.38206000  0.95516000  0.10104000  1.0
  C  C51  1  0.61794000  0.04484000  0.89896000  1.0
  C  C52  1  0.35884000  0.83692000  0.05791000  1.0
  C  C53  1  0.64116000  0.16308000  0.94209000  1.0
  C  C54  1  0.40544000  0.73266000  0.09785000  1.0
  C  C55  1  0.59456000  0.26734000  0.90215000  1.0
  C  C56  1  0.47342000  0.74930000  0.17928000  1.0
  C  C57  1  0.52658000  0.25070000  0.82072000  1.0
  C  C58  1  0.01343000  0.54238000  0.23578000  1.0
  C  C59  1  0.98657000  0.45762000  0.76422000  1.0
  C  C60  1  0.98905000  0.65608000  0.20350000  1.0
  C  C61  1  0.01095000  0.34392000  0.79650000  1.0
  C  C62  1  0.91144000  0.65482000  0.12349000  1.0
  C  C63  1  0.08856000  0.34518000  0.87651000  1.0
  C  C64  1  0.85862000  0.54092000  0.07813000  1.0
  C  C65  1  0.14138000  0.45908000  0.92187000  1.0
  C  C66  1  0.88956000  0.43152000  0.11431000  1.0
  C  C67  1  0.11044000  0.56849000  0.88569000  1.0
  C  C68  1  0.09347000  0.53299000  0.31987000  1.0
  C  C69  1  0.90653000  0.46701000  0.68013000  1.0
  C  C70  1  0.13412000  0.63712000  0.37702000  1.0
  C  C71  1  0.86588000  0.36288000  0.62298000  1.0
  C  C72  1  0.21138000  0.61767000  0.45431000  1.0
  C  C73  1  0.78862000  0.38233000  0.54569000  1.0
  C  C74  1  0.24622000  0.49622000  0.47348000  1.0
  C  C75  1  0.75378000  0.50378000  0.52652000  1.0
  N  N76  1  0.32497000  0.24723000  0.18076000  1.0
  N  N77  1  0.67503000  0.75277000  0.81924000  1.0
  N  N78  1  0.36686000  0.31823000  0.13346000  1.0
  N  N79  1  0.63313000  0.68178000  0.86655000  1.0
  N  N80  1  0.62089000  0.02126000  0.32864000  1.0
  N  N81  1  0.37911000  0.97874000  0.67136000  1.0
  N  N82  1  0.45219000  0.97151000  0.17869000  1.0
  N  N83  1  0.54781000  0.02849000  0.82130000  1.0
  N  N84  1  0.82402000  0.15309000  0.17950000  1.0
  N  N85  1  0.17598000  0.84691000  0.82050000  1.0
  N  N86  1  0.18516000  0.13961000  0.31756000  1.0
  N  N87  1  0.81484000  0.86039000  0.68244000  1.0
  N  N88  1  0.13640000  0.03209000  0.31866000  1.0
  N  N89  1  0.86360000  0.96791000  0.68135000  1.0
  N  N90  1  0.09697000  0.92660000  0.32215000  1.0
  N  N91  1  0.90304000  0.07340000  0.67785000  1.0
  N  N92  1  0.96567000  0.43214000  0.19079000  1.0
  N  N93  1  0.03433000  0.56786000  0.80921000  1.0
  N  N94  1  0.12711000  0.41595000  0.33901000  1.0
  N  N95  1  0.87289000  0.58405000  0.66099000  1.0
  N  N96  1  0.67591000  0.29820000  0.32146000  1.0
  N  N97  1  0.32409000  0.70180000  0.67854000  1.0
  N  N98  1  0.62625000  0.40401000  0.31447000  1.0
  N  N99  1  0.37375000  0.59599000  0.68553000  1.0
  N  N100  1  0.58315000  0.50838000  0.30942000  1.0
  N  N101  1  0.41685000  0.49163000  0.69058000  1.0
  N  N102  1  0.40419000  0.38585000  0.08741000  1.0
  N  N103  1  0.59581000  0.61416000  0.91260000  1.0
  N  N104  1  0.86275000  0.06122000  0.13501000  1.0
  N  N105  1  0.13725000  0.93878000  0.86499000  1.0
  N  N106  1  0.89292000  0.97359000  0.09131000  1.0
  N  N107  1  0.10707000  0.02641000  0.90868000  1.0
