# generated using pymatgen
data_TbH17C20N2O11
_symmetry_space_group_name_H-M   'P 1'
_cell_length_a   8.76696000
_cell_length_b   9.99726000
_cell_length_c   14.24370000
_cell_angle_alpha   107.76900000
_cell_angle_beta   94.86620000
_cell_angle_gamma   105.19700000
_symmetry_Int_Tables_number   1
_chemical_formula_structural   TbH17C20N2O11
_chemical_formula_sum   'Tb2 H34 C40 N4 O22'
_cell_volume   1128.66432596
_cell_formula_units_Z   2
loop_
 _symmetry_equiv_pos_site_id
 _symmetry_equiv_pos_as_xyz
  1  'x, y, z'
loop_
 _atom_site_type_symbol
 _atom_site_label
 _atom_site_symmetry_multiplicity
 _atom_site_fract_x
 _atom_site_fract_y
 _atom_site_fract_z
 _atom_site_occupancy
  Tb  Tb0  1  0.73865000  0.53085000  0.52792000  1.0
  Tb  Tb1  1  0.26136000  0.46913000  0.47209000  1.0
  H  H2  1  0.89885000  0.81661000  0.52178000  1.0
  H  H3  1  0.10115000  0.18338000  0.47821000  1.0
  H  H4  1  0.01546000  0.72250000  0.47356000  1.0
  H  H5  1  0.98456000  0.27749000  0.52644000  1.0
  H  H6  1  0.69524000  0.19289000  0.44930000  1.0
  H  H7  1  0.30478000  0.80711000  0.55070000  1.0
  H  H8  1  0.70343000  0.23995000  0.56783000  1.0
  H  H9  1  0.29659000  0.76004000  0.43218000  1.0
  H  H10  1  0.41470000  0.12832000  0.17475000  1.0
  H  H11  1  0.58531000  0.87168000  0.82525000  1.0
  H  H12  1  0.34491000  0.34338000  0.71979000  1.0
  H  H13  1  0.65507000  0.65663000  0.28021000  1.0
  H  H14  1  0.36681000  0.53399000  0.74657000  1.0
  H  H15  1  0.63322000  0.46604000  0.25343000  1.0
  H  H16  1  0.80234000  0.31894000  0.00461000  1.0
  H  H17  1  0.19763000  0.68106000  0.99541000  1.0
  H  H18  1  0.96438000  0.50977000  0.16543000  1.0
  H  H19  1  0.03560000  0.49024000  0.83458000  1.0
  H  H20  1  0.94575000  0.76405000  0.21697000  1.0
  H  H21  1  0.05425000  0.23597000  0.78303000  1.0
  H  H22  1  0.77174000  0.83727000  0.10598000  1.0
  H  H23  1  0.22827000  0.16274000  0.89401000  1.0
  H  H24  1  0.56712000  0.95529000  0.06494000  1.0
  H  H25  1  0.43287000  0.04472000  0.93507000  1.0
  H  H26  1  0.77809000  0.98595000  0.96190000  1.0
  H  H27  1  0.22188000  0.01405000  0.03809000  1.0
  H  H28  1  0.04366000  0.17670000  0.03620000  1.0
  H  H29  1  0.95631000  0.82330000  0.96378000  1.0
  H  H30  1  0.09133000  0.34578000  0.21380000  1.0
  H  H31  1  0.90867000  0.65422000  0.78619000  1.0
  H  H32  1  0.19883000  0.95116000  0.20778000  1.0
  H  H33  1  0.80118000  0.04884000  0.79220000  1.0
  H  H34  1  0.33767000  0.93553000  0.29804000  1.0
  H  H35  1  0.66233000  0.06445000  0.70195000  1.0
  C  C36  1  0.53774000  0.45886000  0.66368000  1.0
  C  C37  1  0.46227000  0.54113000  0.33633000  1.0
  C  C38  1  0.43273000  0.45361000  0.74280000  1.0
  C  C39  1  0.56728000  0.54640000  0.25720000  1.0
  C  C40  1  0.59458000  0.38827000  0.86669000  1.0
  C  C41  1  0.40540000  0.61173000  0.13333000  1.0
  C  C42  1  0.70202000  0.47462000  0.96533000  1.0
  C  C43  1  0.29796000  0.52537000  0.03468000  1.0
  C  C44  1  0.79725000  0.43179000  0.02619000  1.0
  C  C45  1  0.20272000  0.56821000  0.97382000  1.0
  C  C46  1  0.88684000  0.53928000  0.11648000  1.0
  C  C47  1  0.11314000  0.46073000  0.88353000  1.0
  C  C48  1  0.87762000  0.68350000  0.14515000  1.0
  C  C49  1  0.12238000  0.31651000  0.85485000  1.0
  C  C50  1  0.78042000  0.72569000  0.08332000  1.0
  C  C51  1  0.21957000  0.27432000  0.91668000  1.0
  C  C52  1  0.69511000  0.61965000  0.99280000  1.0
  C  C53  1  0.30487000  0.38035000  0.00721000  1.0
  C  C54  1  0.58820000  0.63016000  0.91022000  1.0
  C  C55  1  0.41178000  0.36984000  0.08979000  1.0
  C  C56  1  0.87735000  0.36215000  0.33726000  1.0
  C  C57  1  0.12267000  0.63785000  0.66274000  1.0
  C  C58  1  0.85438000  0.24803000  0.23681000  1.0
  C  C59  1  0.14563000  0.75197000  0.76318000  1.0
  C  C60  1  0.70675000  0.13589000  0.19657000  1.0
  C  C61  1  0.29326000  0.86412000  0.80344000  1.0
  C  C62  1  0.68002000  0.04371000  0.09678000  1.0
  C  C63  1  0.31998000  0.95629000  0.90322000  1.0
  C  C64  1  0.80030000  0.05995000  0.03904000  1.0
  C  C65  1  0.19969000  0.94005000  0.96096000  1.0
  C  C66  1  0.94949000  0.16588000  0.08100000  1.0
  C  C67  1  0.05050000  0.83412000  0.91899000  1.0
  C  C68  1  0.97660000  0.26016000  0.17996000  1.0
  C  C69  1  0.02340000  0.73984000  0.82003000  1.0
  C  C70  1  0.58774000  0.09859000  0.26194000  1.0
  C  C71  1  0.41227000  0.90142000  0.73807000  1.0
  C  C72  1  0.24342000  0.11747000  0.35183000  1.0
  C  C73  1  0.75658000  0.88252000  0.64816000  1.0
  C  C74  1  0.30233000  0.01476000  0.26894000  1.0
  C  C75  1  0.69768000  0.98523000  0.73106000  1.0
  N  N76  1  0.52730000  0.48815000  0.83985000  1.0
  N  N77  1  0.47268000  0.51184000  0.16015000  1.0
  N  N78  1  0.43409000  0.08201000  0.22751000  1.0
  N  N79  1  0.56592000  0.91799000  0.77249000  1.0
  O  O80  1  0.90243000  0.71688000  0.47565000  1.0
  O  O81  1  0.09758000  0.28311000  0.52434000  1.0
  O  O82  1  0.68647000  0.48078000  0.68522000  1.0
  O  O83  1  0.31355000  0.51921000  0.31480000  1.0
  O  O84  1  0.74237000  0.27562000  0.51528000  1.0
  O  O85  1  0.25766000  0.72438000  0.48473000  1.0
  O  O86  1  0.75302000  0.39172000  0.36642000  1.0
  O  O87  1  0.24700000  0.60828000  0.63358000  1.0
  O  O88  1  0.29589000  0.25634000  0.36832000  1.0
  O  O89  1  0.70413000  0.74365000  0.63169000  1.0
  O  O90  1  0.01833000  0.42851000  0.38712000  1.0
  O  O91  1  0.98170000  0.57148000  0.61288000  1.0
  O  O92  1  0.47198000  0.44189000  0.57474000  1.0
  O  O93  1  0.52804000  0.55809000  0.42527000  1.0
  O  O94  1  0.63115000  0.07079000  0.33818000  1.0
  O  O95  1  0.36886000  0.92922000  0.66182000  1.0
  O  O96  1  0.56485000  0.25824000  0.81649000  1.0
  O  O97  1  0.43514000  0.74176000  0.18351000  1.0
  O  O98  1  0.55813000  0.73992000  0.90186000  1.0
  O  O99  1  0.44184000  0.26007000  0.09815000  1.0
  O  O100  1  0.14426000  0.05509000  0.39590000  1.0
  O  O101  1  0.85572000  0.94489000  0.60408000  1.0
