# generated using pymatgen
data_Cu2H12AuC6(N2O)2
_symmetry_space_group_name_H-M   'P 1'
_cell_length_a   8.75434000
_cell_length_b   11.55480000
_cell_length_c   15.21770000
_cell_angle_alpha   89.99460000
_cell_angle_beta   87.23680000
_cell_angle_gamma   89.98750000
_symmetry_Int_Tables_number   1
_chemical_formula_structural   Cu2H12AuC6(N2O)2
_chemical_formula_sum   'Cu8 H48 Au4 C24 N16 O8'
_cell_volume   1537.55126062
_cell_formula_units_Z   4
loop_
 _symmetry_equiv_pos_site_id
 _symmetry_equiv_pos_as_xyz
  1  'x, y, z'
loop_
 _atom_site_type_symbol
 _atom_site_label
 _atom_site_symmetry_multiplicity
 _atom_site_fract_x
 _atom_site_fract_y
 _atom_site_fract_z
 _atom_site_occupancy
  Cu  Cu0  1  0.68623000  0.85043000  0.75872000  1.0
  Cu  Cu1  1  0.47397000  0.64663000  0.85441000  1.0
  Cu  Cu2  1  0.31961000  0.85229000  0.73890000  1.0
  Cu  Cu3  1  0.52422000  0.64838000  0.64714000  1.0
  Cu  Cu4  1  0.31961000  0.14775000  0.23888000  1.0
  Cu  Cu5  1  0.52413000  0.35176000  0.14699000  1.0
  Cu  Cu6  1  0.68618000  0.14963000  0.25859000  1.0
  Cu  Cu7  1  0.47376000  0.35341000  0.35428000  1.0
  H  H8  1  0.68841000  0.87159000  0.54979000  1.0
  H  H9  1  0.49225000  0.90975000  0.54049000  1.0
  H  H10  1  0.51084000  0.05858000  0.65496000  1.0
  H  H11  1  0.65741000  0.08397000  0.57095000  1.0
  H  H12  1  0.51936000  0.41527000  0.85932000  1.0
  H  H13  1  0.62252000  0.47708000  0.93227000  1.0
  H  H14  1  0.87382000  0.60600000  0.74012000  1.0
  H  H15  1  0.83905000  0.63449000  0.85452000  1.0
  H  H16  1  0.81616000  0.42397000  0.82972000  1.0
  H  H17  1  0.68877000  0.44957000  0.74305000  1.0
  H  H18  1  0.83717000  0.99980000  0.66431000  1.0
  H  H19  1  0.73289000  0.08066000  0.73290000  1.0
  H  H20  1  0.31150000  0.87088000  0.95023000  1.0
  H  H21  1  0.50803000  0.90850000  0.95857000  1.0
  H  H22  1  0.48842000  0.05750000  0.84433000  1.0
  H  H23  1  0.34253000  0.08320000  0.92871000  1.0
  H  H24  1  0.48065000  0.41531000  0.64007000  1.0
  H  H25  1  0.37617000  0.47590000  0.56719000  1.0
  H  H26  1  0.12550000  0.60319000  0.76120000  1.0
  H  H27  1  0.16341000  0.63561000  0.64769000  1.0
  H  H28  1  0.18195000  0.42412000  0.66872000  1.0
  H  H29  1  0.30965000  0.44525000  0.75581000  1.0
  H  H30  1  0.16244000  0.99636000  0.83601000  1.0
  H  H31  1  0.26355000  0.08025000  0.76807000  1.0
  H  H32  1  0.31145000  0.12914000  0.45018000  1.0
  H  H33  1  0.50799000  0.09147000  0.45856000  1.0
  H  H34  1  0.48841000  0.94240000  0.34437000  1.0
  H  H35  1  0.34250000  0.91682000  0.42876000  1.0
  H  H36  1  0.48040000  0.58482000  0.14013000  1.0
  H  H37  1  0.37588000  0.52436000  0.06723000  1.0
  H  H38  1  0.12549000  0.39685000  0.26132000  1.0
  H  H39  1  0.16322000  0.36451000  0.14778000  1.0
  H  H40  1  0.18166000  0.57599000  0.16882000  1.0
  H  H41  1  0.30948000  0.55481000  0.25587000  1.0
  H  H42  1  0.16243000  0.00363000  0.33598000  1.0
  H  H43  1  0.26359000  0.91971000  0.26808000  1.0
  H  H44  1  0.68825000  0.12819000  0.04960000  1.0
  H  H45  1  0.49206000  0.09007000  0.04043000  1.0
  H  H46  1  0.51076000  0.94139000  0.15500000  1.0
  H  H47  1  0.65735000  0.91586000  0.07101000  1.0
  H  H48  1  0.51928000  0.58476000  0.35950000  1.0
  H  H49  1  0.62228000  0.52262000  0.43239000  1.0
  H  H50  1  0.87380000  0.39396000  0.24028000  1.0
  H  H51  1  0.83871000  0.36529000  0.35463000  1.0
  H  H52  1  0.81605000  0.57587000  0.32999000  1.0
  H  H53  1  0.68877000  0.55053000  0.24323000  1.0
  H  H54  1  0.83709000  0.00005000  0.16433000  1.0
  H  H55  1  0.73272000  0.91937000  0.23299000  1.0
  Au  Au56  1  0.00043000  0.99975000  0.99947000  1.0
  Au  Au57  1  0.00037000  0.00023000  0.49943000  1.0
  Au  Au58  1  0.99917000  0.50032000  0.00042000  1.0
  Au  Au59  1  0.99923000  0.49979000  0.50050000  1.0
  C  C60  1  0.89529000  0.92325000  0.90402000  1.0
  C  C61  1  0.18889000  0.57738000  0.95917000  1.0
  C  C62  1  0.58475000  0.90383000  0.58715000  1.0
  C  C63  1  0.61722000  0.02412000  0.62356000  1.0
  C  C64  1  0.78473000  0.60470000  0.79407000  1.0
  C  C65  1  0.72548000  0.48143000  0.80679000  1.0
  C  C66  1  0.10884000  0.92374000  0.59363000  1.0
  C  C67  1  0.80960000  0.57646000  0.54239000  1.0
  C  C68  1  0.41480000  0.90291000  0.91234000  1.0
  C  C69  1  0.38230000  0.02315000  0.87613000  1.0
  C  C70  1  0.21599000  0.60320000  0.70795000  1.0
  C  C71  1  0.27363000  0.47977000  0.69269000  1.0
  C  C72  1  0.10879000  0.07628000  0.09366000  1.0
  C  C73  1  0.80955000  0.42369000  0.04231000  1.0
  C  C74  1  0.41478000  0.09707000  0.41232000  1.0
  C  C75  1  0.38229000  0.97681000  0.37615000  1.0
  C  C76  1  0.21588000  0.39689000  0.20801000  1.0
  C  C77  1  0.27342000  0.52034000  0.19276000  1.0
  C  C78  1  0.89515000  0.07673000  0.40398000  1.0
  C  C79  1  0.18890000  0.42265000  0.45922000  1.0
  C  C80  1  0.58464000  0.09604000  0.08705000  1.0
  C  C81  1  0.61714000  0.97579000  0.12357000  1.0
  C  C82  1  0.78458000  0.39524000  0.29416000  1.0
  C  C83  1  0.72538000  0.51852000  0.30695000  1.0
  N  N84  1  0.83291000  0.87927000  0.84618000  1.0
  N  N85  1  0.30647000  0.61999000  0.93673000  1.0
  N  N86  1  0.58954000  0.48413000  0.86880000  1.0
  N  N87  1  0.72926000  0.01035000  0.69253000  1.0
  N  N88  1  0.17732000  0.87990000  0.64909000  1.0
  N  N89  1  0.69229000  0.61831000  0.56620000  1.0
  N  N90  1  0.40905000  0.48332000  0.63064000  1.0
  N  N91  1  0.26966000  0.00907000  0.80741000  1.0
  N  N92  1  0.17719000  0.12018000  0.14912000  1.0
  N  N93  1  0.69222000  0.38186000  0.06608000  1.0
  N  N94  1  0.40880000  0.51685000  0.13066000  1.0
  N  N95  1  0.26966000  0.99088000  0.30741000  1.0
  N  N96  1  0.83280000  0.12074000  0.34613000  1.0
  N  N97  1  0.30643000  0.37997000  0.43672000  1.0
  N  N98  1  0.58935000  0.51579000  0.36890000  1.0
  N  N99  1  0.72916000  0.98961000  0.19253000  1.0
  O  O100  1  0.66060000  0.67648000  0.77472000  1.0
  O  O101  1  0.54360000  0.82991000  0.65760000  1.0
  O  O102  1  0.33968000  0.67326000  0.73003000  1.0
  O  O103  1  0.45464000  0.82902000  0.84162000  1.0
  O  O104  1  0.33967000  0.32683000  0.23000000  1.0
  O  O105  1  0.45463000  0.17096000  0.34160000  1.0
  O  O106  1  0.66046000  0.32357000  0.27466000  1.0
  O  O107  1  0.54356000  0.17011000  0.15742000  1.0
