# generated using pymatgen
data_CdH32C34Br4(N2O3)2
_symmetry_space_group_name_H-M   'P 1'
_cell_length_a   9.10908000
_cell_length_b   9.42544000
_cell_length_c   11.79130000
_cell_angle_alpha   96.95240000
_cell_angle_beta   97.65160000
_cell_angle_gamma   117.13900000
_symmetry_Int_Tables_number   1
_chemical_formula_structural   CdH32C34Br4(N2O3)2
_chemical_formula_sum   'Cd1 H32 C34 Br4 N4 O6'
_cell_volume   873.71552204
_cell_formula_units_Z   1
loop_
 _symmetry_equiv_pos_site_id
 _symmetry_equiv_pos_as_xyz
  1  'x, y, z'
loop_
 _atom_site_type_symbol
 _atom_site_label
 _atom_site_symmetry_multiplicity
 _atom_site_fract_x
 _atom_site_fract_y
 _atom_site_fract_z
 _atom_site_occupancy
  Cd  Cd0  1  0.00000000  0.00000000  0.50000000  1.0
  H  H1  1  0.71265000  0.14105000  0.92814000  1.0
  H  H2  1  0.28736000  0.85896000  0.07186000  1.0
  H  H3  1  0.46450000  0.17340000  0.12625000  1.0
  H  H4  1  0.53550000  0.82660000  0.87375000  1.0
  H  H5  1  0.61723000  0.37660000  0.14629000  1.0
  H  H6  1  0.38277000  0.62339000  0.85371000  1.0
  H  H7  1  0.67272000  0.63834000  0.49201000  1.0
  H  H8  1  0.32729000  0.36166000  0.50799000  1.0
  H  H9  1  0.63367000  0.87339000  0.41261000  1.0
  H  H10  1  0.36634000  0.12661000  0.58739000  1.0
  H  H11  1  0.69515000  0.92482000  0.55844000  1.0
  H  H12  1  0.30485000  0.07518000  0.44156000  1.0
  H  H13  1  0.56400000  0.34593000  0.39723000  1.0
  H  H14  1  0.43600000  0.65408000  0.60277000  1.0
  H  H15  1  0.64346000  0.13095000  0.71734000  1.0
  H  H16  1  0.35655000  0.86905000  0.28266000  1.0
  H  H17  1  0.62056000  0.13836000  0.30497000  1.0
  H  H18  1  0.37943000  0.86164000  0.69503000  1.0
  H  H19  1  0.83269000  0.18025000  0.31402000  1.0
  H  H20  1  0.16731000  0.81975000  0.68598000  1.0
  H  H21  1  0.05492000  0.48566000  0.31924000  1.0
  H  H22  1  0.94508000  0.51434000  0.68077000  1.0
  H  H23  1  0.14284000  0.77163000  0.41634000  1.0
  H  H24  1  0.85717000  0.22837000  0.58366000  1.0
  H  H25  1  0.38248000  0.34596000  0.97739000  1.0
  H  H26  1  0.61753000  0.65404000  0.02261000  1.0
  H  H27  1  0.84104000  0.29031000  0.13120000  1.0
  H  H28  1  0.15896000  0.70969000  0.86881000  1.0
  H  H29  1  0.68581000  0.08480000  0.11059000  1.0
  H  H30  1  0.31419000  0.91520000  0.88941000  1.0
  H  H31  1  0.31501000  0.31573000  0.76187000  1.0
  H  H32  1  0.68500000  0.68426000  0.23813000  1.0
  C  C33  1  0.08827000  0.15229000  0.07507000  1.0
  C  C34  1  0.91172000  0.84771000  0.92493000  1.0
  C  C35  1  0.62630000  0.18475000  0.89642000  1.0
  C  C36  1  0.37371000  0.81525000  0.10358000  1.0
  C  C37  1  0.58461000  0.25269000  0.10250000  1.0
  C  C38  1  0.41540000  0.74731000  0.89750000  1.0
  C  C39  1  0.06104000  0.01327000  0.11974000  1.0
  C  C40  1  0.93895000  0.98673000  0.88026000  1.0
  C  C41  1  0.75345000  0.59900000  0.45262000  1.0
  C  C42  1  0.24655000  0.40100000  0.54738000  1.0
  C  C43  1  0.11522000  0.02927000  0.25072000  1.0
  C  C44  1  0.88476000  0.97073000  0.74927000  1.0
  C  C45  1  0.02661000  0.13924000  0.95676000  1.0
  C  C46  1  0.97338000  0.86076000  0.04324000  1.0
  C  C47  1  0.69390000  0.43679000  0.40040000  1.0
  C  C48  1  0.30610000  0.56322000  0.59961000  1.0
  C  C49  1  0.55263000  0.24421000  0.97270000  1.0
  C  C50  1  0.44737000  0.75580000  0.02730000  1.0
  C  C51  1  0.80066000  0.39146000  0.34908000  1.0
  C  C52  1  0.19934000  0.60854000  0.65092000  1.0
  C  C53  1  0.58694000  0.17855000  0.77694000  1.0
  C  C54  1  0.41306000  0.82144000  0.22306000  1.0
  C  C55  1  0.74120000  0.22109000  0.28479000  1.0
  C  C56  1  0.25880000  0.77891000  0.71521000  1.0
  C  C57  1  0.96553000  0.51427000  0.35594000  1.0
  C  C58  1  0.03447000  0.48573000  0.64406000  1.0
  C  C59  1  0.01537000  0.67331000  0.40937000  1.0
  C  C60  1  0.98463000  0.32669000  0.59064000  1.0
  C  C61  1  0.44155000  0.29558000  0.92241000  1.0
  C  C62  1  0.55845000  0.70442000  0.07758000  1.0
  C  C63  1  0.71914000  0.20960000  0.15168000  1.0
  C  C64  1  0.28086000  0.79040000  0.84832000  1.0
  C  C65  1  0.40588000  0.28158000  0.80212000  1.0
  C  C66  1  0.59413000  0.71842000  0.19788000  1.0
  Br  Br67  1  0.05883000  0.32775000  0.89712000  1.0
  Br  Br68  1  0.94118000  0.67226000  0.10288000  1.0
  Br  Br69  1  0.21363000  0.35973000  0.17789000  1.0
  Br  Br70  1  0.78636000  0.64026000  0.82211000  1.0
  N  N71  1  0.91094000  0.71659000  0.45599000  1.0
  N  N72  1  0.08906000  0.28341000  0.54401000  1.0
  N  N73  1  0.47739000  0.22450000  0.72893000  1.0
  N  N74  1  0.52262000  0.77550000  0.27108000  1.0
  O  O75  1  0.26707000  0.06972000  0.29178000  1.0
  O  O76  1  0.73291000  0.93028000  0.70821000  1.0
  O  O77  1  0.72095000  0.95533000  0.48265000  1.0
  O  O78  1  0.27905000  0.04467000  0.51735000  1.0
  O  O79  1  0.99540000  0.00087000  0.30381000  1.0
  O  O80  1  0.00458000  0.99913000  0.69618000  1.0
