# generated using pymatgen
data_PrH12C11O9
_symmetry_space_group_name_H-M   'P 1'
_cell_length_a   8.98787000
_cell_length_b   8.99536000
_cell_length_c   19.57640000
_cell_angle_alpha   82.97960000
_cell_angle_beta   82.97370000
_cell_angle_gamma   60.86600000
_symmetry_Int_Tables_number   1
_chemical_formula_structural   PrH12C11O9
_chemical_formula_sum   'Pr4 H48 C44 O36'
_cell_volume   1368.52060980
_cell_formula_units_Z   4
loop_
 _symmetry_equiv_pos_site_id
 _symmetry_equiv_pos_as_xyz
  1  'x, y, z'
loop_
 _atom_site_type_symbol
 _atom_site_label
 _atom_site_symmetry_multiplicity
 _atom_site_fract_x
 _atom_site_fract_y
 _atom_site_fract_z
 _atom_site_occupancy
  Pr  Pr0  1  0.63074000  0.26111000  0.46159000  1.0
  Pr  Pr1  1  0.73895000  0.36929000  0.03840000  1.0
  Pr  Pr2  1  0.36925000  0.73889000  0.53841000  1.0
  Pr  Pr3  1  0.26105000  0.63071000  0.96160000  1.0
  H  H4  1  0.90672000  0.25830000  0.22385000  1.0
  H  H5  1  0.74184000  0.09298000  0.27617000  1.0
  H  H6  1  0.09328000  0.74170000  0.77615000  1.0
  H  H7  1  0.25816000  0.90702000  0.72383000  1.0
  H  H8  1  0.93913000  0.13400000  0.35246000  1.0
  H  H9  1  0.86590000  0.06085000  0.14754000  1.0
  H  H10  1  0.06088000  0.86600000  0.64754000  1.0
  H  H11  1  0.13410000  0.93914000  0.85246000  1.0
  H  H12  1  0.01491000  0.98166000  0.41277000  1.0
  H  H13  1  0.01830000  0.98516000  0.08720000  1.0
  H  H14  1  0.98509000  0.01834000  0.58722000  1.0
  H  H15  1  0.98170000  0.01483000  0.91280000  1.0
  H  H16  1  0.17685000  0.17319000  0.35634000  1.0
  H  H17  1  0.82678000  0.82311000  0.14366000  1.0
  H  H18  1  0.82314000  0.82682000  0.64366000  1.0
  H  H19  1  0.17322000  0.17688000  0.85634000  1.0
  H  H20  1  0.53026000  0.27839000  0.21647000  1.0
  H  H21  1  0.72159000  0.46993000  0.28352000  1.0
  H  H22  1  0.46974000  0.72161000  0.78353000  1.0
  H  H23  1  0.27841000  0.53007000  0.71648000  1.0
  H  H24  1  0.69540000  0.89297000  0.53283000  1.0
  H  H25  1  0.10714000  0.30454000  0.96717000  1.0
  H  H26  1  0.30460000  0.10703000  0.46717000  1.0
  H  H27  1  0.89286000  0.69546000  0.03284000  1.0
  H  H28  1  0.87502000  0.87001000  0.49934000  1.0
  H  H29  1  0.12998000  0.12506000  0.00063000  1.0
  H  H30  1  0.12498000  0.12999000  0.50066000  1.0
  H  H31  1  0.87002000  0.87494000  0.99937000  1.0
  H  H32  1  0.10508000  0.27926000  0.13790000  1.0
  H  H33  1  0.72071000  0.89476000  0.36210000  1.0
  H  H34  1  0.89492000  0.72074000  0.86210000  1.0
  H  H35  1  0.27929000  0.10524000  0.63790000  1.0
  H  H36  1  0.58300000  0.31504000  0.70660000  1.0
  H  H37  1  0.68499000  0.41686000  0.79342000  1.0
  H  H38  1  0.41700000  0.68496000  0.29340000  1.0
  H  H39  1  0.31501000  0.58314000  0.20658000  1.0
  H  H40  1  0.77445000  0.11925000  0.70625000  1.0
  H  H41  1  0.88091000  0.22552000  0.79374000  1.0
  H  H42  1  0.22555000  0.88075000  0.29375000  1.0
  H  H43  1  0.11910000  0.77447000  0.20626000  1.0
  H  H44  1  0.76071000  0.46770000  0.66827000  1.0
  H  H45  1  0.53216000  0.23934000  0.83174000  1.0
  H  H46  1  0.23929000  0.53230000  0.33172000  1.0
  H  H47  1  0.46784000  0.76066000  0.16826000  1.0
  H  H48  1  0.94268000  0.26420000  0.65884000  1.0
  H  H49  1  0.73579000  0.05749000  0.84115000  1.0
  H  H50  1  0.05732000  0.73580000  0.34116000  1.0
  H  H51  1  0.26421000  0.94251000  0.15885000  1.0
  C  C52  1  0.46351000  0.21054000  0.35117000  1.0
  C  C53  1  0.78949000  0.53660000  0.14881000  1.0
  C  C54  1  0.53649000  0.78946000  0.64883000  1.0
  C  C55  1  0.21051000  0.46340000  0.85119000  1.0
  C  C56  1  0.37921000  0.33287000  0.10050000  1.0
  C  C57  1  0.66718000  0.62074000  0.39949000  1.0
  C  C58  1  0.62078000  0.66713000  0.89950000  1.0
  C  C59  1  0.33282000  0.37926000  0.60051000  1.0
  C  C60  1  0.21999000  0.20094000  0.30431000  1.0
  C  C61  1  0.79901000  0.77998000  0.19569000  1.0
  C  C62  1  0.78000000  0.79907000  0.69569000  1.0
  C  C63  1  0.20099000  0.22002000  0.80432000  1.0
  C  C64  1  0.41839000  0.26020000  0.22589000  1.0
  C  C65  1  0.73980000  0.58170000  0.27410000  1.0
  C  C66  1  0.58161000  0.73980000  0.77412000  1.0
  C  C67  1  0.26021000  0.41830000  0.72590000  1.0
  C  C68  1  0.17714000  0.26276000  0.18170000  1.0
  C  C69  1  0.73720000  0.82277000  0.31831000  1.0
  C  C70  1  0.82286000  0.73724000  0.81830000  1.0
  C  C71  1  0.26281000  0.17723000  0.68169000  1.0
  C  C72  1  0.36611000  0.22123000  0.29280000  1.0
  C  C73  1  0.77874000  0.63396000  0.20719000  1.0
  C  C74  1  0.63389000  0.77877000  0.70720000  1.0
  C  C75  1  0.22126000  0.36604000  0.79281000  1.0
  C  C76  1  0.12665000  0.22053000  0.24860000  1.0
  C  C77  1  0.77942000  0.87325000  0.25140000  1.0
  C  C78  1  0.87334000  0.77948000  0.75140000  1.0
  C  C79  1  0.22058000  0.12675000  0.74860000  1.0
  C  C80  1  0.32336000  0.28202000  0.17070000  1.0
  C  C81  1  0.71799000  0.67662000  0.32930000  1.0
  C  C82  1  0.67663000  0.71798000  0.82930000  1.0
  C  C83  1  0.28201000  0.32338000  0.67070000  1.0
  C  C84  1  0.75395000  0.33272000  0.58719000  1.0
  C  C85  1  0.66728000  0.24609000  0.91282000  1.0
  C  C86  1  0.24605000  0.66728000  0.41281000  1.0
  C  C87  1  0.33273000  0.75392000  0.08718000  1.0
  C  C88  1  0.72033000  0.25577000  0.71343000  1.0
  C  C89  1  0.74427000  0.27965000  0.78657000  1.0
  C  C90  1  0.27967000  0.74424000  0.28656000  1.0
  C  C91  1  0.25573000  0.72035000  0.21343000  1.0
  C  C92  1  0.80310000  0.33544000  0.65778000  1.0
  C  C93  1  0.66453000  0.19695000  0.84222000  1.0
  C  C94  1  0.19690000  0.66456000  0.34222000  1.0
  C  C95  1  0.33547000  0.80305000  0.15778000  1.0
  O  O96  1  0.60181000  0.22253000  0.33740000  1.0
  O  O97  1  0.77746000  0.39842000  0.16257000  1.0
  O  O98  1  0.39819000  0.77747000  0.66260000  1.0
  O  O99  1  0.22253000  0.60158000  0.83743000  1.0
  O  O100  1  0.53945000  0.27509000  0.08797000  1.0
  O  O101  1  0.72491000  0.46065000  0.41200000  1.0
  O  O102  1  0.46054000  0.72492000  0.91203000  1.0
  O  O103  1  0.27509000  0.53935000  0.58800000  1.0
  O  O104  1  0.61950000  0.45613000  0.56295000  1.0
  O  O105  1  0.54390000  0.38061000  0.93701000  1.0
  O  O106  1  0.38050000  0.54387000  0.43705000  1.0
  O  O107  1  0.45610000  0.61938000  0.06299000  1.0
  O  O108  1  0.84313000  0.20045000  0.55260000  1.0
  O  O109  1  0.79955000  0.15683000  0.94744000  1.0
  O  O110  1  0.15687000  0.79956000  0.44739000  1.0
  O  O111  1  0.20045000  0.84317000  0.05256000  1.0
  O  O112  1  0.26488000  0.43210000  0.05991000  1.0
  O  O113  1  0.56797000  0.73498000  0.44012000  1.0
  O  O114  1  0.73512000  0.56790000  0.94009000  1.0
  O  O115  1  0.43203000  0.26502000  0.55988000  1.0
  O  O116  1  0.98716000  0.19548000  0.26129000  1.0
  O  O117  1  0.80454000  0.01259000  0.23870000  1.0
  O  O118  1  0.01284000  0.80453000  0.73871000  1.0
  O  O119  1  0.19546000  0.98741000  0.76130000  1.0
  O  O120  1  0.92022000  0.09870000  0.40091000  1.0
  O  O121  1  0.90125000  0.07988000  0.09910000  1.0
  O  O122  1  0.07978000  0.90130000  0.59909000  1.0
  O  O123  1  0.09874000  0.92012000  0.90090000  1.0
  O  O124  1  0.41119000  0.19569000  0.41388000  1.0
  O  O125  1  0.80439000  0.58883000  0.08610000  1.0
  O  O126  1  0.58881000  0.80431000  0.58612000  1.0
  O  O127  1  0.19561000  0.41117000  0.91390000  1.0
  O  O128  1  0.75224000  0.94618000  0.49956000  1.0
  O  O129  1  0.05391000  0.24775000  0.00046000  1.0
  O  O130  1  0.24776000  0.05382000  0.50044000  1.0
  O  O131  1  0.94609000  0.75225000  0.99955000  1.0
