# generated using pymatgen
data_CdH5C8N2O5
_symmetry_space_group_name_H-M   'P 1'
_cell_length_a   7.62983000
_cell_length_b   7.78298000
_cell_length_c   8.44066000
_cell_angle_alpha   70.29200000
_cell_angle_beta   72.57300000
_cell_angle_gamma   74.07440000
_symmetry_Int_Tables_number   1
_chemical_formula_structural   CdH5C8N2O5
_chemical_formula_sum   'Cd2 H10 C16 N4 O10'
_cell_volume   441.74240935
_cell_formula_units_Z   2
loop_
 _symmetry_equiv_pos_site_id
 _symmetry_equiv_pos_as_xyz
  1  'x, y, z'
loop_
 _atom_site_type_symbol
 _atom_site_label
 _atom_site_symmetry_multiplicity
 _atom_site_fract_x
 _atom_site_fract_y
 _atom_site_fract_z
 _atom_site_occupancy
  Cd  Cd0  1  0.41281000  0.94350000  0.24587000  1.0
  Cd  Cd1  1  0.58719000  0.05650000  0.75413000  1.0
  H  H2  1  0.75194000  0.80126000  0.38164000  1.0
  H  H3  1  0.24806000  0.19874000  0.61836000  1.0
  H  H4  1  0.57996000  0.78354000  0.55303000  1.0
  H  H5  1  0.42004000  0.21646000  0.44697000  1.0
  H  H6  1  0.83259000  0.60108000  0.88793000  1.0
  H  H7  1  0.16741000  0.39892000  0.11207000  1.0
  H  H8  1  0.15932000  0.40879000  0.81631000  1.0
  H  H9  1  0.84067000  0.59121000  0.18369000  1.0
  H  H10  1  0.39222000  0.56580000  0.56788000  1.0
  H  H11  1  0.60778000  0.43420000  0.43212000  1.0
  C  C12  1  0.13217000  0.01632000  0.99834000  1.0
  C  C13  1  0.86783000  0.98368000  0.00166000  1.0
  C  C14  1  0.01456000  0.08011000  0.87043000  1.0
  C  C15  1  0.98544000  0.91989000  0.12957000  1.0
  C  C16  1  0.49909000  0.37454000  0.09824000  1.0
  C  C17  1  0.50091000  0.62546000  0.90177000  1.0
  C  C18  1  0.47837000  0.57153000  0.09236000  1.0
  C  C19  1  0.52163000  0.42847000  0.90765000  1.0
  C  C20  1  0.02643000  0.90318000  0.55303000  1.0
  C  C21  1  0.97357000  0.09682000  0.44697000  1.0
  C  C22  1  0.94182000  0.65687000  0.78025000  1.0
  C  C23  1  0.05818000  0.34313000  0.21975000  1.0
  C  C24  1  0.12001000  0.55198000  0.74264000  1.0
  C  C25  1  0.87999000  0.44802000  0.25736000  1.0
  C  C26  1  0.24913000  0.63796000  0.60310000  1.0
  C  C27  1  0.75087000  0.36204000  0.39689000  1.0
  N  N28  1  0.20251000  0.81293000  0.50890000  1.0
  N  N29  1  0.79749000  0.18707000  0.49110000  1.0
  N  N30  1  0.89484000  0.83273000  0.68609000  1.0
  N  N31  1  0.10516000  0.16727000  0.31391000  1.0
  O  O32  1  0.29184000  0.04087000  0.99379000  1.0
  O  O33  1  0.70815000  0.95913000  0.00621000  1.0
  O  O34  1  0.03251000  0.17725000  0.71618000  1.0
  O  O35  1  0.96750000  0.82275000  0.28382000  1.0
  O  O36  1  0.49538000  0.22649000  0.22153000  1.0
  O  O37  1  0.50462000  0.77351000  0.77847000  1.0
  O  O38  1  0.45394000  0.64804000  0.20844000  1.0
  O  O39  1  0.54606000  0.35196000  0.79156000  1.0
  O  O40  1  0.61600000  0.79235000  0.42804000  1.0
  O  O41  1  0.38400000  0.20765000  0.57196000  1.0
