# generated using pymatgen
data_AgH11C26SN3(OF)3
_symmetry_space_group_name_H-M   'P 1'
_cell_length_a   9.83470000
_cell_length_b   13.38230000
_cell_length_c   13.52650000
_cell_angle_alpha   109.08100000
_cell_angle_beta   93.39460000
_cell_angle_gamma   93.50190000
_symmetry_Int_Tables_number   1
_chemical_formula_structural   AgH11C26SN3(OF)3
_chemical_formula_sum   'Ag2 H22 C52 S2 N6 O6 F6'
_cell_volume   1673.35613053
_cell_formula_units_Z   2
loop_
 _symmetry_equiv_pos_site_id
 _symmetry_equiv_pos_as_xyz
  1  'x, y, z'
loop_
 _atom_site_type_symbol
 _atom_site_label
 _atom_site_symmetry_multiplicity
 _atom_site_fract_x
 _atom_site_fract_y
 _atom_site_fract_z
 _atom_site_occupancy
  Ag  Ag0  1  0.29815000  0.42673000  0.66164000  1.0
  Ag  Ag1  1  0.70185000  0.57327000  0.33835000  1.0
  H  H2  1  0.61060000  0.44055000  0.99058000  1.0
  H  H3  1  0.38940000  0.55945000  0.00941000  1.0
  H  H4  1  0.81234000  0.49184000  0.12290000  1.0
  H  H5  1  0.18766000  0.50816000  0.87709000  1.0
  H  H6  1  0.97357000  0.71062000  0.97544000  1.0
  H  H7  1  0.02642000  0.28938000  0.02456000  1.0
  H  H8  1  0.77541000  0.66002000  0.84379000  1.0
  H  H9  1  0.22458000  0.33997000  0.15620000  1.0
  H  H10  1  0.49755000  0.69086000  0.50857000  1.0
  H  H11  1  0.50245000  0.30914000  0.49144000  1.0
  H  H12  1  0.88141000  0.19907000  0.42146000  1.0
  H  H13  1  0.11859000  0.80092000  0.57853000  1.0
  H  H14  1  0.68897000  0.05789000  0.35786000  1.0
  H  H15  1  0.31103000  0.94211000  0.64214000  1.0
  H  H16  1  0.79347000  0.94481000  0.61522000  1.0
  H  H17  1  0.20653000  0.05519000  0.38478000  1.0
  H  H18  1  0.98739000  0.08481000  0.67820000  1.0
  H  H19  1  0.01261000  0.91519000  0.32180000  1.0
  H  H20  1  0.32522000  0.79998000  0.26493000  1.0
  H  H21  1  0.67479000  0.20002000  0.73507000  1.0
  H  H22  1  0.12985000  0.52655000  0.31901000  1.0
  H  H23  1  0.87016000  0.47345000  0.68098000  1.0
  C  C24  1  0.31519000  0.60048000  0.41814000  1.0
  C  C25  1  0.68481000  0.39952000  0.58185000  1.0
  C  C26  1  0.67765000  0.54979000  0.91144000  1.0
  C  C27  1  0.32235000  0.45021000  0.08855000  1.0
  C  C28  1  0.68902000  0.50116000  0.98936000  1.0
  C  C29  1  0.31098000  0.49884000  0.01063000  1.0
  C  C30  1  0.80087000  0.52954000  0.06290000  1.0
  C  C31  1  0.19913000  0.47046000  0.93710000  1.0
  C  C32  1  0.90348000  0.60699000  0.05968000  1.0
  C  C33  1  0.09652000  0.39301000  0.94032000  1.0
  C  C34  1  0.89257000  0.65363000  0.98017000  1.0
  C  C35  1  0.10742000  0.34637000  0.01983000  1.0
  C  C36  1  0.78067000  0.62550000  0.90638000  1.0
  C  C37  1  0.21932000  0.37450000  0.09362000  1.0
  C  C38  1  0.56234000  0.51963000  0.83696000  1.0
  C  C39  1  0.43767000  0.48036000  0.16303000  1.0
  C  C40  1  0.01674000  0.63367000  0.13534000  1.0
  C  C41  1  0.98325000  0.36634000  0.86465000  1.0
  C  C42  1  0.11156000  0.65076000  0.20256000  1.0
  C  C43  1  0.88845000  0.34925000  0.79745000  1.0
  C  C44  1  0.41952000  0.68327000  0.44553000  1.0
  C  C45  1  0.58047000  0.31674000  0.55447000  1.0
  C  C46  1  0.94684000  0.14868000  0.55246000  1.0
  C  C47  1  0.05316000  0.85133000  0.44755000  1.0
  C  C48  1  0.86278000  0.14185000  0.46211000  1.0
  C  C49  1  0.13722000  0.85815000  0.53790000  1.0
  C  C50  1  0.75476000  0.06378000  0.42759000  1.0
  C  C51  1  0.24524000  0.93622000  0.57242000  1.0
  C  C52  1  0.72871000  0.99172000  0.48209000  1.0
  C  C53  1  0.27128000  0.00828000  0.51791000  1.0
  C  C54  1  0.81327000  0.00063000  0.57342000  1.0
  C  C55  1  0.18672000  0.99937000  0.42659000  1.0
  C  C56  1  0.92143000  0.07827000  0.60842000  1.0
  C  C57  1  0.07857000  0.92174000  0.39158000  1.0
  C  C58  1  0.05907000  0.22681000  0.58754000  1.0
  C  C59  1  0.94093000  0.77318000  0.41246000  1.0
  C  C60  1  0.62031000  0.91091000  0.44675000  1.0
  C  C61  1  0.37967000  0.08910000  0.55326000  1.0
  C  C62  1  0.52846000  0.83962000  0.41850000  1.0
  C  C63  1  0.47154000  0.16039000  0.58151000  1.0
  C  C64  1  0.42334000  0.75589000  0.39016000  1.0
  C  C65  1  0.57665000  0.24411000  0.60985000  1.0
  C  C66  1  0.32237000  0.74411000  0.30811000  1.0
  C  C67  1  0.67762000  0.25590000  0.69190000  1.0
  C  C68  1  0.21609000  0.66240000  0.28286000  1.0
  C  C69  1  0.78391000  0.33760000  0.71714000  1.0
  C  C70  1  0.21215000  0.58990000  0.33853000  1.0
  C  C71  1  0.78784000  0.41011000  0.66147000  1.0
  C  C72  1  0.31775000  0.52387000  0.47014000  1.0
  C  C73  1  0.68225000  0.47612000  0.52985000  1.0
  C  C74  1  0.21704000  0.75069000  0.81306000  1.0
  C  C75  1  0.78296000  0.24929000  0.18695000  1.0
  S  S76  1  0.09184000  0.65224000  0.71323000  1.0
  S  S77  1  0.90816000  0.34776000  0.28677000  1.0
  N  N78  1  0.46542000  0.49333000  0.77760000  1.0
  N  N79  1  0.53459000  0.50667000  0.22239000  1.0
  N  N80  1  0.15258000  0.28978000  0.61721000  1.0
  N  N81  1  0.84742000  0.71022000  0.38278000  1.0
  N  N82  1  0.32601000  0.45933000  0.51032000  1.0
  N  N83  1  0.67398000  0.54068000  0.48967000  1.0
  O  O84  1  0.11595000  0.55212000  0.73185000  1.0
  O  O85  1  0.88405000  0.44787000  0.26814000  1.0
  O  O86  1  0.95977000  0.69084000  0.74177000  1.0
  O  O87  1  0.04023000  0.30916000  0.25823000  1.0
  O  O88  1  0.13590000  0.65900000  0.61454000  1.0
  O  O89  1  0.86412000  0.34101000  0.38547000  1.0
  F  F90  1  0.20896000  0.84999000  0.80728000  1.0
  F  F91  1  0.79104000  0.15000000  0.19274000  1.0
  F  F92  1  0.19353000  0.75547000  0.91291000  1.0
  F  F93  1  0.80647000  0.24450000  0.08709000  1.0
  F  F94  1  0.34788000  0.72519000  0.79801000  1.0
  F  F95  1  0.65213000  0.27480000  0.20201000  1.0
