# generated using pymatgen
data_Mn5H26C32(NO)12
_symmetry_space_group_name_H-M   'P 1'
_cell_length_a   11.00660000
_cell_length_b   12.51210000
_cell_length_c   19.92867356
_cell_angle_alpha   93.60124246
_cell_angle_beta   105.66561115
_cell_angle_gamma   99.48820000
_symmetry_Int_Tables_number   1
_chemical_formula_structural   Mn5H26C32(NO)12
_chemical_formula_sum   'Mn10 H52 C64 N24 O24'
_cell_volume   2589.69574859
_cell_formula_units_Z   2
loop_
 _symmetry_equiv_pos_site_id
 _symmetry_equiv_pos_as_xyz
  1  'x, y, z'
loop_
 _atom_site_type_symbol
 _atom_site_label
 _atom_site_symmetry_multiplicity
 _atom_site_fract_x
 _atom_site_fract_y
 _atom_site_fract_z
 _atom_site_occupancy
  Mn  Mn0  1  0.23210000  0.21944000  0.74728000  1.0
  Mn  Mn1  1  0.76790000  0.78056000  0.25272000  1.0
  Mn  Mn2  1  0.14926000  0.49106000  0.77276000  1.0
  Mn  Mn3  1  0.85075000  0.50895000  0.22724000  1.0
  Mn  Mn4  1  0.36542000  0.70490000  0.72979000  1.0
  Mn  Mn5  1  0.63458000  0.29511000  0.27021000  1.0
  Mn  Mn6  1  0.09881000  0.73726000  0.78415000  1.0
  Mn  Mn7  1  0.90120000  0.26275000  0.21586000  1.0
  Mn  Mn8  1  0.33366000  0.95316000  0.75577000  1.0
  Mn  Mn9  1  0.66633000  0.04684000  0.24423000  1.0
  H  H10  1  0.66798000  0.09985000  0.72030000  1.0
  H  H11  1  0.33200000  0.90014000  0.27969000  1.0
  H  H12  1  0.88623000  0.18935000  0.71767000  1.0
  H  H13  1  0.11374000  0.81064000  0.28232000  1.0
  H  H14  1  0.79328000  0.79543000  0.76275000  1.0
  H  H15  1  0.20671000  0.20457000  0.23726000  1.0
  H  H16  1  0.79615000  0.33754000  0.78610000  1.0
  H  H17  1  0.20385000  0.66245000  0.21390000  1.0
  H  H18  1  0.57273000  0.24580000  0.77863000  1.0
  H  H19  1  0.42727000  0.75420000  0.22136000  1.0
  H  H20  1  0.67856000  0.64751000  0.75380000  1.0
  H  H21  1  0.32145000  0.35249000  0.24621000  1.0
  H  H22  1  0.87783000  0.02786000  0.47155000  1.0
  H  H23  1  0.12217000  0.97214000  0.52845000  1.0
  H  H24  1  0.01459000  0.05736000  0.59512000  1.0
  H  H25  1  0.98542000  0.94265000  0.40488000  1.0
  H  H26  1  0.82668000  0.36290000  0.47684000  1.0
  H  H27  1  0.17331000  0.63710000  0.52316000  1.0
  H  H28  1  0.59235000  0.46953000  0.01231000  1.0
  H  H29  1  0.40765000  0.53048000  0.98769000  1.0
  H  H30  1  0.42226000  0.40929000  0.89902000  1.0
  H  H31  1  0.57775000  0.59072000  0.10098000  1.0
  H  H32  1  0.69855000  0.15336000  0.02070000  1.0
  H  H33  1  0.30144000  0.84663000  0.97929000  1.0
  H  H34  1  0.23064000  0.36819000  0.92323000  1.0
  H  H35  1  0.76936000  0.63181000  0.07676000  1.0
  H  H36  1  0.06249000  0.36226000  0.90494000  1.0
  H  H37  1  0.93751000  0.63774000  0.09505000  1.0
  H  H38  1  0.13012000  0.21243000  0.97676000  1.0
  H  H39  1  0.86989000  0.78757000  0.02324000  1.0
  H  H40  1  0.19777000  0.16345000  0.91190000  1.0
  H  H41  1  0.80223000  0.83655000  0.08809000  1.0
  H  H42  1  0.02806000  0.15486000  0.89263000  1.0
  H  H43  1  0.97195000  0.84514000  0.10737000  1.0
  H  H44  1  0.46968000  0.18990000  0.66164000  1.0
  H  H45  1  0.53031000  0.81010000  0.33836000  1.0
  H  H46  1  0.37953000  0.09006000  0.59093000  1.0
  H  H47  1  0.62047000  0.90993000  0.40907000  1.0
  H  H48  1  0.40467000  0.27788000  0.55165000  1.0
  H  H49  1  0.59533000  0.72211000  0.44835000  1.0
  H  H50  1  0.32940000  0.32352000  0.61365000  1.0
  H  H51  1  0.67061000  0.67648000  0.38635000  1.0
  H  H52  1  0.23942000  0.22441000  0.54191000  1.0
  H  H53  1  0.76058000  0.77557000  0.45808000  1.0
  H  H54  1  0.36664000  0.82108000  0.85032000  1.0
  H  H55  1  0.63338000  0.17893000  0.14969000  1.0
  H  H56  1  0.10204000  0.60811000  0.67041000  1.0
  H  H57  1  0.89798000  0.39190000  0.32960000  1.0
  H  H58  1  0.03883000  0.28836000  0.79533000  1.0
  H  H59  1  0.96117000  0.71163000  0.20467000  1.0
  H  H60  1  0.24542000  0.04949000  0.64684000  1.0
  H  H61  1  0.75458000  0.95051000  0.35316000  1.0
  C  C62  1  0.58358000  0.89573000  0.74032000  1.0
  C  C63  1  0.41641000  0.10427000  0.25968000  1.0
  C  C64  1  0.71866000  0.94396000  0.74223000  1.0
  C  C65  1  0.28134000  0.05604000  0.25778000  1.0
  C  C66  1  0.74689000  0.05525000  0.73033000  1.0
  C  C67  1  0.25310000  0.94474000  0.26967000  1.0
  C  C68  1  0.86825000  0.10566000  0.73006000  1.0
  C  C69  1  0.13175000  0.89434000  0.26995000  1.0
  C  C70  1  0.96527000  0.04252000  0.74302000  1.0
  C  C71  1  0.03472000  0.95748000  0.25698000  1.0
  C  C72  1  0.93705000  0.93156000  0.75461000  1.0
  C  C73  1  0.06293000  0.06844000  0.24539000  1.0
  C  C74  1  0.81347000  0.88075000  0.75429000  1.0
  C  C75  1  0.18652000  0.11925000  0.24571000  1.0
  C  C76  1  0.88609000  0.54574000  0.77512000  1.0
  C  C77  1  0.11393000  0.45426000  0.22489000  1.0
  C  C78  1  0.74967000  0.49642000  0.76945000  1.0
  C  C79  1  0.25033000  0.50358000  0.23055000  1.0
  C  C80  1  0.71840000  0.38335000  0.77644000  1.0
  C  C81  1  0.28160000  0.61664000  0.22356000  1.0
  C  C82  1  0.59499000  0.33194000  0.77217000  1.0
  C  C83  1  0.40502000  0.66806000  0.22783000  1.0
  C  C84  1  0.49989000  0.39684000  0.76089000  1.0
  C  C85  1  0.50012000  0.60315000  0.23911000  1.0
  C  C86  1  0.53111000  0.50991000  0.75522000  1.0
  C  C87  1  0.46890000  0.49010000  0.24478000  1.0
  C  C88  1  0.65622000  0.56100000  0.75879000  1.0
  C  C89  1  0.34379000  0.43900000  0.24122000  1.0
  C  C90  1  0.76775000  0.17473000  0.39252000  1.0
  C  C91  1  0.23223000  0.82527000  0.60748000  1.0
  C  C92  1  0.84645000  0.19409000  0.46724000  1.0
  C  C93  1  0.15354000  0.80591000  0.53276000  1.0
  C  C94  1  0.89973000  0.10838000  0.50091000  1.0
  C  C95  1  0.10027000  0.89161000  0.49909000  1.0
  C  C96  1  0.97682000  0.12418000  0.56951000  1.0
  C  C97  1  0.02319000  0.87583000  0.43049000  1.0
  C  C98  1  0.00245000  0.22991000  0.60506000  1.0
  C  C99  1  0.99755000  0.77010000  0.39494000  1.0
  C  C100  1  0.94748000  0.31535000  0.57216000  1.0
  C  C101  1  0.05252000  0.68465000  0.42784000  1.0
  C  C102  1  0.86892000  0.29819000  0.50280000  1.0
  C  C103  1  0.13108000  0.70181000  0.49720000  1.0
  C  C104  1  0.74905000  0.35422000  0.09202000  1.0
  C  C105  1  0.25095000  0.64577000  0.90798000  1.0
  C  C106  1  0.65252000  0.31476000  0.02285000  1.0
  C  C107  1  0.34750000  0.68525000  0.97715000  1.0
  C  C108  1  0.57414000  0.38592000  0.98808000  1.0
  C  C109  1  0.42588000  0.61409000  0.01191000  1.0
  C  C110  1  0.47891000  0.35257000  0.92558000  1.0
  C  C111  1  0.52110000  0.64743000  0.07442000  1.0
  C  C112  1  0.46085000  0.24303000  0.89735000  1.0
  C  C113  1  0.53913000  0.75697000  0.10264000  1.0
  C  C114  1  0.54040000  0.17191000  0.93135000  1.0
  C  C115  1  0.45961000  0.82809000  0.06865000  1.0
  C  C116  1  0.63733000  0.20722000  0.99443000  1.0
  C  C117  1  0.36268000  0.79278000  0.00557000  1.0
  C  C118  1  0.13648000  0.31798000  0.89649000  1.0
  C  C119  1  0.86352000  0.68202000  0.10350000  1.0
  C  C120  1  0.12215000  0.20531000  0.92041000  1.0
  C  C121  1  0.87786000  0.79469000  0.07959000  1.0
  C  C122  1  0.37458000  0.16232000  0.62375000  1.0
  C  C123  1  0.62542000  0.83767000  0.37625000  1.0
  C  C124  1  0.33410000  0.25212000  0.58014000  1.0
  C  C125  1  0.66591000  0.74787000  0.41986000  1.0
  N  N126  1  0.09332000  0.06612000  0.74733000  1.0
  N  N127  1  0.90667000  0.93388000  0.25267000  1.0
  N  N128  1  0.13933000  0.97501000  0.76022000  1.0
  N  N129  1  0.86066000  0.02499000  0.23979000  1.0
  N  N130  1  0.04950000  0.89258000  0.76494000  1.0
  N  N131  1  0.95049000  0.10743000  0.23507000  1.0
  N  N132  1  0.41968000  0.55006000  0.74640000  1.0
  N  N133  1  0.58033000  0.44994000  0.25360000  1.0
  N  N134  1  0.32733000  0.46639000  0.74645000  1.0
  N  N135  1  0.67268000  0.53361000  0.25355000  1.0
  N  N136  1  0.37101000  0.37325000  0.75444000  1.0
  N  N137  1  0.62899000  0.62675000  0.24555000  1.0
  N  N138  1  0.98502000  0.40689000  0.61998000  1.0
  N  N139  1  0.01497000  0.59312000  0.38002000  1.0
  N  N140  1  0.05753000  0.37818000  0.67754000  1.0
  N  N141  1  0.94248000  0.62183000  0.32246000  1.0
  N  N142  1  0.07300000  0.27284000  0.67151000  1.0
  N  N143  1  0.92701000  0.72716000  0.32849000  1.0
  N  N144  1  0.37848000  0.18425000  0.83772000  1.0
  N  N145  1  0.62151000  0.81576000  0.16227000  1.0
  N  N146  1  0.40996000  0.08393000  0.83672000  1.0
  N  N147  1  0.59004000  0.91608000  0.16327000  1.0
  N  N148  1  0.50469000  0.07292000  0.89117000  1.0
  N  N149  1  0.49531000  0.92708000  0.10882000  1.0
  O  O150  1  0.50298000  0.95988000  0.72938000  1.0
  O  O151  1  0.49700000  0.04011000  0.27062000  1.0
  O  O152  1  0.55652000  0.79532000  0.74915000  1.0
  O  O153  1  0.44348000  0.20468000  0.25086000  1.0
  O  O154  1  0.91163000  0.64547000  0.76423000  1.0
  O  O155  1  0.08839000  0.35453000  0.23579000  1.0
  O  O156  1  0.96892000  0.48424000  0.79092000  1.0
  O  O157  1  0.03109000  0.51576000  0.20909000  1.0
  O  O158  1  0.70476000  0.24721000  0.36835000  1.0
  O  O159  1  0.29523000  0.75279000  0.63165000  1.0
  O  O160  1  0.77006000  0.08745000  0.35538000  1.0
  O  O161  1  0.22992000  0.91255000  0.64462000  1.0
  O  O162  1  0.73892000  0.44134000  0.12564000  1.0
  O  O163  1  0.26108000  0.55865000  0.87435000  1.0
  O  O164  1  0.83373000  0.29627000  0.11468000  1.0
  O  O165  1  0.16625000  0.70371000  0.88532000  1.0
  O  O166  1  0.31546000  0.80962000  0.80136000  1.0
  O  O167  1  0.68455000  0.19038000  0.19865000  1.0
  O  O168  1  0.15757000  0.63274000  0.71790000  1.0
  O  O169  1  0.84243000  0.36727000  0.28211000  1.0
  O  O170  1  0.12890000  0.31394000  0.82168000  1.0
  O  O171  1  0.87110000  0.68605000  0.17831000  1.0
  O  O172  1  0.28392000  0.12768000  0.66316000  1.0
  O  O173  1  0.71608000  0.87231000  0.33684000  1.0
