# generated using pymatgen
data_CdH10(C4O3)2
_symmetry_space_group_name_H-M   'P 1'
_cell_length_a   4.95175000
_cell_length_b   6.77627807
_cell_length_c   15.77570057
_cell_angle_alpha   86.89850755
_cell_angle_beta   81.74107559
_cell_angle_gamma   69.05679698
_symmetry_Int_Tables_number   1
_chemical_formula_structural   CdH10(C4O3)2
_chemical_formula_sum   'Cd2 H20 C16 O12'
_cell_volume   489.24435632
_cell_formula_units_Z   2
loop_
 _symmetry_equiv_pos_site_id
 _symmetry_equiv_pos_as_xyz
  1  'x, y, z'
loop_
 _atom_site_type_symbol
 _atom_site_label
 _atom_site_symmetry_multiplicity
 _atom_site_fract_x
 _atom_site_fract_y
 _atom_site_fract_z
 _atom_site_occupancy
  Cd  Cd0  1  0.12201000  0.27618000  0.24983000  1.0
  Cd  Cd1  1  0.87800000  0.72381000  0.75016000  1.0
  H  H2  1  0.68026000  0.28157000  0.57135000  1.0
  H  H3  1  0.53917000  0.27515000  0.92932000  1.0
  H  H4  1  0.31973000  0.71847000  0.42865000  1.0
  H  H5  1  0.46081000  0.72482000  0.07068000  1.0
  H  H6  1  0.73075000  0.12740000  0.47894000  1.0
  H  H7  1  0.61253000  0.14221000  0.02835000  1.0
  H  H8  1  0.26931000  0.87260000  0.52107000  1.0
  H  H9  1  0.38744000  0.85779000  0.97164000  1.0
  H  H10  1  0.55794000  0.06800000  0.57791000  1.0
  H  H11  1  0.86177000  0.05776000  0.93408000  1.0
  H  H12  1  0.44210000  0.93203000  0.42209000  1.0
  H  H13  1  0.13825000  0.94221000  0.06592000  1.0
  H  H14  1  0.69405000  0.10264000  0.15783000  1.0
  H  H15  1  0.71011000  0.11534000  0.34541000  1.0
  H  H16  1  0.30593000  0.89737000  0.84217000  1.0
  H  H17  1  0.28990000  0.88469000  0.65459000  1.0
  H  H18  1  0.65628000  0.88939000  0.19687000  1.0
  H  H19  1  0.95509000  0.89922000  0.30960000  1.0
  H  H20  1  0.34369000  0.11061000  0.80314000  1.0
  H  H21  1  0.04488000  0.10081000  0.69039000  1.0
  C  C22  1  0.57969000  0.19741000  0.53604000  1.0
  C  C23  1  0.71034000  0.19737000  0.96962000  1.0
  C  C24  1  0.42034000  0.80259000  0.46396000  1.0
  C  C25  1  0.28962000  0.80261000  0.03039000  1.0
  C  C26  1  0.09326000  0.47037000  0.58188000  1.0
  C  C27  1  0.92086000  0.47435000  0.91973000  1.0
  C  C28  1  0.90672000  0.52965000  0.41811000  1.0
  C  C29  1  0.07910000  0.52559000  0.08027000  1.0
  C  C30  1  0.28986000  0.34438000  0.51496000  1.0
  C  C31  1  0.85923000  0.34507000  0.98750000  1.0
  C  C32  1  0.71017000  0.65562000  0.48504000  1.0
  C  C33  1  0.14073000  0.65491000  0.01252000  1.0
  C  C34  1  0.20500000  0.36843000  0.43335000  1.0
  C  C35  1  0.93493000  0.36537000  0.06750000  1.0
  C  C36  1  0.79507000  0.63155000  0.56665000  1.0
  C  C37  1  0.06506000  0.63466000  0.93251000  1.0
  O  O38  1  0.36462000  0.26491000  0.36673000  1.0
  O  O39  1  0.88847000  0.25765000  0.13443000  1.0
  O  O40  1  0.63543000  0.73509000  0.63325000  1.0
  O  O41  1  0.11150000  0.74235000  0.86556000  1.0
  O  O42  1  0.15851000  0.45138000  0.65794000  1.0
  O  O43  1  0.85847000  0.46016000  0.84523000  1.0
  O  O44  1  0.84152000  0.54860000  0.34205000  1.0
  O  O45  1  0.14155000  0.53982000  0.15476000  1.0
  O  O46  1  0.54913000  0.03203000  0.17840000  1.0
  O  O47  1  0.92470000  0.04258000  0.32634000  1.0
  O  O48  1  0.45084000  0.96797000  0.82160000  1.0
  O  O49  1  0.07531000  0.95744000  0.67367000  1.0
