# generated using pymatgen
data_CuH20C8S4(ClO6)2
_symmetry_space_group_name_H-M   'P 1'
_cell_length_a   8.26394000
_cell_length_b   9.40346000
_cell_length_c   12.40010000
_cell_angle_alpha   90.00020000
_cell_angle_beta   90.00000000
_cell_angle_gamma   97.42180000
_symmetry_Int_Tables_number   1
_chemical_formula_structural   CuH20C8S4(ClO6)2
_chemical_formula_sum   'Cu2 H40 C16 S8 Cl4 O24'
_cell_volume   955.53415563
_cell_formula_units_Z   2
loop_
 _symmetry_equiv_pos_site_id
 _symmetry_equiv_pos_as_xyz
  1  'x, y, z'
loop_
 _atom_site_type_symbol
 _atom_site_label
 _atom_site_symmetry_multiplicity
 _atom_site_fract_x
 _atom_site_fract_y
 _atom_site_fract_z
 _atom_site_occupancy
  Cu  Cu0  1  0.00000000  0.00000000  0.00000000  1.0
  Cu  Cu1  1  0.50000000  0.00000000  0.50000000  1.0
  H  H2  1  0.82592000  0.41163000  0.07797000  1.0
  H  H3  1  0.32593000  0.41163000  0.42202000  1.0
  H  H4  1  0.17408000  0.58837000  0.92202000  1.0
  H  H5  1  0.67407000  0.58836000  0.57798000  1.0
  H  H6  1  0.64962000  0.38100000  0.16422000  1.0
  H  H7  1  0.14963000  0.38101000  0.33578000  1.0
  H  H8  1  0.35037000  0.61899000  0.83578000  1.0
  H  H9  1  0.85036000  0.61899000  0.66422000  1.0
  H  H10  1  0.62928000  0.33808000  0.02344000  1.0
  H  H11  1  0.12929000  0.33808000  0.47656000  1.0
  H  H12  1  0.37072000  0.66192000  0.97656000  1.0
  H  H13  1  0.87071000  0.66191000  0.52344000  1.0
  H  H14  1  0.50755000  0.13261000  0.21689000  1.0
  H  H15  1  0.00755000  0.13262000  0.28311000  1.0
  H  H16  1  0.49245000  0.86739000  0.78311000  1.0
  H  H17  1  0.99245000  0.86739000  0.71689000  1.0
  H  H18  1  0.48221000  0.10976000  0.07551000  1.0
  H  H19  1  0.98222000  0.10977000  0.42449000  1.0
  H  H20  1  0.51779000  0.89024000  0.92449000  1.0
  H  H21  1  0.01778000  0.89023000  0.57552000  1.0
  H  H22  1  0.63004000  0.87490000  0.10163000  1.0
  H  H23  1  0.13005000  0.87491000  0.39836000  1.0
  H  H24  1  0.36996000  0.12510000  0.89837000  1.0
  H  H25  1  0.86995000  0.12509000  0.60163000  1.0
  H  H26  1  0.41986000  0.87149000  0.13748000  1.0
  H  H27  1  0.91986000  0.87149000  0.36252000  1.0
  H  H28  1  0.58014000  0.12851000  0.86252000  1.0
  H  H29  1  0.08014000  0.12851000  0.63748000  1.0
  H  H30  1  0.42663000  0.64782000  0.24277000  1.0
  H  H31  1  0.92663000  0.64783000  0.25723000  1.0
  H  H32  1  0.57337000  0.35218000  0.75723000  1.0
  H  H33  1  0.07337000  0.35219000  0.74277000  1.0
  H  H34  1  0.63888000  0.64519000  0.21472000  1.0
  H  H35  1  0.13888000  0.64519000  0.28527000  1.0
  H  H36  1  0.36112000  0.35480000  0.78527000  1.0
  H  H37  1  0.86112000  0.35481000  0.71473000  1.0
  H  H38  1  0.56603000  0.62816000  0.35218000  1.0
  H  H39  1  0.06603000  0.62817000  0.14781000  1.0
  H  H40  1  0.43397000  0.37184000  0.64781000  1.0
  H  H41  1  0.93397000  0.37184000  0.85218000  1.0
  C  C42  1  0.71095000  0.34349000  0.09335000  1.0
  C  C43  1  0.21095000  0.34350000  0.40665000  1.0
  C  C44  1  0.28905000  0.65651000  0.90665000  1.0
  C  C45  1  0.78904000  0.65650000  0.59335000  1.0
  C  C46  1  0.55410000  0.08260000  0.14514000  1.0
  C  C47  1  0.05410000  0.08261000  0.35486000  1.0
  C  C48  1  0.44590000  0.91740000  0.85486000  1.0
  C  C49  1  0.94590000  0.91739000  0.64515000  1.0
  C  C50  1  0.54470000  0.92122000  0.15532000  1.0
  C  C51  1  0.04470000  0.92122000  0.34468000  1.0
  C  C52  1  0.45530000  0.07878000  0.84468000  1.0
  C  C53  1  0.95530000  0.07878000  0.65532000  1.0
  C  C54  1  0.55084000  0.67735000  0.27328000  1.0
  C  C55  1  0.05084000  0.67736000  0.22671000  1.0
  C  C56  1  0.44916000  0.32265000  0.72672000  1.0
  C  C57  1  0.94916000  0.32265000  0.77328000  1.0
  S  S58  1  0.76102000  0.16895000  0.12375000  1.0
  S  S59  1  0.26103000  0.16895000  0.37625000  1.0
  S  S60  1  0.23898000  0.83105000  0.87625000  1.0
  S  S61  1  0.73897000  0.83105000  0.62375000  1.0
  S  S62  1  0.59255000  0.86717000  0.29020000  1.0
  S  S63  1  0.09255000  0.86718000  0.20980000  1.0
  S  S64  1  0.40745000  0.13283000  0.70980000  1.0
  S  S65  1  0.90745000  0.13283000  0.79020000  1.0
  Cl  Cl66  1  0.75995000  0.66926000  0.91971000  1.0
  Cl  Cl67  1  0.25994000  0.66926000  0.58029000  1.0
  Cl  Cl68  1  0.24006000  0.33074000  0.08028000  1.0
  Cl  Cl69  1  0.74006000  0.33073000  0.41971000  1.0
  O  O70  1  0.80794000  0.10804000  0.01340000  1.0
  O  O71  1  0.30794000  0.10803000  0.48660000  1.0
  O  O72  1  0.19206000  0.89196000  0.98660000  1.0
  O  O73  1  0.69206000  0.89197000  0.51340000  1.0
  O  O74  1  0.44863000  0.90898000  0.35809000  1.0
  O  O75  1  0.94863000  0.90898000  0.14191000  1.0
  O  O76  1  0.55136000  0.09102000  0.64192000  1.0
  O  O77  1  0.05136000  0.09102000  0.85809000  1.0
  O  O78  1  0.81320000  0.81843000  0.88590000  1.0
  O  O79  1  0.31319000  0.81843000  0.61410000  1.0
  O  O80  1  0.18680000  0.18157000  0.11410000  1.0
  O  O81  1  0.68681000  0.18156000  0.38590000  1.0
  O  O82  1  0.66045000  0.67032000  0.01710000  1.0
  O  O83  1  0.16045000  0.67032000  0.48291000  1.0
  O  O84  1  0.33956000  0.32968000  0.98290000  1.0
  O  O85  1  0.83955000  0.32968000  0.51709000  1.0
  O  O86  1  0.90281000  0.59815000  0.94185000  1.0
  O  O87  1  0.40280000  0.59815000  0.55816000  1.0
  O  O88  1  0.09721000  0.40186000  0.05815000  1.0
  O  O89  1  0.59720000  0.40185000  0.44184000  1.0
  O  O90  1  0.66367000  0.59517000  0.83309000  1.0
  O  O91  1  0.16366000  0.59517000  0.66692000  1.0
  O  O92  1  0.33634000  0.40483000  0.16692000  1.0
  O  O93  1  0.83634000  0.40483000  0.33308000  1.0
