# generated using pymatgen
data_Co3H26C38(N2O7)2
_symmetry_space_group_name_H-M   'P 1'
_cell_length_a   10.89720000
_cell_length_b   11.94520000
_cell_length_c   16.13298498
_cell_angle_alpha   100.04518558
_cell_angle_beta   109.74081048
_cell_angle_gamma   89.95710000
_symmetry_Int_Tables_number   1
_chemical_formula_structural   Co3H26C38(N2O7)2
_chemical_formula_sum   'Co6 H52 C76 N8 O28'
_cell_volume   1942.46350822
_cell_formula_units_Z   2
loop_
 _symmetry_equiv_pos_site_id
 _symmetry_equiv_pos_as_xyz
  1  'x, y, z'
loop_
 _atom_site_type_symbol
 _atom_site_label
 _atom_site_symmetry_multiplicity
 _atom_site_fract_x
 _atom_site_fract_y
 _atom_site_fract_z
 _atom_site_occupancy
  Co  Co0  1  0.97820000  0.46929000  0.77343000  1.0
  Co  Co1  1  0.20452000  0.03081000  0.22650000  1.0
  Co  Co2  1  0.02180000  0.53070000  0.22657000  1.0
  Co  Co3  1  0.79549000  0.96920000  0.77351000  1.0
  Co  Co4  1  0.05410000  0.24998000  0.00010000  1.0
  Co  Co5  1  0.94589000  0.75002000  0.99988000  1.0
  H  H6  1  0.10408000  0.47070000  0.66803000  1.0
  H  H7  1  0.13457000  0.35137000  0.69784000  1.0
  H  H8  1  0.55988000  0.60702000  0.82460000  1.0
  H  H9  1  0.36769000  0.47850000  0.72433000  1.0
  H  H10  1  0.40018000  0.26878000  0.68337000  1.0
  H  H11  1  0.18918000  0.29843000  0.83014000  1.0
  H  H12  1  0.42544000  0.31244000  0.91599000  1.0
  H  H13  1  0.38285000  0.66387000  0.02104000  1.0
  H  H14  1  0.15186000  0.63719000  0.92463000  1.0
  H  H15  1  0.80743000  0.65478000  0.70874000  1.0
  H  H16  1  0.60237000  0.67802000  0.59014000  1.0
  H  H17  1  0.56674000  0.31020000  0.50612000  1.0
  H  H18  1  0.77641000  0.30433000  0.62709000  1.0
  H  H19  1  0.43576000  0.02918000  0.33189000  1.0
  H  H20  1  0.43660000  0.14853000  0.30219000  1.0
  H  H21  1  0.73527000  0.89326000  0.17497000  1.0
  H  H22  1  0.64347000  0.02148000  0.27557000  1.0
  H  H23  1  0.71672000  0.23118000  0.31686000  1.0
  H  H24  1  0.35903000  0.20151000  0.17008000  1.0
  H  H25  1  0.50942000  0.18749000  0.08421000  1.0
  H  H26  1  0.36175000  0.83627000  0.97877000  1.0
  H  H27  1  0.22715000  0.86292000  0.07521000  1.0
  H  H28  1  0.09819000  0.84535000  0.29093000  1.0
  H  H29  1  0.01196000  0.82204000  0.40961000  1.0
  H  H30  1  0.06067000  0.18977000  0.49414000  1.0
  H  H31  1  0.14898000  0.19571000  0.37301000  1.0
  H  H32  1  0.89592000  0.52931000  0.33198000  1.0
  H  H33  1  0.86542000  0.64864000  0.30217000  1.0
  H  H34  1  0.44010000  0.39297000  0.17538000  1.0
  H  H35  1  0.63230000  0.52148000  0.27566000  1.0
  H  H36  1  0.59982000  0.73121000  0.31663000  1.0
  H  H37  1  0.81082000  0.70157000  0.16986000  1.0
  H  H38  1  0.57455000  0.68756000  0.08400000  1.0
  H  H39  1  0.61716000  0.33612000  0.97895000  1.0
  H  H40  1  0.84814000  0.36282000  0.07537000  1.0
  H  H41  1  0.19258000  0.34521000  0.29127000  1.0
  H  H42  1  0.39764000  0.32199000  0.40987000  1.0
  H  H43  1  0.43327000  0.68981000  0.49388000  1.0
  H  H44  1  0.22361000  0.69567000  0.37292000  1.0
  H  H45  1  0.56423000  0.97081000  0.66811000  1.0
  H  H46  1  0.56341000  0.85147000  0.69781000  1.0
  H  H47  1  0.26474000  0.10674000  0.82503000  1.0
  H  H48  1  0.35654000  0.97851000  0.72443000  1.0
  H  H49  1  0.28327000  0.76881000  0.68314000  1.0
  H  H50  1  0.64097000  0.79850000  0.82992000  1.0
  H  H51  1  0.49059000  0.81252000  0.91580000  1.0
  H  H52  1  0.63826000  0.16374000  0.02124000  1.0
  H  H53  1  0.77285000  0.13708000  0.92479000  1.0
  H  H54  1  0.90182000  0.15464000  0.70908000  1.0
  H  H55  1  0.98804000  0.17795000  0.59040000  1.0
  H  H56  1  0.93932000  0.81023000  0.50587000  1.0
  H  H57  1  0.85101000  0.80428000  0.62700000  1.0
  C  C58  1  0.71485000  0.35969000  0.80975000  1.0
  C  C59  1  0.69597000  0.47611000  0.83340000  1.0
  C  C60  1  0.57093000  0.51685000  0.80392000  1.0
  C  C61  1  0.46360000  0.44438000  0.74864000  1.0
  C  C62  1  0.48133000  0.32910000  0.72583000  1.0
  C  C63  1  0.60495000  0.28577000  0.75669000  1.0
  C  C64  1  0.85214000  0.31910000  0.84430000  1.0
  C  C65  1  0.80866000  0.55937000  0.88672000  1.0
  C  C66  1  0.61713000  0.16029000  0.73124000  1.0
  C  C67  1  0.23830000  0.37959000  0.87013000  1.0
  C  C68  1  0.37046000  0.38802000  0.92002000  1.0
  C  C69  1  0.42966000  0.49251000  0.97396000  1.0
  C  C70  1  0.34714000  0.58217000  0.97681000  1.0
  C  C71  1  0.21634000  0.56781000  0.92385000  1.0
  C  C72  1  0.75153000  0.58068000  0.66145000  1.0
  C  C73  1  0.63502000  0.59233000  0.59457000  1.0
  C  C74  1  0.56271000  0.49557000  0.53545000  1.0
  C  C75  1  0.61612000  0.38999000  0.54799000  1.0
  C  C76  1  0.73403000  0.38540000  0.61589000  1.0
  C  C77  1  0.90493000  0.14058000  0.19025000  1.0
  C  C78  1  0.86246000  0.02419000  0.16636000  1.0
  C  C79  1  0.76698000  0.98338000  0.19583000  1.0
  C  C80  1  0.71498000  0.05572000  0.25129000  1.0
  C  C81  1  0.75546000  0.17098000  0.27431000  1.0
  C  C82  1  0.84813000  0.21440000  0.24345000  1.0
  C  C83  1  0.00765000  0.18118000  0.15577000  1.0
  C  C84  1  0.92181000  0.94098000  0.11290000  1.0
  C  C85  1  0.88568000  0.33985000  0.26899000  1.0
  C  C86  1  0.36817000  0.12036000  0.13002000  1.0
  C  C87  1  0.45041000  0.11195000  0.08011000  1.0
  C  C88  1  0.45571000  0.00749000  0.02607000  1.0
  C  C89  1  0.37032000  0.91791000  0.02312000  1.0
  C  C90  1  0.29247000  0.93225000  0.07608000  1.0
  C  C91  1  0.08962000  0.91942000  0.33831000  1.0
  C  C92  1  0.04014000  0.90773000  0.40523000  1.0
  C  C93  1  0.02715000  0.00443000  0.46451000  1.0
  C  C94  1  0.06802000  0.11001000  0.45212000  1.0
  C  C95  1  0.11784000  0.11465000  0.38415000  1.0
  C  C96  1  0.28515000  0.64031000  0.19024000  1.0
  C  C97  1  0.30402000  0.52389000  0.16658000  1.0
  C  C98  1  0.42906000  0.48315000  0.19606000  1.0
  C  C99  1  0.53640000  0.55562000  0.25135000  1.0
  C  C100  1  0.51867000  0.67089000  0.27417000  1.0
  C  C101  1  0.39505000  0.71423000  0.24330000  1.0
  C  C102  1  0.14784000  0.68090000  0.15568000  1.0
  C  C103  1  0.19135000  0.44063000  0.11327000  1.0
  C  C104  1  0.38288000  0.83971000  0.26876000  1.0
  C  C105  1  0.76170000  0.62041000  0.12987000  1.0
  C  C106  1  0.62954000  0.61198000  0.07998000  1.0
  C  C107  1  0.57033000  0.50749000  0.02603000  1.0
  C  C108  1  0.65286000  0.41783000  0.02318000  1.0
  C  C109  1  0.78366000  0.43219000  0.07615000  1.0
  C  C110  1  0.24849000  0.41932000  0.33856000  1.0
  C  C111  1  0.36500000  0.40767000  0.40544000  1.0
  C  C112  1  0.43730000  0.50443000  0.46455000  1.0
  C  C113  1  0.38390000  0.61001000  0.45202000  1.0
  C  C114  1  0.26599000  0.61460000  0.38412000  1.0
  C  C115  1  0.09506000  0.85943000  0.80975000  1.0
  C  C116  1  0.13754000  0.97582000  0.83364000  1.0
  C  C117  1  0.23302000  0.01662000  0.80417000  1.0
  C  C118  1  0.28502000  0.94428000  0.74871000  1.0
  C  C119  1  0.24453000  0.82902000  0.72569000  1.0
  C  C120  1  0.15186000  0.78561000  0.75655000  1.0
  C  C121  1  0.99234000  0.81883000  0.84423000  1.0
  C  C122  1  0.07817000  0.05903000  0.88708000  1.0
  C  C123  1  0.11431000  0.66015000  0.73102000  1.0
  C  C124  1  0.63183000  0.87965000  0.86998000  1.0
  C  C125  1  0.54959000  0.88806000  0.91989000  1.0
  C  C126  1  0.54429000  0.99251000  0.97393000  1.0
  C  C127  1  0.62969000  0.08210000  0.97688000  1.0
  C  C128  1  0.70753000  0.06776000  0.92392000  1.0
  C  C129  1  0.91040000  0.08057000  0.66171000  1.0
  C  C130  1  0.95986000  0.09226000  0.59478000  1.0
  C  C131  1  0.97284000  0.99557000  0.53550000  1.0
  C  C132  1  0.93196000  0.88998000  0.54789000  1.0
  C  C133  1  0.88215000  0.88535000  0.61586000  1.0
  N  N134  1  0.16241000  0.46861000  0.86894000  1.0
  N  N135  1  0.80153000  0.47879000  0.67259000  1.0
  N  N136  1  0.29347000  0.03139000  0.13109000  1.0
  N  N137  1  0.12850000  0.02132000  0.32730000  1.0
  N  N138  1  0.83757000  0.53139000  0.13105000  1.0
  N  N139  1  0.19848000  0.52121000  0.32742000  1.0
  N  N140  1  0.70653000  0.96862000  0.86890000  1.0
  N  N141  1  0.87150000  0.97868000  0.67272000  1.0
  O  O142  1  0.88752000  0.29982000  0.92398000  1.0
  O  O143  1  0.92608000  0.31434000  0.79727000  1.0
  O  O144  1  0.73332000  0.12728000  0.76054000  1.0
  O  O145  1  0.51672000  0.09579000  0.68405000  1.0
  O  O146  1  0.91902000  0.54678000  0.87746000  1.0
  O  O147  1  0.78958000  0.64425000  0.94079000  1.0
  O  O148  1  0.06118000  0.39468000  0.66989000  1.0
  O  O149  1  0.96337000  0.20042000  0.07609000  1.0
  O  O150  1  0.12860000  0.18584000  0.20281000  1.0
  O  O151  1  0.97255000  0.37277000  0.23968000  1.0
  O  O152  1  0.83245000  0.40441000  0.31620000  1.0
  O  O153  1  0.04145000  0.95345000  0.12222000  1.0
  O  O154  1  0.84869000  0.85621000  0.05875000  1.0
  O  O155  1  0.39112000  0.10530000  0.33014000  1.0
  O  O156  1  0.11248000  0.70017000  0.07601000  1.0
  O  O157  1  0.07391000  0.68565000  0.20271000  1.0
  O  O158  1  0.26668000  0.87270000  0.23945000  1.0
  O  O159  1  0.48328000  0.90420000  0.31596000  1.0
  O  O160  1  0.08098000  0.45321000  0.12253000  1.0
  O  O161  1  0.21041000  0.35575000  0.05919000  1.0
  O  O162  1  0.93880000  0.60533000  0.33011000  1.0
  O  O163  1  0.03663000  0.79960000  0.92392000  1.0
  O  O164  1  0.87140000  0.81417000  0.79719000  1.0
  O  O165  1  0.02744000  0.62723000  0.76033000  1.0
  O  O166  1  0.16753000  0.59559000  0.68380000  1.0
  O  O167  1  0.95855000  0.04656000  0.87777000  1.0
  O  O168  1  0.15131000  0.14381000  0.94124000  1.0
  O  O169  1  0.60890000  0.89470000  0.66988000  1.0
