# generated using pymatgen
data_AgH4C6S6(OF)3
_symmetry_space_group_name_H-M   'P 1'
_cell_length_a   7.62870000
_cell_length_b   9.43455000
_cell_length_c   18.40450000
_cell_angle_alpha   99.54040000
_cell_angle_beta   91.28540000
_cell_angle_gamma   100.93800000
_symmetry_Int_Tables_number   1
_chemical_formula_structural   AgH4C6S6(OF)3
_chemical_formula_sum   'Ag4 H16 C24 S24 O12 F12'
_cell_volume   1280.59339171
_cell_formula_units_Z   4
loop_
 _symmetry_equiv_pos_site_id
 _symmetry_equiv_pos_as_xyz
  1  'x, y, z'
loop_
 _atom_site_type_symbol
 _atom_site_label
 _atom_site_symmetry_multiplicity
 _atom_site_fract_x
 _atom_site_fract_y
 _atom_site_fract_z
 _atom_site_occupancy
  Ag  Ag0  1  0.73973000  0.50014000  0.51384000  1.0
  Ag  Ag1  1  0.26028000  0.49986000  0.48616000  1.0
  Ag  Ag2  1  0.01466000  0.86759000  0.83912000  1.0
  Ag  Ag3  1  0.98534000  0.13240000  0.16088000  1.0
  H  H4  1  0.40398000  0.00247000  0.05372000  1.0
  H  H5  1  0.59602000  0.99754000  0.94628000  1.0
  H  H6  1  0.62690000  0.98712000  0.08113000  1.0
  H  H7  1  0.37310000  0.01288000  0.91886000  1.0
  H  H8  1  0.62306000  0.23945000  0.05879000  1.0
  H  H9  1  0.37694000  0.76055000  0.94121000  1.0
  H  H10  1  0.45189000  0.25767000  0.12314000  1.0
  H  H11  1  0.54811000  0.74232000  0.87686000  1.0
  H  H12  1  0.30490000  0.18225000  0.79356000  1.0
  H  H13  1  0.69510000  0.81775000  0.20644000  1.0
  H  H14  1  0.12392000  0.27268000  0.81620000  1.0
  H  H15  1  0.87608000  0.72732000  0.18380000  1.0
  H  H16  1  0.10675000  0.32471000  0.68480000  1.0
  H  H17  1  0.89325000  0.67529000  0.31520000  1.0
  H  H18  1  0.31603000  0.40525000  0.73267000  1.0
  H  H19  1  0.68397000  0.59476000  0.26733000  1.0
  C  C20  1  0.51888000  0.23357000  0.38587000  1.0
  C  C21  1  0.48110000  0.76643000  0.61413000  1.0
  C  C22  1  0.50334000  0.09582000  0.25057000  1.0
  C  C23  1  0.49666000  0.90418000  0.74943000  1.0
  C  C24  1  0.51311000  0.03931000  0.09670000  1.0
  C  C25  1  0.48689000  0.96068000  0.90330000  1.0
  C  C26  1  0.56544000  0.20468000  0.10867000  1.0
  C  C27  1  0.43456000  0.79532000  0.89133000  1.0
  C  C28  1  0.63450000  0.21923000  0.25461000  1.0
  C  C29  1  0.36550000  0.78077000  0.74539000  1.0
  C  C30  1  0.05144000  0.80623000  0.52836000  1.0
  C  C31  1  0.94856000  0.19377000  0.47164000  1.0
  C  C32  1  0.07361000  0.98554000  0.65284000  1.0
  C  C33  1  0.92640000  0.01446000  0.34716000  1.0
  C  C34  1  0.18514000  0.21168000  0.77107000  1.0
  C  C35  1  0.81487000  0.78832000  0.22893000  1.0
  C  C36  1  0.22694000  0.30074000  0.71006000  1.0
  C  C37  1  0.77306000  0.69926000  0.28994000  1.0
  C  C38  1  0.20401000  0.05107000  0.61198000  1.0
  C  C39  1  0.79599000  0.94893000  0.38802000  1.0
  C  C40  1  0.77100000  0.61964000  0.01740000  1.0
  C  C41  1  0.22900000  0.38036000  0.98259000  1.0
  C  C42  1  0.75319000  0.40665000  0.76973000  1.0
  C  C43  1  0.24681000  0.59334000  0.23027000  1.0
  S  S44  1  0.47999000  0.28619000  0.47528000  1.0
  S  S45  1  0.52001000  0.71381000  0.52472000  1.0
  S  S46  1  0.40317000  0.07463000  0.33328000  1.0
  S  S47  1  0.59682000  0.92536000  0.66666667  1.0
  S  S48  1  0.41344000  0.96437000  0.17478000  1.0
  S  S49  1  0.58656000  0.03563000  0.82522000  1.0
  S  S50  1  0.74370000  0.28092000  0.17964000  1.0
  S  S51  1  0.25630000  0.71908000  0.82036000  1.0
  S  S52  1  0.67454000  0.33261000  0.34028000  1.0
  S  S53  1  0.32546000  0.66739000  0.65972000  1.0
  S  S54  1  0.99685000  0.65850000  0.46140000  1.0
  S  S55  1  0.00316000  0.34150000  0.53860000  1.0
  S  S56  1  0.94272000  0.82155000  0.60850000  1.0
  S  S57  1  0.05728000  0.17845000  0.39151000  1.0
  S  S58  1  0.98390000  0.95346000  0.25762000  1.0
  S  S59  1  0.01610000  0.04654000  0.74238000  1.0
  S  S60  1  0.35257000  0.21699000  0.63834000  1.0
  S  S61  1  0.64743000  0.78301000  0.36166000  1.0
  S  S62  1  0.21824000  0.95430000  0.52346000  1.0
  S  S63  1  0.78176000  0.04570000  0.47654000  1.0
  S  S64  1  0.92328000  0.79763000  0.01194000  1.0
  S  S65  1  0.07673000  0.20236000  0.98805000  1.0
  S  S66  1  0.79415000  0.55399000  0.71262000  1.0
  S  S67  1  0.20584000  0.44601000  0.28737000  1.0
  O  O68  1  0.76265000  0.68479000  0.76166000  1.0
  O  O69  1  0.23735000  0.31521000  0.23833000  1.0
  O  O70  1  0.97934000  0.55623000  0.69410000  1.0
  O  O71  1  0.02068000  0.44376000  0.30589000  1.0
  O  O72  1  0.66206000  0.50062000  0.65047000  1.0
  O  O73  1  0.33795000  0.49938000  0.34953000  1.0
  O  O74  1  0.89527000  0.88471000  0.08288000  1.0
  O  O75  1  0.10472000  0.11530000  0.91712000  1.0
  O  O76  1  0.10109000  0.76592000  0.00265000  1.0
  O  O77  1  0.89889000  0.23409000  0.99735000  1.0
  O  O78  1  0.15684000  0.15802000  0.05213000  1.0
  O  O79  1  0.84316000  0.84199000  0.94787000  1.0
  F  F80  1  0.59464000  0.40156000  0.80222000  1.0
  F  F81  1  0.40536000  0.59844000  0.19778000  1.0
  F  F82  1  0.88485000  0.42773000  0.82301000  1.0
  F  F83  1  0.11515000  0.57226000  0.17699000  1.0
  F  F84  1  0.75069000  0.27456000  0.72630000  1.0
  F  F85  1  0.24931000  0.72543000  0.27370000  1.0
  F  F86  1  0.60528000  0.64493000  0.03426000  1.0
  F  F87  1  0.39472000  0.35506000  0.96574000  1.0
  F  F88  1  0.83044000  0.55482000  0.07130000  1.0
  F  F89  1  0.16956000  0.44519000  0.92870000  1.0
  F  F90  1  0.75573000  0.52526000  0.95305000  1.0
  F  F91  1  0.24428000  0.47474000  0.04695000  1.0
