# generated using pymatgen
data_ZnH18PtC18(N3O)2
_symmetry_space_group_name_H-M   'P 1'
_cell_length_a   8.14885000
_cell_length_b   8.20994000
_cell_length_c   9.02903000
_cell_angle_alpha   105.77700000
_cell_angle_beta   115.21000000
_cell_angle_gamma   99.50700000
_symmetry_Int_Tables_number   1
_chemical_formula_structural   ZnH18PtC18(N3O)2
_chemical_formula_sum   'Zn1 H18 Pt1 C18 N6 O2'
_cell_volume   497.79314014
_cell_formula_units_Z   1
loop_
 _symmetry_equiv_pos_site_id
 _symmetry_equiv_pos_as_xyz
  1  'x, y, z'
loop_
 _atom_site_type_symbol
 _atom_site_label
 _atom_site_symmetry_multiplicity
 _atom_site_fract_x
 _atom_site_fract_y
 _atom_site_fract_z
 _atom_site_occupancy
  Zn  Zn0  1  0.00000000  0.50000000  0.50000000  1.0
  H  H1  1  0.67313000  0.21967000  0.39451000  1.0
  H  H2  1  0.32687000  0.78033000  0.60549000  1.0
  H  H3  1  0.75017000  0.12549000  0.62653000  1.0
  H  H4  1  0.24983000  0.87452000  0.37347000  1.0
  H  H5  1  0.88725000  0.06716000  0.52331000  1.0
  H  H6  1  0.11275000  0.93284000  0.47669000  1.0
  H  H7  1  0.38755000  0.51266000  0.54884000  1.0
  H  H8  1  0.61246000  0.48734000  0.45116000  1.0
  H  H9  1  0.02933000  0.42014000  0.83624000  1.0
  H  H10  1  0.97067000  0.57986000  0.16376000  1.0
  H  H11  1  0.06456000  0.22152000  0.86680000  1.0
  H  H12  1  0.93544000  0.77849000  0.13320000  1.0
  H  H13  1  0.67043000  0.42368000  0.70733000  1.0
  H  H14  1  0.32957000  0.57632000  0.29267000  1.0
  H  H15  1  0.36520000  0.20017000  0.93469000  1.0
  H  H16  1  0.63480000  0.79983000  0.06531000  1.0
  H  H17  1  0.65760000  0.26103000  0.90621000  1.0
  H  H18  1  0.34240000  0.73897000  0.09379000  1.0
  Pt  Pt19  1  0.00000000  0.00000000  0.00000000  1.0
  C  C20  1  0.28124000  0.07459000  0.15388000  1.0
  C  C21  1  0.71874000  0.92540000  0.84612000  1.0
  C  C22  1  0.01430000  0.80060000  0.82997000  1.0
  C  C23  1  0.98570000  0.19939000  0.17003000  1.0
  C  C24  1  0.86374000  0.18087000  0.60119000  1.0
  C  C25  1  0.13626000  0.81913000  0.39881000  1.0
  C  C26  1  0.38978000  0.44455000  0.63724000  1.0
  C  C27  1  0.61022000  0.55544000  0.36276000  1.0
  C  C28  1  0.22442000  0.32837000  0.76079000  1.0
  C  C29  1  0.77557000  0.67163000  0.23920000  1.0
  C  C30  1  0.04705000  0.29282000  0.77666000  1.0
  C  C31  1  0.95295000  0.70718000  0.22334000  1.0
  C  C32  1  0.54679000  0.39409000  0.72578000  1.0
  C  C33  1  0.45321000  0.60591000  0.27422000  1.0
  C  C34  1  0.37573000  0.27042000  0.85099000  1.0
  C  C35  1  0.62427000  0.72958000  0.14901000  1.0
  C  C36  1  0.53917000  0.30473000  0.83484000  1.0
  C  C37  1  0.46083000  0.69527000  0.16516000  1.0
  N  N38  1  0.44786000  0.11692000  0.24144000  1.0
  N  N39  1  0.55216000  0.88308000  0.75857000  1.0
  N  N40  1  0.02342000  0.68217000  0.73011000  1.0
  N  N41  1  0.97657000  0.31783000  0.26989000  1.0
  N  N42  1  0.23283000  0.41495000  0.65480000  1.0
  N  N43  1  0.76717000  0.58505000  0.34520000  1.0
  O  O44  1  0.80301000  0.29089000  0.50326000  1.0
  O  O45  1  0.19699000  0.70911000  0.49674000  1.0
