# generated using pymatgen
data_AgH4C7O2F
_symmetry_space_group_name_H-M   'P 1'
_cell_length_a   3.68381000
_cell_length_b   11.19810000
_cell_length_c   15.60040000
_cell_angle_alpha   78.91500000
_cell_angle_beta   89.99840000
_cell_angle_gamma   89.99850000
_symmetry_Int_Tables_number   1
_chemical_formula_structural   AgH4C7O2F
_chemical_formula_sum   'Ag4 H16 C28 O8 F4'
_cell_volume   631.53604206
_cell_formula_units_Z   4
loop_
 _symmetry_equiv_pos_site_id
 _symmetry_equiv_pos_as_xyz
  1  'x, y, z'
loop_
 _atom_site_type_symbol
 _atom_site_label
 _atom_site_symmetry_multiplicity
 _atom_site_fract_x
 _atom_site_fract_y
 _atom_site_fract_z
 _atom_site_occupancy
  Ag  Ag0  1  0.91470000  0.12076000  0.96745000  1.0
  Ag  Ag1  1  0.58528000  0.62077000  0.96746000  1.0
  Ag  Ag2  1  0.08525000  0.87925000  0.03254000  1.0
  Ag  Ag3  1  0.41468000  0.37926000  0.03254000  1.0
  H  H4  1  0.69776000  0.22168000  0.79160000  1.0
  H  H5  1  0.80227000  0.72168000  0.79160000  1.0
  H  H6  1  0.30223000  0.77832000  0.20840000  1.0
  H  H7  1  0.19782000  0.27832000  0.20840000  1.0
  H  H8  1  0.84313000  0.19322000  0.64061000  1.0
  H  H9  1  0.65683000  0.69320000  0.64062000  1.0
  H  H10  1  0.15684000  0.80678000  0.35939000  1.0
  H  H11  1  0.34317000  0.30678000  0.35938000  1.0
  H  H12  1  0.34854000  0.54539000  0.58448000  1.0
  H  H13  1  0.15136000  0.04536000  0.58450000  1.0
  H  H14  1  0.65140000  0.45462000  0.41552000  1.0
  H  H15  1  0.84857000  0.95461000  0.41551000  1.0
  H  H16  1  0.19472000  0.57605000  0.73595000  1.0
  H  H17  1  0.30524000  0.07604000  0.73595000  1.0
  H  H18  1  0.80526000  0.42395000  0.26406000  1.0
  H  H19  1  0.69475000  0.92394000  0.26405000  1.0
  C  C20  1  0.82251000  0.42541000  0.86009000  1.0
  C  C21  1  0.67755000  0.92541000  0.86008000  1.0
  C  C22  1  0.17750000  0.57459000  0.13992000  1.0
  C  C23  1  0.32252000  0.07459000  0.13991000  1.0
  C  C24  1  0.93933000  0.40084000  0.77362000  1.0
  C  C25  1  0.56073000  0.90084000  0.77361000  1.0
  C  C26  1  0.06068000  0.59916000  0.22639000  1.0
  C  C27  1  0.43935000  0.09916000  0.22638000  1.0
  C  C28  1  0.84488000  0.29213000  0.74732000  1.0
  C  C29  1  0.65517000  0.79212000  0.74732000  1.0
  C  C30  1  0.15513000  0.70788000  0.25268000  1.0
  C  C31  1  0.34492000  0.20788000  0.25267000  1.0
  C  C32  1  0.92601000  0.27510000  0.66330000  1.0
  C  C33  1  0.57397000  0.77509000  0.66330000  1.0
  C  C34  1  0.07396000  0.72490000  0.33670000  1.0
  C  C35  1  0.42604000  0.22491000  0.33669000  1.0
  C  C36  1  0.10680000  0.36738000  0.60722000  1.0
  C  C37  1  0.39319000  0.86735000  0.60723000  1.0
  C  C38  1  0.89318000  0.63264000  0.39278000  1.0
  C  C39  1  0.60681000  0.13263000  0.39277000  1.0
  C  C40  1  0.20631000  0.47621000  0.63097000  1.0
  C  C41  1  0.29365000  0.97620000  0.63097000  1.0
  C  C42  1  0.79365000  0.52379000  0.36904000  1.0
  C  C43  1  0.70634000  0.02379000  0.36903000  1.0
  C  C44  1  0.12064000  0.49215000  0.71483000  1.0
  C  C45  1  0.37938000  0.99214000  0.71484000  1.0
  C  C46  1  0.87936000  0.50785000  0.28517000  1.0
  C  C47  1  0.62066000  0.00785000  0.28516000  1.0
  O  O48  1  0.68790000  0.33722000  0.91631000  1.0
  O  O49  1  0.81217000  0.83723000  0.91630000  1.0
  O  O50  1  0.31210000  0.66278000  0.08370000  1.0
  O  O51  1  0.18793000  0.16278000  0.08369000  1.0
  O  O52  1  0.85457000  0.53475000  0.87106000  1.0
  O  O53  1  0.64543000  0.03475000  0.87106000  1.0
  O  O54  1  0.14543000  0.46525000  0.12894000  1.0
  O  O55  1  0.35453000  0.96525000  0.12894000  1.0
  F  F56  1  0.19125000  0.35045000  0.52508000  1.0
  F  F57  1  0.30870000  0.85043000  0.52509000  1.0
  F  F58  1  0.80871000  0.64956000  0.47492000  1.0
  F  F59  1  0.69125000  0.14955000  0.47492000  1.0
