# generated using pymatgen
data_CoH16C20N2O5
_symmetry_space_group_name_H-M   'P 1'
_cell_length_a   11.32300000
_cell_length_b   15.70710000
_cell_length_c   24.09470000
_cell_angle_alpha   90.00000000
_cell_angle_beta   89.99920000
_cell_angle_gamma   89.99950000
_symmetry_Int_Tables_number   1
_chemical_formula_structural   CoH16C20N2O5
_chemical_formula_sum   'Co8 H128 C160 N16 O40'
_cell_volume   4285.27837503
_cell_formula_units_Z   8
loop_
 _symmetry_equiv_pos_site_id
 _symmetry_equiv_pos_as_xyz
  1  'x, y, z'
loop_
 _atom_site_type_symbol
 _atom_site_label
 _atom_site_symmetry_multiplicity
 _atom_site_fract_x
 _atom_site_fract_y
 _atom_site_fract_z
 _atom_site_occupancy
  Co  Co0  1  0.19739000  0.34674000  0.79697000  1.0
  Co  Co1  1  0.80260000  0.34674000  0.20303000  1.0
  Co  Co2  1  0.69739000  0.65326000  0.70303000  1.0
  Co  Co3  1  0.30261000  0.65326000  0.29697000  1.0
  Co  Co4  1  0.28543000  0.15113000  0.69656000  1.0
  Co  Co5  1  0.71457000  0.15112000  0.30345000  1.0
  Co  Co6  1  0.78543000  0.84887000  0.80345000  1.0
  Co  Co7  1  0.21457000  0.84887000  0.19656000  1.0
  H  H8  1  0.99846000  0.40119000  0.71837000  1.0
  H  H9  1  0.00154000  0.40120000  0.28163000  1.0
  H  H10  1  0.49846000  0.59881000  0.78163000  1.0
  H  H11  1  0.50155000  0.59881000  0.21837000  1.0
  H  H12  1  0.00434000  0.29680000  0.87557000  1.0
  H  H13  1  0.99565000  0.29680000  0.12443000  1.0
  H  H14  1  0.50434000  0.70319000  0.62443000  1.0
  H  H15  1  0.49566000  0.70319000  0.37557000  1.0
  H  H16  1  0.14195000  0.20947000  0.91353000  1.0
  H  H17  1  0.85806000  0.20946000  0.08647000  1.0
  H  H18  1  0.64195000  0.79054000  0.58647000  1.0
  H  H19  1  0.35805000  0.79054000  0.41353000  1.0
  H  H20  1  0.08497000  0.08223000  0.76901000  1.0
  H  H21  1  0.91503000  0.08222000  0.23099000  1.0
  H  H22  1  0.58497000  0.91778000  0.73100000  1.0
  H  H23  1  0.41503000  0.91778000  0.26901000  1.0
  H  H24  1  0.39263000  0.44075000  0.73971000  1.0
  H  H25  1  0.60736000  0.44074000  0.26029000  1.0
  H  H26  1  0.89263000  0.55925000  0.76029000  1.0
  H  H27  1  0.10737000  0.55926000  0.23970000  1.0
  H  H28  1  0.78575000  0.28779000  0.87937000  1.0
  H  H29  1  0.21425000  0.28779000  0.12063000  1.0
  H  H30  1  0.28575000  0.71220000  0.62063000  1.0
  H  H31  1  0.71425000  0.71220000  0.37937000  1.0
  H  H32  1  0.09279000  0.21271000  0.61996000  1.0
  H  H33  1  0.90721000  0.21270000  0.38005000  1.0
  H  H34  1  0.59279000  0.78730000  0.88005000  1.0
  H  H35  1  0.40722000  0.78730000  0.11995000  1.0
  H  H36  1  0.60841000  0.24414000  0.86051000  1.0
  H  H37  1  0.39159000  0.24414000  0.13948000  1.0
  H  H38  1  0.10841000  0.75586000  0.63949000  1.0
  H  H39  1  0.89158000  0.75586000  0.36051000  1.0
  H  H40  1  0.25142000  0.42499000  0.41141000  1.0
  H  H41  1  0.74858000  0.42499000  0.58859000  1.0
  H  H42  1  0.75142000  0.57501000  0.08858000  1.0
  H  H43  1  0.24858000  0.57501000  0.91141000  1.0
  H  H44  1  0.13701000  0.05465000  0.07093000  1.0
  H  H45  1  0.86298000  0.05465000  0.92907000  1.0
  H  H46  1  0.63702000  0.94534000  0.42907000  1.0
  H  H47  1  0.36299000  0.94535000  0.57093000  1.0
  H  H48  1  0.87464000  0.22107000  0.61644000  1.0
  H  H49  1  0.12536000  0.22107000  0.38356000  1.0
  H  H50  1  0.37463000  0.77893000  0.88357000  1.0
  H  H51  1  0.62537000  0.77893000  0.11643000  1.0
  H  H52  1  0.69713000  0.25650000  0.63377000  1.0
  H  H53  1  0.30286000  0.25649000  0.36624000  1.0
  H  H54  1  0.19714000  0.74350000  0.86623000  1.0
  H  H55  1  0.80287000  0.74350000  0.13376000  1.0
  H  H56  1  0.77940000  0.39982000  0.71511000  1.0
  H  H57  1  0.22060000  0.39982000  0.28489000  1.0
  H  H58  1  0.27940000  0.60018000  0.78489000  1.0
  H  H59  1  0.72060000  0.60019000  0.21511000  1.0
  H  H60  1  0.61082000  0.44336000  0.73600000  1.0
  H  H61  1  0.38918000  0.44334000  0.26401000  1.0
  H  H62  1  0.11081000  0.55665000  0.76401000  1.0
  H  H63  1  0.88919000  0.55666000  0.23599000  1.0
  H  H64  1  0.39102000  0.25406000  0.86082000  1.0
  H  H65  1  0.60899000  0.25406000  0.13918000  1.0
  H  H66  1  0.89101000  0.74594000  0.63918000  1.0
  H  H67  1  0.10898000  0.74593000  0.36082000  1.0
  H  H68  1  0.47804000  0.24911000  0.63579000  1.0
  H  H69  1  0.52195000  0.24911000  0.36420000  1.0
  H  H70  1  0.97804000  0.75089000  0.86420000  1.0
  H  H71  1  0.02196000  0.75089000  0.13579000  1.0
  H  H72  1  0.86898000  0.08612000  0.77361000  1.0
  H  H73  1  0.13102000  0.08611000  0.22639000  1.0
  H  H74  1  0.36898000  0.91388000  0.72639000  1.0
  H  H75  1  0.63102000  0.91389000  0.27361000  1.0
  H  H76  1  0.69964000  0.05631000  0.75774000  1.0
  H  H77  1  0.30036000  0.05632000  0.24226000  1.0
  H  H78  1  0.19964000  0.94369000  0.74226000  1.0
  H  H79  1  0.80036000  0.94369000  0.25774000  1.0
  H  H80  1  0.48092000  0.06148000  0.75564000  1.0
  H  H81  1  0.51908000  0.06149000  0.24435000  1.0
  H  H82  1  0.98092000  0.93852000  0.74436000  1.0
  H  H83  1  0.01908000  0.93852000  0.25564000  1.0
  H  H84  1  0.29769000  0.34168000  0.48435000  1.0
  H  H85  1  0.70231000  0.34168000  0.51565000  1.0
  H  H86  1  0.79769000  0.65833000  0.01565000  1.0
  H  H87  1  0.20231000  0.65832000  0.98435000  1.0
  H  H88  1  0.36681000  0.94046000  0.93862000  1.0
  H  H89  1  0.63318000  0.94046000  0.06138000  1.0
  H  H90  1  0.86681000  0.05954000  0.56138000  1.0
  H  H91  1  0.13319000  0.05954000  0.43862000  1.0
  H  H92  1  0.20607000  0.51061000  0.65363000  1.0
  H  H93  1  0.79392000  0.51061000  0.34637000  1.0
  H  H94  1  0.70608000  0.48939000  0.84637000  1.0
  H  H95  1  0.29393000  0.48939000  0.15362000  1.0
  H  H96  1  0.23135000  0.58449000  0.56203000  1.0
  H  H97  1  0.76865000  0.58449000  0.43797000  1.0
  H  H98  1  0.73136000  0.41552000  0.93796000  1.0
  H  H99  1  0.26865000  0.41551000  0.06203000  1.0
  H  H100  1  0.35620000  0.00974000  0.84521000  1.0
  H  H101  1  0.64379000  0.00974000  0.15479000  1.0
  H  H102  1  0.85620000  0.99026000  0.65480000  1.0
  H  H103  1  0.14380000  0.99026000  0.34521000  1.0
  H  H104  1  0.27998000  0.27047000  0.57537000  1.0
  H  H105  1  0.72001000  0.27048000  0.42463000  1.0
  H  H106  1  0.77999000  0.72953000  0.92463000  1.0
  H  H107  1  0.22002000  0.72953000  0.07536000  1.0
  H  H108  1  0.14715000  0.14036000  0.00567000  1.0
  H  H109  1  0.85285000  0.14035000  0.99433000  1.0
  H  H110  1  0.64715000  0.85964000  0.49433000  1.0
  H  H111  1  0.35285000  0.85964000  0.50567000  1.0
  H  H112  1  0.45948000  0.41550000  0.37713000  1.0
  H  H113  1  0.54052000  0.41550000  0.62287000  1.0
  H  H114  1  0.95948000  0.58450000  0.12287000  1.0
  H  H115  1  0.04052000  0.58450000  0.87713000  1.0
  H  H116  1  0.50428000  0.49638000  0.42429000  1.0
  H  H117  1  0.49573000  0.49638000  0.57572000  1.0
  H  H118  1  0.00428000  0.50363000  0.07571000  1.0
  H  H119  1  0.99572000  0.50363000  0.92429000  1.0
  H  H120  1  0.45902000  0.39549000  0.44991000  1.0
  H  H121  1  0.54098000  0.39549000  0.55009000  1.0
  H  H122  1  0.95902000  0.60451000  0.05009000  1.0
  H  H123  1  0.04099000  0.60451000  0.94991000  1.0
  H  H124  1  0.27784000  0.12731000  0.13535000  1.0
  H  H125  1  0.72215000  0.12731000  0.86466000  1.0
  H  H126  1  0.77787000  0.87269000  0.36466000  1.0
  H  H127  1  0.22216000  0.87269000  0.63535000  1.0
  H  H128  1  0.39959000  0.07632000  0.10228000  1.0
  H  H129  1  0.60041000  0.07632000  0.89772000  1.0
  H  H130  1  0.89960000  0.92368000  0.39773000  1.0
  H  H131  1  0.10041000  0.92368000  0.60228000  1.0
  H  H132  1  0.31443000  0.15257000  0.06484000  1.0
  H  H133  1  0.68557000  0.15257000  0.93516000  1.0
  H  H134  1  0.81445000  0.84743000  0.43516000  1.0
  H  H135  1  0.18557000  0.84743000  0.56484000  1.0
  C  C136  1  0.63102000  0.34233000  0.79756000  1.0
  C  C137  1  0.36897000  0.34233000  0.20244000  1.0
  C  C138  1  0.13102000  0.65767000  0.70244000  1.0
  C  C139  1  0.86898000  0.65767000  0.29756000  1.0
  C  C140  1  0.84982000  0.15562000  0.69542000  1.0
  C  C141  1  0.15018000  0.15562000  0.30458000  1.0
  C  C142  1  0.34982000  0.84438000  0.80458000  1.0
  C  C143  1  0.65018000  0.84438000  0.19542000  1.0
  C  C144  1  0.24078000  0.34483000  0.67589000  1.0
  C  C145  1  0.75921000  0.34482000  0.32411000  1.0
  C  C146  1  0.74079000  0.65518000  0.82410000  1.0
  C  C147  1  0.25922000  0.65518000  0.17589000  1.0
  C  C148  1  0.21920000  0.96035000  0.12079000  1.0
  C  C149  1  0.78081000  0.96035000  0.87921000  1.0
  C  C150  1  0.71920000  0.03965000  0.37921000  1.0
  C  C151  1  0.28081000  0.03964000  0.62080000  1.0
  C  C152  1  0.30128000  0.54397000  0.37459000  1.0
  C  C153  1  0.69873000  0.54397000  0.62541000  1.0
  C  C154  1  0.80128000  0.45603000  0.12541000  1.0
  C  C155  1  0.19872000  0.45604000  0.87458000  1.0
  C  C156  1  0.24228000  0.15519000  0.81795000  1.0
  C  C157  1  0.75772000  0.15519000  0.18206000  1.0
  C  C158  1  0.74228000  0.84481000  0.68206000  1.0
  C  C159  1  0.25772000  0.84481000  0.31794000  1.0
  C  C160  1  0.94716000  0.37628000  0.75300000  1.0
  C  C161  1  0.05284000  0.37629000  0.24700000  1.0
  C  C162  1  0.44715000  0.62372000  0.74700000  1.0
  C  C163  1  0.55284000  0.62372000  0.25300000  1.0
  C  C164  1  0.95064000  0.31729000  0.84052000  1.0
  C  C165  1  0.04935000  0.31729000  0.15948000  1.0
  C  C166  1  0.45064000  0.68271000  0.65948000  1.0
  C  C167  1  0.54935000  0.68271000  0.34052000  1.0
  C  C168  1  0.18889000  0.14947000  0.91893000  1.0
  C  C169  1  0.81111000  0.14946000  0.08108000  1.0
  C  C170  1  0.68888000  0.85053000  0.58108000  1.0
  C  C171  1  0.31111000  0.85053000  0.41892000  1.0
  C  C172  1  0.03538000  0.11394000  0.73637000  1.0
  C  C173  1  0.96462000  0.11393000  0.26363000  1.0
  C  C174  1  0.53538000  0.88607000  0.76363000  1.0
  C  C175  1  0.46462000  0.88607000  0.23637000  1.0
  C  C176  1  0.44429000  0.39776000  0.76557000  1.0
  C  C177  1  0.55570000  0.39775000  0.23443000  1.0
  C  C178  1  0.94429000  0.60224000  0.73443000  1.0
  C  C179  1  0.05571000  0.60224000  0.26557000  1.0
  C  C180  1  0.82824000  0.31225000  0.84205000  1.0
  C  C181  1  0.17176000  0.31225000  0.15795000  1.0
  C  C182  1  0.32824000  0.68775000  0.65795000  1.0
  C  C183  1  0.67176000  0.68775000  0.34205000  1.0
  C  C184  1  0.03938000  0.18658000  0.65348000  1.0
  C  C185  1  0.96062000  0.18657000  0.34652000  1.0
  C  C186  1  0.53938000  0.81343000  0.84652000  1.0
  C  C187  1  0.46063000  0.81342000  0.15348000  1.0
  C  C188  1  0.56537000  0.28952000  0.83304000  1.0
  C  C189  1  0.43463000  0.28952000  0.16696000  1.0
  C  C190  1  0.06536000  0.71048000  0.66696000  1.0
  C  C191  1  0.93463000  0.71048000  0.33304000  1.0
  C  C192  1  0.31510000  0.47664000  0.41987000  1.0
  C  C193  1  0.68490000  0.47664000  0.58013000  1.0
  C  C194  1  0.81510000  0.52336000  0.08013000  1.0
  C  C195  1  0.18490000  0.52336000  0.91987000  1.0
  C  C196  1  0.22774000  0.03034000  0.07690000  1.0
  C  C197  1  0.77226000  0.03034000  0.92310000  1.0
  C  C198  1  0.72775000  0.96966000  0.42310000  1.0
  C  C199  1  0.27226000  0.96966000  0.57690000  1.0
  C  C200  1  0.91689000  0.19121000  0.65212000  1.0
  C  C201  1  0.08310000  0.19121000  0.34788000  1.0
  C  C202  1  0.41689000  0.80879000  0.84789000  1.0
  C  C203  1  0.58312000  0.80879000  0.15212000  1.0
  C  C204  1  0.65389000  0.21079000  0.66106000  1.0
  C  C205  1  0.34611000  0.21078000  0.33894000  1.0
  C  C206  1  0.15389000  0.78921000  0.83894000  1.0
  C  C207  1  0.84612000  0.78922000  0.16105000  1.0
  C  C208  1  0.24399000  0.38641000  0.62063000  1.0
  C  C209  1  0.75601000  0.38640000  0.37937000  1.0
  C  C210  1  0.74399000  0.61360000  0.87937000  1.0
  C  C211  1  0.25602000  0.61360000  0.12062000  1.0
  C  C212  1  0.82464000  0.37416000  0.75139000  1.0
  C  C213  1  0.17535000  0.37416000  0.24861000  1.0
  C  C214  1  0.32464000  0.62585000  0.74861000  1.0
  C  C215  1  0.67536000  0.62585000  0.25138000  1.0
  C  C216  1  0.56669000  0.39838000  0.76352000  1.0
  C  C217  1  0.43330000  0.39837000  0.23648000  1.0
  C  C218  1  0.06669000  0.60162000  0.73648000  1.0
  C  C219  1  0.93331000  0.60163000  0.26351000  1.0
  C  C220  1  0.44290000  0.29370000  0.83286000  1.0
  C  C221  1  0.55709000  0.29370000  0.16713000  1.0
  C  C222  1  0.94290000  0.70629000  0.66714000  1.0
  C  C223  1  0.05709000  0.70629000  0.33286000  1.0
  C  C224  1  0.53131000  0.20761000  0.66199000  1.0
  C  C225  1  0.46869000  0.20761000  0.33801000  1.0
  C  C226  1  0.03131000  0.79239000  0.83801000  1.0
  C  C227  1  0.96869000  0.79239000  0.16199000  1.0
  C  C228  1  0.91311000  0.11622000  0.73850000  1.0
  C  C229  1  0.08689000  0.11622000  0.26150000  1.0
  C  C230  1  0.41310000  0.88378000  0.76151000  1.0
  C  C231  1  0.58689000  0.88378000  0.23850000  1.0
  C  C232  1  0.65553000  0.10119000  0.73013000  1.0
  C  C233  1  0.34447000  0.10119000  0.26987000  1.0
  C  C234  1  0.15553000  0.89882000  0.76987000  1.0
  C  C235  1  0.84447000  0.89882000  0.23013000  1.0
  C  C236  1  0.71975000  0.15639000  0.69548000  1.0
  C  C237  1  0.28025000  0.15639000  0.30451000  1.0
  C  C238  1  0.21975000  0.84360000  0.80452000  1.0
  C  C239  1  0.78025000  0.84361000  0.19548000  1.0
  C  C240  1  0.53307000  0.10269000  0.72887000  1.0
  C  C241  1  0.46693000  0.10269000  0.27113000  1.0
  C  C242  1  0.03307000  0.89731000  0.77114000  1.0
  C  C243  1  0.96693000  0.89731000  0.22886000  1.0
  C  C244  1  0.27901000  0.37965000  0.52112000  1.0
  C  C245  1  0.72100000  0.37965000  0.47889000  1.0
  C  C246  1  0.77901000  0.62035000  0.97888000  1.0
  C  C247  1  0.22099000  0.62035000  0.02111000  1.0
  C  C248  1  0.26919000  0.46879000  0.51792000  1.0
  C  C249  1  0.73081000  0.46878000  0.48208000  1.0
  C  C250  1  0.76920000  0.53121000  0.98208000  1.0
  C  C251  1  0.23081000  0.53121000  0.01792000  1.0
  C  C252  1  0.24698000  0.11353000  0.87320000  1.0
  C  C253  1  0.75303000  0.11353000  0.12681000  1.0
  C  C254  1  0.74697000  0.88648000  0.62681000  1.0
  C  C255  1  0.25303000  0.88647000  0.37319000  1.0
  C  C256  1  0.31648000  0.99879000  0.93224000  1.0
  C  C257  1  0.68352000  0.99879000  0.06777000  1.0
  C  C258  1  0.81648000  0.00121000  0.56777000  1.0
  C  C259  1  0.18352000  0.00121000  0.43224000  1.0
  C  C260  1  0.22726000  0.47478000  0.61628000  1.0
  C  C261  1  0.77274000  0.47477000  0.38372000  1.0
  C  C262  1  0.72726000  0.52522000  0.88372000  1.0
  C  C263  1  0.27275000  0.52522000  0.11628000  1.0
  C  C264  1  0.24078000  0.51570000  0.56584000  1.0
  C  C265  1  0.75922000  0.51570000  0.43416000  1.0
  C  C266  1  0.74078000  0.48430000  0.93415000  1.0
  C  C267  1  0.25923000  0.48430000  0.06584000  1.0
  C  C268  1  0.76125000  0.34175000  0.79684000  1.0
  C  C269  1  0.23875000  0.34174000  0.20316000  1.0
  C  C270  1  0.26125000  0.65825000  0.70316000  1.0
  C  C271  1  0.73875000  0.65826000  0.29684000  1.0
  C  C272  1  0.31077000  0.03752000  0.88069000  1.0
  C  C273  1  0.68923000  0.03752000  0.11932000  1.0
  C  C274  1  0.81076000  0.96248000  0.61932000  1.0
  C  C275  1  0.18923000  0.96248000  0.38069000  1.0
  C  C276  1  0.25766000  0.03516000  0.97790000  1.0
  C  C277  1  0.74233000  0.03516000  0.02210000  1.0
  C  C278  1  0.75766000  0.96484000  0.52210000  1.0
  C  C279  1  0.24234000  0.96484000  0.47790000  1.0
  C  C280  1  0.26842000  0.33937000  0.57247000  1.0
  C  C281  1  0.73158000  0.33937000  0.42754000  1.0
  C  C282  1  0.76842000  0.66063000  0.92753000  1.0
  C  C283  1  0.23159000  0.66063000  0.07246000  1.0
  C  C284  1  0.19313000  0.11091000  0.97093000  1.0
  C  C285  1  0.80688000  0.11091000  0.02907000  1.0
  C  C286  1  0.69313000  0.88909000  0.52907000  1.0
  C  C287  1  0.30687000  0.88909000  0.47093000  1.0
  C  C288  1  0.44213000  0.44365000  0.41801000  1.0
  C  C289  1  0.55787000  0.44365000  0.58199000  1.0
  C  C290  1  0.94213000  0.55635000  0.08198000  1.0
  C  C291  1  0.05787000  0.55635000  0.91802000  1.0
  C  C292  1  0.31008000  0.10147000  0.09588000  1.0
  C  C293  1  0.68991000  0.10147000  0.90412000  1.0
  C  C294  1  0.81010000  0.89853000  0.40412000  1.0
  C  C295  1  0.18992000  0.89853000  0.59588000  1.0
  N  N296  1  0.09937000  0.14872000  0.69509000  1.0
  N  N297  1  0.90062000  0.14871000  0.30491000  1.0
  N  N298  1  0.59938000  0.85128000  0.80491000  1.0
  N  N299  1  0.40063000  0.85128000  0.19509000  1.0
  N  N300  1  0.38175000  0.34587000  0.79908000  1.0
  N  N301  1  0.61825000  0.34587000  0.20092000  1.0
  N  N302  1  0.88175000  0.65413000  0.70092000  1.0
  N  N303  1  0.11825000  0.65413000  0.29908000  1.0
  N  N304  1  0.01074000  0.34873000  0.79677000  1.0
  N  N305  1  0.98926000  0.34873000  0.20323000  1.0
  N  N306  1  0.51073000  0.65127000  0.70323000  1.0
  N  N307  1  0.48926000  0.65127000  0.29677000  1.0
  N  N308  1  0.47066000  0.15452000  0.69538000  1.0
  N  N309  1  0.52934000  0.15452000  0.30462000  1.0
  N  N310  1  0.97065000  0.84548000  0.80462000  1.0
  N  N311  1  0.02935000  0.84548000  0.19538000  1.0
  O  O312  1  0.29390000  0.11783000  0.77738000  1.0
  O  O313  1  0.70610000  0.11783000  0.22262000  1.0
  O  O314  1  0.79390000  0.88217000  0.72262000  1.0
  O  O315  1  0.20610000  0.88216000  0.27738000  1.0
  O  O316  1  0.19386000  0.38512000  0.71651000  1.0
  O  O317  1  0.80613000  0.38512000  0.28349000  1.0
  O  O318  1  0.69386000  0.61488000  0.78349000  1.0
  O  O319  1  0.30615000  0.61488000  0.21650000  1.0
  O  O320  1  0.18472000  0.22460000  0.81299000  1.0
  O  O321  1  0.81527000  0.22460000  0.18702000  1.0
  O  O322  1  0.68472000  0.77540000  0.68702000  1.0
  O  O323  1  0.31529000  0.77540000  0.31298000  1.0
  O  O324  1  0.20365000  0.98393000  0.17102000  1.0
  O  O325  1  0.79635000  0.98393000  0.82898000  1.0
  O  O326  1  0.70365000  0.01606000  0.32898000  1.0
  O  O327  1  0.29635000  0.01607000  0.67102000  1.0
  O  O328  1  0.29906000  0.51748000  0.32452000  1.0
  O  O329  1  0.70095000  0.51748000  0.67548000  1.0
  O  O330  1  0.79906000  0.48252000  0.17548000  1.0
  O  O331  1  0.20094000  0.48252000  0.82452000  1.0
  O  O332  1  0.22724000  0.88256000  0.10774000  1.0
  O  O333  1  0.77276000  0.88256000  0.89226000  1.0
  O  O334  1  0.72724000  0.11744000  0.39226000  1.0
  O  O335  1  0.27276000  0.11744000  0.60774000  1.0
  O  O336  1  0.28931000  0.27217000  0.68085000  1.0
  O  O337  1  0.71069000  0.27217000  0.31915000  1.0
  O  O338  1  0.78931000  0.72783000  0.81914000  1.0
  O  O339  1  0.21069000  0.72783000  0.18085000  1.0
  O  O340  1  0.29937000  0.62256000  0.38615000  1.0
  O  O341  1  0.70062000  0.62256000  0.61385000  1.0
  O  O342  1  0.79938000  0.37744000  0.11385000  1.0
  O  O343  1  0.20062000  0.37744000  0.88614000  1.0
  O  O344  1  0.26910000  0.99181000  0.02647000  1.0
  O  O345  1  0.73089000  0.99181000  0.97353000  1.0
  O  O346  1  0.76910000  0.00819000  0.47353000  1.0
  O  O347  1  0.23090000  0.00819000  0.52647000  1.0
  O  O348  1  0.28601000  0.51669000  0.47164000  1.0
  O  O349  1  0.71399000  0.51669000  0.52836000  1.0
  O  O350  1  0.78601000  0.48331000  0.02835000  1.0
  O  O351  1  0.21399000  0.48331000  0.97164000  1.0
