# generated using pymatgen
data_CuH8C12(SN5)2
_symmetry_space_group_name_H-M   'P 1'
_cell_length_a   7.84522000
_cell_length_b   8.78509000
_cell_length_c   11.72070000
_cell_angle_alpha   89.99830000
_cell_angle_beta   76.01800000
_cell_angle_gamma   89.99700000
_symmetry_Int_Tables_number   1
_chemical_formula_structural   CuH8C12(SN5)2
_chemical_formula_sum   'Cu2 H16 C24 S4 N20'
_cell_volume   783.86812481
_cell_formula_units_Z   2
loop_
 _symmetry_equiv_pos_site_id
 _symmetry_equiv_pos_as_xyz
  1  'x, y, z'
loop_
 _atom_site_type_symbol
 _atom_site_label
 _atom_site_symmetry_multiplicity
 _atom_site_fract_x
 _atom_site_fract_y
 _atom_site_fract_z
 _atom_site_occupancy
  Cu  Cu0  1  0.00033000  0.99991000  0.99999000  1.0
  Cu  Cu1  1  0.50032000  0.50007000  0.99993000  1.0
  H  H2  1  0.58942000  0.07020000  0.59453000  1.0
  H  H3  1  0.90987000  0.56936000  0.40579000  1.0
  H  H4  1  0.40994000  0.93066000  0.40585000  1.0
  H  H5  1  0.08949000  0.42984000  0.59455000  1.0
  H  H6  1  0.43551000  0.81687000  0.59964000  1.0
  H  H7  1  0.06358000  0.31598000  0.40061000  1.0
  H  H8  1  0.56368000  0.18404000  0.40064000  1.0
  H  H9  1  0.93559000  0.68319000  0.59968000  1.0
  H  H10  1  0.72376000  0.13760000  0.76430000  1.0
  H  H11  1  0.77633000  0.63735000  0.23570000  1.0
  H  H12  1  0.27634000  0.86273000  0.23577000  1.0
  H  H13  1  0.22377000  0.36237000  0.76432000  1.0
  H  H14  1  0.67474000  0.78825000  0.08624000  1.0
  H  H15  1  0.82612000  0.28831000  0.91340000  1.0
  H  H16  1  0.32613000  0.21161000  0.91344000  1.0
  H  H17  1  0.17473000  0.71165000  0.08631000  1.0
  C  C18  1  0.88150000  0.91745000  0.26093000  1.0
  C  C19  1  0.61836000  0.41778000  0.73904000  1.0
  C  C20  1  0.11831000  0.08225000  0.73907000  1.0
  C  C21  1  0.38150000  0.58250000  0.26086000  1.0
  C  C22  1  0.58102000  0.99184000  0.66734000  1.0
  C  C23  1  0.91847000  0.49120000  0.33283000  1.0
  C  C24  1  0.41855000  0.00883000  0.33289000  1.0
  C  C25  1  0.08111000  0.50820000  0.66735000  1.0
  C  C26  1  0.49540000  0.84987000  0.67090000  1.0
  C  C27  1  0.00405000  0.34919000  0.32924000  1.0
  C  C28  1  0.50411000  0.15085000  0.32929000  1.0
  C  C29  1  0.99548000  0.65018000  0.67093000  1.0
  C  C30  1  0.55577000  0.79075000  0.84448000  1.0
  C  C31  1  0.94438000  0.29053000  0.15539000  1.0
  C  C32  1  0.44438000  0.20951000  0.15545000  1.0
  C  C33  1  0.05579000  0.70923000  0.84454000  1.0
  C  C34  1  0.65467000  0.03195000  0.75813000  1.0
  C  C35  1  0.84524000  0.53158000  0.24189000  1.0
  C  C36  1  0.34529000  0.96846000  0.24196000  1.0
  C  C37  1  0.15475000  0.46806000  0.75815000  1.0
  C  C38  1  0.64662000  0.81338000  0.00217000  1.0
  C  C39  1  0.85399000  0.31336000  0.99756000  1.0
  C  C40  1  0.35401000  0.18662000  0.99761000  1.0
  C  C41  1  0.14660000  0.68654000  0.00225000  1.0
  S  S42  1  0.85309000  0.90745000  0.40106000  1.0
  S  S43  1  0.64580000  0.40762000  0.59900000  1.0
  S  S44  1  0.14563000  0.09242000  0.59904000  1.0
  S  S45  1  0.35299000  0.59253000  0.40098000  1.0
  N  N46  1  0.89949000  0.91918000  0.15677000  1.0
  N  N47  1  0.60122000  0.41960000  0.84311000  1.0
  N  N48  1  0.10125000  0.08038000  0.84313000  1.0
  N  N49  1  0.39953000  0.58075000  0.15669000  1.0
  N  N50  1  0.48229000  0.74975000  0.75799000  1.0
  N  N51  1  0.01757000  0.24929000  0.24197000  1.0
  N  N52  1  0.51757000  0.25075000  0.24202000  1.0
  N  N53  1  0.98231000  0.75027000  0.75805000  1.0
  N  N54  1  0.63809000  0.93070000  0.84742000  1.0
  N  N55  1  0.86206000  0.43047000  0.15250000  1.0
  N  N56  1  0.36209000  0.06956000  0.15258000  1.0
  N  N57  1  0.13814000  0.56929000  0.84744000  1.0
  N  N58  1  0.69476000  0.94553000  0.94782000  1.0
  N  N59  1  0.80566000  0.44543000  0.05198000  1.0
  N  N60  1  0.30571000  0.05456000  0.05206000  1.0
  N  N61  1  0.19479000  0.55442000  0.94786000  1.0
  N  N62  1  0.93609000  0.21575000  0.05587000  1.0
  N  N63  1  0.56442000  0.71584000  0.94387000  1.0
  N  N64  1  0.06438000  0.78411000  0.94395000  1.0
  N  N65  1  0.43607000  0.28427000  0.05591000  1.0
