# generated using pymatgen
data_SmH15C28(N2O3)2
_symmetry_space_group_name_H-M   'P 1'
_cell_length_a   11.26680000
_cell_length_b   13.35810000
_cell_length_c   20.16740000
_cell_angle_alpha   94.83940000
_cell_angle_beta   90.00060000
_cell_angle_gamma   114.94000000
_symmetry_Int_Tables_number   1
_chemical_formula_structural   SmH15C28(N2O3)2
_chemical_formula_sum   'Sm4 H60 C112 N16 O24'
_cell_volume   2740.27797639
_cell_formula_units_Z   4
loop_
 _symmetry_equiv_pos_site_id
 _symmetry_equiv_pos_as_xyz
  1  'x, y, z'
loop_
 _atom_site_type_symbol
 _atom_site_label
 _atom_site_symmetry_multiplicity
 _atom_site_fract_x
 _atom_site_fract_y
 _atom_site_fract_z
 _atom_site_occupancy
  Sm  Sm0  1  0.91290000  0.15319000  0.29350000  1.0
  Sm  Sm1  1  0.75972000  0.84677000  0.20650000  1.0
  Sm  Sm2  1  0.08710000  0.84681000  0.70650000  1.0
  Sm  Sm3  1  0.24028000  0.15323000  0.79350000  1.0
  H  H4  1  0.20735000  0.22399000  0.21580000  1.0
  H  H5  1  0.98334000  0.77600000  0.28421000  1.0
  H  H6  1  0.79265000  0.77601000  0.78420000  1.0
  H  H7  1  0.01666000  0.22400000  0.71579000  1.0
  H  H8  1  0.34934000  0.33373000  0.12815000  1.0
  H  H9  1  0.01557000  0.66625000  0.37185000  1.0
  H  H10  1  0.65066000  0.66627000  0.87185000  1.0
  H  H11  1  0.98443000  0.33375000  0.62815000  1.0
  H  H12  1  0.28752000  0.47052000  0.07569000  1.0
  H  H13  1  0.81697000  0.52948000  0.42432000  1.0
  H  H14  1  0.71248000  0.52948000  0.92431000  1.0
  H  H15  1  0.18303000  0.47052000  0.57568000  1.0
  H  H16  1  0.73471000  0.51845000  0.18554000  1.0
  H  H17  1  0.21621000  0.48159000  0.31445000  1.0
  H  H18  1  0.26529000  0.48155000  0.81446000  1.0
  H  H19  1  0.78379000  0.51841000  0.68555000  1.0
  H  H20  1  0.60137000  0.38410000  0.26605000  1.0
  H  H21  1  0.21726000  0.61594000  0.23393000  1.0
  H  H22  1  0.39863000  0.61590000  0.73395000  1.0
  H  H23  1  0.78274000  0.38406000  0.76607000  1.0
  H  H24  1  0.68692000  0.25534000  0.30827000  1.0
  H  H25  1  0.43160000  0.74468000  0.19171000  1.0
  H  H26  1  0.31308000  0.74466000  0.69173000  1.0
  H  H27  1  0.56840000  0.25532000  0.80829000  1.0
  H  H28  1  0.22625000  0.69446000  0.96085000  1.0
  H  H29  1  0.53172000  0.30552000  0.53915000  1.0
  H  H30  1  0.77375000  0.30554000  0.03915000  1.0
  H  H31  1  0.46828000  0.69447000  0.46085000  1.0
  H  H32  1  0.25475000  0.83397000  0.87942000  1.0
  H  H33  1  0.42068000  0.16604000  0.62056000  1.0
  H  H34  1  0.74525000  0.16603000  0.12058000  1.0
  H  H35  1  0.57932000  0.83396000  0.37944000  1.0
  H  H36  1  0.96311000  0.91468000  0.97825000  1.0
  H  H37  1  0.04841000  0.08532000  0.52171000  1.0
  H  H38  1  0.03689000  0.08532000  0.02175000  1.0
  H  H39  1  0.95159000  0.91468000  0.47829000  1.0
  H  H40  1  0.93050000  0.77572000  0.05619000  1.0
  H  H41  1  0.15476000  0.22428000  0.44376000  1.0
  H  H42  1  0.06951000  0.22428000  0.94381000  1.0
  H  H43  1  0.84524000  0.77572000  0.55624000  1.0
  H  H44  1  0.82818000  0.47388000  0.58278000  1.0
  H  H45  1  0.35428000  0.52608000  0.91721000  1.0
  H  H46  1  0.17182000  0.52612000  0.41722000  1.0
  H  H47  1  0.64572000  0.47392000  0.08279000  1.0
  H  H48  1  0.80655000  0.31763000  0.49810000  1.0
  H  H49  1  0.48886000  0.68238000  0.00190000  1.0
  H  H50  1  0.19345000  0.68237000  0.50190000  1.0
  H  H51  1  0.51114000  0.31762000  0.99810000  1.0
  H  H52  1  0.28337000  0.11785000  0.33655000  1.0
  H  H53  1  0.16551000  0.88216000  0.16346000  1.0
  H  H54  1  0.71663000  0.88215000  0.66345000  1.0
  H  H55  1  0.83449000  0.11784000  0.83654000  1.0
  H  H56  1  0.50584000  0.11554000  0.33753000  1.0
  H  H57  1  0.39026000  0.88444000  0.16245000  1.0
  H  H58  1  0.49416000  0.88447000  0.66247000  1.0
  H  H59  1  0.60974000  0.11556000  0.83755000  1.0
  H  H60  1  0.88134000  0.63173000  0.10677000  1.0
  H  H61  1  0.24957000  0.36823000  0.39323000  1.0
  H  H62  1  0.11866000  0.36827000  0.89323000  1.0
  H  H63  1  0.75043000  0.63176000  0.60677000  1.0
  C  C64  1  0.18351000  0.28380000  0.19186000  1.0
  C  C65  1  0.89968000  0.71619000  0.30815000  1.0
  C  C66  1  0.81649000  0.71620000  0.80814000  1.0
  C  C67  1  0.10032000  0.28381000  0.69185000  1.0
  C  C68  1  0.26291000  0.34573000  0.14293000  1.0
  C  C69  1  0.91712000  0.65426000  0.35708000  1.0
  C  C70  1  0.73709000  0.65427000  0.85707000  1.0
  C  C71  1  0.08288000  0.34574000  0.64292000  1.0
  C  C72  1  0.22908000  0.42060000  0.11385000  1.0
  C  C73  1  0.80843000  0.57942000  0.38617000  1.0
  C  C74  1  0.77092000  0.57940000  0.88615000  1.0
  C  C75  1  0.19157000  0.42058000  0.61383000  1.0
  C  C76  1  0.11671000  0.43356000  0.13477000  1.0
  C  C77  1  0.68312000  0.56646000  0.36522000  1.0
  C  C78  1  0.88329000  0.56644000  0.86523000  1.0
  C  C79  1  0.31688000  0.43354000  0.63478000  1.0
  C  C80  1  0.07553000  0.51167000  0.10981000  1.0
  C  C81  1  0.56380000  0.48834000  0.39016000  1.0
  C  C82  1  0.92447000  0.48833000  0.89019000  1.0
  C  C83  1  0.43620000  0.51166000  0.60983000  1.0
  C  C84  1  0.96431000  0.52222000  0.13409000  1.0
  C  C85  1  0.44198000  0.47778000  0.36590000  1.0
  C  C86  1  0.03569000  0.47778000  0.86591000  1.0
  C  C87  1  0.55802000  0.52222000  0.63410000  1.0
  C  C88  1  0.88306000  0.45471000  0.18161000  1.0
  C  C89  1  0.42825000  0.54527000  0.31836000  1.0
  C  C90  1  0.11694000  0.54529000  0.81839000  1.0
  C  C91  1  0.57175000  0.45473000  0.68164000  1.0
  C  C92  1  0.76578000  0.45808000  0.20353000  1.0
  C  C93  1  0.30763000  0.54193000  0.29645000  1.0
  C  C94  1  0.23422000  0.54192000  0.79647000  1.0
  C  C95  1  0.69237000  0.45807000  0.70355000  1.0
  C  C96  1  0.69312000  0.38522000  0.24826000  1.0
  C  C97  1  0.30787000  0.61480000  0.25170000  1.0
  C  C98  1  0.30688000  0.61478000  0.75174000  1.0
  C  C99  1  0.69213000  0.38520000  0.74830000  1.0
  C  C100  1  0.73999000  0.31232000  0.27200000  1.0
  C  C101  1  0.42767000  0.68767000  0.22796000  1.0
  C  C102  1  0.26001000  0.68768000  0.72800000  1.0
  C  C103  1  0.57233000  0.31233000  0.77204000  1.0
  C  C104  1  0.92246000  0.37606000  0.20684000  1.0
  C  C105  1  0.54633000  0.62389000  0.29312000  1.0
  C  C106  1  0.07754000  0.62394000  0.79316000  1.0
  C  C107  1  0.45367000  0.37612000  0.70688000  1.0
  C  C108  1  0.04059000  0.36666000  0.18432000  1.0
  C  C109  1  0.67386000  0.63334000  0.31567000  1.0
  C  C110  1  0.95941000  0.63334000  0.81568000  1.0
  C  C111  1  0.32614000  0.36666000  0.68433000  1.0
  C  C112  1  0.05635000  0.63921000  0.05819000  1.0
  C  C113  1  0.41712000  0.36076000  0.44178000  1.0
  C  C114  1  0.94365000  0.36079000  0.94181000  1.0
  C  C115  1  0.58288000  0.63924000  0.55822000  1.0
  C  C116  1  0.07611000  0.72439000  0.01339000  1.0
  C  C117  1  0.35169000  0.27558000  0.48657000  1.0
  C  C118  1  0.92389000  0.27561000  0.98661000  1.0
  C  C119  1  0.64831000  0.72442000  0.51343000  1.0
  C  C120  1  0.16909000  0.74312000  0.96377000  1.0
  C  C121  1  0.42591000  0.25689000  0.53621000  1.0
  C  C122  1  0.83091000  0.25688000  0.03623000  1.0
  C  C123  1  0.57409000  0.74311000  0.46379000  1.0
  C  C124  1  0.18469000  0.82047000  0.91873000  1.0
  C  C125  1  0.36413000  0.17956000  0.58126000  1.0
  C  C126  1  0.81531000  0.17953000  0.08127000  1.0
  C  C127  1  0.63587000  0.82044000  0.41874000  1.0
  C  C128  1  0.11087000  0.88308000  0.92369000  1.0
  C  C129  1  0.22774000  0.11696000  0.57627000  1.0
  C  C130  1  0.88912000  0.11692000  0.07631000  1.0
  C  C131  1  0.77226000  0.88304000  0.42373000  1.0
  C  C132  1  0.02056000  0.86642000  0.97390000  1.0
  C  C133  1  0.15411000  0.13357000  0.52604000  1.0
  C  C134  1  0.97944000  0.13358000  0.02610000  1.0
  C  C135  1  0.84589000  0.86643000  0.47396000  1.0
  C  C136  1  0.00204000  0.78695000  0.01790000  1.0
  C  C137  1  0.21509000  0.21304000  0.48204000  1.0
  C  C138  1  0.99795000  0.21305000  0.98210000  1.0
  C  C139  1  0.78491000  0.78696000  0.51796000  1.0
  C  C140  1  0.13105000  0.96830000  0.87658000  1.0
  C  C141  1  0.16278000  0.03175000  0.62340000  1.0
  C  C142  1  0.86895000  0.03170000  0.12342000  1.0
  C  C143  1  0.83722000  0.96825000  0.37660000  1.0
  C  C144  1  0.90277000  0.48481000  0.54624000  1.0
  C  C145  1  0.41796000  0.51519000  0.95376000  1.0
  C  C146  1  0.09723000  0.51519000  0.45376000  1.0
  C  C147  1  0.58204000  0.48481000  0.04624000  1.0
  C  C148  1  0.89093000  0.39777000  0.49980000  1.0
  C  C149  1  0.49310000  0.60224000  0.00021000  1.0
  C  C150  1  0.10907000  0.60223000  0.50020000  1.0
  C  C151  1  0.50690000  0.39776000  0.99979000  1.0
  C  C152  1  0.98825000  0.41267000  0.45334000  1.0
  C  C153  1  0.57553000  0.58733000  0.04668000  1.0
  C  C154  1  0.01175000  0.58733000  0.54667000  1.0
  C  C155  1  0.42447000  0.41268000  0.95332000  1.0
  C  C156  1  0.96967000  0.31993000  0.40183000  1.0
  C  C157  1  0.64982000  0.68005000  0.09815000  1.0
  C  C158  1  0.03033000  0.68007000  0.59817000  1.0
  C  C159  1  0.35018000  0.31995000  0.90185000  1.0
  C  C160  1  0.21343000  0.00002000  0.25001000  1.0
  C  C161  1  0.78657000  0.99998000  0.74999000  1.0
  C  C162  1  0.30836000  0.06719000  0.29888000  1.0
  C  C163  1  0.24117000  0.93282000  0.20112000  1.0
  C  C164  1  0.69164000  0.93281000  0.70112000  1.0
  C  C165  1  0.75883000  0.06718000  0.79888000  1.0
  C  C166  1  0.43110000  0.06628000  0.29918000  1.0
  C  C167  1  0.36477000  0.93370000  0.20080000  1.0
  C  C168  1  0.56890000  0.93372000  0.70082000  1.0
  C  C169  1  0.63523000  0.06630000  0.79920000  1.0
  C  C170  1  0.45967000  0.00000000  0.24999000  1.0
  C  C171  1  0.54033000  0.00000000  0.75001000  1.0
  C  C172  1  0.08168000  0.00004000  0.25002000  1.0
  C  C173  1  0.91832000  0.99996000  0.74997000  1.0
  C  C174  1  0.59202000  0.99998000  0.25001000  1.0
  C  C175  1  0.40798000  0.00002000  0.74999000  1.0
  N  N176  1  0.07492000  0.29254000  0.21181000  1.0
  N  N177  1  0.78234000  0.70744000  0.28819000  1.0
  N  N178  1  0.92508000  0.70746000  0.78819000  1.0
  N  N179  1  0.21766000  0.29256000  0.71181000  1.0
  N  N180  1  0.85050000  0.30737000  0.25189000  1.0
  N  N181  1  0.54310000  0.69259000  0.24808000  1.0
  N  N182  1  0.14950000  0.69263000  0.74811000  1.0
  N  N183  1  0.45690000  0.30741000  0.75192000  1.0
  N  N184  1  0.13155000  0.58458000  0.06278000  1.0
  N  N185  1  0.54693000  0.41541000  0.43719000  1.0
  N  N186  1  0.86845000  0.41542000  0.93722000  1.0
  N  N187  1  0.45307000  0.58459000  0.56281000  1.0
  N  N188  1  0.95386000  0.60395000  0.10100000  1.0
  N  N189  1  0.34986000  0.39603000  0.39899000  1.0
  N  N190  1  0.04614000  0.39605000  0.89900000  1.0
  N  N191  1  0.65014000  0.60397000  0.60101000  1.0
  O  O192  1  0.14626000  0.94456000  0.81466000  1.0
  O  O193  1  0.20165000  0.05557000  0.68533000  1.0
  O  O194  1  0.85374000  0.05544000  0.18535000  1.0
  O  O195  1  0.79834000  0.94442000  0.31467000  1.0
  O  O196  1  0.13817000  0.06270000  0.89722000  1.0
  O  O197  1  0.07562000  0.93729000  0.60277000  1.0
  O  O198  1  0.86183000  0.93730000  0.10278000  1.0
  O  O199  1  0.92438000  0.06271000  0.39723000  1.0
  O  O200  1  0.06805000  0.31967000  0.36883000  1.0
  O  O201  1  0.74843000  0.68024000  0.13113000  1.0
  O  O202  1  0.93195000  0.68033000  0.63117000  1.0
  O  O203  1  0.25157000  0.31976000  0.86887000  1.0
  O  O204  1  0.85483000  0.24450000  0.39012000  1.0
  O  O205  1  0.61049000  0.75554000  0.10987000  1.0
  O  O206  1  0.14517000  0.75550000  0.60988000  1.0
  O  O207  1  0.38951000  0.24446000  0.89013000  1.0
  O  O208  1  0.07389000  0.08714000  0.27604000  1.0
  O  O209  1  0.98676000  0.91298000  0.22402000  1.0
  O  O210  1  0.92611000  0.91286000  0.72396000  1.0
  O  O211  1  0.01324000  0.08702000  0.77598000  1.0
  O  O212  1  0.60337000  0.92066000  0.21537000  1.0
  O  O213  1  0.68266000  0.07932000  0.28466000  1.0
  O  O214  1  0.39663000  0.07934000  0.78463000  1.0
  O  O215  1  0.31733000  0.92068000  0.71534000  1.0
