# generated using pymatgen
data_DyH25C17(N3O4)2
_symmetry_space_group_name_H-M   'P 1'
_cell_length_a   8.59100000
_cell_length_b   11.00830000
_cell_length_c   13.39440000
_cell_angle_alpha   101.34700000
_cell_angle_beta   107.63300000
_cell_angle_gamma   106.58100000
_symmetry_Int_Tables_number   1
_chemical_formula_structural   DyH25C17(N3O4)2
_chemical_formula_sum   'Dy2 H50 C34 N12 O16'
_cell_volume   1100.00624775
_cell_formula_units_Z   2
loop_
 _symmetry_equiv_pos_site_id
 _symmetry_equiv_pos_as_xyz
  1  'x, y, z'
loop_
 _atom_site_type_symbol
 _atom_site_label
 _atom_site_symmetry_multiplicity
 _atom_site_fract_x
 _atom_site_fract_y
 _atom_site_fract_z
 _atom_site_occupancy
  Dy  Dy0  1  0.25771000  0.11016000  0.06162000  1.0
  Dy  Dy1  1  0.74229000  0.88984000  0.93838000  1.0
  H  H2  1  0.20487000  0.53305000  0.04407000  1.0
  H  H3  1  0.79513000  0.46695000  0.95593000  1.0
  H  H4  1  0.05335000  0.43896000  0.20804000  1.0
  H  H5  1  0.94665000  0.56104000  0.79196000  1.0
  H  H6  1  0.13062000  0.70559000  0.15061000  1.0
  H  H7  1  0.86938000  0.29440000  0.84939000  1.0
  H  H8  1  0.15509000  0.69172000  0.28445000  1.0
  H  H9  1  0.84491000  0.30828000  0.71555000  1.0
  H  H10  1  0.94377000  0.63066000  0.18027000  1.0
  H  H11  1  0.05623000  0.36933000  0.81973000  1.0
  H  H12  1  0.83728000  0.39964000  0.33072000  1.0
  H  H13  1  0.16272000  0.60036000  0.66928000  1.0
  H  H14  1  0.87254000  0.12793000  0.26300000  1.0
  H  H15  1  0.12746000  0.87207000  0.73700000  1.0
  H  H16  1  0.13970000  0.40553000  0.42628000  1.0
  H  H17  1  0.86030000  0.59447000  0.57372000  1.0
  H  H18  1  0.18636000  0.30105000  0.32835000  1.0
  H  H19  1  0.81364000  0.69896000  0.67165000  1.0
  H  H20  1  0.14628000  0.24731000  0.43604000  1.0
  H  H21  1  0.85372000  0.75269000  0.56396000  1.0
  H  H22  1  0.88037000  0.86070000  0.21940000  1.0
  H  H23  1  0.11963000  0.13930000  0.78060000  1.0
  H  H24  1  0.24736000  0.00259000  0.40515000  1.0
  H  H25  1  0.75264000  0.99741000  0.59485000  1.0
  H  H26  1  0.89969000  0.79367000  0.38818000  1.0
  H  H27  1  0.10031000  0.20633000  0.61182000  1.0
  H  H28  1  0.06182000  0.91983000  0.51206000  1.0
  H  H29  1  0.93818000  0.08017000  0.48794000  1.0
  H  H30  1  0.11395000  0.78995000  0.45055000  1.0
  H  H31  1  0.88606000  0.21005000  0.54945000  1.0
  H  H32  1  0.11333000  0.81828000  0.94731000  1.0
  H  H33  1  0.88667000  0.18172000  0.05269000  1.0
  H  H34  1  0.32745000  0.85498000  0.99924000  1.0
  H  H35  1  0.67255000  0.14502000  0.00076000  1.0
  H  H36  1  0.40770000  0.02738000  0.90028000  1.0
  H  H37  1  0.59230000  0.97262000  0.09972000  1.0
  H  H38  1  0.41916000  0.17097000  0.88941000  1.0
  H  H39  1  0.58083000  0.82903000  0.11059000  1.0
  H  H40  1  0.48234000  0.58583000  0.57638000  1.0
  H  H41  1  0.51766000  0.41417000  0.42362000  1.0
  H  H42  1  0.51723000  0.75248000  0.62898000  1.0
  H  H43  1  0.48277000  0.24752000  0.37102000  1.0
  H  H44  1  0.52244000  0.03434000  0.41940000  1.0
  H  H45  1  0.47755000  0.96566000  0.58060000  1.0
  H  H46  1  0.53850000  0.99009000  0.29151000  1.0
  H  H47  1  0.46150000  0.00991000  0.70849000  1.0
  H  H48  1  0.61142000  0.59061000  0.09015000  1.0
  H  H49  1  0.38859000  0.40940000  0.90985000  1.0
  H  H50  1  0.55839000  0.45455000  0.22187000  1.0
  H  H51  1  0.44160000  0.54545000  0.77813000  1.0
  C  C52  1  0.17751000  0.33863000  0.06880000  1.0
  C  C53  1  0.82249000  0.66137000  0.93120000  1.0
  C  C54  1  0.15790000  0.46826000  0.08916000  1.0
  C  C55  1  0.84210000  0.53174000  0.91084000  1.0
  C  C56  1  0.09508000  0.50856000  0.16470000  1.0
  C  C57  1  0.90492000  0.49144000  0.83530000  1.0
  C  C58  1  0.08096000  0.64082000  0.19555000  1.0
  C  C59  1  0.91903000  0.35918000  0.80445000  1.0
  C  C60  1  0.61604000  0.22306000  0.21407000  1.0
  C  C61  1  0.38396000  0.77694000  0.78593000  1.0
  C  C62  1  0.80005000  0.29383000  0.28928000  1.0
  C  C63  1  0.19995000  0.70617000  0.71072000  1.0
  C  C64  1  0.91800000  0.23432000  0.30670000  1.0
  C  C65  1  0.08199000  0.76568000  0.69330000  1.0
  C  C66  1  0.10636000  0.30200000  0.37882000  1.0
  C  C67  1  0.89364000  0.69800000  0.62118000  1.0
  C  C68  1  0.09750000  0.99717000  0.19733000  1.0
  C  C69  1  0.90250000  0.00284000  0.80267000  1.0
  C  C70  1  0.01788000  0.92670000  0.26245000  1.0
  C  C71  1  0.98212000  0.07331000  0.73755000  1.0
  C  C72  1  0.10986000  0.93473000  0.36611000  1.0
  C  C73  1  0.89014000  0.06527000  0.63389000  1.0
  C  C74  1  0.04002000  0.85508000  0.43134000  1.0
  C  C75  1  0.95998000  0.14492000  0.56866000  1.0
  C  C76  1  0.49444000  0.69475000  0.47084000  1.0
  C  C77  1  0.50556000  0.30525000  0.52916000  1.0
  C  C78  1  0.53562000  0.62782000  0.31555000  1.0
  C  C79  1  0.46438000  0.37218000  0.68445000  1.0
  C  C80  1  0.54431000  0.74805000  0.29220000  1.0
  C  C81  1  0.45569000  0.25195000  0.70780000  1.0
  C  C82  1  0.52824000  0.84651000  0.37038000  1.0
  C  C83  1  0.47176000  0.15349000  0.62962000  1.0
  C  C84  1  0.58532000  0.62490000  0.16299000  1.0
  C  C85  1  0.41468000  0.37510000  0.83701000  1.0
  N  N86  1  0.50335000  0.81652000  0.45909000  1.0
  N  N87  1  0.49665000  0.18348000  0.54091000  1.0
  N  N88  1  0.46751000  0.67093000  0.56155000  1.0
  N  N89  1  0.53250000  0.32907000  0.43845000  1.0
  N  N90  1  0.50823000  0.59458000  0.40138000  1.0
  N  N91  1  0.49177000  0.40542000  0.59862000  1.0
  N  N92  1  0.54068000  0.96860000  0.36223000  1.0
  N  N93  1  0.45932000  0.03140000  0.63777000  1.0
  N  N94  1  0.57458000  0.74322000  0.19534000  1.0
  N  N95  1  0.42542000  0.25678000  0.80466000  1.0
  N  N96  1  0.56473000  0.55257000  0.23323000  1.0
  N  N97  1  0.43527000  0.44743000  0.76677000  1.0
  O  O98  1  0.11253000  0.25272000  0.11329000  1.0
  O  O99  1  0.88747000  0.74728000  0.88671000  1.0
  O  O100  1  0.26302000  0.31074000  0.01034000  1.0
  O  O101  1  0.73698000  0.68925000  0.98966000  1.0
  O  O102  1  0.54835000  0.09630000  0.16768000  1.0
  O  O103  1  0.45165000  0.90370000  0.83232000  1.0
  O  O104  1  0.51616000  0.29027000  0.19348000  1.0
  O  O105  1  0.48384000  0.70973000  0.80652000  1.0
  O  O106  1  0.25735000  0.07544000  0.23472000  1.0
  O  O107  1  0.74265000  0.92456000  0.76528000  1.0
  O  O108  1  0.00094000  0.97539000  0.09515000  1.0
  O  O109  1  0.99906000  0.02461000  0.90485000  1.0
  O  O110  1  0.23034000  0.88515000  0.99991000  1.0
  O  O111  1  0.76966000  0.11485000  0.00009000  1.0
  O  O112  1  0.42078000  0.11663000  0.94420000  1.0
  O  O113  1  0.57921000  0.88337000  0.05580000  1.0
