# generated using pymatgen
data_CoH24C26S2(NO3)2
_symmetry_space_group_name_H-M   'P 1'
_cell_length_a   6.96307000
_cell_length_b   8.88571000
_cell_length_c   10.17250000
_cell_angle_alpha   76.35660000
_cell_angle_beta   77.62780000
_cell_angle_gamma   81.68190000
_symmetry_Int_Tables_number   1
_chemical_formula_structural   CoH24C26S2(NO3)2
_chemical_formula_sum   'Co1 H24 C26 S2 N2 O6'
_cell_volume   594.48227452
_cell_formula_units_Z   1
loop_
 _symmetry_equiv_pos_site_id
 _symmetry_equiv_pos_as_xyz
  1  'x, y, z'
loop_
 _atom_site_type_symbol
 _atom_site_label
 _atom_site_symmetry_multiplicity
 _atom_site_fract_x
 _atom_site_fract_y
 _atom_site_fract_z
 _atom_site_occupancy
  Co  Co0  1  0.50000000  0.50000000  0.50000000  1.0
  H  H1  1  0.87713000  0.51000000  0.62470000  1.0
  H  H2  1  0.12287000  0.49000000  0.37530000  1.0
  H  H3  1  0.20414000  0.13976000  0.95438000  1.0
  H  H4  1  0.79586000  0.86023000  0.04562000  1.0
  H  H5  1  0.68487000  0.42571000  0.85113000  1.0
  H  H6  1  0.31513000  0.57430000  0.14888000  1.0
  H  H7  1  0.98374000  0.24627000  0.79085000  1.0
  H  H8  1  0.01625000  0.75373000  0.20915000  1.0
  H  H9  1  0.60878000  0.49000000  0.08517000  1.0
  H  H10  1  0.39122000  0.51001000  0.91484000  1.0
  H  H11  1  0.29388000  0.96434000  0.11394000  1.0
  H  H12  1  0.70611000  0.03566000  0.88607000  1.0
  H  H13  1  0.46260000  0.11172000  0.06026000  1.0
  H  H14  1  0.53739000  0.88828000  0.93973000  1.0
  H  H15  1  0.35171000  0.73936000  0.28881000  1.0
  H  H16  1  0.64829000  0.26064000  0.71119000  1.0
  H  H17  1  0.66451000  0.13935000  0.24385000  1.0
  H  H18  1  0.33548000  0.86066000  0.75615000  1.0
  H  H19  1  0.83943000  0.98254000  0.43258000  1.0
  H  H20  1  0.16057000  0.01746000  0.56741000  1.0
  H  H21  1  0.74802000  0.71535000  0.54468000  1.0
  H  H22  1  0.25200000  0.28465000  0.45531000  1.0
  H  H23  1  0.86288000  0.41013000  0.51548000  1.0
  H  H24  1  0.13713000  0.58987000  0.48452000  1.0
  C  C25  1  0.80581000  0.39283000  0.29015000  1.0
  C  C26  1  0.19420000  0.60717000  0.70985000  1.0
  C  C27  1  0.86248000  0.35352000  0.15139000  1.0
  C  C28  1  0.13753000  0.64647000  0.84862000  1.0
  C  C29  1  0.03510000  0.25308000  0.11624000  1.0
  C  C30  1  0.96490000  0.74691000  0.88377000  1.0
  C  C31  1  0.07369000  0.21552000  0.98556000  1.0
  C  C32  1  0.92630000  0.78447000  0.01444000  1.0
  C  C33  1  0.77941000  0.37546000  0.92618000  1.0
  C  C34  1  0.22059000  0.62455000  0.07383000  1.0
  C  C35  1  0.94779000  0.27560000  0.89216000  1.0
  C  C36  1  0.05220000  0.72440000  0.10784000  1.0
  C  C37  1  0.73872000  0.41281000  0.05519000  1.0
  C  C38  1  0.26128000  0.58720000  0.94481000  1.0
  C  C39  1  0.37052000  0.04279000  0.14909000  1.0
  C  C40  1  0.62947000  0.95720000  0.85091000  1.0
  C  C41  1  0.45826000  0.79904000  0.31636000  1.0
  C  C42  1  0.54173000  0.20096000  0.68364000  1.0
  C  C43  1  0.49178000  0.95258000  0.25285000  1.0
  C  C44  1  0.50821000  0.04742000  0.74714000  1.0
  C  C45  1  0.63298000  0.02047000  0.29305000  1.0
  C  C46  1  0.36702000  0.97953000  0.70694000  1.0
  C  C47  1  0.72903000  0.93412000  0.39764000  1.0
  C  C48  1  0.27097000  0.06588000  0.60235000  1.0
  C  C49  1  0.68119000  0.78383000  0.45990000  1.0
  C  C50  1  0.31882000  0.21618000  0.54009000  1.0
  S  S51  1  0.19006000  0.17509000  0.23671000  1.0
  S  S52  1  0.80993000  0.82490000  0.76329000  1.0
  N  N53  1  0.55021000  0.71520000  0.41857000  1.0
  N  N54  1  0.44979000  0.28480000  0.58143000  1.0
  O  O55  1  0.62520000  0.44563000  0.32622000  1.0
  O  O56  1  0.37479000  0.55436000  0.67378000  1.0
  O  O57  1  0.93710000  0.36726000  0.36507000  1.0
  O  O58  1  0.06290000  0.63274000  0.63494000  1.0
  O  O59  1  0.79212000  0.44435000  0.60189000  1.0
  O  O60  1  0.20788000  0.55565000  0.39811000  1.0
