# generated using pymatgen
data_AgH11C11N5O2
_symmetry_space_group_name_H-M   'P 1'
_cell_length_a   8.88879000
_cell_length_b   9.22945000
_cell_length_c   9.88559000
_cell_angle_alpha   69.68730000
_cell_angle_beta   69.20980000
_cell_angle_gamma   69.64730000
_symmetry_Int_Tables_number   1
_chemical_formula_structural   AgH11C11N5O2
_chemical_formula_sum   'Ag2 H22 C22 N10 O4'
_cell_volume   687.31987719
_cell_formula_units_Z   2
loop_
 _symmetry_equiv_pos_site_id
 _symmetry_equiv_pos_as_xyz
  1  'x, y, z'
loop_
 _atom_site_type_symbol
 _atom_site_label
 _atom_site_symmetry_multiplicity
 _atom_site_fract_x
 _atom_site_fract_y
 _atom_site_fract_z
 _atom_site_occupancy
  Ag  Ag0  1  0.82392000  0.02283000  0.55137000  1.0
  Ag  Ag1  1  0.17608000  0.97716000  0.44865000  1.0
  H  H2  1  0.59717000  0.30851000  0.59998000  1.0
  H  H3  1  0.40284000  0.69148000  0.40002000  1.0
  H  H4  1  0.38652000  0.41300000  0.65936000  1.0
  H  H5  1  0.61348000  0.58700000  0.34064000  1.0
  H  H6  1  0.50960000  0.69373000  0.67499000  1.0
  H  H7  1  0.49040000  0.30627000  0.32501000  1.0
  H  H8  1  0.69080000  0.75915000  0.62528000  1.0
  H  H9  1  0.30920000  0.24084000  0.37473000  1.0
  H  H10  1  0.03962000  0.85097000  0.79844000  1.0
  H  H11  1  0.96038000  0.14903000  0.20157000  1.0
  H  H12  1  0.73376000  0.87543000  0.89379000  1.0
  H  H13  1  0.26624000  0.12458000  0.10621000  1.0
  H  H14  1  0.54026000  0.12519000  0.96193000  1.0
  H  H15  1  0.45973000  0.87483000  0.03806000  1.0
  H  H16  1  0.65308000  0.34694000  0.93817000  1.0
  H  H17  1  0.34692000  0.65308000  0.06182000  1.0
  H  H18  1  0.95954000  0.32043000  0.84220000  1.0
  H  H19  1  0.04048000  0.67957000  0.15780000  1.0
  H  H20  1  0.82330000  0.49562000  0.60200000  1.0
  H  H21  1  0.17669000  0.50439000  0.39799000  1.0
  H  H22  1  0.87131000  0.57704000  0.40707000  1.0
  H  H23  1  0.12869000  0.42295000  0.59292000  1.0
  C  C24  1  0.01739000  0.08594000  0.81140000  1.0
  C  C25  1  0.98260000  0.91407000  0.18860000  1.0
  C  C26  1  0.95334000  0.96005000  0.82677000  1.0
  C  C27  1  0.04666000  0.03995000  0.17323000  1.0
  C  C28  1  0.78218000  0.97439000  0.88075000  1.0
  C  C29  1  0.21782000  0.02562000  0.11925000  1.0
  C  C30  1  0.67386000  0.11393000  0.91999000  1.0
  C  C31  1  0.32614000  0.88608000  0.08001000  1.0
  C  C32  1  0.73722000  0.23892000  0.90572000  1.0
  C  C33  1  0.26278000  0.76110000  0.09428000  1.0
  C  C34  1  0.90790000  0.22507000  0.85187000  1.0
  C  C35  1  0.09211000  0.77493000  0.14813000  1.0
  C  C36  1  0.41813000  0.17913000  0.68124000  1.0
  C  C37  1  0.58187000  0.82087000  0.31876000  1.0
  C  C38  1  0.19877000  0.07067000  0.75553000  1.0
  C  C39  1  0.80124000  0.92932000  0.24446000  1.0
  C  C40  1  0.46230000  0.91918000  0.68510000  1.0
  C  C41  1  0.53771000  0.08081000  0.31489000  1.0
  C  C42  1  0.94654000  0.32257000  0.47850000  1.0
  C  C43  1  0.05346000  0.67743000  0.52150000  1.0
  C  C44  1  0.92185000  0.48547000  0.49785000  1.0
  C  C45  1  0.07814000  0.51452000  0.50216000  1.0
  N  N46  1  0.29701000  0.93126000  0.72655000  1.0
  N  N47  1  0.70298000  0.06874000  0.27345000  1.0
  N  N48  1  0.25202000  0.19733000  0.73698000  1.0
  N  N49  1  0.74799000  0.80266000  0.26302000  1.0
  N  N50  1  0.53035000  0.04032000  0.65872000  1.0
  N  N51  1  0.46965000  0.95967000  0.34129000  1.0
  N  N52  1  0.47336000  0.30998000  0.64506000  1.0
  N  N53  1  0.52665000  0.69001000  0.35494000  1.0
  N  N54  1  0.56453000  0.77518000  0.67056000  1.0
  N  N55  1  0.43547000  0.22481000  0.32945000  1.0
  O  O56  1  0.81549000  0.28177000  0.49825000  1.0
  O  O57  1  0.18452000  0.71822000  0.50174000  1.0
  O  O58  1  0.09434000  0.23631000  0.44408000  1.0
  O  O59  1  0.90566000  0.76369000  0.55592000  1.0
