# generated using pymatgen
data_KH12C8N2O3
_symmetry_space_group_name_H-M   'P 1'
_cell_length_a   6.82922000
_cell_length_b   7.07067000
_cell_length_c   11.64490000
_cell_angle_alpha   90.22900000
_cell_angle_beta   97.10940000
_cell_angle_gamma   116.97100000
_symmetry_Int_Tables_number   1
_chemical_formula_structural   KH12C8N2O3
_chemical_formula_sum   'K2 H24 C16 N4 O6'
_cell_volume   496.13770759
_cell_formula_units_Z   2
loop_
 _symmetry_equiv_pos_site_id
 _symmetry_equiv_pos_as_xyz
  1  'x, y, z'
loop_
 _atom_site_type_symbol
 _atom_site_label
 _atom_site_symmetry_multiplicity
 _atom_site_fract_x
 _atom_site_fract_y
 _atom_site_fract_z
 _atom_site_occupancy
  K  K0  1  0.99768000  0.75021000  0.49496000  1.0
  K  K1  1  0.00234000  0.24979000  0.50504000  1.0
  H  H2  1  0.98798000  0.26209000  0.77899000  1.0
  H  H3  1  0.01203000  0.73790000  0.22101000  1.0
  H  H4  1  0.84985000  0.16593000  0.90220000  1.0
  H  H5  1  0.15014000  0.83407000  0.09780000  1.0
  H  H6  1  0.69709000  0.16693000  0.76559000  1.0
  H  H7  1  0.30291000  0.83307000  0.23440000  1.0
  H  H8  1  0.15567000  0.02412000  0.79678000  1.0
  H  H9  1  0.84433000  0.97588000  0.20323000  1.0
  H  H10  1  0.00104000  0.74466000  0.79477000  1.0
  H  H11  1  0.99897000  0.25534000  0.20525000  1.0
  H  H12  1  0.02750000  0.90479000  0.92023000  1.0
  H  H13  1  0.97249000  0.09520000  0.07978000  1.0
  H  H14  1  0.40951000  0.40016000  0.82253000  1.0
  H  H15  1  0.59048000  0.59984000  0.17746000  1.0
  H  H16  1  0.68200000  0.53330000  0.90184000  1.0
  H  H17  1  0.31798000  0.46668000  0.09816000  1.0
  H  H18  1  0.64312000  0.47707000  0.74807000  1.0
  H  H19  1  0.35687000  0.52293000  0.25193000  1.0
  H  H20  1  0.46026000  0.93682000  0.88520000  1.0
  H  H21  1  0.53974000  0.06318000  0.11480000  1.0
  H  H22  1  0.57837000  0.80919000  0.98187000  1.0
  H  H23  1  0.42162000  0.19081000  0.01813000  1.0
  H  H24  1  0.30901000  0.66012000  0.90228000  1.0
  H  H25  1  0.69098000  0.33988000  0.09771000  1.0
  C  C26  1  0.80344000  0.91747000  0.77403000  1.0
  C  C27  1  0.19656000  0.08253000  0.22597000  1.0
  C  C28  1  0.83544000  0.14162000  0.80767000  1.0
  C  C29  1  0.16456000  0.85837000  0.19233000  1.0
  C  C30  1  0.00817000  0.89489000  0.82496000  1.0
  C  C31  1  0.99182000  0.10510000  0.17505000  1.0
  C  C32  1  0.57704000  0.73775000  0.80207000  1.0
  C  C33  1  0.42296000  0.26225000  0.19792000  1.0
  C  C34  1  0.57975000  0.52385000  0.81944000  1.0
  C  C35  1  0.42024000  0.47615000  0.18055000  1.0
  C  C36  1  0.47524000  0.79059000  0.89838000  1.0
  C  C37  1  0.52476000  0.20941000  0.10162000  1.0
  C  C38  1  0.57469000  0.79376000  0.60260000  1.0
  C  C39  1  0.42533000  0.20625000  0.39740000  1.0
  C  C40  1  0.49905000  0.75765000  0.47118000  1.0
  C  C41  1  0.50096000  0.24235000  0.52882000  1.0
  N  N42  1  0.78319000  0.90194000  0.64622000  1.0
  N  N43  1  0.21682000  0.09806000  0.35379000  1.0
  N  N44  1  0.43622000  0.70924000  0.68681000  1.0
  N  N45  1  0.56378000  0.29077000  0.31318000  1.0
  O  O46  1  0.22513000  0.60716000  0.67431000  1.0
  O  O47  1  0.77487000  0.39285000  0.32569000  1.0
  O  O48  1  0.64888000  0.86544000  0.41093000  1.0
  O  O49  1  0.35113000  0.13456000  0.58907000  1.0
  O  O50  1  0.30061000  0.62358000  0.43637000  1.0
  O  O51  1  0.69940000  0.37642000  0.56363000  1.0
