# generated using pymatgen
data_Zn4H24C37O13
_symmetry_space_group_name_H-M   'P 1'
_cell_length_a   10.83650000
_cell_length_b   10.94780000
_cell_length_c   16.08020000
_cell_angle_alpha   99.25430000
_cell_angle_beta   90.25400000
_cell_angle_gamma   100.23000000
_symmetry_Int_Tables_number   1
_chemical_formula_structural   Zn4H24C37O13
_chemical_formula_sum   'Zn4 H24 C37 O13'
_cell_volume   1851.85642782
_cell_formula_units_Z   1
loop_
 _symmetry_equiv_pos_site_id
 _symmetry_equiv_pos_as_xyz
  1  'x, y, z'
loop_
 _atom_site_type_symbol
 _atom_site_label
 _atom_site_symmetry_multiplicity
 _atom_site_fract_x
 _atom_site_fract_y
 _atom_site_fract_z
 _atom_site_occupancy
  Zn  Zn0  1  0.40820000  0.57973000  0.43020000  1.0
  Zn  Zn1  1  0.38900000  0.38743000  0.56394000  1.0
  Zn  Zn2  1  0.61281000  0.62785000  0.58065000  1.0
  Zn  Zn3  1  0.60046000  0.39553000  0.42481000  1.0
  H  H4  1  0.51487000  0.25168000  0.00141000  1.0
  H  H5  1  0.44551000  0.29520000  0.91194000  1.0
  H  H6  1  0.60853000  0.34243000  0.93462000  1.0
  H  H7  1  0.57428000  0.78309000  0.95518000  1.0
  H  H8  1  0.53995000  0.98682000  0.03599000  1.0
  H  H9  1  0.39509000  0.98978000  0.15597000  1.0
  H  H10  1  0.28373000  0.78724000  0.19364000  1.0
  H  H11  1  0.31929000  0.58462000  0.11388000  1.0
  H  H12  1  0.64635000  0.00492000  0.63564000  1.0
  H  H13  1  0.62476000  0.14424000  0.59787000  1.0
  H  H14  1  0.50751000  0.06673000  0.65764000  1.0
  H  H15  1  0.38979000  0.02502000  0.34586000  1.0
  H  H16  1  0.44807000  0.88437000  0.35365000  1.0
  H  H17  1  0.30451000  0.90714000  0.39912000  1.0
  H  H18  1  0.15883000  0.61606000  0.63781000  1.0
  H  H19  1  0.29142000  0.82526000  0.68482000  1.0
  H  H20  1  0.25896000  0.00985000  0.61915000  1.0
  H  H21  1  0.09087000  0.98318000  0.50862000  1.0
  H  H22  1  0.95943000  0.77371000  0.46104000  1.0
  H  H23  1  0.98709000  0.33140000  0.32876000  1.0
  H  H24  1  0.88866000  0.10825000  0.27889000  1.0
  H  H25  1  0.81075000  0.96867000  0.38281000  1.0
  H  H26  1  0.83266000  0.05318000  0.53636000  1.0
  H  H27  1  0.93029000  0.27699000  0.58595000  1.0
  C  C28  1  0.47606000  0.16104000  0.48145000  1.0
  C  C29  1  0.51311000  0.83342000  0.52105000  1.0
  C  C30  1  0.16915000  0.46041000  0.49145000  1.0
  C  C31  1  0.83713000  0.54303000  0.50735000  1.0
  C  C32  1  0.49969000  0.52389000  0.72795000  1.0
  C  C33  1  0.50409000  0.46417000  0.27146000  1.0
  C  C34  1  0.49464000  0.53551000  0.81827000  1.0
  C  C35  1  0.47594000  0.54949000  0.98247000  1.0
  C  C36  1  0.49293000  0.44604000  0.01760000  1.0
  C  C37  1  0.49640000  0.45127000  0.10538000  1.0
  C  C38  1  0.48668000  0.54256000  0.89452000  1.0
  C  C39  1  0.50232000  0.45230000  0.18138000  1.0
  C  C40  1  0.51548000  0.97098000  0.53002000  1.0
  C  C41  1  0.46502000  0.02070000  0.46880000  1.0
  C  C42  1  0.97693000  0.55370000  0.51243000  1.0
  C  C43  1  0.02888000  0.45017000  0.48933000  1.0
  C  C44  1  0.51648000  0.32661000  0.96356000  1.0
  C  C45  1  0.45167000  0.66994000  0.03029000  1.0
  C  C46  1  0.51124000  0.78448000  0.00788000  1.0
  C  C47  1  0.49157000  0.89870000  0.05323000  1.0
  C  C48  1  0.41046000  0.90038000  0.12056000  1.0
  C  C49  1  0.34852000  0.78693000  0.14193000  1.0
  C  C50  1  0.36876000  0.67252000  0.09726000  1.0
  C  C51  1  0.57741000  0.05152000  0.60937000  1.0
  C  C52  1  0.39890000  0.95597000  0.38697000  1.0
  C  C53  1  0.05220000  0.67956000  0.54463000  1.0
  C  C54  1  0.14545000  0.69607000  0.60840000  1.0
  C  C55  1  0.21938000  0.81418000  0.63519000  1.0
  C  C56  1  0.20086000  0.91757000  0.59903000  1.0
  C  C57  1  0.10673000  0.90258000  0.53653000  1.0
  C  C58  1  0.03255000  0.78479000  0.50999000  1.0
  C  C59  1  0.96294000  0.31873000  0.46040000  1.0
  C  C60  1  0.95289000  0.26996000  0.37397000  1.0
  C  C61  1  0.89772000  0.14476000  0.34628000  1.0
  C  C62  1  0.85401000  0.06653000  0.40454000  1.0
  C  C63  1  0.86567000  0.11414000  0.49066000  1.0
  C  C64  1  0.91993000  0.23976000  0.51869000  1.0
  O  O65  1  0.50298000  0.49698000  0.50175000  1.0
  O  O66  1  0.55905000  0.21836000  0.43884000  1.0
  O  O67  1  0.44072000  0.76130000  0.46350000  1.0
  O  O68  1  0.21451000  0.40637000  0.54589000  1.0
  O  O69  1  0.78955000  0.61454000  0.56417000  1.0
  O  O70  1  0.42676000  0.42895000  0.68630000  1.0
  O  O71  1  0.56190000  0.39075000  0.30450000  1.0
  O  O72  1  0.57547000  0.60854000  0.69893000  1.0
  O  O73  1  0.44719000  0.54827000  0.31022000  1.0
  O  O74  1  0.22768000  0.51684000  0.43625000  1.0
  O  O75  1  0.77810000  0.46465000  0.44681000  1.0
  O  O76  1  0.40009000  0.20878000  0.53162000  1.0
  O  O77  1  0.58490000  0.79700000  0.57199000  1.0
