# generated using pymatgen
data_Cd3H28C18Se6(N7O)2
_symmetry_space_group_name_H-M   'P 1'
_cell_length_a   6.02642000
_cell_length_b   8.87536000
_cell_length_c   16.10710000
_cell_angle_alpha   100.22300000
_cell_angle_beta   97.17780000
_cell_angle_gamma   101.15400000
_symmetry_Int_Tables_number   1
_chemical_formula_structural   Cd3H28C18Se6(N7O)2
_chemical_formula_sum   'Cd3 H28 C18 Se6 N14 O2'
_cell_volume   820.42598047
_cell_formula_units_Z   1
loop_
 _symmetry_equiv_pos_site_id
 _symmetry_equiv_pos_as_xyz
  1  'x, y, z'
loop_
 _atom_site_type_symbol
 _atom_site_label
 _atom_site_symmetry_multiplicity
 _atom_site_fract_x
 _atom_site_fract_y
 _atom_site_fract_z
 _atom_site_occupancy
  Cd  Cd0  1  0.00001000  0.49998000  0.00000000  1.0
  Cd  Cd1  1  0.91965000  0.16756000  0.32176000  1.0
  Cd  Cd2  1  0.08035000  0.83244000  0.67825000  1.0
  H  H3  1  0.94595000  0.84649000  0.34044000  1.0
  H  H4  1  0.05407000  0.15352000  0.65956000  1.0
  H  H5  1  0.82548000  0.91001000  0.41826000  1.0
  H  H6  1  0.17452000  0.08998000  0.58175000  1.0
  H  H7  1  0.81123000  0.37749000  0.17206000  1.0
  H  H8  1  0.18877000  0.62251000  0.82795000  1.0
  H  H9  1  0.06191000  0.30578000  0.15549000  1.0
  H  H10  1  0.93807000  0.69422000  0.84452000  1.0
  H  H11  1  0.38571000  0.36498000  0.27010000  1.0
  H  H12  1  0.61429000  0.63501000  0.72990000  1.0
  H  H13  1  0.37270000  0.48070000  0.37172000  1.0
  H  H14  1  0.62731000  0.51930000  0.62829000  1.0
  H  H15  1  0.40187000  0.84388000  0.29651000  1.0
  H  H16  1  0.59815000  0.15611000  0.70349000  1.0
  H  H17  1  0.38335000  0.75388000  0.38700000  1.0
  H  H18  1  0.61667000  0.24613000  0.61300000  1.0
  H  H19  1  0.07718000  0.78676000  0.18343000  1.0
  H  H20  1  0.92283000  0.21324000  0.81657000  1.0
  H  H21  1  0.82039000  0.65281000  0.18865000  1.0
  H  H22  1  0.17962000  0.34720000  0.81135000  1.0
  H  H23  1  0.79450000  0.53377000  0.31145000  1.0
  H  H24  1  0.20552000  0.46625000  0.68855000  1.0
  H  H25  1  0.03720000  0.57322000  0.39517000  1.0
  H  H26  1  0.96282000  0.42680000  0.60483000  1.0
  H  H27  1  0.41167000  0.48556000  0.14886000  1.0
  H  H28  1  0.58833000  0.51443000  0.85114000  1.0
  H  H29  1  0.41910000  0.69139000  0.16066000  1.0
  H  H30  1  0.58090000  0.30860000  0.83933000  1.0
  C  C31  1  0.44831000  0.29886000  0.00350000  1.0
  C  C32  1  0.55166000  0.70110000  0.99649000  1.0
  C  C33  1  0.35642000  0.07020000  0.21619000  1.0
  C  C34  1  0.64353000  0.92982000  0.78381000  1.0
  C  C35  1  0.50105000  0.25323000  0.43821000  1.0
  C  C36  1  0.49894000  0.74676000  0.56179000  1.0
  C  C37  1  0.99872000  0.40419000  0.18845000  1.0
  C  C38  1  0.00128000  0.59582000  0.81155000  1.0
  C  C39  1  0.32236000  0.46380000  0.30227000  1.0
  C  C40  1  0.67764000  0.53620000  0.69773000  1.0
  C  C41  1  0.33067000  0.73664000  0.31762000  1.0
  C  C42  1  0.66935000  0.26336000  0.68237000  1.0
  C  C43  1  0.00805000  0.67890000  0.20430000  1.0
  C  C44  1  0.99196000  0.32111000  0.79570000  1.0
  C  C45  1  0.98247000  0.55743000  0.32587000  1.0
  C  C46  1  0.01755000  0.44259000  0.67413000  1.0
  C  C47  1  0.34876000  0.58403000  0.18218000  1.0
  C  C48  1  0.65123000  0.41596000  0.81782000  1.0
  Se  Se49  1  0.14922000  0.20964000  0.99301000  1.0
  Se  Se50  1  0.85078000  0.79034000  0.00696000  1.0
  Se  Se51  1  0.60540000  0.04346000  0.16962000  1.0
  Se  Se52  1  0.39458000  0.95657000  0.83038000  1.0
  Se  Se53  1  0.24442000  0.27735000  0.48029000  1.0
  Se  Se54  1  0.75558000  0.72265000  0.51972000  1.0
  N  N55  1  0.64540000  0.35628000  0.01139000  1.0
  N  N56  1  0.35458000  0.64371000  0.98862000  1.0
  N  N57  1  0.18894000  0.08142000  0.24549000  1.0
  N  N58  1  0.81105000  0.91859000  0.75451000  1.0
  N  N59  1  0.67133000  0.24354000  0.41071000  1.0
  N  N60  1  0.32866000  0.75644000  0.58929000  1.0
  N  N61  1  0.09403000  0.54755000  0.15838000  1.0
  N  N62  1  0.90596000  0.45246000  0.84162000  1.0
  N  N63  1  0.06610000  0.42294000  0.28205000  1.0
  N  N64  1  0.93390000  0.57706000  0.71796000  1.0
  N  N65  1  0.41931000  0.60635000  0.27440000  1.0
  N  N66  1  0.58070000  0.39364000  0.72559000  1.0
  N  N67  1  0.07642000  0.70286000  0.29786000  1.0
  N  N68  1  0.92360000  0.29715000  0.70214000  1.0
  O  O69  1  0.85219000  0.92482000  0.36119000  1.0
  O  O70  1  0.14782000  0.07518000  0.63882000  1.0
