# generated using pymatgen
data_CsH3C6NO2
_symmetry_space_group_name_H-M   'P 1'
_cell_length_a   7.57919000
_cell_length_b   12.01010000
_cell_length_c   17.19490000
_cell_angle_alpha   90.00000000
_cell_angle_beta   90.00000000
_cell_angle_gamma   90.00000000
_symmetry_Int_Tables_number   1
_chemical_formula_structural   CsH3C6NO2
_chemical_formula_sum   'Cs8 H24 C48 N8 O16'
_cell_volume   1565.19723605
_cell_formula_units_Z   8
loop_
 _symmetry_equiv_pos_site_id
 _symmetry_equiv_pos_as_xyz
  1  'x, y, z'
loop_
 _atom_site_type_symbol
 _atom_site_label
 _atom_site_symmetry_multiplicity
 _atom_site_fract_x
 _atom_site_fract_y
 _atom_site_fract_z
 _atom_site_occupancy
  Cs  Cs0  1  0.93361000  0.10376000  0.88908000  1.0
  Cs  Cs1  1  0.43361000  0.89623000  0.88908000  1.0
  Cs  Cs2  1  0.06639000  0.60377000  0.38908000  1.0
  Cs  Cs3  1  0.43361000  0.60376000  0.61092000  1.0
  Cs  Cs4  1  0.06639000  0.89623000  0.11092000  1.0
  Cs  Cs5  1  0.56639000  0.10377000  0.11093000  1.0
  Cs  Cs6  1  0.93361000  0.39623000  0.61093000  1.0
  Cs  Cs7  1  0.56639000  0.39623000  0.38907000  1.0
  H  H8  1  0.02092000  0.63621000  0.96798000  1.0
  H  H9  1  0.52092000  0.36378000  0.96798000  1.0
  H  H10  1  0.97907000  0.13622000  0.46798000  1.0
  H  H11  1  0.52093000  0.13622000  0.53202000  1.0
  H  H12  1  0.97907000  0.36378000  0.03201000  1.0
  H  H13  1  0.47908000  0.63622000  0.03202000  1.0
  H  H14  1  0.02092000  0.86378000  0.53202000  1.0
  H  H15  1  0.47907000  0.86378000  0.46798000  1.0
  H  H16  1  0.14448000  0.45516000  0.91690000  1.0
  H  H17  1  0.64449000  0.54483000  0.91690000  1.0
  H  H18  1  0.85550000  0.95516000  0.41690000  1.0
  H  H19  1  0.64450000  0.95517000  0.58310000  1.0
  H  H20  1  0.85550000  0.54482000  0.08310000  1.0
  H  H21  1  0.35551000  0.45518000  0.08310000  1.0
  H  H22  1  0.14449000  0.04483000  0.58310000  1.0
  H  H23  1  0.35551000  0.04483000  0.41690000  1.0
  H  H24  1  0.22434000  0.44376000  0.77516000  1.0
  H  H25  1  0.72434000  0.55623000  0.77516000  1.0
  H  H26  1  0.77565000  0.94376000  0.27516000  1.0
  H  H27  1  0.72435000  0.94377000  0.72484000  1.0
  H  H28  1  0.77565000  0.55623000  0.22484000  1.0
  H  H29  1  0.27565000  0.44377000  0.22484000  1.0
  H  H30  1  0.22435000  0.05623000  0.72484000  1.0
  H  H31  1  0.27566000  0.05623000  0.27516000  1.0
  C  C32  1  0.08365000  0.70256000  0.77808000  1.0
  C  C33  1  0.58365000  0.29744000  0.77808000  1.0
  C  C34  1  0.91635000  0.20256000  0.27808000  1.0
  C  C35  1  0.58365000  0.20256000  0.72192000  1.0
  C  C36  1  0.91635000  0.29744000  0.22193000  1.0
  C  C37  1  0.41635000  0.70257000  0.22192000  1.0
  C  C38  1  0.08365000  0.79744000  0.72192000  1.0
  C  C39  1  0.41635000  0.79744000  0.27808000  1.0
  C  C40  1  0.03028000  0.71596000  0.85599000  1.0
  C  C41  1  0.53027000  0.28404000  0.85599000  1.0
  C  C42  1  0.96973000  0.21597000  0.35599000  1.0
  C  C43  1  0.53027000  0.21596000  0.64401000  1.0
  C  C44  1  0.96972000  0.28404000  0.14401000  1.0
  C  C45  1  0.46972000  0.71596000  0.14401000  1.0
  C  C46  1  0.03027000  0.78403000  0.64401000  1.0
  C  C47  1  0.46973000  0.78403000  0.35599000  1.0
  C  C48  1  0.94860000  0.82233000  0.88607000  1.0
  C  C49  1  0.44860000  0.17767000  0.88607000  1.0
  C  C50  1  0.05140000  0.32233000  0.38607000  1.0
  C  C51  1  0.44860000  0.32234000  0.61393000  1.0
  C  C52  1  0.05140000  0.17766000  0.11393000  1.0
  C  C53  1  0.55141000  0.82234000  0.11393000  1.0
  C  C54  1  0.94860000  0.67767000  0.61393000  1.0
  C  C55  1  0.55139000  0.67767000  0.38607000  1.0
  C  C56  1  0.05529000  0.62621000  0.90671000  1.0
  C  C57  1  0.55529000  0.37379000  0.90672000  1.0
  C  C58  1  0.94471000  0.12623000  0.40672000  1.0
  C  C59  1  0.55529000  0.12621000  0.59328000  1.0
  C  C60  1  0.94471000  0.37378000  0.09328000  1.0
  C  C61  1  0.44471000  0.62621000  0.09328000  1.0
  C  C62  1  0.05529000  0.87378000  0.59328000  1.0
  C  C63  1  0.44471000  0.87378000  0.40672000  1.0
  C  C64  1  0.12403000  0.52652000  0.87875000  1.0
  C  C65  1  0.62403000  0.47348000  0.87875000  1.0
  C  C66  1  0.87597000  0.02653000  0.37876000  1.0
  C  C67  1  0.62404000  0.02653000  0.62125000  1.0
  C  C68  1  0.87596000  0.47348000  0.12125000  1.0
  C  C69  1  0.37596000  0.52652000  0.12124000  1.0
  C  C70  1  0.12403000  0.97348000  0.62124000  1.0
  C  C71  1  0.37597000  0.97347000  0.37875000  1.0
  C  C72  1  0.16905000  0.51996000  0.80013000  1.0
  C  C73  1  0.66905000  0.48004000  0.80014000  1.0
  C  C74  1  0.83095000  0.01996000  0.30014000  1.0
  C  C75  1  0.66906000  0.01996000  0.69986000  1.0
  C  C76  1  0.83095000  0.48004000  0.19986000  1.0
  C  C77  1  0.33094000  0.51996000  0.19986000  1.0
  C  C78  1  0.16906000  0.98004000  0.69986000  1.0
  C  C79  1  0.33095000  0.98004000  0.30014000  1.0
  N  N80  1  0.15123000  0.60617000  0.75117000  1.0
  N  N81  1  0.65123000  0.39383000  0.75118000  1.0
  N  N82  1  0.84877000  0.10617000  0.25117000  1.0
  N  N83  1  0.65123000  0.10617000  0.74883000  1.0
  N  N84  1  0.84877000  0.39383000  0.24882000  1.0
  N  N85  1  0.34877000  0.60617000  0.24882000  1.0
  N  N86  1  0.15123000  0.89383000  0.74883000  1.0
  N  N87  1  0.34877000  0.89383000  0.25117000  1.0
  O  O88  1  0.80982000  0.85628000  0.85282000  1.0
  O  O89  1  0.30981000  0.14371000  0.85282000  1.0
  O  O90  1  0.19017000  0.35629000  0.35283000  1.0
  O  O91  1  0.30980000  0.35629000  0.64718000  1.0
  O  O92  1  0.19020000  0.14372000  0.14718000  1.0
  O  O93  1  0.69020000  0.85629000  0.14719000  1.0
  O  O94  1  0.80981000  0.64371000  0.64718000  1.0
  O  O95  1  0.69019000  0.64371000  0.35282000  1.0
  O  O96  1  0.02711000  0.86750000  0.94329000  1.0
  O  O97  1  0.52712000  0.13249000  0.94329000  1.0
  O  O98  1  0.97288000  0.36751000  0.44329000  1.0
  O  O99  1  0.52711000  0.36750000  0.55671000  1.0
  O  O100  1  0.97290000  0.13249000  0.05671000  1.0
  O  O101  1  0.47290000  0.86751000  0.05671000  1.0
  O  O102  1  0.02711000  0.63249000  0.55671000  1.0
  O  O103  1  0.47290000  0.63249000  0.44329000  1.0
