# generated using pymatgen
data_ZnSiH16C20S2(N2F3)2
_symmetry_space_group_name_H-M   'P 1'
_cell_length_a   7.70207000
_cell_length_b   10.21840000
_cell_length_c   16.35820000
_cell_angle_alpha   103.31100000
_cell_angle_beta   89.99960000
_cell_angle_gamma   89.99960000
_symmetry_Int_Tables_number   1
_chemical_formula_structural   ZnSiH16C20S2(N2F3)2
_chemical_formula_sum   'Zn2 Si2 H32 C40 S4 N8 F12'
_cell_volume   1252.84928062
_cell_formula_units_Z   2
loop_
 _symmetry_equiv_pos_site_id
 _symmetry_equiv_pos_as_xyz
  1  'x, y, z'
loop_
 _atom_site_type_symbol
 _atom_site_label
 _atom_site_symmetry_multiplicity
 _atom_site_fract_x
 _atom_site_fract_y
 _atom_site_fract_z
 _atom_site_occupancy
  Zn  Zn0  1  0.69746000  0.75000000  0.75000000  1.0
  Zn  Zn1  1  0.30254000  0.25000000  0.25000000  1.0
  Si  Si2  1  0.19983000  0.75000000  0.75000000  1.0
  Si  Si3  1  0.80018000  0.25000000  0.25000000  1.0
  H  H4  1  0.98222000  0.30386000  0.58970000  1.0
  H  H5  1  0.98222000  0.19613000  0.91030000  1.0
  H  H6  1  0.01777000  0.69614000  0.41030000  1.0
  H  H7  1  0.01778000  0.80387000  0.08970000  1.0
  H  H8  1  0.44822000  0.34908000  0.52070000  1.0
  H  H9  1  0.44822000  0.15093000  0.97930000  1.0
  H  H10  1  0.55178000  0.65092000  0.47930000  1.0
  H  H11  1  0.55178000  0.84908000  0.02070000  1.0
  H  H12  1  0.45018000  0.57701000  0.61960000  1.0
  H  H13  1  0.45018000  0.92300000  0.88040000  1.0
  H  H14  1  0.54981000  0.42299000  0.38040000  1.0
  H  H15  1  0.54982000  0.07700000  0.11959000  1.0
  H  H16  1  0.96487000  0.53173000  0.68489000  1.0
  H  H17  1  0.96487000  0.96826000  0.81511000  1.0
  H  H18  1  0.03512000  0.46827000  0.31511000  1.0
  H  H19  1  0.03513000  0.03173000  0.18489000  1.0
  H  H20  1  0.52082000  0.16348000  0.63459000  1.0
  H  H21  1  0.52082000  0.33652000  0.86541000  1.0
  H  H22  1  0.47919000  0.83652000  0.36541000  1.0
  H  H23  1  0.47919000  0.66348000  0.13459000  1.0
  H  H24  1  0.89894000  0.90219000  0.48292000  1.0
  H  H25  1  0.89894000  0.59781000  0.01708000  1.0
  H  H26  1  0.10106000  0.09781000  0.51708000  1.0
  H  H27  1  0.10106000  0.40219000  0.98293000  1.0
  H  H28  1  0.88176000  0.75614000  0.58563000  1.0
  H  H29  1  0.88177000  0.74386000  0.91437000  1.0
  H  H30  1  0.11824000  0.24385000  0.41437000  1.0
  H  H31  1  0.11823000  0.25615000  0.08563000  1.0
  H  H32  1  0.50145000  0.99727000  0.72374000  1.0
  H  H33  1  0.50145000  0.50273000  0.77626000  1.0
  H  H34  1  0.49856000  0.00273000  0.27626000  1.0
  H  H35  1  0.49855000  0.49727000  0.22374000  1.0
  C  C36  1  0.71575000  0.30867000  0.54726000  1.0
  C  C37  1  0.71576000  0.19133000  0.95274000  1.0
  C  C38  1  0.28424000  0.69133000  0.45274000  1.0
  C  C39  1  0.28424000  0.80867000  0.04726000  1.0
  C  C40  1  0.86202000  0.36111000  0.59416000  1.0
  C  C41  1  0.86201000  0.13890000  0.90584000  1.0
  C  C42  1  0.13797000  0.63889000  0.40584000  1.0
  C  C43  1  0.13798000  0.86110000  0.09416000  1.0
  C  C44  1  0.56506000  0.38656000  0.55582000  1.0
  C  C45  1  0.56505000  0.11344000  0.94418000  1.0
  C  C46  1  0.43493000  0.61344000  0.44418000  1.0
  C  C47  1  0.43494000  0.88656000  0.05582000  1.0
  C  C48  1  0.56613000  0.51370000  0.61023000  1.0
  C  C49  1  0.56613000  0.98631000  0.88977000  1.0
  C  C50  1  0.43387000  0.48630000  0.38977000  1.0
  C  C51  1  0.43387000  0.01369000  0.11023000  1.0
  C  C52  1  0.85330000  0.48833000  0.64728000  1.0
  C  C53  1  0.85330000  0.01167000  0.85272000  1.0
  C  C54  1  0.14670000  0.51167000  0.35273000  1.0
  C  C55  1  0.14670000  0.98833000  0.14728000  1.0
  C  C56  1  0.71171000  0.04601000  0.55032000  1.0
  C  C57  1  0.71171000  0.45398000  0.94968000  1.0
  C  C58  1  0.28830000  0.95399000  0.44968000  1.0
  C  C59  1  0.28830000  0.54602000  0.05033000  1.0
  C  C60  1  0.60203000  0.07378000  0.62070000  1.0
  C  C61  1  0.60204000  0.42623000  0.87931000  1.0
  C  C62  1  0.39798000  0.92622000  0.37930000  1.0
  C  C63  1  0.39797000  0.57377000  0.12070000  1.0
  C  C64  1  0.80893000  0.92674000  0.53557000  1.0
  C  C65  1  0.80893000  0.57327000  0.96443000  1.0
  C  C66  1  0.19107000  0.07326000  0.46443000  1.0
  C  C67  1  0.19107000  0.42674000  0.03557000  1.0
  C  C68  1  0.79825000  0.84424000  0.59208000  1.0
  C  C69  1  0.79825000  0.65576000  0.90792000  1.0
  C  C70  1  0.20175000  0.15576000  0.40792000  1.0
  C  C71  1  0.20175000  0.34424000  0.09208000  1.0
  C  C72  1  0.59329000  0.98272000  0.67171000  1.0
  C  C73  1  0.59329000  0.51728000  0.82830000  1.0
  C  C74  1  0.40671000  0.01728000  0.32829000  1.0
  C  C75  1  0.40671000  0.48272000  0.17171000  1.0
  S  S76  1  0.72786000  0.14780000  0.47701000  1.0
  S  S77  1  0.72786000  0.35220000  0.02299000  1.0
  S  S78  1  0.27214000  0.85220000  0.52299000  1.0
  S  S79  1  0.27214000  0.64780000  0.97701000  1.0
  N  N80  1  0.70792000  0.56379000  0.65475000  1.0
  N  N81  1  0.70790000  0.93621000  0.84525000  1.0
  N  N82  1  0.29208000  0.43621000  0.34525000  1.0
  N  N83  1  0.29209000  0.06379000  0.15475000  1.0
  N  N84  1  0.69175000  0.87072000  0.65899000  1.0
  N  N85  1  0.69175000  0.62928000  0.84102000  1.0
  N  N86  1  0.30826000  0.12928000  0.34101000  1.0
  N  N87  1  0.30825000  0.37072000  0.15899000  1.0
  F  F88  1  0.42647000  0.75000000  0.75000000  1.0
  F  F89  1  0.57353000  0.25000000  0.25000000  1.0
  F  F90  1  0.97230000  0.75000000  0.75000000  1.0
  F  F91  1  0.02770000  0.25000000  0.25000000  1.0
  F  F92  1  0.19953000  0.91045000  0.73695000  1.0
  F  F93  1  0.19953000  0.58955000  0.76305000  1.0
  F  F94  1  0.80047000  0.08955000  0.26305000  1.0
  F  F95  1  0.80047000  0.41045000  0.23695000  1.0
  F  F96  1  0.19965000  0.81156000  0.85666000  1.0
  F  F97  1  0.19965000  0.68844000  0.64334000  1.0
  F  F98  1  0.80036000  0.18844000  0.14334000  1.0
  F  F99  1  0.80035000  0.31156000  0.35666000  1.0
