# generated using pymatgen
data_Zn6H29C40(NO10)3
_symmetry_space_group_name_H-M   'P 1'
_cell_length_a   18.76750000
_cell_length_b   18.80840000
_cell_length_c   18.82310000
_cell_angle_alpha   109.20000000
_cell_angle_beta   108.95900000
_cell_angle_gamma   109.50400000
_symmetry_Int_Tables_number   1
_chemical_formula_structural   Zn6H29C40(NO10)3
_chemical_formula_sum   'Zn6 H29 C40 N3 O30'
_cell_volume   5161.53900677
_cell_formula_units_Z   1
loop_
 _symmetry_equiv_pos_site_id
 _symmetry_equiv_pos_as_xyz
  1  'x, y, z'
loop_
 _atom_site_type_symbol
 _atom_site_label
 _atom_site_symmetry_multiplicity
 _atom_site_fract_x
 _atom_site_fract_y
 _atom_site_fract_z
 _atom_site_occupancy
  Zn  Zn0  1  0.93928000  0.49401000  0.94321000  1.0
  Zn  Zn1  1  0.07152000  0.51700000  0.07849000  1.0
  Zn  Zn2  1  0.50294000  0.06313000  0.06107000  1.0
  Zn  Zn3  1  0.50135000  0.94372000  0.93218000  1.0
  Zn  Zn4  1  0.93392000  0.94778000  0.51112000  1.0
  Zn  Zn5  1  0.06108000  0.06837000  0.50957000  1.0
  H  H6  1  0.71462000  0.33998000  0.94579000  1.0
  H  H7  1  0.78209000  0.37450000  0.05469000  1.0
  H  H8  1  0.66833000  0.26550000  0.04698000  1.0
  H  H9  1  0.60623000  0.22404000  0.93501000  1.0
  H  H10  1  0.61807000  0.11225000  0.82907000  1.0
  H  H11  1  0.89231000  0.24795000  0.02489000  1.0
  H  H12  1  0.88425000  0.32662000  0.09833000  1.0
  H  H13  1  0.77893000  0.21904000  0.10092000  1.0
  H  H14  1  0.78610000  0.13908000  0.02607000  1.0
  H  H15  1  0.03081000  0.80293000  0.34597000  1.0
  H  H16  1  0.86599000  0.63984000  0.11383000  1.0
  H  H17  1  0.03442000  0.69032000  0.26832000  1.0
  H  H18  1  0.33307000  0.86881000  0.07821000  1.0
  H  H19  1  0.27483000  0.72635000  0.89862000  1.0
  H  H20  1  0.24656000  0.74198000  0.08942000  1.0
  H  H21  1  0.11769000  0.68088000  0.90272000  1.0
  H  H22  1  0.05429000  0.26423000  0.69309000  1.0
  H  H23  1  0.96323000  0.14168000  0.74930000  1.0
  H  H24  1  0.01694000  0.36064000  0.78719000  1.0
  H  H25  1  0.09200000  0.29982000  0.91183000  1.0
  H  H26  1  0.31406000  0.09295000  0.68252000  1.0
  H  H27  1  0.39261000  0.03761000  0.77169000  1.0
  H  H28  1  0.30834000  0.09590000  0.87832000  1.0
  H  H29  1  0.86898000  0.08279000  0.30852000  1.0
  H  H30  1  0.66420000  0.06792000  0.29810000  1.0
  H  H31  1  0.71654000  0.98340000  0.16844000  1.0
  H  H32  1  0.69254000  0.07772000  0.86461000  1.0
  H  H33  1  0.17609000  0.99360000  0.71993000  1.0
  H  H34  1  0.75236000  0.01616000  0.38157000  1.0
  C  C35  1  0.99706000  0.60475000  0.13659000  1.0
  C  C36  1  0.87197000  0.36715000  0.97312000  1.0
  C  C37  1  0.05937000  0.40419000  0.94600000  1.0
  C  C38  1  0.08485000  0.62115000  0.97836000  1.0
  C  C39  1  0.74166000  0.31802000  0.98951000  1.0
  C  C40  1  0.67000000  0.24448000  0.98620000  1.0
  C  C41  1  0.75145000  0.20549000  0.87952000  1.0
  C  C42  1  0.84592000  0.26660000  0.03625000  1.0
  C  C43  1  0.80409000  0.28943000  0.96782000  1.0
  C  C44  1  0.68541000  0.16647000  0.96779000  1.0
  C  C45  1  0.68217000  0.13360000  0.87998000  1.0
  C  C46  1  0.77624000  0.19542000  0.03791000  1.0
  C  C47  1  0.90483000  0.73407000  0.24309000  1.0
  C  C48  1  0.96629000  0.79620000  0.32431000  1.0
  C  C49  1  0.91610000  0.67437000  0.18126000  1.0
  C  C50  1  0.98435000  0.66090000  0.20181000  1.0
  C  C51  1  0.29132000  0.80409000  0.02150000  1.0
  C  C52  1  0.30795000  0.79011000  0.95513000  1.0
  C  C53  1  0.22711000  0.74041000  0.02717000  1.0
  C  C54  1  0.14462000  0.68263000  0.96447000  1.0
  C  C55  1  0.03177000  0.24827000  0.73553000  1.0
  C  C56  1  0.99412000  0.16439000  0.71512000  1.0
  C  C57  1  0.03690000  0.31738000  0.80410000  1.0
  C  C58  1  0.06462000  0.33452000  0.88644000  1.0
  C  C59  1  0.40185000  0.05202000  0.91894000  1.0
  C  C60  1  0.61864000  0.09577000  0.97061000  1.0
  C  C61  1  0.61592000  0.01774000  0.13024000  1.0
  C  C62  1  0.37838000  0.86111000  0.96045000  1.0
  C  C63  1  0.13877000  0.02745000  0.61970000  1.0
  C  C64  1  0.96262000  0.86446000  0.38896000  1.0
  C  C65  1  0.90933000  0.04421000  0.40587000  1.0
  C  C66  1  0.98618000  0.09832000  0.63916000  1.0
  C  C67  1  0.28875000  0.06384000  0.71673000  1.0
  C  C68  1  0.20342000  0.02893000  0.69109000  1.0
  C  C69  1  0.34660000  0.05641000  0.78365000  1.0
  C  C70  1  0.34663000  0.06959000  0.85854000  1.0
  C  C71  1  0.76800000  0.03647000  0.33786000  1.0
  C  C72  1  0.84672000  0.05522000  0.34497000  1.0
  C  C73  1  0.70298000  0.04323000  0.27691000  1.0
  C  C74  1  0.68460000  0.01530000  0.19407000  1.0
  N  N75  1  0.81347000  0.17583000  0.85637000  1.0
  N  N76  1  0.81671000  0.72395000  0.20996000  1.0
  N  N77  1  0.70734000  0.21895000  0.80280000  1.0
  O  O78  1  0.94719000  0.57391000  0.05693000  1.0
  O  O79  1  0.06104000  0.59206000  0.16835000  1.0
  O  O80  1  0.84401000  0.38822000  0.91536000  1.0
  O  O81  1  0.94740000  0.40952000  0.03649000  1.0
  O  O82  1  0.00817000  0.42910000  0.91400000  1.0
  O  O83  1  0.10673000  0.43650000  0.02820000  1.0
  O  O84  1  0.00362000  0.58085000  0.92162000  1.0
  O  O85  1  0.11550000  0.61125000  0.04315000  1.0
  O  O86  1  0.42495000  0.09464000  0.99966000  1.0
  O  O87  1  0.42299000  0.99638000  0.88840000  1.0
  O  O88  1  0.59841000  0.11962000  0.02869000  1.0
  O  O89  1  0.58847000  0.01647000  0.91510000  1.0
  O  O90  1  0.58696000  0.06824000  0.15794000  1.0
  O  O91  1  0.58991000  0.96907000  0.05122000  1.0
  O  O92  1  0.40894000  0.93822000  0.01821000  1.0
  O  O93  1  0.40523000  0.83957000  0.90580000  1.0
  O  O94  1  0.05997000  0.97478000  0.59176000  1.0
  O  O95  1  0.16432000  0.07816000  0.58988000  1.0
  O  O96  1  0.91220000  0.84256000  0.41943000  1.0
  O  O97  1  0.01634000  0.94054000  0.41190000  1.0
  O  O98  1  0.88155000  0.99297000  0.43279000  1.0
  O  O99  1  0.98974000  0.08872000  0.42741000  1.0
  O  O100  1  0.93133000  0.01863000  0.61067000  1.0
  O  O101  1  0.03212000  0.12279000  0.60593000  1.0
  O  O102  1  0.88794000  0.23303000  0.88584000  1.0
  O  O103  1  0.78340000  0.09797000  0.80978000  1.0
  O  O104  1  0.75611000  0.64903000  0.15737000  1.0
  O  O105  1  0.80960000  0.78934000  0.23645000  1.0
  O  O106  1  0.64522000  0.22986000  0.79881000  1.0
  O  O107  1  0.73558000  0.21629000  0.75216000  1.0
