# generated using pymatgen
data_AgH22C10SN5O4
_symmetry_space_group_name_H-M   'P 1'
_cell_length_a   6.28413000
_cell_length_b   10.59810000
_cell_length_c   30.58470000
_cell_angle_alpha   90.00050000
_cell_angle_beta   90.00010000
_cell_angle_gamma   87.92710000
_symmetry_Int_Tables_number   1
_chemical_formula_structural   AgH22C10SN5O4
_chemical_formula_sum   'Ag4 H88 C40 S4 N20 O16'
_cell_volume   2035.60312721
_cell_formula_units_Z   4
loop_
 _symmetry_equiv_pos_site_id
 _symmetry_equiv_pos_as_xyz
  1  'x, y, z'
loop_
 _atom_site_type_symbol
 _atom_site_label
 _atom_site_symmetry_multiplicity
 _atom_site_fract_x
 _atom_site_fract_y
 _atom_site_fract_z
 _atom_site_occupancy
  Ag  Ag0  1  0.13564000  0.59709000  0.24044000  1.0
  Ag  Ag1  1  0.36436000  0.90292000  0.74045000  1.0
  Ag  Ag2  1  0.86436000  0.40292000  0.75956000  1.0
  Ag  Ag3  1  0.63565000  0.09708000  0.25955000  1.0
  H  H4  1  0.78104000  0.22388000  0.16158000  1.0
  H  H5  1  0.71895000  0.27612000  0.66158000  1.0
  H  H6  1  0.21896000  0.77613000  0.83842000  1.0
  H  H7  1  0.28105000  0.72388000  0.33842000  1.0
  H  H8  1  0.49782000  0.23587000  0.16151000  1.0
  H  H9  1  0.00218000  0.26413000  0.66151000  1.0
  H  H10  1  0.50219000  0.76413000  0.83849000  1.0
  H  H11  1  0.99782000  0.73588000  0.33849000  1.0
  H  H12  1  0.84776000  0.56377000  0.15359000  1.0
  H  H13  1  0.65224000  0.93623000  0.65360000  1.0
  H  H14  1  0.15224000  0.43623000  0.84640000  1.0
  H  H15  1  0.34776000  0.06377000  0.34640000  1.0
  H  H16  1  0.98196000  0.41260000  0.15796000  1.0
  H  H17  1  0.51803000  0.08740000  0.65796000  1.0
  H  H18  1  0.01804000  0.58741000  0.84204000  1.0
  H  H19  1  0.48197000  0.91260000  0.34204000  1.0
  H  H20  1  0.31767000  0.44112000  0.15567000  1.0
  H  H21  1  0.18232000  0.05888000  0.65567000  1.0
  H  H22  1  0.68233000  0.55888000  0.84433000  1.0
  H  H23  1  0.81768000  0.94113000  0.34433000  1.0
  H  H24  1  0.46992000  0.58043000  0.15394000  1.0
  H  H25  1  0.03007000  0.91956000  0.65394000  1.0
  H  H26  1  0.53008000  0.41956000  0.84606000  1.0
  H  H27  1  0.96993000  0.08044000  0.34606000  1.0
  H  H28  1  0.97538000  0.29609000  0.22417000  1.0
  H  H29  1  0.52461000  0.20392000  0.72417000  1.0
  H  H30  1  0.02463000  0.70392000  0.77583000  1.0
  H  H31  1  0.47538000  0.79608000  0.27583000  1.0
  H  H32  1  0.83520000  0.35899000  0.27098000  1.0
  H  H33  1  0.66480000  0.14102000  0.77098000  1.0
  H  H34  1  0.16482000  0.64102000  0.72902000  1.0
  H  H35  1  0.33520000  0.85898000  0.22902000  1.0
  H  H36  1  0.64928000  0.55712000  0.26692000  1.0
  H  H37  1  0.85072000  0.94288000  0.76692000  1.0
  H  H38  1  0.35073000  0.44288000  0.73308000  1.0
  H  H39  1  0.14928000  0.05712000  0.23308000  1.0
  H  H40  1  0.65346000  0.64898000  0.21702000  1.0
  H  H41  1  0.84654000  0.85103000  0.71702000  1.0
  H  H42  1  0.34654000  0.35103000  0.78298000  1.0
  H  H43  1  0.15347000  0.14897000  0.28298000  1.0
  H  H44  1  0.44903000  0.37228000  0.27030000  1.0
  H  H45  1  0.05097000  0.12773000  0.77030000  1.0
  H  H46  1  0.55098000  0.62773000  0.72970000  1.0
  H  H47  1  0.94903000  0.87228000  0.22970000  1.0
  H  H48  1  0.31057000  0.31815000  0.22311000  1.0
  H  H49  1  0.18943000  0.18186000  0.72312000  1.0
  H  H50  1  0.68943000  0.68186000  0.77689000  1.0
  H  H51  1  0.81057000  0.81815000  0.27688000  1.0
  H  H52  1  0.06934000  0.55211000  0.40532000  1.0
  H  H53  1  0.43066000  0.94789000  0.90532000  1.0
  H  H54  1  0.93066000  0.44790000  0.59468000  1.0
  H  H55  1  0.56932000  0.05209000  0.09467000  1.0
  H  H56  1  0.04747000  0.39025000  0.41999000  1.0
  H  H57  1  0.45253000  0.10974000  0.91999000  1.0
  H  H58  1  0.95253000  0.60975000  0.58001000  1.0
  H  H59  1  0.54746000  0.89024000  0.08001000  1.0
  H  H60  1  0.44536000  0.35629000  0.40835000  1.0
  H  H61  1  0.05465000  0.14370000  0.90835000  1.0
  H  H62  1  0.55464000  0.64370000  0.59165000  1.0
  H  H63  1  0.94535000  0.85629000  0.09165000  1.0
  H  H64  1  0.45955000  0.51444000  0.39012000  1.0
  H  H65  1  0.04045000  0.98556000  0.89012000  1.0
  H  H66  1  0.54046000  0.48556000  0.60988000  1.0
  H  H67  1  0.95953000  0.01443000  0.10988000  1.0
  H  H68  1  0.66662000  0.60545000  0.43919000  1.0
  H  H69  1  0.83337000  0.89456000  0.93919000  1.0
  H  H70  1  0.33333333  0.39455000  0.56081000  1.0
  H  H71  1  0.16660000  0.10544000  0.06081000  1.0
  H  H72  1  0.73987000  0.45263000  0.46026000  1.0
  H  H73  1  0.76012000  0.04738000  0.96027000  1.0
  H  H74  1  0.26013000  0.54737000  0.53973000  1.0
  H  H75  1  0.23986000  0.95262000  0.03974000  1.0
  H  H76  1  0.44472000  0.31980000  0.48796000  1.0
  H  H77  1  0.05527000  0.18020000  0.98797000  1.0
  H  H78  1  0.55527000  0.68020000  0.51204000  1.0
  H  H79  1  0.94471000  0.81979000  0.01203000  1.0
  H  H80  1  0.17883000  0.38558000  0.48593000  1.0
  H  H81  1  0.32117000  0.11441000  0.98593000  1.0
  H  H82  1  0.82118000  0.61442000  0.51407000  1.0
  H  H83  1  0.67881000  0.88558000  0.01407000  1.0
  H  H84  1  0.96049000  0.75642000  0.16248000  1.0
  H  H85  1  0.53950000  0.74358000  0.66247000  1.0
  H  H86  1  0.03951000  0.24358000  0.83753000  1.0
  H  H87  1  0.46050000  0.25643000  0.33752000  1.0
  H  H88  1  0.19898000  0.79917000  0.16215000  1.0
  H  H89  1  0.30102000  0.70084000  0.66215000  1.0
  H  H90  1  0.80102000  0.20084000  0.83785000  1.0
  H  H91  1  0.69899000  0.29917000  0.33785000  1.0
  C  C92  1  0.64274000  0.28215000  0.17214000  1.0
  C  C93  1  0.85725000  0.21785000  0.67214000  1.0
  C  C94  1  0.35727000  0.71785000  0.82786000  1.0
  C  C95  1  0.14274000  0.78215000  0.32786000  1.0
  C  C96  1  0.84063000  0.46954000  0.16800000  1.0
  C  C97  1  0.65936000  0.03046000  0.66800000  1.0
  C  C98  1  0.15937000  0.53047000  0.83200000  1.0
  C  C99  1  0.34064000  0.96955000  0.33200000  1.0
  C  C100  1  0.46323000  0.48460000  0.16727000  1.0
  C  C101  1  0.03677000  0.01540000  0.66727000  1.0
  C  C102  1  0.53678000  0.51541000  0.83273000  1.0
  C  C103  1  0.96324000  0.98460000  0.33273000  1.0
  C  C104  1  0.83524000  0.35229000  0.23524000  1.0
  C  C105  1  0.66476000  0.14771000  0.73524000  1.0
  C  C106  1  0.16476000  0.64771000  0.76476000  1.0
  C  C107  1  0.33525000  0.85229000  0.26476000  1.0
  C  C108  1  0.64984000  0.55381000  0.23100000  1.0
  C  C109  1  0.85016000  0.94619000  0.73100000  1.0
  C  C110  1  0.35017000  0.44619000  0.76900000  1.0
  C  C111  1  0.14985000  0.05381000  0.26900000  1.0
  C  C112  1  0.45328000  0.36510000  0.23456000  1.0
  C  C113  1  0.04672000  0.13490000  0.73456000  1.0
  C  C114  1  0.54674000  0.63490000  0.76544000  1.0
  C  C115  1  0.95328000  0.86510000  0.26544000  1.0
  C  C116  1  0.13986000  0.45667000  0.40084000  1.0
  C  C117  1  0.36015000  0.04332000  0.90084000  1.0
  C  C118  1  0.86015000  0.54332000  0.59916000  1.0
  C  C119  1  0.63984000  0.95666000  0.09916000  1.0
  C  C120  1  0.37526000  0.45319000  0.41284000  1.0
  C  C121  1  0.12473000  0.04681000  0.91284000  1.0
  C  C122  1  0.62474000  0.54681000  0.58716000  1.0
  C  C123  1  0.87524000  0.95318000  0.08716000  1.0
  C  C124  1  0.62671000  0.53519000  0.46408000  1.0
  C  C125  1  0.87328000  0.96481000  0.96408000  1.0
  C  C126  1  0.37330000  0.46480000  0.53592000  1.0
  C  C127  1  0.12670000  0.03519000  0.03592000  1.0
  C  C128  1  0.34638000  0.40907000  0.49053000  1.0
  C  C129  1  0.15361000  0.09093000  0.99053000  1.0
  C  C130  1  0.65363000  0.59093000  0.50947000  1.0
  C  C131  1  0.84637000  0.90907000  0.00947000  1.0
  S  S132  1  0.09685000  0.41521000  0.34485000  1.0
  S  S133  1  0.40316000  0.08480000  0.84485000  1.0
  S  S134  1  0.90316000  0.58480000  0.65515000  1.0
  S  S135  1  0.59682000  0.91520000  0.15515000  1.0
  N  N136  1  0.45402000  0.49351000  0.21589000  1.0
  N  N137  1  0.04598000  0.00649000  0.71589000  1.0
  N  N138  1  0.54599000  0.50650000  0.78411000  1.0
  N  N139  1  0.95402000  0.99351000  0.28411000  1.0
  N  N140  1  0.64933000  0.40828000  0.15290000  1.0
  N  N141  1  0.85066000  0.09172000  0.65290000  1.0
  N  N142  1  0.35066000  0.59172000  0.84710000  1.0
  N  N143  1  0.14934000  0.90828000  0.34710000  1.0
  N  N144  1  0.64219000  0.28755000  0.22086000  1.0
  N  N145  1  0.85780000  0.21246000  0.72086000  1.0
  N  N146  1  0.35781000  0.71246000  0.77914000  1.0
  N  N147  1  0.14219000  0.78755000  0.27914000  1.0
  N  N148  1  0.84452000  0.48096000  0.21669000  1.0
  N  N149  1  0.65547000  0.01905000  0.71669000  1.0
  N  N150  1  0.15548000  0.51905000  0.78331000  1.0
  N  N151  1  0.34453000  0.98095000  0.28331000  1.0
  N  N152  1  0.40712000  0.49968000  0.45717000  1.0
  N  N153  1  0.09287000  0.00031000  0.95717000  1.0
  N  N154  1  0.59288000  0.50031000  0.54283000  1.0
  N  N155  1  0.90711000  0.99968000  0.04283000  1.0
  O  O156  1  0.22546000  0.50012000  0.31851000  1.0
  O  O157  1  0.27454000  0.99988000  0.81852000  1.0
  O  O158  1  0.77454000  0.49988000  0.68148000  1.0
  O  O159  1  0.72545000  0.00012000  0.18148000  1.0
  O  O160  1  0.16892000  0.28128000  0.34028000  1.0
  O  O161  1  0.33108000  0.21872000  0.84028000  1.0
  O  O162  1  0.83108000  0.71872000  0.65972000  1.0
  O  O163  1  0.66891000  0.78127000  0.15972000  1.0
  O  O164  1  0.86531000  0.43440000  0.33783000  1.0
  O  O165  1  0.63469000  0.06560000  0.83783000  1.0
  O  O166  1  0.13469000  0.56561000  0.66217000  1.0
  O  O167  1  0.36530000  0.93439000  0.16217000  1.0
  O  O168  1  0.10935000  0.72516000  0.16589000  1.0
  O  O169  1  0.39064000  0.77484000  0.66590000  1.0
  O  O170  1  0.89064000  0.27483000  0.83411000  1.0
  O  O171  1  0.60937000  0.22517000  0.33411000  1.0
