# generated using pymatgen
data_Cu3H84C70S2(N6O13)2
_symmetry_space_group_name_H-M   'P 1'
_cell_length_a   11.28310000
_cell_length_b   12.55160000
_cell_length_c   15.66050000
_cell_angle_alpha   97.59560000
_cell_angle_beta   93.04100000
_cell_angle_gamma   108.93900000
_symmetry_Int_Tables_number   1
_chemical_formula_structural   Cu3H84C70S2(N6O13)2
_chemical_formula_sum   'Cu3 H84 C70 S2 N12 O26'
_cell_volume   2068.46599719
_cell_formula_units_Z   1
loop_
 _symmetry_equiv_pos_site_id
 _symmetry_equiv_pos_as_xyz
  1  'x, y, z'
loop_
 _atom_site_type_symbol
 _atom_site_label
 _atom_site_symmetry_multiplicity
 _atom_site_fract_x
 _atom_site_fract_y
 _atom_site_fract_z
 _atom_site_occupancy
  Cu  Cu0  1  0.00010000  0.00005000  0.50005000  1.0
  Cu  Cu1  1  0.19579000  0.62458000  0.90700000  1.0
  Cu  Cu2  1  0.80426000  0.37541000  0.09296000  1.0
  H  H3  1  0.04381000  0.45251000  0.79235000  1.0
  H  H4  1  0.95607000  0.54741000  0.20765000  1.0
  H  H5  1  0.99535000  0.41346000  0.88226000  1.0
  H  H6  1  0.00459000  0.58651000  0.11777000  1.0
  H  H7  1  0.36485000  0.63276000  0.78100000  1.0
  H  H8  1  0.63512000  0.36718000  0.21897000  1.0
  H  H9  1  0.32243000  0.50807000  0.81005000  1.0
  H  H10  1  0.67755000  0.49187000  0.18991000  1.0
  H  H11  1  0.78002000  0.64870000  0.58785000  1.0
  H  H12  1  0.21997000  0.35140000  0.41218000  1.0
  H  H13  1  0.41416000  0.90489000  0.74081000  1.0
  H  H14  1  0.58587000  0.09512000  0.25916000  1.0
  H  H15  1  0.61932000  0.76678000  0.01931000  1.0
  H  H16  1  0.38069000  0.23321000  0.98070000  1.0
  H  H17  1  0.05500000  0.76145000  0.19903000  1.0
  H  H18  1  0.94495000  0.23857000  0.80104000  1.0
  H  H19  1  0.34259000  0.97294000  0.06418000  1.0
  H  H20  1  0.65737000  0.02701000  0.93583000  1.0
  H  H21  1  0.24808000  0.11081000  0.30865000  1.0
  H  H22  1  0.75192000  0.88923000  0.69135000  1.0
  H  H23  1  0.89187000  0.79551000  0.56752000  1.0
  H  H24  1  0.10819000  0.20454000  0.43252000  1.0
  H  H25  1  0.16952000  0.62836000  0.58882000  1.0
  H  H26  1  0.83043000  0.37157000  0.41121000  1.0
  H  H27  1  0.32176000  0.79577000  0.53289000  1.0
  H  H28  1  0.67826000  0.20413000  0.46716000  1.0
  H  H29  1  0.24440000  0.95354000  0.49759000  1.0
  H  H30  1  0.75571000  0.04641000  0.50246000  1.0
  H  H31  1  0.77411000  0.49930000  0.71849000  1.0
  H  H32  1  0.22580000  0.50074000  0.28151000  1.0
  H  H33  1  0.65678000  0.55975000  0.69286000  1.0
  H  H34  1  0.34313000  0.44027000  0.30710000  1.0
  H  H35  1  0.71488000  0.37133000  0.57476000  1.0
  H  H36  1  0.28512000  0.62873000  0.42522000  1.0
  H  H37  1  0.59236000  0.42613000  0.55194000  1.0
  H  H38  1  0.40760000  0.57390000  0.44803000  1.0
  H  H39  1  0.49329000  0.35458000  0.68521000  1.0
  H  H40  1  0.50671000  0.64542000  0.31477000  1.0
  H  H41  1  0.49637000  0.24782000  0.60228000  1.0
  H  H42  1  0.50363000  0.75220000  0.39769000  1.0
  H  H43  1  0.67923000  0.33901000  0.76891000  1.0
  H  H44  1  0.32082000  0.66100000  0.23104000  1.0
  H  H45  1  0.69709000  0.24046000  0.68428000  1.0
  H  H46  1  0.30293000  0.75956000  0.31567000  1.0
  H  H47  1  0.58209000  0.15895000  0.81346000  1.0
  H  H48  1  0.41797000  0.84107000  0.18650000  1.0
  H  H49  1  0.45470000  0.19851000  0.77483000  1.0
  H  H50  1  0.54535000  0.80151000  0.22515000  1.0
  H  H51  1  0.44398000  0.07567000  0.63067000  1.0
  H  H52  1  0.55604000  0.92434000  0.36931000  1.0
  H  H53  1  0.56279000  0.02932000  0.67669000  1.0
  H  H54  1  0.43723000  0.97070000  0.32327000  1.0
  H  H55  1  0.94571000  0.63356000  0.85138000  1.0
  H  H56  1  0.05434000  0.36640000  0.14855000  1.0
  H  H57  1  0.86847000  0.77999000  0.79265000  1.0
  H  H58  1  0.13158000  0.22001000  0.20735000  1.0
  H  H59  1  0.02908000  0.94279000  0.73741000  1.0
  H  H60  1  0.97094000  0.05722000  0.26258000  1.0
  H  H61  1  0.31483000  0.80866000  0.82005000  1.0
  H  H62  1  0.68522000  0.19134000  0.17990000  1.0
  H  H63  1  0.12159000  0.42413000  0.00562000  1.0
  H  H64  1  0.87844000  0.57586000  0.99436000  1.0
  H  H65  1  0.23976000  0.35740000  0.11750000  1.0
  H  H66  1  0.76026000  0.64259000  0.88249000  1.0
  H  H67  1  0.46298000  0.46854000  0.16493000  1.0
  H  H68  1  0.53704000  0.53145000  0.83507000  1.0
  H  H69  1  0.44154000  0.69333000  0.98229000  1.0
  H  H70  1  0.55849000  0.30670000  0.01773000  1.0
  H  H71  1  0.85270000  0.74663000  0.07471000  1.0
  H  H72  1  0.14731000  0.25335000  0.92528000  1.0
  H  H73  1  0.82359000  0.84595000  0.15444000  1.0
  H  H74  1  0.17644000  0.15403000  0.84554000  1.0
  H  H75  1  0.79612000  0.96333000  0.04382000  1.0
  H  H76  1  0.20389000  0.03664000  0.95616000  1.0
  H  H77  1  0.80056000  0.85758000  0.95938000  1.0
  H  H78  1  0.19945000  0.14239000  0.04060000  1.0
  H  H79  1  0.02282000  0.88703000  0.00550000  1.0
  H  H80  1  0.97720000  0.11295000  0.99449000  1.0
  H  H81  1  0.02431000  0.98828000  0.09516000  1.0
  H  H82  1  0.97570000  0.01169000  0.90483000  1.0
  H  H83  1  0.76369000  0.86739000  0.38237000  1.0
  H  H84  1  0.23626000  0.13271000  0.61770000  1.0
  H  H85  1  0.86357000  0.81186000  0.39630000  1.0
  H  H86  1  0.13636000  0.18824000  0.60380000  1.0
  C  C87  1  0.14665000  0.93302000  0.26207000  1.0
  C  C88  1  0.85333000  0.06701000  0.73796000  1.0
  C  C89  1  0.12738000  0.84217000  0.19502000  1.0
  C  C90  1  0.87257000  0.15784000  0.80503000  1.0
  C  C91  1  0.19789000  0.85564000  0.12442000  1.0
  C  C92  1  0.80205000  0.14433000  0.87561000  1.0
  C  C93  1  0.28840000  0.96165000  0.11979000  1.0
  C  C94  1  0.71154000  0.03831000  0.88022000  1.0
  C  C95  1  0.30509000  0.05294000  0.18576000  1.0
  C  C96  1  0.69488000  0.94705000  0.81424000  1.0
  C  C97  1  0.23537000  0.03930000  0.25727000  1.0
  C  C98  1  0.76461000  0.96072000  0.74273000  1.0
  C  C99  1  0.17275000  0.75752000  0.05254000  1.0
  C  C100  1  0.82714000  0.24245000  0.94749000  1.0
  C  C101  1  0.06740000  0.91337000  0.33680000  1.0
  C  C102  1  0.93263000  0.08670000  0.66326000  1.0
  C  C103  1  0.98457000  0.78827000  0.56021000  1.0
  C  C104  1  0.01548000  0.21174000  0.43983000  1.0
  C  C105  1  0.01834000  0.69640000  0.58094000  1.0
  C  C106  1  0.98165000  0.30359000  0.41909000  1.0
  C  C107  1  0.14143000  0.69844000  0.57092000  1.0
  C  C108  1  0.85855000  0.30151000  0.42912000  1.0
  C  C109  1  0.22487000  0.79091000  0.54068000  1.0
  C  C110  1  0.77516000  0.20902000  0.45936000  1.0
  C  C111  1  0.18352000  0.87894000  0.52133000  1.0
  C  C112  1  0.81655000  0.12102000  0.47872000  1.0
  C  C113  1  0.93248000  0.60153000  0.62082000  1.0
  C  C114  1  0.06746000  0.39846000  0.37918000  1.0
  C  C115  1  0.72025000  0.51718000  0.66503000  1.0
  C  C116  1  0.27969000  0.48287000  0.33496000  1.0
  C  C117  1  0.64647000  0.40637000  0.60467000  1.0
  C  C118  1  0.35350000  0.59367000  0.39531000  1.0
  C  C119  1  0.55776000  0.31788000  0.65130000  1.0
  C  C120  1  0.44224000  0.68213000  0.34868000  1.0
  C  C121  1  0.62601000  0.27043000  0.71600000  1.0
  C  C122  1  0.37402000  0.72959000  0.28396000  1.0
  C  C123  1  0.53563000  0.17416000  0.75514000  1.0
  C  C124  1  0.46441000  0.82586000  0.24483000  1.0
  C  C125  1  0.48573000  0.06193000  0.69168000  1.0
  C  C126  1  0.51431000  0.93809000  0.30829000  1.0
  C  C127  1  0.27522000  0.97998000  0.73503000  1.0
  C  C128  1  0.72482000  0.02004000  0.26496000  1.0
  C  C129  1  0.00931000  0.70866000  0.83024000  1.0
  C  C130  1  0.99073000  0.29130000  0.16970000  1.0
  C  C131  1  0.96824000  0.78930000  0.79653000  1.0
  C  C132  1  0.03181000  0.21068000  0.20344000  1.0
  C  C133  1  0.05632000  0.87908000  0.76667000  1.0
  C  C134  1  0.94372000  0.12092000  0.23331000  1.0
  C  C135  1  0.18305000  0.88653000  0.77186000  1.0
  C  C136  1  0.81699000  0.11348000  0.22811000  1.0
  C  C137  1  0.21728000  0.80536000  0.81034000  1.0
  C  C138  1  0.78275000  0.19462000  0.18961000  1.0
  C  C139  1  0.22093000  0.46889000  0.02735000  1.0
  C  C140  1  0.77910000  0.53111000  0.97263000  1.0
  C  C141  1  0.28538000  0.43365000  0.08993000  1.0
  C  C142  1  0.71464000  0.56634000  0.91006000  1.0
  C  C143  1  0.41145000  0.49539000  0.11617000  1.0
  C  C144  1  0.58856000  0.50460000  0.88383000  1.0
  C  C145  1  0.47211000  0.59108000  0.07860000  1.0
  C  C146  1  0.52790000  0.40892000  0.92140000  1.0
  C  C147  1  0.40163000  0.62067000  0.01553000  1.0
  C  C148  1  0.59839000  0.37934000  0.98449000  1.0
  C  C149  1  0.60978000  0.65380000  0.10561000  1.0
  C  C150  1  0.39024000  0.34619000  0.89439000  1.0
  C  C151  1  0.80137000  0.80767000  0.08559000  1.0
  C  C152  1  0.19864000  0.19231000  0.91440000  1.0
  C  C153  1  0.83968000  0.89755000  0.02629000  1.0
  C  C154  1  0.16033000  0.10243000  0.97370000  1.0
  C  C155  1  0.98180000  0.95304000  0.02810000  1.0
  C  C156  1  0.01821000  0.04694000  0.97188000  1.0
  S  S157  1  0.41019000  0.19207000  0.17753000  1.0
  S  S158  1  0.58980000  0.80793000  0.82247000  1.0
  N  N159  1  0.06532000  0.87709000  0.53125000  1.0
  N  N160  1  0.93477000  0.12292000  0.46880000  1.0
  N  N161  1  0.81091000  0.59767000  0.62163000  1.0
  N  N162  1  0.18905000  0.40238000  0.37838000  1.0
  N  N163  1  0.39096000  0.97348000  0.72629000  1.0
  N  N164  1  0.60907000  0.02654000  0.27369000  1.0
  N  N165  1  0.13157000  0.71817000  0.83777000  1.0
  N  N166  1  0.86847000  0.28179000  0.16216000  1.0
  N  N167  1  0.27941000  0.56059000  0.99078000  1.0
  N  N168  1  0.72060000  0.43942000  0.00922000  1.0
  N  N169  1  0.66622000  0.74555000  0.06854000  1.0
  N  N170  1  0.33380000  0.25444000  0.93146000  1.0
  O  O171  1  0.25322000  0.76968000  0.99640000  1.0
  O  O172  1  0.74660000  0.23031000  0.00358000  1.0
  O  O173  1  0.07626000  0.66955000  0.04861000  1.0
  O  O174  1  0.92368000  0.33040000  0.95146000  1.0
  O  O175  1  0.08348000  0.00447000  0.39214000  1.0
  O  O176  1  0.91674000  0.99560000  0.60798000  1.0
  O  O177  1  0.99516000  0.81464000  0.33960000  1.0
  O  O178  1  0.00475000  0.18547000  0.66043000  1.0
  O  O179  1  0.44267000  0.18660000  0.08779000  1.0
  O  O180  1  0.55729000  0.81339000  0.91221000  1.0
  O  O181  1  0.52201000  0.21497000  0.24070000  1.0
  O  O182  1  0.47799000  0.78502000  0.75929000  1.0
  O  O183  1  0.33968000  0.26922000  0.20145000  1.0
  O  O184  1  0.66032000  0.73078000  0.79858000  1.0
  O  O185  1  0.24204000  0.05877000  0.71251000  1.0
  O  O186  1  0.75800000  0.94126000  0.28750000  1.0
  O  O187  1  0.97409000  0.53505000  0.65466000  1.0
  O  O188  1  0.02578000  0.46488000  0.34531000  1.0
  O  O189  1  0.66836000  0.62001000  0.16027000  1.0
  O  O190  1  0.33166000  0.37996000  0.83973000  1.0
  O  O191  1  0.03718000  0.47974000  0.85257000  1.0
  O  O192  1  0.96274000  0.52022000  0.14744000  1.0
  O  O193  1  0.29506000  0.57342000  0.79997000  1.0
  O  O194  1  0.70488000  0.42649000  0.19996000  1.0
  O  O195  1  0.79916000  0.83534000  0.42738000  1.0
  O  O196  1  0.20075000  0.16476000  0.57271000  1.0
