# generated using pymatgen
data_Zn4H20C40O21
_symmetry_space_group_name_H-M   'P 1'
_cell_length_a   23.76603125
_cell_length_b   23.76640000
_cell_length_c   23.76490000
_cell_angle_alpha   66.37530000
_cell_angle_beta   72.56200654
_cell_angle_gamma   107.43430311
_symmetry_Int_Tables_number   1
_chemical_formula_structural   Zn4H20C40O21
_chemical_formula_sum   'Zn8 H40 C80 O42'
_cell_volume   10291.93071163
_cell_formula_units_Z   2
loop_
 _symmetry_equiv_pos_site_id
 _symmetry_equiv_pos_as_xyz
  1  'x, y, z'
loop_
 _atom_site_type_symbol
 _atom_site_label
 _atom_site_symmetry_multiplicity
 _atom_site_fract_x
 _atom_site_fract_y
 _atom_site_fract_z
 _atom_site_occupancy
  Zn  Zn0  1  0.05713000  0.10053000  0.45659000  1.0
  Zn  Zn1  1  0.05713000  0.95659000  0.48627000  1.0
  Zn  Zn2  1  0.94286000  0.95659000  0.60055000  1.0
  Zn  Zn3  1  0.94288000  0.98629000  0.45658000  1.0
  Zn  Zn4  1  0.94287000  0.39947000  0.04341000  1.0
  Zn  Zn5  1  0.05714000  0.54341000  0.89945000  1.0
  Zn  Zn6  1  0.94287000  0.54341000  0.01372000  1.0
  Zn  Zn7  1  0.05712000  0.51372000  0.04342000  1.0
  H  H8  1  0.92363000  0.12529000  0.29834000  1.0
  H  H9  1  0.07637000  0.37471000  0.20166000  1.0
  H  H10  1  0.92363000  0.22197000  0.20167000  1.0
  H  H11  1  0.07637000  0.27803000  0.29833000  1.0
  H  H12  1  0.92363000  0.79833000  0.77805000  1.0
  H  H13  1  0.07637000  0.70167000  0.72195000  1.0
  H  H14  1  0.92364000  0.70166000  0.87471000  1.0
  H  H15  1  0.07637000  0.79835000  0.62528000  1.0
  H  H16  1  0.92289000  0.27079000  0.96492000  1.0
  H  H17  1  0.07711000  0.46493000  0.77075000  1.0
  H  H18  1  0.92289000  0.03507000  0.72924000  1.0
  H  H19  1  0.07706000  0.22922000  0.53506000  1.0
  H  H20  1  0.07712000  0.61222000  0.15208000  1.0
  H  H21  1  0.92290000  0.65214000  0.11216000  1.0
  H  H22  1  0.07706000  0.84783000  0.38787000  1.0
  H  H23  1  0.92289000  0.88781000  0.34789000  1.0
  H  H24  1  0.73570000  0.27078000  0.15214000  1.0
  H  H25  1  0.73570000  0.46493000  0.11216000  1.0
  H  H26  1  0.26430000  0.03506000  0.38784000  1.0
  H  H27  1  0.26430000  0.22920000  0.34792000  1.0
  H  H28  1  0.26431000  0.65217000  0.77077000  1.0
  H  H29  1  0.26429000  0.61216000  0.96495000  1.0
  H  H30  1  0.73571000  0.88784000  0.53505000  1.0
  H  H31  1  0.73569000  0.84790000  0.72922000  1.0
  H  H32  1  0.08023000  0.37974000  0.67766000  1.0
  H  H33  1  0.91976000  0.17769000  0.87974000  1.0
  H  H34  1  0.08017000  0.32233000  0.62024000  1.0
  H  H35  1  0.91979000  0.12026000  0.82234000  1.0
  H  H36  1  0.91977000  0.74210000  0.20048000  1.0
  H  H37  1  0.08024000  0.70053000  0.24206000  1.0
  H  H38  1  0.91979000  0.79953000  0.25788000  1.0
  H  H39  1  0.08018000  0.75785000  0.29956000  1.0
  H  H40  1  0.55741000  0.37974000  0.20046000  1.0
  H  H41  1  0.55742000  0.17768000  0.24214000  1.0
  H  H42  1  0.44259000  0.32231000  0.25795000  1.0
  H  H43  1  0.44259000  0.12026000  0.29952000  1.0
  H  H44  1  0.44258000  0.70045000  0.87976000  1.0
  H  H45  1  0.44259000  0.74216000  0.67767000  1.0
  H  H46  1  0.55741000  0.75793000  0.82231000  1.0
  H  H47  1  0.55743000  0.79953000  0.62023000  1.0
  C  C48  1  0.18216000  0.09107000  0.40893000  1.0
  C  C49  1  0.00000000  0.86113000  0.63887000  1.0
  C  C50  1  0.99998000  0.09107000  0.59109000  1.0
  C  C51  1  0.81784000  0.90893000  0.59106000  1.0
  C  C52  1  0.00001000  0.13888000  0.36111000  1.0
  C  C53  1  0.99999000  0.90891000  0.40893000  1.0
  C  C54  1  0.00000000  0.40893000  0.90891000  1.0
  C  C55  1  0.00000000  0.63887000  0.86112000  1.0
  C  C56  1  0.81784000  0.40893000  0.09108000  1.0
  C  C57  1  0.99999000  0.59109000  0.09108000  1.0
  C  C58  1  0.99999000  0.36112000  0.13889000  1.0
  C  C59  1  0.18216000  0.59109000  0.90893000  1.0
  C  C60  1  0.00000000  0.19631000  0.30369000  1.0
  C  C61  1  0.00000000  0.30369000  0.19631000  1.0
  C  C62  1  0.95680000  0.18008000  0.27673000  1.0
  C  C63  1  0.04320000  0.31992000  0.22328000  1.0
  C  C64  1  0.95680000  0.23353000  0.22328000  1.0
  C  C65  1  0.04320000  0.26647000  0.27672000  1.0
  C  C66  1  0.00000000  0.80369000  0.69631000  1.0
  C  C67  1  0.00000000  0.69631000  0.80369000  1.0
  C  C68  1  0.95680000  0.77672000  0.76648000  1.0
  C  C69  1  0.04320000  0.72328000  0.73352000  1.0
  C  C70  1  0.95680000  0.72327000  0.81993000  1.0
  C  C71  1  0.04320000  0.77673000  0.68007000  1.0
  C  C72  1  0.00000000  0.37131000  0.87129000  1.0
  C  C73  1  0.95642000  0.29924000  0.90895000  1.0
  C  C74  1  0.95641000  0.26429000  0.87405000  1.0
  C  C75  1  0.99999000  0.30092000  0.80091000  1.0
  C  C76  1  0.04358000  0.37406000  0.76427000  1.0
  C  C77  1  0.04357000  0.40895000  0.79922000  1.0
  C  C78  1  0.99999000  0.26549000  0.76546000  1.0
  C  C79  1  0.99998000  0.23453000  0.73452000  1.0
  C  C80  1  0.99998000  0.19910000  0.69908000  1.0
  C  C81  1  0.95641000  0.12595000  0.73572000  1.0
  C  C82  1  0.95641000  0.09105000  0.70079000  1.0
  C  C83  1  0.99998000  0.12870000  0.62870000  1.0
  C  C84  1  0.04354000  0.20077000  0.59104000  1.0
  C  C85  1  0.04354000  0.23572000  0.62594000  1.0
  C  C86  1  0.00000000  0.62872000  0.12868000  1.0
  C  C87  1  0.04358000  0.63465000  0.15717000  1.0
  C  C88  1  0.04359000  0.66956000  0.19211000  1.0
  C  C89  1  0.00000000  0.69911000  0.19907000  1.0
  C  C90  1  0.95642000  0.69215000  0.16952000  1.0
  C  C91  1  0.95643000  0.65722000  0.13461000  1.0
  C  C92  1  0.99999000  0.73453000  0.23452000  1.0
  C  C93  1  0.99999000  0.76547000  0.26548000  1.0
  C  C94  1  0.99998000  0.80089000  0.30093000  1.0
  C  C95  1  0.04355000  0.80783000  0.33050000  1.0
  C  C96  1  0.04354000  0.84276000  0.36541000  1.0
  C  C97  1  0.99998000  0.87128000  0.37132000  1.0
  C  C98  1  0.95642000  0.86537000  0.34281000  1.0
  C  C99  1  0.95641000  0.83046000  0.30787000  1.0
  C  C100  1  0.74260000  0.37131000  0.12870000  1.0
  C  C101  1  0.70818000  0.29924000  0.15721000  1.0
  C  C102  1  0.63833000  0.26428000  0.19216000  1.0
  C  C103  1  0.60182000  0.30091000  0.19910000  1.0
  C  C104  1  0.63833000  0.37405000  0.16952000  1.0
  C  C105  1  0.70817000  0.40895000  0.13462000  1.0
  C  C106  1  0.53095000  0.26547000  0.23454000  1.0
  C  C107  1  0.46905000  0.23451000  0.26551000  1.0
  C  C108  1  0.39818000  0.19908000  0.30094000  1.0
  C  C109  1  0.36167000  0.12594000  0.33050000  1.0
  C  C110  1  0.29183000  0.09104000  0.36540000  1.0
  C  C111  1  0.25740000  0.12868000  0.37133000  1.0
  C  C112  1  0.29182000  0.20075000  0.34284000  1.0
  C  C113  1  0.36167000  0.23570000  0.30790000  1.0
  C  C114  1  0.25740000  0.62871000  0.87132000  1.0
  C  C115  1  0.29183000  0.65723000  0.79923000  1.0
  C  C116  1  0.36167000  0.69217000  0.76429000  1.0
  C  C117  1  0.39818000  0.69911000  0.80092000  1.0
  C  C118  1  0.36166000  0.66952000  0.87407000  1.0
  C  C119  1  0.29182000  0.63462000  0.90897000  1.0
  C  C120  1  0.46905000  0.73455000  0.76548000  1.0
  C  C121  1  0.53095000  0.76550000  0.73451000  1.0
  C  C122  1  0.60182000  0.80093000  0.69907000  1.0
  C  C123  1  0.63834000  0.83049000  0.62593000  1.0
  C  C124  1  0.70818000  0.86540000  0.59103000  1.0
  C  C125  1  0.74260000  0.87132000  0.62868000  1.0
  C  C126  1  0.70817000  0.84282000  0.70076000  1.0
  C  C127  1  0.63833000  0.80788000  0.73570000  1.0
  O  O128  1  0.00000000  0.00000000  0.50000000  1.0
  O  O129  1  0.15318000  0.12773000  0.41295000  1.0
  O  O130  1  0.04050000  0.88332000  0.57618000  1.0
  O  O131  1  0.95929000  0.02542000  0.62776000  1.0
  O  O132  1  0.15318000  0.02542000  0.43387000  1.0
  O  O133  1  0.04068000  0.12773000  0.52544000  1.0
  O  O134  1  0.95949000  0.88331000  0.65720000  1.0
  O  O135  1  0.84682000  0.91296000  0.62773000  1.0
  O  O136  1  0.95951000  0.07619000  0.38330000  1.0
  O  O137  1  0.84683000  0.93389000  0.52541000  1.0
  O  O138  1  0.04051000  0.15719000  0.38331000  1.0
  O  O139  1  0.04069000  0.91294000  0.43387000  1.0
  O  O140  1  0.95931000  0.93388000  0.41294000  1.0
  O  O141  1  0.00000000  0.50000000  0.00000000  1.0
  O  O142  1  0.95931000  0.37227000  0.97455000  1.0
  O  O143  1  0.04051000  0.61669000  0.84280000  1.0
  O  O144  1  0.84682000  0.47457000  0.06613000  1.0
  O  O145  1  0.04071000  0.47458000  0.87223000  1.0
  O  O146  1  0.84682000  0.37226000  0.08706000  1.0
  O  O147  1  0.95950000  0.61668000  0.92381000  1.0
  O  O148  1  0.95930000  0.58706000  0.06612000  1.0
  O  O149  1  0.04049000  0.42381000  0.11670000  1.0
  O  O150  1  0.04068000  0.56613000  0.08705000  1.0
  O  O151  1  0.95949000  0.34281000  0.11669000  1.0
  O  O152  1  0.15318000  0.58706000  0.87227000  1.0
  O  O153  1  0.15317000  0.56613000  0.97459000  1.0
  O  O154  1  0.08637000  0.41168000  0.69405000  1.0
  O  O155  1  0.91362000  0.19408000  0.91167000  1.0
  O  O156  1  0.08632000  0.30594000  0.58830000  1.0
  O  O157  1  0.91363000  0.08833000  0.80595000  1.0
  O  O158  1  0.91363000  0.71958000  0.17469000  1.0
  O  O159  1  0.08638000  0.67473000  0.21953000  1.0
  O  O160  1  0.91363000  0.82530000  0.28043000  1.0
  O  O161  1  0.08632000  0.78038000  0.32535000  1.0
  O  O162  1  0.60573000  0.41167000  0.17468000  1.0
  O  O163  1  0.60574000  0.19407000  0.21959000  1.0
  O  O164  1  0.39426000  0.30591000  0.28049000  1.0
  O  O165  1  0.39427000  0.08833000  0.32532000  1.0
  O  O166  1  0.39425000  0.67467000  0.91170000  1.0
  O  O167  1  0.39427000  0.71962000  0.69406000  1.0
  O  O168  1  0.60573000  0.78046000  0.80592000  1.0
  O  O169  1  0.60575000  0.82533000  0.58830000  1.0
