# generated using pymatgen
data_ZnH7C10N5O2
_symmetry_space_group_name_H-M   'P 1'
_cell_length_a   9.83582000
_cell_length_b   14.40780000
_cell_length_c   22.11210000
_cell_angle_alpha   89.99980000
_cell_angle_beta   90.00000000
_cell_angle_gamma   89.99990000
_symmetry_Int_Tables_number   1
_chemical_formula_structural   ZnH7C10N5O2
_chemical_formula_sum   'Zn8 H56 C80 N40 O16'
_cell_volume   3133.56157701
_cell_formula_units_Z   8
loop_
 _symmetry_equiv_pos_site_id
 _symmetry_equiv_pos_as_xyz
  1  'x, y, z'
loop_
 _atom_site_type_symbol
 _atom_site_label
 _atom_site_symmetry_multiplicity
 _atom_site_fract_x
 _atom_site_fract_y
 _atom_site_fract_z
 _atom_site_occupancy
  Zn  Zn0  1  0.91490000  0.13978000  0.63522000  1.0
  Zn  Zn1  1  0.91490000  0.36022000  0.86478000  1.0
  Zn  Zn2  1  0.58510000  0.86022000  0.13522000  1.0
  Zn  Zn3  1  0.58510000  0.63978000  0.36478000  1.0
  Zn  Zn4  1  0.08510000  0.86022000  0.36478000  1.0
  Zn  Zn5  1  0.08510000  0.63978000  0.13522000  1.0
  Zn  Zn6  1  0.41490000  0.13978000  0.86478000  1.0
  Zn  Zn7  1  0.41490000  0.36022000  0.63522000  1.0
  H  H8  1  0.52653000  0.91503000  0.54628000  1.0
  H  H9  1  0.52653000  0.58497000  0.95372000  1.0
  H  H10  1  0.97347000  0.08497000  0.04628000  1.0
  H  H11  1  0.97347000  0.41503000  0.45372000  1.0
  H  H12  1  0.47347000  0.08497000  0.45372000  1.0
  H  H13  1  0.47347000  0.41503000  0.04628000  1.0
  H  H14  1  0.02653000  0.91503000  0.95372000  1.0
  H  H15  1  0.02653000  0.58497000  0.54628000  1.0
  H  H16  1  0.92825000  0.96884000  0.47566000  1.0
  H  H17  1  0.92825000  0.53116000  0.02434000  1.0
  H  H18  1  0.57174000  0.03116000  0.97566000  1.0
  H  H19  1  0.57174000  0.46884000  0.52434000  1.0
  H  H20  1  0.07175000  0.03116000  0.52434000  1.0
  H  H21  1  0.07175000  0.46884000  0.97566000  1.0
  H  H22  1  0.42826000  0.96884000  0.02434000  1.0
  H  H23  1  0.42826000  0.53116000  0.47566000  1.0
  H  H24  1  0.48352000  0.79405000  0.46739000  1.0
  H  H25  1  0.48352000  0.70595000  0.03262000  1.0
  H  H26  1  0.01648000  0.20595000  0.96738000  1.0
  H  H27  1  0.01648000  0.29405000  0.53262000  1.0
  H  H28  1  0.51648000  0.20595000  0.53261000  1.0
  H  H29  1  0.51648000  0.29405000  0.96738000  1.0
  H  H30  1  0.98352000  0.79405000  0.03262000  1.0
  H  H31  1  0.98352000  0.70595000  0.46738000  1.0
  H  H32  1  0.03143000  0.06088000  0.85070000  1.0
  H  H33  1  0.03143000  0.43912000  0.64930000  1.0
  H  H34  1  0.46857000  0.93912000  0.35070000  1.0
  H  H35  1  0.46857000  0.56088000  0.14930000  1.0
  H  H36  1  0.96857000  0.93912000  0.14930000  1.0
  H  H37  1  0.96857000  0.56088000  0.35070000  1.0
  H  H38  1  0.53143000  0.06088000  0.64930000  1.0
  H  H39  1  0.53143000  0.43912000  0.85070000  1.0
  H  H40  1  0.07374000  0.16626000  0.76071000  1.0
  H  H41  1  0.07374000  0.33374000  0.73929000  1.0
  H  H42  1  0.42626000  0.83373000  0.26071000  1.0
  H  H43  1  0.42626000  0.66627000  0.23929000  1.0
  H  H44  1  0.92626000  0.83373000  0.23929000  1.0
  H  H45  1  0.92626000  0.66627000  0.26071000  1.0
  H  H46  1  0.57374000  0.16626000  0.73928000  1.0
  H  H47  1  0.57374000  0.33373000  0.76071000  1.0
  H  H48  1  0.74472000  0.99122000  0.71445000  1.0
  H  H49  1  0.74472000  0.50878000  0.78555000  1.0
  H  H50  1  0.75528000  0.00878000  0.21445000  1.0
  H  H51  1  0.75528000  0.49122000  0.28555000  1.0
  H  H52  1  0.25528000  0.00878000  0.28555000  1.0
  H  H53  1  0.25528000  0.49122000  0.21445000  1.0
  H  H54  1  0.24472000  0.99122000  0.78555000  1.0
  H  H55  1  0.24472000  0.50878000  0.71445000  1.0
  H  H56  1  0.82507000  0.95499000  0.83357000  1.0
  H  H57  1  0.82507000  0.54501000  0.66643000  1.0
  H  H58  1  0.67493000  0.04501000  0.33357000  1.0
  H  H59  1  0.67493000  0.45499000  0.16643000  1.0
  H  H60  1  0.17493000  0.04501000  0.16643000  1.0
  H  H61  1  0.17493000  0.45499000  0.33357000  1.0
  H  H62  1  0.32507000  0.95499000  0.66643000  1.0
  H  H63  1  0.32507000  0.54501000  0.83357000  1.0
  C  C64  1  0.80804000  0.86440000  0.42985000  1.0
  C  C65  1  0.80804000  0.63560000  0.07015000  1.0
  C  C66  1  0.69196000  0.13560000  0.92985000  1.0
  C  C67  1  0.69196000  0.36440000  0.57015000  1.0
  C  C68  1  0.19196000  0.13560000  0.57015000  1.0
  C  C69  1  0.19196000  0.36440000  0.92985000  1.0
  C  C70  1  0.30804000  0.86440000  0.07015000  1.0
  C  C71  1  0.30804000  0.63560000  0.42985000  1.0
  C  C72  1  0.60409000  0.89828000  0.51288000  1.0
  C  C73  1  0.60409000  0.60172000  0.98712000  1.0
  C  C74  1  0.89591000  0.10172000  0.01288000  1.0
  C  C75  1  0.89591000  0.39828000  0.48712000  1.0
  C  C76  1  0.39591000  0.10172000  0.48712000  1.0
  C  C77  1  0.39591000  0.39828000  0.01288000  1.0
  C  C78  1  0.10409000  0.89828000  0.98712000  1.0
  C  C79  1  0.10409000  0.60172000  0.51288000  1.0
  C  C80  1  0.75228000  0.01487000  0.56689000  1.0
  C  C81  1  0.75228000  0.48514000  0.93312000  1.0
  C  C82  1  0.74772000  0.98514000  0.06688000  1.0
  C  C83  1  0.74772000  0.51486000  0.43312000  1.0
  C  C84  1  0.24772000  0.98514000  0.43311000  1.0
  C  C85  1  0.24772000  0.51486000  0.06688000  1.0
  C  C86  1  0.25228000  0.01486000  0.93312000  1.0
  C  C87  1  0.25228000  0.48514000  0.56688000  1.0
  C  C88  1  0.72931000  0.94746000  0.51613000  1.0
  C  C89  1  0.72931000  0.55254000  0.98387000  1.0
  C  C90  1  0.77069000  0.05254000  0.01613000  1.0
  C  C91  1  0.77069000  0.44746000  0.48387000  1.0
  C  C92  1  0.27069000  0.05254000  0.48387000  1.0
  C  C93  1  0.27069000  0.44746000  0.01613000  1.0
  C  C94  1  0.22931000  0.94746000  0.98387000  1.0
  C  C95  1  0.22931000  0.55254000  0.51613000  1.0
  C  C96  1  0.68506000  0.81382000  0.42771000  1.0
  C  C97  1  0.68506000  0.68618000  0.07229000  1.0
  C  C98  1  0.81494000  0.18618000  0.92771000  1.0
  C  C99  1  0.81494000  0.31382000  0.57229000  1.0
  C  C100  1  0.31494000  0.18618000  0.57229000  1.0
  C  C101  1  0.31494000  0.31382000  0.92771000  1.0
  C  C102  1  0.18506000  0.81382000  0.07229000  1.0
  C  C103  1  0.18506000  0.68618000  0.42771000  1.0
  C  C104  1  0.83213000  0.93184000  0.47414000  1.0
  C  C105  1  0.83213000  0.56817000  0.02586000  1.0
  C  C106  1  0.66787000  0.06817000  0.97414000  1.0
  C  C107  1  0.66787000  0.43183000  0.52586000  1.0
  C  C108  1  0.16787000  0.06816000  0.52586000  1.0
  C  C109  1  0.16787000  0.43183000  0.97414000  1.0
  C  C110  1  0.33213000  0.93183000  0.02586000  1.0
  C  C111  1  0.33213000  0.56817000  0.47414000  1.0
  C  C112  1  0.57977000  0.83124000  0.46936000  1.0
  C  C113  1  0.57977000  0.66876000  0.03065000  1.0
  C  C114  1  0.92023000  0.16876000  0.96936000  1.0
  C  C115  1  0.92023000  0.33124000  0.53064000  1.0
  C  C116  1  0.42022000  0.16876000  0.53064000  1.0
  C  C117  1  0.42023000  0.33124000  0.96935000  1.0
  C  C118  1  0.07977000  0.83124000  0.03065000  1.0
  C  C119  1  0.07977000  0.66876000  0.46935000  1.0
  C  C120  1  0.99351000  0.11476000  0.76333000  1.0
  C  C121  1  0.99351000  0.38524000  0.73667000  1.0
  C  C122  1  0.50649000  0.88524000  0.26333000  1.0
  C  C123  1  0.50649000  0.61476000  0.23667000  1.0
  C  C124  1  0.00649000  0.88524000  0.23667000  1.0
  C  C125  1  0.00649000  0.61476000  0.26333000  1.0
  C  C126  1  0.49351000  0.11476000  0.73667000  1.0
  C  C127  1  0.49351000  0.38524000  0.76333000  1.0
  C  C128  1  0.82388000  0.02217000  0.74191000  1.0
  C  C129  1  0.82388000  0.47783000  0.75809000  1.0
  C  C130  1  0.67612000  0.97783000  0.24191000  1.0
  C  C131  1  0.67612000  0.52217000  0.25809000  1.0
  C  C132  1  0.17612000  0.97783000  0.25809000  1.0
  C  C133  1  0.17612000  0.52217000  0.24191000  1.0
  C  C134  1  0.32388000  0.02217000  0.75809000  1.0
  C  C135  1  0.32388000  0.47783000  0.74191000  1.0
  C  C136  1  0.86294000  0.00376000  0.80035000  1.0
  C  C137  1  0.86294000  0.49624000  0.69965000  1.0
  C  C138  1  0.63706000  0.99624000  0.30035000  1.0
  C  C139  1  0.63706000  0.50376000  0.19965000  1.0
  C  C140  1  0.13706000  0.99624000  0.19965000  1.0
  C  C141  1  0.13706000  0.50376000  0.30035000  1.0
  C  C142  1  0.36294000  0.00376000  0.69965000  1.0
  C  C143  1  0.36294000  0.49624000  0.80035000  1.0
  N  N144  1  0.90642000  0.09181000  0.71928000  1.0
  N  N145  1  0.90642000  0.40819000  0.78072000  1.0
  N  N146  1  0.59358000  0.90819000  0.21928000  1.0
  N  N147  1  0.59358000  0.59181000  0.28072000  1.0
  N  N148  1  0.09358000  0.90819000  0.28072000  1.0
  N  N149  1  0.09358000  0.59181000  0.21928000  1.0
  N  N150  1  0.40642000  0.09181000  0.78072000  1.0
  N  N151  1  0.40642000  0.40819000  0.71928000  1.0
  N  N152  1  0.88792000  0.83079000  0.38370000  1.0
  N  N153  1  0.88792000  0.66921000  0.11630000  1.0
  N  N154  1  0.61208000  0.16921000  0.88370000  1.0
  N  N155  1  0.61208000  0.33079000  0.61630000  1.0
  N  N156  1  0.11208000  0.16921000  0.61630000  1.0
  N  N157  1  0.11208000  0.33079000  0.88370000  1.0
  N  N158  1  0.38792000  0.83079000  0.11630000  1.0
  N  N159  1  0.38792000  0.66921000  0.38370000  1.0
  N  N160  1  0.82004000  0.76399000  0.35503000  1.0
  N  N161  1  0.82004000  0.73601000  0.14498000  1.0
  N  N162  1  0.67996000  0.23601000  0.85502000  1.0
  N  N163  1  0.67996000  0.26399000  0.64498000  1.0
  N  N164  1  0.17996000  0.23601000  0.64497000  1.0
  N  N165  1  0.17996000  0.26399000  0.85502000  1.0
  N  N166  1  0.32004000  0.76399000  0.14498000  1.0
  N  N167  1  0.32004000  0.73601000  0.35502000  1.0
  N  N168  1  0.69791000  0.75257000  0.38056000  1.0
  N  N169  1  0.69791000  0.74743000  0.11944000  1.0
  N  N170  1  0.80209000  0.24743000  0.88056000  1.0
  N  N171  1  0.80209000  0.25257000  0.61944000  1.0
  N  N172  1  0.30209000  0.24743000  0.61943000  1.0
  N  N173  1  0.30209000  0.25257000  0.88056000  1.0
  N  N174  1  0.19791000  0.75257000  0.11944000  1.0
  N  N175  1  0.19791000  0.74743000  0.38056000  1.0
  N  N176  1  0.96917000  0.06297000  0.81278000  1.0
  N  N177  1  0.96917000  0.43703000  0.68722000  1.0
  N  N178  1  0.53083000  0.93703000  0.31278000  1.0
  N  N179  1  0.53083000  0.56297000  0.18722000  1.0
  N  N180  1  0.03083000  0.93703000  0.18722000  1.0
  N  N181  1  0.03083000  0.56297000  0.31278000  1.0
  N  N182  1  0.46917000  0.06297000  0.68722000  1.0
  N  N183  1  0.46917000  0.43703000  0.81278000  1.0
  O  O184  1  0.87344000  0.04941000  0.57068000  1.0
  O  O185  1  0.87344000  0.45059000  0.92932000  1.0
  O  O186  1  0.62656000  0.95059000  0.07068000  1.0
  O  O187  1  0.62656000  0.54941000  0.42932000  1.0
  O  O188  1  0.12656000  0.95059000  0.42932000  1.0
  O  O189  1  0.12656000  0.54941000  0.07068000  1.0
  O  O190  1  0.37344000  0.04941000  0.92932000  1.0
  O  O191  1  0.37344000  0.45059000  0.57068000  1.0
  O  O192  1  0.65785000  0.03323000  0.60311000  1.0
  O  O193  1  0.65784000  0.46678000  0.89689000  1.0
  O  O194  1  0.84215000  0.96678000  0.10311000  1.0
  O  O195  1  0.84215000  0.53322000  0.39689000  1.0
  O  O196  1  0.34215000  0.96678000  0.39689000  1.0
  O  O197  1  0.34215000  0.53322000  0.10311000  1.0
  O  O198  1  0.15785000  0.03322000  0.89689000  1.0
  O  O199  1  0.15785000  0.46678000  0.60311000  1.0
