# generated using pymatgen
data_Er2CuH12C15(N3O8)2
_symmetry_space_group_name_H-M   'P 1'
_cell_length_a   7.16502000
_cell_length_b   11.30290000
_cell_length_c   15.33180000
_cell_angle_alpha   82.07060000
_cell_angle_beta   77.32790000
_cell_angle_gamma   82.82580000
_symmetry_Int_Tables_number   1
_chemical_formula_structural   Er2CuH12C15(N3O8)2
_chemical_formula_sum   'Er4 Cu2 H24 C30 N12 O32'
_cell_volume   1194.05991463
_cell_formula_units_Z   2
loop_
 _symmetry_equiv_pos_site_id
 _symmetry_equiv_pos_as_xyz
  1  'x, y, z'
loop_
 _atom_site_type_symbol
 _atom_site_label
 _atom_site_symmetry_multiplicity
 _atom_site_fract_x
 _atom_site_fract_y
 _atom_site_fract_z
 _atom_site_occupancy
  Er  Er0  1  0.50763000  0.66933000  0.35216000  1.0
  Er  Er1  1  0.49235000  0.33068000  0.64784000  1.0
  Er  Er2  1  0.48738000  0.77464000  0.75707000  1.0
  Er  Er3  1  0.51263000  0.22536000  0.24292000  1.0
  Cu  Cu4  1  0.19410000  0.81174000  0.04598000  1.0
  Cu  Cu5  1  0.80592000  0.18826000  0.95403000  1.0
  H  H6  1  0.22364000  0.38318000  0.99375000  1.0
  H  H7  1  0.77637000  0.61681000  0.00625000  1.0
  H  H8  1  0.37333000  0.21246000  0.89198000  1.0
  H  H9  1  0.62666000  0.78753000  0.10803000  1.0
  H  H10  1  0.95970000  0.68409000  0.42948000  1.0
  H  H11  1  0.04029000  0.31592000  0.57052000  1.0
  H  H12  1  0.98728000  0.61097000  0.70404000  1.0
  H  H13  1  0.01272000  0.38904000  0.29595000  1.0
  H  H14  1  0.11796000  0.85601000  0.70467000  1.0
  H  H15  1  0.88203000  0.14399000  0.29534000  1.0
  H  H16  1  0.06054000  0.84802000  0.81407000  1.0
  H  H17  1  0.93945000  0.15197000  0.18594000  1.0
  H  H18  1  0.80099000  0.63474000  0.83630000  1.0
  H  H19  1  0.19902000  0.36526000  0.16370000  1.0
  H  H20  1  0.77564000  0.76515000  0.87147000  1.0
  H  H21  1  0.22436000  0.23485000  0.12853000  1.0
  H  H22  1  0.18960000  0.66868000  0.25121000  1.0
  H  H23  1  0.81040000  0.33133000  0.74879000  1.0
  H  H24  1  0.19465000  0.55168000  0.31785000  1.0
  H  H25  1  0.80534000  0.44832000  0.68214000  1.0
  H  H26  1  0.83650000  0.83176000  0.30635000  1.0
  H  H27  1  0.16349000  0.16824000  0.69365000  1.0
  H  H28  1  0.89145000  0.73669000  0.23586000  1.0
  H  H29  1  0.10853000  0.26331000  0.76414000  1.0
  C  C30  1  0.39144000  0.49651000  0.80238000  1.0
  C  C31  1  0.60857000  0.50348000  0.19761000  1.0
  C  C32  1  0.31901000  0.53687000  0.89188000  1.0
  C  C33  1  0.68101000  0.46313000  0.10812000  1.0
  C  C34  1  0.24548000  0.47733000  0.97653000  1.0
  C  C35  1  0.75453000  0.52266000  0.02348000  1.0
  C  C36  1  0.20431000  0.56887000  0.03275000  1.0
  C  C37  1  0.79570000  0.43114000  0.96725000  1.0
  C  C38  1  0.12061000  0.57988000  0.12765000  1.0
  C  C39  1  0.87941000  0.42010000  0.87234000  1.0
  C  C40  1  0.57016000  0.05071000  0.74391000  1.0
  C  C41  1  0.42984000  0.94931000  0.25609000  1.0
  C  C42  1  0.45361000  0.03602000  0.83669000  1.0
  C  C43  1  0.54638000  0.96399000  0.16331000  1.0
  C  C44  1  0.36964000  0.11577000  0.90035000  1.0
  C  C45  1  0.63035000  0.88423000  0.09966000  1.0
  C  C46  1  0.27785000  0.04126000  0.97387000  1.0
  C  C47  1  0.72216000  0.95873000  0.02614000  1.0
  C  C48  1  0.15535000  0.05250000  0.06367000  1.0
  C  C49  1  0.84465000  0.94750000  0.93633000  1.0
  C  C50  1  0.56288000  0.77186000  0.54133000  1.0
  C  C51  1  0.43713000  0.22815000  0.45866000  1.0
  C  C52  1  0.75762000  0.72684000  0.55815000  1.0
  C  C53  1  0.24238000  0.27318000  0.44185000  1.0
  C  C54  1  0.92793000  0.68328000  0.50192000  1.0
  C  C55  1  0.07207000  0.31672000  0.49807000  1.0
  C  C56  1  0.04633000  0.63079000  0.56048000  1.0
  C  C57  1  0.95367000  0.36921000  0.43951000  1.0
  C  C58  1  0.22971000  0.55227000  0.54525000  1.0
  C  C59  1  0.77028000  0.44772000  0.45475000  1.0
  N  N60  1  0.32209000  0.65625000  0.89736000  1.0
  N  N61  1  0.67792000  0.34374000  0.10264000  1.0
  N  N62  1  0.25296000  0.67370000  0.98232000  1.0
  N  N63  1  0.74706000  0.32629000  0.01768000  1.0
  N  N64  1  0.41275000  0.92153000  0.87007000  1.0
  N  N65  1  0.58725000  0.07847000  0.12993000  1.0
  N  N66  1  0.30830000  0.92652000  0.95235000  1.0
  N  N67  1  0.69171000  0.07348000  0.04765000  1.0
  N  N68  1  0.77381000  0.70642000  0.64517000  1.0
  N  N69  1  0.22619000  0.29359000  0.35483000  1.0
  N  N70  1  0.94752000  0.64778000  0.64519000  1.0
  N  N71  1  0.05248000  0.35222000  0.35482000  1.0
  O  O72  1  0.46654000  0.57424000  0.73979000  1.0
  O  O73  1  0.53347000  0.42575000  0.26021000  1.0
  O  O74  1  0.37905000  0.38873000  0.79066000  1.0
  O  O75  1  0.62096000  0.61127000  0.20934000  1.0
  O  O76  1  0.07802000  0.49132000  0.18441000  1.0
  O  O77  1  0.92199000  0.50867000  0.81559000  1.0
  O  O78  1  0.09640000  0.69014000  0.15003000  1.0
  O  O79  1  0.90363000  0.30985000  0.84997000  1.0
  O  O80  1  0.61906000  0.95525000  0.70530000  1.0
  O  O81  1  0.38094000  0.04476000  0.29469000  1.0
  O  O82  1  0.61420000  0.15465000  0.70819000  1.0
  O  O83  1  0.38580000  0.84536000  0.29181000  1.0
  O  O84  1  0.09594000  0.15439000  0.09089000  1.0
  O  O85  1  0.90405000  0.84561000  0.90911000  1.0
  O  O86  1  0.10638000  0.95346000  0.11120000  1.0
  O  O87  1  0.89363000  0.04654000  0.88880000  1.0
  O  O88  1  0.43604000  0.80063000  0.60910000  1.0
  O  O89  1  0.56394000  0.19939000  0.39091000  1.0
  O  O90  1  0.53308000  0.77303000  0.46248000  1.0
  O  O91  1  0.46692000  0.22698000  0.53753000  1.0
  O  O92  1  0.33213000  0.55982000  0.46645000  1.0
  O  O93  1  0.66784000  0.44018000  0.53355000  1.0
  O  O94  1  0.26290000  0.47921000  0.61202000  1.0
  O  O95  1  0.73707000  0.52078000  0.38798000  1.0
  O  O96  1  0.16733000  0.83670000  0.75962000  1.0
  O  O97  1  0.83266000  0.16328000  0.24038000  1.0
  O  O98  1  0.72026000  0.71384000  0.83772000  1.0
  O  O99  1  0.27975000  0.28616000  0.16228000  1.0
  O  O100  1  0.22264000  0.63515000  0.30965000  1.0
  O  O101  1  0.77736000  0.36486000  0.69035000  1.0
  O  O102  1  0.79593000  0.76123000  0.28899000  1.0
  O  O103  1  0.20404000  0.23877000  0.71101000  1.0
