# generated using pymatgen
data_Mo3H7C8(NO3)3
_symmetry_space_group_name_H-M   'P 1'
_cell_length_a   3.68602000
_cell_length_b   13.24850000
_cell_length_c   15.45917460
_cell_angle_alpha   111.64083427
_cell_angle_beta   96.83560950
_cell_angle_gamma   90.01650000
_symmetry_Int_Tables_number   1
_chemical_formula_structural   Mo3H7C8(NO3)3
_chemical_formula_sum   'Mo6 H14 C16 N6 O18'
_cell_volume   695.93753716
_cell_formula_units_Z   2
loop_
 _symmetry_equiv_pos_site_id
 _symmetry_equiv_pos_as_xyz
  1  'x, y, z'
loop_
 _atom_site_type_symbol
 _atom_site_label
 _atom_site_symmetry_multiplicity
 _atom_site_fract_x
 _atom_site_fract_y
 _atom_site_fract_z
 _atom_site_occupancy
  Mo  Mo0  1  0.59868000  0.65973000  0.19429000  1.0
  Mo  Mo1  1  0.40132000  0.34027000  0.80571000  1.0
  Mo  Mo2  1  0.72072000  0.63453000  0.44268000  1.0
  Mo  Mo3  1  0.27928000  0.36548000  0.55732000  1.0
  Mo  Mo4  1  0.84725000  0.60194000  0.69327000  1.0
  Mo  Mo5  1  0.15275000  0.39806000  0.30673000  1.0
  H  H6  1  0.47624000  0.60265000  0.95201000  1.0
  H  H7  1  0.52376000  0.39735000  0.04799000  1.0
  H  H8  1  0.70059000  0.86409000  0.39958000  1.0
  H  H9  1  0.29942000  0.13591000  0.60042000  1.0
  H  H10  1  0.73430000  0.06811000  0.46833000  1.0
  H  H11  1  0.26569000  0.93189000  0.53167000  1.0
  H  H12  1  0.67936000  0.16979000  0.35898000  1.0
  H  H13  1  0.32064000  0.83021000  0.64102000  1.0
  H  H14  1  0.59328000  0.06526000  0.18709000  1.0
  H  H15  1  0.40672000  0.93474000  0.81291000  1.0
  H  H16  1  0.50453000  0.94310000  0.01641000  1.0
  H  H17  1  0.49548000  0.05690000  0.98359000  1.0
  H  H18  1  0.43368000  0.74192000  0.87263000  1.0
  H  H19  1  0.56633000  0.25809000  0.12737000  1.0
  C  C20  1  0.67803000  0.91178000  0.35496000  1.0
  C  C21  1  0.32197000  0.08821000  0.64504000  1.0
  C  C22  1  0.69663000  0.02491000  0.39271000  1.0
  C  C23  1  0.30337000  0.97508000  0.60729000  1.0
  C  C24  1  0.66613000  0.08143000  0.33209000  1.0
  C  C25  1  0.33386000  0.91857000  0.66791000  1.0
  C  C26  1  0.61794000  0.02300000  0.23586000  1.0
  C  C27  1  0.38206000  0.97700000  0.76414000  1.0
  C  C28  1  0.60138000  0.90937000  0.20268000  1.0
  C  C29  1  0.39862000  0.09063000  0.79732000  1.0
  C  C30  1  0.55127000  0.84076000  0.10352000  1.0
  C  C31  1  0.44874000  0.15924000  0.89648000  1.0
  C  C32  1  0.50847000  0.86401000  0.02131000  1.0
  C  C33  1  0.49154000  0.13600000  0.97869000  1.0
  C  C34  1  0.47208000  0.76354000  0.94789000  1.0
  C  C35  1  0.52792000  0.23646000  0.05211000  1.0
  N  N36  1  0.63155000  0.85509000  0.26208000  1.0
  N  N37  1  0.36845000  0.14491000  0.73792000  1.0
  N  N38  1  0.54075000  0.73206000  0.08029000  1.0
  N  N39  1  0.45925000  0.26794000  0.91971000  1.0
  N  N40  1  0.49297000  0.68690000  0.98634000  1.0
  N  N41  1  0.50704000  0.31311000  0.01366000  1.0
  O  O42  1  0.67231000  0.43848000  0.34566000  1.0
  O  O43  1  0.32768000  0.56151000  0.65434000  1.0
  O  O44  1  0.20276000  0.59218000  0.40661000  1.0
  O  O45  1  0.79725000  0.40782000  0.59339000  1.0
  O  O46  1  0.65167000  0.64170000  0.30326000  1.0
  O  O47  1  0.34833000  0.35830000  0.69674000  1.0
  O  O48  1  0.77113000  0.60217000  0.54279000  1.0
  O  O49  1  0.22887000  0.39783000  0.45721000  1.0
  O  O50  1  0.55406000  0.53290000  0.10733000  1.0
  O  O51  1  0.44594000  0.46710000  0.89267000  1.0
  O  O52  1  0.89749000  0.57546000  0.79389000  1.0
  O  O53  1  0.10251000  0.42453000  0.20611000  1.0
  O  O54  1  0.09841000  0.69279000  0.19566000  1.0
  O  O55  1  0.90159000  0.30721000  0.80434000  1.0
  O  O56  1  0.74423000  0.77275000  0.49033000  1.0
  O  O57  1  0.25577000  0.22725000  0.50967000  1.0
  O  O58  1  0.86837000  0.74097000  0.73465000  1.0
  O  O59  1  0.13163000  0.25903000  0.26535000  1.0
