# generated using pymatgen
data_ZnH8C6N2O7
_symmetry_space_group_name_H-M   'P 1'
_cell_length_a   5.33458000
_cell_length_b   10.78930000
_cell_length_c   15.51020000
_cell_angle_alpha   90.00000000
_cell_angle_beta   89.99990000
_cell_angle_gamma   93.78020000
_symmetry_Int_Tables_number   1
_chemical_formula_structural   ZnH8C6N2O7
_chemical_formula_sum   'Zn4 H32 C24 N8 O28'
_cell_volume   890.76876575
_cell_formula_units_Z   4
loop_
 _symmetry_equiv_pos_site_id
 _symmetry_equiv_pos_as_xyz
  1  'x, y, z'
loop_
 _atom_site_type_symbol
 _atom_site_label
 _atom_site_symmetry_multiplicity
 _atom_site_fract_x
 _atom_site_fract_y
 _atom_site_fract_z
 _atom_site_occupancy
  Zn  Zn0  1  0.54728000  0.30473000  0.36306000  1.0
  Zn  Zn1  1  0.95272000  0.19527000  0.86307000  1.0
  Zn  Zn2  1  0.45273000  0.69526000  0.63694000  1.0
  Zn  Zn3  1  0.04727000  0.80474000  0.13694000  1.0
  H  H4  1  0.35648000  0.04427000  0.75457000  1.0
  H  H5  1  0.14352000  0.45573000  0.25457000  1.0
  H  H6  1  0.64351000  0.95573000  0.24544000  1.0
  H  H7  1  0.85648000  0.54427000  0.74544000  1.0
  H  H8  1  0.41367000  0.00386000  0.59532000  1.0
  H  H9  1  0.08633000  0.49614000  0.09532000  1.0
  H  H10  1  0.58634000  0.99613000  0.40469000  1.0
  H  H11  1  0.91367000  0.50387000  0.90468000  1.0
  H  H12  1  0.21255000  0.13838000  0.43719000  1.0
  H  H13  1  0.28745000  0.36162000  0.93720000  1.0
  H  H14  1  0.78745000  0.86162000  0.56281000  1.0
  H  H15  1  0.71254000  0.63838000  0.06281000  1.0
  H  H16  1  0.09041000  0.17178000  0.34617000  1.0
  H  H17  1  0.40959000  0.32822000  0.84617000  1.0
  H  H18  1  0.90959000  0.82822000  0.65383000  1.0
  H  H19  1  0.59040000  0.67179000  0.15384000  1.0
  H  H20  1  0.19912000  0.41389000  0.45847000  1.0
  H  H21  1  0.30089000  0.08611000  0.95847000  1.0
  H  H22  1  0.80087000  0.58610000  0.54152000  1.0
  H  H23  1  0.69912000  0.91389000  0.04152000  1.0
  H  H24  1  0.36564000  0.52059000  0.40855000  1.0
  H  H25  1  0.13437000  0.97940000  0.90855000  1.0
  H  H26  1  0.63436000  0.47940000  0.59145000  1.0
  H  H27  1  0.86564000  0.02060000  0.09145000  1.0
  H  H28  1  0.88573000  0.52081000  0.39373000  1.0
  H  H29  1  0.61426000  0.97918000  0.89373000  1.0
  H  H30  1  0.11427000  0.47919000  0.60627000  1.0
  H  H31  1  0.38573000  0.02081000  0.10627000  1.0
  H  H32  1  0.69226000  0.55899000  0.32548000  1.0
  H  H33  1  0.80774000  0.94101000  0.82548000  1.0
  H  H34  1  0.30774000  0.44101000  0.67452000  1.0
  H  H35  1  0.19226000  0.05899000  0.17452000  1.0
  C  C36  1  0.96224000  0.19532000  0.58682000  1.0
  C  C37  1  0.53778000  0.30469000  0.08682000  1.0
  C  C38  1  0.03777000  0.80468000  0.41318000  1.0
  C  C39  1  0.46223000  0.69532000  0.91318000  1.0
  C  C40  1  0.91539000  0.21064000  0.67496000  1.0
  C  C41  1  0.58461000  0.28937000  0.17496000  1.0
  C  C42  1  0.08461000  0.78936000  0.32504000  1.0
  C  C43  1  0.41538000  0.71063000  0.82504000  1.0
  C  C44  1  0.23726000  0.08434000  0.70612000  1.0
  C  C45  1  0.26275000  0.41566000  0.20612000  1.0
  C  C46  1  0.76274000  0.91565000  0.29388000  1.0
  C  C47  1  0.73726000  0.58435000  0.79388000  1.0
  C  C48  1  0.27342000  0.06535000  0.61782000  1.0
  C  C49  1  0.22658000  0.43465000  0.11782000  1.0
  C  C50  1  0.72659000  0.93464000  0.38218000  1.0
  C  C51  1  0.77342000  0.56536000  0.88218000  1.0
  C  C52  1  0.84412000  0.26948000  0.51741000  1.0
  C  C53  1  0.65589000  0.23053000  0.01741000  1.0
  C  C54  1  0.15590000  0.73051000  0.48259000  1.0
  C  C55  1  0.34409000  0.76948000  0.98259000  1.0
  C  C56  1  0.70740000  0.28567000  0.70980000  1.0
  C  C57  1  0.79259000  0.21433000  0.20980000  1.0
  C  C58  1  0.29261000  0.71433000  0.29019000  1.0
  C  C59  1  0.20739000  0.78566000  0.79020000  1.0
  N  N60  1  0.13853000  0.12130000  0.55844000  1.0
  N  N61  1  0.36147000  0.37870000  0.05844000  1.0
  N  N62  1  0.86148000  0.87869000  0.44156000  1.0
  N  N63  1  0.63852000  0.62131000  0.94156000  1.0
  N  N64  1  0.05752000  0.15572000  0.73329000  1.0
  N  N65  1  0.44248000  0.34428000  0.23329000  1.0
  N  N66  1  0.94247000  0.84428000  0.26671000  1.0
  N  N67  1  0.55752000  0.65572000  0.76671000  1.0
  O  O68  1  0.67996000  0.21474000  0.46955000  1.0
  O  O69  1  0.82004000  0.28527000  0.96955000  1.0
  O  O70  1  0.32005000  0.78525000  0.53045000  1.0
  O  O71  1  0.17995000  0.71474000  0.03045000  1.0
  O  O72  1  0.93824000  0.37938000  0.50955000  1.0
  O  O73  1  0.56178000  0.12063000  0.00956000  1.0
  O  O74  1  0.06177000  0.62061000  0.49045000  1.0
  O  O75  1  0.43822000  0.87938000  0.99045000  1.0
  O  O76  1  0.57043000  0.33877000  0.65712000  1.0
  O  O77  1  0.92958000  0.16124000  0.15712000  1.0
  O  O78  1  0.42957000  0.66123000  0.34288000  1.0
  O  O79  1  0.07042000  0.83877000  0.84288000  1.0
  O  O80  1  0.68298000  0.28688000  0.79187000  1.0
  O  O81  1  0.81703000  0.21312000  0.29187000  1.0
  O  O82  1  0.31701000  0.71313000  0.20812000  1.0
  O  O83  1  0.18296000  0.78688000  0.70813000  1.0
  O  O84  1  0.25136000  0.15688000  0.37553000  1.0
  O  O85  1  0.24864000  0.34312000  0.87553000  1.0
  O  O86  1  0.74864000  0.84311000  0.62447000  1.0
  O  O87  1  0.75135000  0.65689000  0.12447000  1.0
  O  O88  1  0.35534000  0.43232000  0.42455000  1.0
  O  O89  1  0.14467000  0.06768000  0.92455000  1.0
  O  O90  1  0.64465000  0.56768000  0.57545000  1.0
  O  O91  1  0.85535000  0.93232000  0.07544000  1.0
  O  O92  1  0.81392000  0.49576000  0.33742000  1.0
  O  O93  1  0.68607000  0.00423000  0.83742000  1.0
  O  O94  1  0.18607000  0.50423000  0.66257000  1.0
  O  O95  1  0.31392000  0.99577000  0.16258000  1.0
