# generated using pymatgen
data_TbH19C27O8
_symmetry_space_group_name_H-M   'P 1'
_cell_length_a   13.50030000
_cell_length_b   13.78570000
_cell_length_c   22.13994718
_cell_angle_alpha   78.00164555
_cell_angle_beta   72.25697817
_cell_angle_gamma   90.01390000
_symmetry_Int_Tables_number   1
_chemical_formula_structural   TbH19C27O8
_chemical_formula_sum   'Tb4 H76 C108 O32'
_cell_volume   3829.79966483
_cell_formula_units_Z   4
loop_
 _symmetry_equiv_pos_site_id
 _symmetry_equiv_pos_as_xyz
  1  'x, y, z'
loop_
 _atom_site_type_symbol
 _atom_site_label
 _atom_site_symmetry_multiplicity
 _atom_site_fract_x
 _atom_site_fract_y
 _atom_site_fract_z
 _atom_site_occupancy
  Tb  Tb0  1  0.58887000  0.04702000  0.40995000  1.0
  Tb  Tb1  1  0.99879000  0.45302000  0.59009000  1.0
  Tb  Tb2  1  0.41112000  0.95298000  0.59006000  1.0
  Tb  Tb3  1  0.00120000  0.54699000  0.40990000  1.0
  H  H4  1  0.64417000  0.91959000  0.63344000  1.0
  H  H5  1  0.27784000  0.58026000  0.36642000  1.0
  H  H6  1  0.35584000  0.08040000  0.36656000  1.0
  H  H7  1  0.72218000  0.41973000  0.63357000  1.0
  H  H8  1  0.86178000  0.69440000  0.65425000  1.0
  H  H9  1  0.51599000  0.80572000  0.34579000  1.0
  H  H10  1  0.13823000  0.30560000  0.34575000  1.0
  H  H11  1  0.48399000  0.19430000  0.65421000  1.0
  H  H12  1  0.82132000  0.80740000  0.46799000  1.0
  H  H13  1  0.28940000  0.69240000  0.53201000  1.0
  H  H14  1  0.17867000  0.19262000  0.53202000  1.0
  H  H15  1  0.71058000  0.30761000  0.46799000  1.0
  H  H16  1  0.56739000  0.84787000  0.73790000  1.0
  H  H17  1  0.30569000  0.65162000  0.26204000  1.0
  H  H18  1  0.43261000  0.15212000  0.26210000  1.0
  H  H19  1  0.69431000  0.34839000  0.73795000  1.0
  H  H20  1  0.53754000  0.87007000  0.84813000  1.0
  H  H21  1  0.38620000  0.62928000  0.15191000  1.0
  H  H22  1  0.46247000  0.12993000  0.15187000  1.0
  H  H23  1  0.61382000  0.37071000  0.84808000  1.0
  H  H24  1  0.85433000  0.80154000  0.83502000  1.0
  H  H25  1  0.68977000  0.69858000  0.16505000  1.0
  H  H26  1  0.14568000  0.19846000  0.16498000  1.0
  H  H27  1  0.31023000  0.30140000  0.83496000  1.0
  H  H28  1  0.88449000  0.78120000  0.72432000  1.0
  H  H29  1  0.60900000  0.71899000  0.27576000  1.0
  H  H30  1  0.11551000  0.21878000  0.27569000  1.0
  H  H31  1  0.39101000  0.28100000  0.72423000  1.0
  H  H32  1  0.50957000  0.86162000  0.94358000  1.0
  H  H33  1  0.45384000  0.63778000  0.05650000  1.0
  H  H34  1  0.49044000  0.13839000  0.05642000  1.0
  H  H35  1  0.54616000  0.36219000  0.94350000  1.0
  H  H36  1  0.48661000  0.90348000  0.04786000  1.0
  H  H37  1  0.53528000  0.59582000  0.95229000  1.0
  H  H38  1  0.51340000  0.09650000  0.95215000  1.0
  H  H39  1  0.46472000  0.40417000  0.04772000  1.0
  H  H40  1  0.81925000  0.90595000  0.01255000  1.0
  H  H41  1  0.83243000  0.59355000  0.98779000  1.0
  H  H42  1  0.18075000  0.09405000  0.98746000  1.0
  H  H43  1  0.16757000  0.40648000  0.01219000  1.0
  H  H44  1  0.84243000  0.87033000  0.90697000  1.0
  H  H45  1  0.74992000  0.62925000  0.09334000  1.0
  H  H46  1  0.15758000  0.12969000  0.09302000  1.0
  H  H47  1  0.25010000  0.37076000  0.90664000  1.0
  H  H48  1  0.46892000  0.90874000  0.14004000  1.0
  H  H49  1  0.60980000  0.59149000  0.86022000  1.0
  H  H50  1  0.53107000  0.09131000  0.85996000  1.0
  H  H51  1  0.39018000  0.40854000  0.13978000  1.0
  H  H52  1  0.45023000  0.95440000  0.24447000  1.0
  H  H53  1  0.69526000  0.54575000  0.75569000  1.0
  H  H54  1  0.54978000  0.04564000  0.75552000  1.0
  H  H55  1  0.30473000  0.45428000  0.24431000  1.0
  H  H56  1  0.78246000  0.00191000  0.19328000  1.0
  H  H57  1  0.97608000  0.49721000  0.80698000  1.0
  H  H58  1  0.21757000  0.99802000  0.80674000  1.0
  H  H59  1  0.02388000  0.50277000  0.19302000  1.0
  H  H60  1  0.80305000  0.96273000  0.08683000  1.0
  H  H61  1  0.89072000  0.53634000  0.91337000  1.0
  H  H62  1  0.19697000  0.03718000  0.91320000  1.0
  H  H63  1  0.10927000  0.46364000  0.08662000  1.0
  H  H64  1  0.77549000  0.11937000  0.31863000  1.0
  H  H65  1  0.09434000  0.38019000  0.68126000  1.0
  H  H66  1  0.22449000  0.88061000  0.68138000  1.0
  H  H67  1  0.90566000  0.61980000  0.31874000  1.0
  H  H68  1  0.80331000  0.11117000  0.38240000  1.0
  H  H69  1  0.18572000  0.38860000  0.61737000  1.0
  H  H70  1  0.19667000  0.88882000  0.61761000  1.0
  H  H71  1  0.81429000  0.61141000  0.38262000  1.0
  H  H72  1  0.47948000  0.21897000  0.35870000  1.0
  H  H73  1  0.83779000  0.28118000  0.64126000  1.0
  H  H74  1  0.52054000  0.78104000  0.64129000  1.0
  H  H75  1  0.16220000  0.71885000  0.35873000  1.0
  H  H76  1  0.56273000  0.24993000  0.38875000  1.0
  H  H77  1  0.95099000  0.25017000  0.61121000  1.0
  H  H78  1  0.43728000  0.75008000  0.61125000  1.0
  H  H79  1  0.04900000  0.74985000  0.38880000  1.0
  C  C80  1  0.67746000  0.93602000  0.50485000  1.0
  C  C81  1  0.18244000  0.56379000  0.49511000  1.0
  C  C82  1  0.32254000  0.06399000  0.49515000  1.0
  C  C83  1  0.81755000  0.43623000  0.50488000  1.0
  C  C84  1  0.72680000  0.86869000  0.54720000  1.0
  C  C85  1  0.27421000  0.63100000  0.45277000  1.0
  C  C86  1  0.27320000  0.13131000  0.45280000  1.0
  C  C87  1  0.72573000  0.36902000  0.54724000  1.0
  C  C88  1  0.70038000  0.86853000  0.61353000  1.0
  C  C89  1  0.31410000  0.63129000  0.38641000  1.0
  C  C90  1  0.29962000  0.13147000  0.38647000  1.0
  C  C91  1  0.68588000  0.36873000  0.61360000  1.0
  C  C92  1  0.75024000  0.80780000  0.65320000  1.0
  C  C93  1  0.40366000  0.69206000  0.34680000  1.0
  C  C94  1  0.24976000  0.19221000  0.34680000  1.0
  C  C95  1  0.59635000  0.30794000  0.65320000  1.0
  C  C96  1  0.82367000  0.74490000  0.62495000  1.0
  C  C97  1  0.44865000  0.75507000  0.37507000  1.0
  C  C98  1  0.17634000  0.25509000  0.37505000  1.0
  C  C99  1  0.55134000  0.24493000  0.62494000  1.0
  C  C100  1  0.84867000  0.74381000  0.55893000  1.0
  C  C101  1  0.40764000  0.75610000  0.44109000  1.0
  C  C102  1  0.15130000  0.25619000  0.44107000  1.0
  C  C103  1  0.59235000  0.24390000  0.55892000  1.0
  C  C104  1  0.80140000  0.80701000  0.51954000  1.0
  C  C105  1  0.32108000  0.69275000  0.48046000  1.0
  C  C106  1  0.19858000  0.19300000  0.48047000  1.0
  C  C107  1  0.67888000  0.30728000  0.51954000  1.0
  C  C108  1  0.92409000  0.67256000  0.53118000  1.0
  C  C109  1  0.45512000  0.82742000  0.46883000  1.0
  C  C110  1  0.07593000  0.32744000  0.46880000  1.0
  C  C111  1  0.54485000  0.17258000  0.53118000  1.0
  C  C112  1  0.72885000  0.81372000  0.72183000  1.0
  C  C113  1  0.45099000  0.68612000  0.27818000  1.0
  C  C114  1  0.27116000  0.18629000  0.27817000  1.0
  C  C115  1  0.54902000  0.31388000  0.72182000  1.0
  C  C116  1  0.63084000  0.83683000  0.75897000  1.0
  C  C117  1  0.39021000  0.66283000  0.24101000  1.0
  C  C118  1  0.36917000  0.16318000  0.24102000  1.0
  C  C119  1  0.60980000  0.33716000  0.75899000  1.0
  C  C120  1  0.61390000  0.84939000  0.82198000  1.0
  C  C121  1  0.43639000  0.65020000  0.17805000  1.0
  C  C122  1  0.38610000  0.15061000  0.17802000  1.0
  C  C123  1  0.56362000  0.34980000  0.82195000  1.0
  C  C124  1  0.69388000  0.84038000  0.85093000  1.0
  C  C125  1  0.54532000  0.65923000  0.14920000  1.0
  C  C126  1  0.30612000  0.15961000  0.14907000  1.0
  C  C127  1  0.45468000  0.34077000  0.85080000  1.0
  C  C128  1  0.79062000  0.81311000  0.81431000  1.0
  C  C129  1  0.60537000  0.68682000  0.18577000  1.0
  C  C130  1  0.20939000  0.18688000  0.18569000  1.0
  C  C131  1  0.39464000  0.31317000  0.81423000  1.0
  C  C132  1  0.80779000  0.80026000  0.75144000  1.0
  C  C133  1  0.55952000  0.69981000  0.24859000  1.0
  C  C134  1  0.19222000  0.19974000  0.24856000  1.0
  C  C135  1  0.44047000  0.30019000  0.75141000  1.0
  C  C136  1  0.67816000  0.86212000  0.91570000  1.0
  C  C137  1  0.59442000  0.63741000  0.08450000  1.0
  C  C138  1  0.32186000  0.13788000  0.08430000  1.0
  C  C139  1  0.40559000  0.36258000  0.91550000  1.0
  C  C140  1  0.57864000  0.87230000  0.95776000  1.0
  C  C141  1  0.53707000  0.62708000  0.04241000  1.0
  C  C142  1  0.42137000  0.12769000  0.04224000  1.0
  C  C143  1  0.46292000  0.37291000  0.95760000  1.0
  C  C144  1  0.56540000  0.89537000  0.01784000  1.0
  C  C145  1  0.58399000  0.60403000  0.98235000  1.0
  C  C146  1  0.43460000  0.10463000  0.98217000  1.0
  C  C147  1  0.41603000  0.39597000  0.01765000  1.0
  C  C148  1  0.65072000  0.90865000  0.04000000  1.0
  C  C149  1  0.69147000  0.59087000  0.96022000  1.0
  C  C150  1  0.34931000  0.09134000  0.96000000  1.0
  C  C151  1  0.30853000  0.40913000  0.03977000  1.0
  C  C152  1  0.75008000  0.89771000  0.99803000  1.0
  C  C153  1  0.74872000  0.60181000  0.00227000  1.0
  C  C154  1  0.24993000  0.10229000  0.00197000  1.0
  C  C155  1  0.25128000  0.39820000  0.99772000  1.0
  C  C156  1  0.76342000  0.87589000  0.93777000  1.0
  C  C157  1  0.70173000  0.62362000  0.06252000  1.0
  C  C158  1  0.23659000  0.12411000  0.06224000  1.0
  C  C159  1  0.29829000  0.37638000  0.93747000  1.0
  C  C160  1  0.63762000  0.93325000  0.10379000  1.0
  C  C161  1  0.74224000  0.56639000  0.89644000  1.0
  C  C162  1  0.36238000  0.06674000  0.89622000  1.0
  C  C163  1  0.25775000  0.43361000  0.10355000  1.0
  C  C164  1  0.53865000  0.93118000  0.15004000  1.0
  C  C165  1  0.68942000  0.56881000  0.85019000  1.0
  C  C166  1  0.46135000  0.06884000  0.84996000  1.0
  C  C167  1  0.31056000  0.43121000  0.14980000  1.0
  C  C168  1  0.52742000  0.95589000  0.20946000  1.0
  C  C169  1  0.73741000  0.54413000  0.79073000  1.0
  C  C170  1  0.47259000  0.04412000  0.79054000  1.0
  C  C171  1  0.26257000  0.45589000  0.20926000  1.0
  C  C172  1  0.61506000  0.98260000  0.22532000  1.0
  C  C173  1  0.84081000  0.51714000  0.77488000  1.0
  C  C174  1  0.38497000  0.01737000  0.77469000  1.0
  C  C175  1  0.15919000  0.48288000  0.22511000  1.0
  C  C176  1  0.71424000  0.98255000  0.18056000  1.0
  C  C177  1  0.89526000  0.51689000  0.81964000  1.0
  C  C178  1  0.28578000  0.01737000  0.81946000  1.0
  C  C179  1  0.10472000  0.48312000  0.18035000  1.0
  C  C180  1  0.72493000  0.95943000  0.12091000  1.0
  C  C181  1  0.84656000  0.53995000  0.87932000  1.0
  C  C182  1  0.27509000  0.04052000  0.87910000  1.0
  C  C183  1  0.15344000  0.46005000  0.12067000  1.0
  C  C184  1  0.60478000  0.01184000  0.28772000  1.0
  C  C185  1  0.89277000  0.48798000  0.71242000  1.0
  C  C186  1  0.39524000  0.98814000  0.71229000  1.0
  C  C187  1  0.10722000  0.51203000  0.28756000  1.0
  O  O188  1  0.76212000  0.14825000  0.35715000  1.0
  O  O189  1  0.11924000  0.35156000  0.64263000  1.0
  O  O190  1  0.23786000  0.85174000  0.64286000  1.0
  O  O191  1  0.88076000  0.64845000  0.35736000  1.0
  O  O192  1  0.55247000  0.21447000  0.35684000  1.0
  O  O193  1  0.90893000  0.28570000  0.64310000  1.0
  O  O194  1  0.44753000  0.78553000  0.64317000  1.0
  O  O195  1  0.09105000  0.71432000  0.35690000  1.0
  O  O196  1  0.72659000  0.96701000  0.44490000  1.0
  O  O197  1  0.17147000  0.53293000  0.55510000  1.0
  O  O198  1  0.27339000  0.03301000  0.55511000  1.0
  O  O199  1  0.82853000  0.46706000  0.44489000  1.0
  O  O200  1  0.58476000  0.96179000  0.52922000  1.0
  O  O201  1  0.11402000  0.53813000  0.47074000  1.0
  O  O202  1  0.41524000  0.03819000  0.47079000  1.0
  O  O203  1  0.88596000  0.46186000  0.52926000  1.0
  O  O204  1  0.93929000  0.66946000  0.47169000  1.0
  O  O205  1  0.41083000  0.83057000  0.52831000  1.0
  O  O206  1  0.06072000  0.33056000  0.52829000  1.0
  O  O207  1  0.58911000  0.16942000  0.47171000  1.0
  O  O208  1  0.96690000  0.61906000  0.56876000  1.0
  O  O209  1  0.53549000  0.88098000  0.43122000  1.0
  O  O210  1  0.03312000  0.38095000  0.43121000  1.0
  O  O211  1  0.46448000  0.11903000  0.56881000  1.0
  O  O212  1  0.68696000  0.02046000  0.30470000  1.0
  O  O213  1  0.99186000  0.47911000  0.69543000  1.0
  O  O214  1  0.31306000  0.97949000  0.69531000  1.0
  O  O215  1  0.00812000  0.52088000  0.30456000  1.0
  O  O216  1  0.51573000  0.02767000  0.32447000  1.0
  O  O217  1  0.84035000  0.47261000  0.67563000  1.0
  O  O218  1  0.48429000  0.97234000  0.67553000  1.0
  O  O219  1  0.15964000  0.52742000  0.32435000  1.0
