# generated using pymatgen
data_TmH7C11N3O7
_symmetry_space_group_name_H-M   'P 1'
_cell_length_a   8.21100000
_cell_length_b   11.45730000
_cell_length_c   14.52420000
_cell_angle_alpha   89.99990000
_cell_angle_beta   90.00000000
_cell_angle_gamma   91.90140000
_symmetry_Int_Tables_number   1
_chemical_formula_structural   TmH7C11N3O7
_chemical_formula_sum   'Tm4 H28 C44 N12 O28'
_cell_volume   1365.62472622
_cell_formula_units_Z   4
loop_
 _symmetry_equiv_pos_site_id
 _symmetry_equiv_pos_as_xyz
  1  'x, y, z'
loop_
 _atom_site_type_symbol
 _atom_site_label
 _atom_site_symmetry_multiplicity
 _atom_site_fract_x
 _atom_site_fract_y
 _atom_site_fract_z
 _atom_site_occupancy
  Tm  Tm0  1  0.77386000  0.42829000  0.63093000  1.0
  Tm  Tm1  1  0.22613000  0.07171000  0.13093000  1.0
  Tm  Tm2  1  0.22613000  0.57171000  0.36907000  1.0
  Tm  Tm3  1  0.77387000  0.92829000  0.86907000  1.0
  H  H4  1  0.16697000  0.35344000  0.94448000  1.0
  H  H5  1  0.83304000  0.14656000  0.44448000  1.0
  H  H6  1  0.83304000  0.64656000  0.05553000  1.0
  H  H7  1  0.16697000  0.85344000  0.55552000  1.0
  H  H8  1  0.46904000  0.34582000  0.72803000  1.0
  H  H9  1  0.53096000  0.15418000  0.22803000  1.0
  H  H10  1  0.53096000  0.65417000  0.27197000  1.0
  H  H11  1  0.46904000  0.84582000  0.77197000  1.0
  H  H12  1  0.54661000  0.46816000  0.77493000  1.0
  H  H13  1  0.45339000  0.03184000  0.27492000  1.0
  H  H14  1  0.45339000  0.53184000  0.22507000  1.0
  H  H15  1  0.54661000  0.96816000  0.72508000  1.0
  H  H16  1  0.07648000  0.60688000  0.93937000  1.0
  H  H17  1  0.92352000  0.89311000  0.43938000  1.0
  H  H18  1  0.92352000  0.39312000  0.06063000  1.0
  H  H19  1  0.07648000  0.10688000  0.56062000  1.0
  H  H20  1  0.24276000  0.78969000  0.91627000  1.0
  H  H21  1  0.75724000  0.71031000  0.41627000  1.0
  H  H22  1  0.75724000  0.21031000  0.08374000  1.0
  H  H23  1  0.24276000  0.28969000  0.58373000  1.0
  H  H24  1  0.41577000  0.67506000  0.66473000  1.0
  H  H25  1  0.58423000  0.82494000  0.16474000  1.0
  H  H26  1  0.58423000  0.32494000  0.33527000  1.0
  H  H27  1  0.41577000  0.17506000  0.83526000  1.0
  H  H28  1  0.25438000  0.48622000  0.67732000  1.0
  H  H29  1  0.74563000  0.01377000  0.17732000  1.0
  H  H30  1  0.74563000  0.51378000  0.32268000  1.0
  H  H31  1  0.25437000  0.98622000  0.82268000  1.0
  C  C32  1  0.80704000  0.18242000  0.73610000  1.0
  C  C33  1  0.19297000  0.31758000  0.23610000  1.0
  C  C34  1  0.19296000  0.81759000  0.26390000  1.0
  C  C35  1  0.80704000  0.68242000  0.76390000  1.0
  C  C36  1  0.92195000  0.25745000  0.79165000  1.0
  C  C37  1  0.07805000  0.24255000  0.29166000  1.0
  C  C38  1  0.07805000  0.74256000  0.20835000  1.0
  C  C39  1  0.92195000  0.75744000  0.70835000  1.0
  C  C40  1  0.00243000  0.24053000  0.87455000  1.0
  C  C41  1  0.99757000  0.25947000  0.37455000  1.0
  C  C42  1  0.99756000  0.75947000  0.12545000  1.0
  C  C43  1  0.00243000  0.74053000  0.62545000  1.0
  C  C44  1  0.06326000  0.41852000  0.81942000  1.0
  C  C45  1  0.93674000  0.08147000  0.31942000  1.0
  C  C46  1  0.93674000  0.58147000  0.18058000  1.0
  C  C47  1  0.06326000  0.91852000  0.68058000  1.0
  C  C48  1  0.15296000  0.53088000  0.80980000  1.0
  C  C49  1  0.84704000  0.96912000  0.30980000  1.0
  C  C50  1  0.84704000  0.46912000  0.19021000  1.0
  C  C51  1  0.15297000  0.03088000  0.69020000  1.0
  C  C52  1  0.15102000  0.61748000  0.87777000  1.0
  C  C53  1  0.84898000  0.88252000  0.37777000  1.0
  C  C54  1  0.84898000  0.38252000  0.12223000  1.0
  C  C55  1  0.15103000  0.11748000  0.62223000  1.0
  C  C56  1  0.24226000  0.72087000  0.86437000  1.0
  C  C57  1  0.75774000  0.77912000  0.36437000  1.0
  C  C58  1  0.75774000  0.27913000  0.13563000  1.0
  C  C59  1  0.24226000  0.22087000  0.63562000  1.0
  C  C60  1  0.33751000  0.65675000  0.72416000  1.0
  C  C61  1  0.66249000  0.84324000  0.22416000  1.0
  C  C62  1  0.66249000  0.34325000  0.27584000  1.0
  C  C63  1  0.33751000  0.15675000  0.77584000  1.0
  C  C64  1  0.24929000  0.55145000  0.73143000  1.0
  C  C65  1  0.75071000  0.94855000  0.23143000  1.0
  C  C66  1  0.75071000  0.44855000  0.26857000  1.0
  C  C67  1  0.24929000  0.05144000  0.76857000  1.0
  C  C68  1  0.03696000  0.13900000  0.93388000  1.0
  C  C69  1  0.96305000  0.36100000  0.43388000  1.0
  C  C70  1  0.96304000  0.86100000  0.06612000  1.0
  C  C71  1  0.03696000  0.63899000  0.56613000  1.0
  C  C72  1  0.46577000  0.43631000  0.49922000  1.0
  C  C73  1  0.53422000  0.06370000  0.99923000  1.0
  C  C74  1  0.53421000  0.56369000  0.50077000  1.0
  C  C75  1  0.46577000  0.93631000  0.00077000  1.0
  N  N76  1  0.96136000  0.36779000  0.75856000  1.0
  N  N77  1  0.03864000  0.13221000  0.25856000  1.0
  N  N78  1  0.03864000  0.63221000  0.24144000  1.0
  N  N79  1  0.96136000  0.86779000  0.74144000  1.0
  N  N80  1  0.08668000  0.34445000  0.89117000  1.0
  N  N81  1  0.91333000  0.15555000  0.39117000  1.0
  N  N82  1  0.91332000  0.65555000  0.10883000  1.0
  N  N83  1  0.08668000  0.84445000  0.60883000  1.0
  N  N84  1  0.33341000  0.74052000  0.78881000  1.0
  N  N85  1  0.66666667  0.75948000  0.28881000  1.0
  N  N86  1  0.66666667  0.25948000  0.21119000  1.0
  N  N87  1  0.33341000  0.24052000  0.71119000  1.0
  O  O88  1  0.75749000  0.22857000  0.66209000  1.0
  O  O89  1  0.24251000  0.27143000  0.16209000  1.0
  O  O90  1  0.24251000  0.77144000  0.33791000  1.0
  O  O91  1  0.75749000  0.72856000  0.83791000  1.0
  O  O92  1  0.76571000  0.08050000  0.76280000  1.0
  O  O93  1  0.23430000  0.41950000  0.26280000  1.0
  O  O94  1  0.23430000  0.91951000  0.23720000  1.0
  O  O95  1  0.76571000  0.58050000  0.73720000  1.0
  O  O96  1  0.99635000  0.03759000  0.90655000  1.0
  O  O97  1  0.00364000  0.46242000  0.40655000  1.0
  O  O98  1  0.00363000  0.96242000  0.09345000  1.0
  O  O99  1  0.99635000  0.53758000  0.59345000  1.0
  O  O100  1  0.11909000  0.16453000  0.00570000  1.0
  O  O101  1  0.88091000  0.33547000  0.50570000  1.0
  O  O102  1  0.88091000  0.83546000  0.99430000  1.0
  O  O103  1  0.11910000  0.66452000  0.49431000  1.0
  O  O104  1  0.54401000  0.36210000  0.54391000  1.0
  O  O105  1  0.45598000  0.13792000  0.04392000  1.0
  O  O106  1  0.45596000  0.63791000  0.45608000  1.0
  O  O107  1  0.54401000  0.86210000  0.95609000  1.0
  O  O108  1  0.33600000  0.41788000  0.45299000  1.0
  O  O109  1  0.66398000  0.08212000  0.95300000  1.0
  O  O110  1  0.66397000  0.58212000  0.54700000  1.0
  O  O111  1  0.33600000  0.91788000  0.04700000  1.0
  O  O112  1  0.56973000  0.39943000  0.73861000  1.0
  O  O113  1  0.43026000  0.10058000  0.23861000  1.0
  O  O114  1  0.43027000  0.60057000  0.26139000  1.0
  O  O115  1  0.56973000  0.89943000  0.76139000  1.0
