# generated using pymatgen
data_Zr3H15C26O17
_symmetry_space_group_name_H-M   'P 1'
_cell_length_a   14.73490000
_cell_length_b   14.75323340
_cell_length_c   14.75530000
_cell_angle_alpha   90.16557789
_cell_angle_beta   119.84430000
_cell_angle_gamma   119.93795593
_symmetry_Int_Tables_number   1
_chemical_formula_structural   Zr3H15C26O17
_chemical_formula_sum   'Zr6 H30 C52 O34'
_cell_volume   2272.30403353
_cell_formula_units_Z   2
loop_
 _symmetry_equiv_pos_site_id
 _symmetry_equiv_pos_as_xyz
  1  'x, y, z'
loop_
 _atom_site_type_symbol
 _atom_site_label
 _atom_site_symmetry_multiplicity
 _atom_site_fract_x
 _atom_site_fract_y
 _atom_site_fract_z
 _atom_site_occupancy
  Zr  Zr0  1  0.75832000  0.87600000  0.37734000  1.0
  Zr  Zr1  1  0.23796000  0.11450000  0.61654000  1.0
  Zr  Zr2  1  0.99831000  0.11499000  0.37695000  1.0
  Zr  Zr3  1  0.99762000  0.87567000  0.61636000  1.0
  Zr  Zr4  1  0.99902000  0.11638000  0.61645000  1.0
  Zr  Zr5  1  0.99793000  0.87487000  0.37675000  1.0
  H  H6  1  0.81190000  0.09228000  0.40594000  1.0
  H  H7  1  0.18669000  0.09211000  0.77956000  1.0
  H  H8  1  0.18725000  0.08824000  0.40205000  1.0
  H  H9  1  0.80935000  0.71233000  0.40188000  1.0
  H  H10  1  0.55138000  0.15388000  0.61643000  1.0
  H  H11  1  0.45375000  0.80817000  0.42243000  1.0
  H  H12  1  0.72290000  0.15443000  0.61778000  1.0
  H  H13  1  0.28225000  0.80738000  0.42126000  1.0
  H  H14  1  0.55923000  0.41736000  0.90463000  1.0
  H  H15  1  0.43802000  0.59827000  0.06451000  1.0
  H  H16  1  0.72923000  0.58783000  0.07523000  1.0
  H  H17  1  0.26805000  0.42755000  0.89419000  1.0
  H  H18  1  0.88814000  0.80863000  0.02616000  1.0
  H  H19  1  0.03947000  0.15638000  0.93353000  1.0
  H  H20  1  0.88823000  0.80990000  0.85542000  1.0
  H  H21  1  0.03872000  0.15479000  0.10379000  1.0
  H  H22  1  0.03151000  0.42701000  0.65806000  1.0
  H  H23  1  0.01328000  0.58833000  0.35870000  1.0
  H  H24  1  0.03147000  0.59763000  0.65855000  1.0
  H  H25  1  0.01389000  0.41802000  0.35850000  1.0
  H  H26  1  0.55979000  0.98805000  0.26590000  1.0
  H  H27  1  0.21370000  0.97490000  0.92384000  1.0
  H  H28  1  0.51570000  0.03141000  0.84538000  1.0
  H  H29  1  0.68590000  0.03187000  0.01491000  1.0
  H  H30  1  0.26749000  0.41999000  0.36217000  1.0
  H  H31  1  0.72901000  0.58947000  0.65080000  1.0
  H  H32  1  0.43803000  0.59061000  0.36194000  1.0
  H  H33  1  0.55847000  0.41890000  0.65107000  1.0
  H  H34  1  0.31764000  0.98712000  0.26349000  1.0
  H  H35  1  0.13479000  0.96882000  0.03424000  1.0
  C  C36  1  0.69595000  0.98832000  0.50837000  1.0
  C  C37  1  0.30320000  0.30634000  0.79487000  1.0
  C  C38  1  0.30327000  0.98661000  0.50607000  1.0
  C  C39  1  0.69366000  0.69766000  0.18606000  1.0
  C  C40  1  0.69423000  0.99647000  0.19361000  1.0
  C  C41  1  0.69362000  0.69580000  0.50162000  1.0
  C  C42  1  0.30101000  0.99442000  0.80151000  1.0
  C  C43  1  0.30274000  0.30387000  0.50146000  1.0
  C  C44  1  0.01168000  0.30673000  0.50300000  1.0
  C  C45  1  0.98120000  0.98725000  0.18394000  1.0
  C  C46  1  0.01047000  0.69731000  0.50300000  1.0
  C  C47  1  0.98175000  0.98972000  0.79314000  1.0
  C  C48  1  0.40645000  0.98141000  0.51628000  1.0
  C  C49  1  0.59711000  0.98209000  0.51807000  1.0
  C  C50  1  0.53149000  0.07866000  0.57484000  1.0
  C  C51  1  0.47417000  0.88324000  0.46504000  1.0
  C  C52  1  0.62629000  0.07894000  0.57573000  1.0
  C  C53  1  0.37908000  0.88288000  0.46412000  1.0
  C  C54  1  0.40423000  0.41201000  0.89117000  1.0
  C  C55  1  0.59293000  0.60134000  0.08036000  1.0
  C  C56  1  0.53407000  0.45787000  0.94037000  1.0
  C  C57  1  0.46323000  0.55778000  0.02880000  1.0
  C  C58  1  0.62794000  0.55207000  0.03455000  1.0
  C  C59  1  0.36936000  0.46349000  0.93467000  1.0
  C  C60  1  0.96668000  0.98253000  0.07588000  1.0
  C  C61  1  0.96759000  0.98426000  0.88696000  1.0
  C  C62  1  0.92082000  0.88416000  0.00497000  1.0
  C  C63  1  0.00628000  0.08087000  0.95462000  1.0
  C  C64  1  0.92133000  0.88493000  0.91070000  1.0
  C  C65  1  0.00575000  0.07991000  0.04852000  1.0
  C  C66  1  0.02064000  0.41219000  0.50735000  1.0
  C  C67  1  0.02013000  0.60118000  0.50756000  1.0
  C  C68  1  0.02761000  0.46326000  0.59311000  1.0
  C  C69  1  0.01761000  0.55230000  0.42387000  1.0
  C  C70  1  0.02746000  0.55742000  0.59332000  1.0
  C  C71  1  0.01791000  0.45824000  0.42373000  1.0
  C  C72  1  0.59376000  0.00155000  0.09771000  1.0
  C  C73  1  0.49112000  0.99038000  0.09664000  1.0
  C  C74  1  0.60362000  0.01892000  0.00969000  1.0
  C  C75  1  0.48834000  0.98919000  0.19146000  1.0
  C  C76  1  0.39485000  0.98908000  0.19118000  1.0
  C  C77  1  0.40183000  0.99921000  0.90683000  1.0
  C  C78  1  0.50827000  0.01834000  0.91476000  1.0
  C  C79  1  0.39181000  0.98772000  0.99818000  1.0
  C  C80  1  0.29265000  0.98176000  0.99871000  1.0
  C  C81  1  0.29549000  0.98431000  0.09326000  1.0
  C  C82  1  0.40371000  0.40910000  0.50558000  1.0
  C  C83  1  0.59277000  0.59853000  0.50555000  1.0
  C  C84  1  0.36886000  0.45796000  0.42481000  1.0
  C  C85  1  0.62763000  0.55165000  0.58829000  1.0
  C  C86  1  0.46296000  0.55221000  0.42477000  1.0
  C  C87  1  0.53354000  0.45740000  0.58835000  1.0
  O  O88  1  0.65715000  0.91337000  0.42829000  1.0
  O  O89  1  0.34030000  0.26376000  0.75773000  1.0
  O  O90  1  0.33925000  0.06770000  0.57792000  1.0
  O  O91  1  0.65635000  0.73559000  0.22764000  1.0
  O  O92  1  0.81070000  0.06991000  0.22967000  1.0
  O  O93  1  0.81020000  0.73366000  0.57678000  1.0
  O  O94  1  0.18381000  0.91721000  0.76086000  1.0
  O  O95  1  0.18637000  0.26200000  0.42206000  1.0
  O  O96  1  0.00638000  0.26485000  0.57744000  1.0
  O  O97  1  0.98694000  0.91249000  0.22449000  1.0
  O  O98  1  0.00404000  0.73340000  0.42279000  1.0
  O  O99  1  0.99270000  0.07157000  0.75917000  1.0
  O  O100  1  0.99071000  0.06861000  0.22862000  1.0
  O  O101  1  0.00634000  0.73506000  0.57791000  1.0
  O  O102  1  0.98614000  0.91410000  0.75726000  1.0
  O  O103  1  0.00691000  0.26437000  0.42377000  1.0
  O  O104  1  0.65722000  0.91892000  0.23295000  1.0
  O  O105  1  0.34019000  0.26216000  0.57606000  1.0
  O  O106  1  0.33874000  0.06809000  0.75897000  1.0
  O  O107  1  0.65607000  0.73271000  0.42232000  1.0
  O  O108  1  0.81008000  0.73361000  0.22869000  1.0
  O  O109  1  0.81235000  0.07072000  0.57867000  1.0
  O  O110  1  0.18671000  0.26457000  0.75812000  1.0
  O  O111  1  0.18751000  0.91261000  0.42489000  1.0
  O  O112  1  0.86290000  0.79283000  0.42896000  1.0
  O  O113  1  0.13288000  0.06115000  0.42822000  1.0
  O  O114  1  0.13261000  0.06333000  0.69921000  1.0
  O  O115  1  0.86387000  0.06378000  0.43040000  1.0
  O  O116  1  0.09839000  0.14473000  0.54628000  1.0
  O  O117  1  0.89878000  0.94612000  0.54679000  1.0
  O  O118  1  0.09694000  0.94520000  0.54617000  1.0
  O  O119  1  0.89903000  0.94565000  0.34824000  1.0
  O  O120  1  0.39488000  0.99290000  0.28340000  1.0
  O  O121  1  0.20857000  0.98317000  0.10516000  1.0
