# generated using pymatgen
data_CoH20C30(NO2)2
_symmetry_space_group_name_H-M   'P 1'
_cell_length_a   9.61987000
_cell_length_b   11.89160000
_cell_length_c   14.24140000
_cell_angle_alpha   72.06340000
_cell_angle_beta   85.12600000
_cell_angle_gamma   71.78720000
_symmetry_Int_Tables_number   1
_chemical_formula_structural   CoH20C30(NO2)2
_chemical_formula_sum   'Co2 H40 C60 N4 O8'
_cell_volume   1472.20873474
_cell_formula_units_Z   2
loop_
 _symmetry_equiv_pos_site_id
 _symmetry_equiv_pos_as_xyz
  1  'x, y, z'
loop_
 _atom_site_type_symbol
 _atom_site_label
 _atom_site_symmetry_multiplicity
 _atom_site_fract_x
 _atom_site_fract_y
 _atom_site_fract_z
 _atom_site_occupancy
  Co  Co0  1  0.00000000  0.00000000  0.00000000  1.0
  Co  Co1  1  0.50000000  0.00000000  0.00000000  1.0
  H  H2  1  0.40006000  0.96732000  0.24447000  1.0
  H  H3  1  0.59994000  0.03268000  0.75553000  1.0
  H  H4  1  0.29169000  0.16210000  0.26647000  1.0
  H  H5  1  0.70831000  0.83790000  0.73353000  1.0
  H  H6  1  0.08694000  0.96267000  0.30408000  1.0
  H  H7  1  0.91305000  0.03734000  0.69592000  1.0
  H  H8  1  0.52959000  0.84065000  0.86279000  1.0
  H  H9  1  0.47041000  0.15935000  0.13722000  1.0
  H  H10  1  0.80899000  0.54177000  0.15587000  1.0
  H  H11  1  0.19101000  0.45823000  0.84413000  1.0
  H  H12  1  0.40813000  0.00427000  0.71022000  1.0
  H  H13  1  0.59187000  0.99574000  0.28978000  1.0
  H  H14  1  0.08796000  0.80849000  0.41662000  1.0
  H  H15  1  0.91205000  0.19151000  0.58338000  1.0
  H  H16  1  0.59783000  0.42090000  0.94953000  1.0
  H  H17  1  0.40217000  0.57909000  0.05047000  1.0
  H  H18  1  0.39661000  0.16406000  0.60129000  1.0
  H  H19  1  0.60339000  0.83594000  0.39871000  1.0
  H  H20  1  0.62989000  0.61808000  0.86709000  1.0
  H  H21  1  0.37011000  0.38192000  0.13291000  1.0
  H  H22  1  0.09365000  0.01123000  0.77684000  1.0
  H  H23  1  0.90635000  0.98877000  0.22316000  1.0
  H  H24  1  0.06297000  0.67151000  0.73200000  1.0
  H  H25  1  0.93704000  0.32849000  0.26800000  1.0
  H  H26  1  0.46736000  0.30753000  0.45512000  1.0
  H  H27  1  0.53264000  0.69247000  0.54488000  1.0
  H  H28  1  0.99608000  0.39414000  0.08639000  1.0
  H  H29  1  0.00392000  0.60585000  0.91362000  1.0
  H  H30  1  0.01013000  0.67049000  0.56304000  1.0
  H  H31  1  0.98988000  0.32951000  0.43696000  1.0
  H  H32  1  0.40918000  0.31048000  0.28675000  1.0
  H  H33  1  0.59082000  0.68952000  0.71324000  1.0
  H  H34  1  0.70024000  0.76676000  0.13898000  1.0
  H  H35  1  0.29977000  0.23324000  0.86102000  1.0
  H  H36  1  0.70659000  0.19870000  0.95673000  1.0
  H  H37  1  0.29341000  0.80129000  0.04327000  1.0
  H  H38  1  0.18433000  0.81674000  0.75166000  1.0
  H  H39  1  0.81568000  0.18325000  0.24834000  1.0
  H  H40  1  0.08930000  0.17486000  0.08450000  1.0
  H  H41  1  0.91069000  0.82514000  0.91550000  1.0
  C  C42  1  0.28774000  0.96657000  0.23995000  1.0
  C  C43  1  0.71226000  0.03343000  0.76005000  1.0
  C  C44  1  0.31976000  0.15868000  0.33986000  1.0
  C  C45  1  0.68025000  0.84132000  0.66014000  1.0
  C  C46  1  0.25083000  0.94858000  0.14752000  1.0
  C  C47  1  0.74917000  0.05142000  0.85248000  1.0
  C  C48  1  0.19997000  0.90481000  0.59465000  1.0
  C  C49  1  0.80004000  0.09519000  0.40535000  1.0
  C  C50  1  0.72910000  0.55974000  0.01212000  1.0
  C  C51  1  0.27089000  0.44026000  0.98788000  1.0
  C  C52  1  0.26849000  0.99004000  0.60525000  1.0
  C  C53  1  0.73151000  0.00996000  0.39475000  1.0
  C  C54  1  0.19340000  0.97176000  0.31536000  1.0
  C  C55  1  0.80660000  0.02824000  0.68464000  1.0
  C  C56  1  0.31212000  0.07080000  0.52006000  1.0
  C  C57  1  0.68788000  0.92920000  0.47995000  1.0
  C  C58  1  0.59373000  0.77093000  0.92568000  1.0
  C  C59  1  0.40627000  0.22906000  0.07432000  1.0
  C  C60  1  0.17449000  0.90117000  0.49724000  1.0
  C  C61  1  0.82552000  0.09882000  0.50276000  1.0
  C  C62  1  0.25361000  0.03214000  0.86453000  1.0
  C  C63  1  0.74639000  0.96786000  0.13548000  1.0
  C  C64  1  0.74926000  0.60450000  0.08870000  1.0
  C  C65  1  0.25074000  0.39550000  0.91130000  1.0
  C  C66  1  0.21970000  0.98094000  0.41192000  1.0
  C  C67  1  0.78030000  0.01907000  0.58808000  1.0
  C  C68  1  0.28568000  0.06788000  0.42274000  1.0
  C  C69  1  0.71432000  0.93212000  0.57726000  1.0
  C  C70  1  0.29919000  0.99830000  0.70117000  1.0
  C  C71  1  0.70081000  0.00170000  0.29883000  1.0
  C  C72  1  0.10683000  0.81322000  0.48941000  1.0
  C  C73  1  0.89317000  0.18678000  0.51059000  1.0
  C  C74  1  0.78823000  0.42801000  0.01697000  1.0
  C  C75  1  0.21176000  0.57199000  0.98303000  1.0
  C  C76  1  0.70806000  0.37056000  0.97953000  1.0
  C  C77  1  0.29194000  0.62944000  0.02047000  1.0
  C  C78  1  0.37734000  0.16008000  0.52834000  1.0
  C  C79  1  0.62268000  0.83991000  0.47166000  1.0
  C  C80  1  0.64858000  0.64691000  0.92922000  1.0
  C  C81  1  0.35142000  0.35309000  0.07078000  1.0
  C  C82  1  0.20791000  0.00852000  0.77742000  1.0
  C  C83  1  0.79209000  0.99149000  0.22258000  1.0
  C  C84  1  0.09383000  0.73577000  0.66698000  1.0
  C  C85  1  0.90617000  0.26423000  0.33302000  1.0
  C  C86  1  0.41514000  0.24191000  0.44664000  1.0
  C  C87  1  0.58486000  0.75809000  0.55336000  1.0
  C  C88  1  0.92718000  0.35489000  0.05733000  1.0
  C  C89  1  0.07281000  0.64511000  0.94268000  1.0
  C  C90  1  0.06503000  0.73441000  0.57144000  1.0
  C  C91  1  0.93498000  0.26559000  0.42856000  1.0
  C  C92  1  0.38347000  0.24235000  0.35119000  1.0
  C  C93  1  0.61653000  0.75765000  0.64881000  1.0
  C  C94  1  0.68886000  0.72985000  0.08004000  1.0
  C  C95  1  0.31114000  0.27015000  0.91996000  1.0
  C  C96  1  0.76760000  0.24678000  0.98316000  1.0
  C  C97  1  0.23239000  0.75322000  0.01684000  1.0
  C  C98  1  0.16030000  0.81779000  0.67805000  1.0
  C  C99  1  0.83970000  0.18221000  0.32195000  1.0
  C  C100  1  0.98043000  0.23245000  0.05601000  1.0
  C  C101  1  0.01956000  0.76755000  0.94400000  1.0
  N  N102  1  0.90303000  0.17818000  0.01940000  1.0
  N  N103  1  0.09696000  0.82182000  0.98060000  1.0
  N  N104  1  0.61248000  0.81312000  0.99986000  1.0
  N  N105  1  0.38752000  0.18688000  0.00014000  1.0
  O  O106  1  0.15493000  0.06778000  0.92404000  1.0
  O  O107  1  0.84506000  0.93222000  0.07596000  1.0
  O  O108  1  0.38842000  0.02223000  0.87360000  1.0
  O  O109  1  0.61158000  0.97777000  0.12641000  1.0
  O  O110  1  0.12027000  0.95197000  0.13325000  1.0
  O  O111  1  0.87973000  0.04803000  0.86675000  1.0
  O  O112  1  0.35610000  0.92608000  0.08789000  1.0
  O  O113  1  0.64390000  0.07392000  0.91210000  1.0
