# generated using pymatgen
data_ZnH18C20(NO2)2
_symmetry_space_group_name_H-M   'P 1'
_cell_length_a   9.80313000
_cell_length_b   9.90052000
_cell_length_c   11.70060000
_cell_angle_alpha   66.32120000
_cell_angle_beta   89.06430000
_cell_angle_gamma   62.54490000
_symmetry_Int_Tables_number   1
_chemical_formula_structural   ZnH18C20(NO2)2
_chemical_formula_sum   'Zn2 H36 C40 N4 O8'
_cell_volume   902.73912720
_cell_formula_units_Z   2
loop_
 _symmetry_equiv_pos_site_id
 _symmetry_equiv_pos_as_xyz
  1  'x, y, z'
loop_
 _atom_site_type_symbol
 _atom_site_label
 _atom_site_symmetry_multiplicity
 _atom_site_fract_x
 _atom_site_fract_y
 _atom_site_fract_z
 _atom_site_occupancy
  Zn  Zn0  1  0.85954000  0.98573000  0.00138000  1.0
  Zn  Zn1  1  0.14046000  0.01427000  0.99862000  1.0
  H  H2  1  0.54298000  0.22615000  0.85523000  1.0
  H  H3  1  0.45702000  0.77385000  0.14477000  1.0
  H  H4  1  0.82968000  0.61485000  0.13468000  1.0
  H  H5  1  0.17032000  0.38515000  0.86532000  1.0
  H  H6  1  0.72236000  0.62510000  0.25887000  1.0
  H  H7  1  0.27764000  0.37490000  0.74113000  1.0
  H  H8  1  0.84548000  0.72027000  0.22051000  1.0
  H  H9  1  0.15453000  0.27972000  0.77950000  1.0
  H  H10  1  0.25475000  0.89801000  0.39740000  1.0
  H  H11  1  0.74524000  0.10198000  0.60260000  1.0
  H  H12  1  0.28979000  0.80483000  0.63182000  1.0
  H  H13  1  0.71020000  0.19517000  0.36818000  1.0
  H  H14  1  0.12112000  0.69793000  0.75350000  1.0
  H  H15  1  0.87888000  0.30207000  0.24650000  1.0
  H  H16  1  0.92059000  0.68140000  0.64057000  1.0
  H  H17  1  0.07941000  0.31860000  0.35944000  1.0
  H  H18  1  0.88476000  0.77925000  0.40470000  1.0
  H  H19  1  0.11523000  0.22075000  0.59531000  1.0
  H  H20  1  0.51177000  0.52130000  0.89060000  1.0
  H  H21  1  0.48825000  0.47869000  0.10940000  1.0
  H  H22  1  0.35419000  0.83856000  0.79831000  1.0
  H  H23  1  0.64582000  0.16142000  0.20169000  1.0
  H  H24  1  0.49120000  0.00751000  0.74186000  1.0
  H  H25  1  0.50879000  0.99249000  0.25813000  1.0
  H  H26  1  0.78312000  0.86107000  0.79644000  1.0
  H  H27  1  0.21687000  0.13894000  0.20356000  1.0
  H  H28  1  0.93804000  0.54432000  0.89421000  1.0
  H  H29  1  0.06196000  0.45570000  0.10581000  1.0
  H  H30  1  0.39604000  0.58243000  0.28186000  1.0
  H  H31  1  0.60396000  0.41757000  0.71814000  1.0
  H  H32  1  0.64095000  0.76582000  0.47224000  1.0
  H  H33  1  0.35904000  0.23419000  0.52776000  1.0
  H  H34  1  0.70359000  0.61665000  0.63701000  1.0
  H  H35  1  0.29641000  0.38335000  0.36299000  1.0
  H  H36  1  0.80865000  0.56132000  0.52279000  1.0
  H  H37  1  0.19135000  0.43868000  0.47721000  1.0
  C  C38  1  0.52288000  0.12540000  0.92059000  1.0
  C  C39  1  0.47713000  0.87460000  0.07942000  1.0
  C  C40  1  0.62806000  0.85474000  0.08699000  1.0
  C  C41  1  0.37194000  0.14526000  0.91301000  1.0
  C  C42  1  0.76403000  0.69438000  0.18178000  1.0
  C  C43  1  0.23597000  0.30562000  0.81822000  1.0
  C  C44  1  0.04450000  0.90535000  0.24592000  1.0
  C  C45  1  0.95549000  0.09465000  0.75408000  1.0
  C  C46  1  0.06773000  0.84418000  0.38732000  1.0
  C  C47  1  0.93226000  0.15581000  0.61268000  1.0
  C  C48  1  0.18225000  0.85049000  0.45176000  1.0
  C  C49  1  0.81775000  0.14951000  0.54824000  1.0
  C  C50  1  0.20155000  0.79769000  0.58289000  1.0
  C  C51  1  0.79844000  0.20231000  0.41710000  1.0
  C  C52  1  0.10738000  0.73700000  0.65096000  1.0
  C  C53  1  0.89261000  0.26300000  0.34904000  1.0
  C  C54  1  0.99442000  0.72813000  0.58754000  1.0
  C  C55  1  0.00557000  0.27187000  0.41247000  1.0
  C  C56  1  0.97414000  0.78226000  0.45610000  1.0
  C  C57  1  0.02585000  0.21774000  0.54390000  1.0
  C  C58  1  0.82984000  0.32433000  0.94502000  1.0
  C  C59  1  0.17018000  0.67567000  0.05498000  1.0
  C  C60  1  0.73447000  0.51391000  0.89589000  1.0
  C  C61  1  0.26554000  0.48609000  0.10411000  1.0
  C  C62  1  0.56965000  0.59721000  0.86908000  1.0
  C  C63  1  0.43036000  0.40279000  0.13092000  1.0
  C  C64  1  0.48223000  0.77417000  0.81551000  1.0
  C  C65  1  0.51777000  0.22582000  0.18448000  1.0
  C  C66  1  0.55919000  0.86903000  0.78600000  1.0
  C  C67  1  0.44082000  0.13097000  0.21399000  1.0
  C  C68  1  0.72327000  0.78721000  0.81538000  1.0
  C  C69  1  0.27673000  0.21280000  0.18462000  1.0
  C  C70  1  0.81019000  0.61034000  0.87078000  1.0
  C  C71  1  0.18982000  0.38967000  0.12923000  1.0
  C  C72  1  0.44382000  0.54478000  0.38026000  1.0
  C  C73  1  0.55617000  0.45522000  0.61974000  1.0
  C  C74  1  0.58947000  0.56395000  0.51789000  1.0
  C  C75  1  0.41053000  0.43605000  0.48211000  1.0
  C  C76  1  0.69079000  0.63099000  0.53925000  1.0
  C  C77  1  0.30920000  0.36901000  0.46075000  1.0
  N  N78  1  0.64811000  0.98375000  0.00561000  1.0
  N  N79  1  0.35189000  0.01625000  0.99440000  1.0
  N  N80  1  0.53180000  0.60845000  0.39706000  1.0
  N  N81  1  0.46819000  0.39155000  0.60294000  1.0
  O  O82  1  0.92396000  0.91994000  0.19013000  1.0
  O  O83  1  0.07602000  0.08008000  0.80986000  1.0
  O  O84  1  0.85391000  0.06143000  0.80894000  1.0
  O  O85  1  0.14608000  0.93855000  0.19105000  1.0
  O  O86  1  0.75523000  0.24428000  0.95665000  1.0
  O  O87  1  0.24479000  0.75572000  0.04334000  1.0
  O  O88  1  0.02120000  0.74173000  0.03160000  1.0
  O  O89  1  0.97882000  0.25827000  0.96841000  1.0
