# generated using pymatgen
data_CuH22C24(N2Cl)2
_symmetry_space_group_name_H-M   'P 1'
_cell_length_a   5.40224000
_cell_length_b   11.28760000
_cell_length_c   17.08110000
_cell_angle_alpha   90.00070000
_cell_angle_beta   90.00040000
_cell_angle_gamma   78.47300000
_symmetry_Int_Tables_number   1
_chemical_formula_structural   CuH22C24(N2Cl)2
_chemical_formula_sum   'Cu2 H44 C48 N8 Cl4'
_cell_volume   1020.56892142
_cell_formula_units_Z   2
loop_
 _symmetry_equiv_pos_site_id
 _symmetry_equiv_pos_as_xyz
  1  'x, y, z'
loop_
 _atom_site_type_symbol
 _atom_site_label
 _atom_site_symmetry_multiplicity
 _atom_site_fract_x
 _atom_site_fract_y
 _atom_site_fract_z
 _atom_site_occupancy
  Cu  Cu0  1  0.00000000  0.00000000  0.50000000  1.0
  Cu  Cu1  1  0.49999000  0.50000000  0.00000000  1.0
  H  H2  1  0.57126000  0.02637000  0.63669000  1.0
  H  H3  1  0.92873000  0.47362000  0.13670000  1.0
  H  H4  1  0.42874000  0.97362000  0.36330000  1.0
  H  H5  1  0.07127000  0.52638000  0.86330000  1.0
  H  H6  1  0.43131000  0.01814000  0.77458000  1.0
  H  H7  1  0.06868000  0.48185000  0.27459000  1.0
  H  H8  1  0.56868000  0.98185000  0.22542000  1.0
  H  H9  1  0.93132000  0.51815000  0.72541000  1.0
  H  H10  1  0.69784000  0.89044000  0.87315000  1.0
  H  H11  1  0.80217000  0.60956000  0.37316000  1.0
  H  H12  1  0.30216000  0.10955000  0.12684000  1.0
  H  H13  1  0.19784000  0.39044000  0.62683000  1.0
  H  H14  1  0.10906000  0.76014000  0.83596000  1.0
  H  H15  1  0.39096000  0.73986000  0.33597000  1.0
  H  H16  1  0.89094000  0.23985000  0.16403000  1.0
  H  H17  1  0.60905000  0.26015000  0.66403000  1.0
  H  H18  1  0.47610000  0.67714000  0.77254000  1.0
  H  H19  1  0.02390000  0.82287000  0.27255000  1.0
  H  H20  1  0.52390000  0.32286000  0.22746000  1.0
  H  H21  1  0.97610000  0.17713000  0.72746000  1.0
  H  H22  1  0.67037000  0.70373000  0.69315000  1.0
  H  H23  1  0.82963000  0.79627000  0.19315000  1.0
  H  H24  1  0.32963000  0.29627000  0.30685000  1.0
  H  H25  1  0.17036000  0.20373000  0.80685000  1.0
  H  H26  1  0.49456000  0.58464000  0.68717000  1.0
  H  H27  1  0.00543000  0.91536000  0.18718000  1.0
  H  H28  1  0.50544000  0.41536000  0.31283000  1.0
  H  H29  1  0.99456000  0.08464000  0.81283000  1.0
  H  H30  1  0.85038000  0.56635000  0.57034000  1.0
  H  H31  1  0.64963000  0.93365000  0.07034000  1.0
  H  H32  1  0.14963000  0.43365000  0.42967000  1.0
  H  H33  1  0.35036000  0.06636000  0.92967000  1.0
  H  H34  1  0.11780000  0.65069000  0.46187000  1.0
  H  H35  1  0.38220000  0.84931000  0.96188000  1.0
  H  H36  1  0.88221000  0.34931000  0.53813000  1.0
  H  H37  1  0.61778000  0.15069000  0.03813000  1.0
  H  H38  1  0.64384000  0.77222000  0.55810000  1.0
  H  H39  1  0.85618000  0.72778000  0.05810000  1.0
  H  H40  1  0.35618000  0.22778000  0.44190000  1.0
  H  H41  1  0.14382000  0.27222000  0.94190000  1.0
  H  H42  1  0.40958000  0.81146000  0.48599000  1.0
  H  H43  1  0.09043000  0.68855000  0.98599000  1.0
  H  H44  1  0.59044000  0.18854000  0.51401000  1.0
  H  H45  1  0.90956000  0.31146000  0.01401000  1.0
  C  C46  1  0.26444000  0.80069000  0.59926000  1.0
  C  C47  1  0.23557000  0.69932000  0.09926000  1.0
  C  C48  1  0.73558000  0.19931000  0.40074000  1.0
  C  C49  1  0.76442000  0.30068000  0.90074000  1.0
  C  C50  1  0.06995000  0.82179000  0.71498000  1.0
  C  C51  1  0.43006000  0.67822000  0.21498000  1.0
  C  C52  1  0.93006000  0.17822000  0.28502000  1.0
  C  C53  1  0.56993000  0.32178000  0.78502000  1.0
  C  C54  1  0.92359000  0.89791000  0.65887000  1.0
  C  C55  1  0.57642000  0.60210000  0.15887000  1.0
  C  C56  1  0.07643000  0.10210000  0.34113000  1.0
  C  C57  1  0.42357000  0.39790000  0.84112000  1.0
  C  C58  1  0.69052000  0.96968000  0.67936000  1.0
  C  C59  1  0.80948000  0.53032000  0.17936000  1.0
  C  C60  1  0.30947000  0.03032000  0.32064000  1.0
  C  C61  1  0.19051000  0.46968000  0.82064000  1.0
  C  C62  1  0.61327000  0.96452000  0.75696000  1.0
  C  C63  1  0.88673000  0.53548000  0.25697000  1.0
  C  C64  1  0.38674000  0.03548000  0.24304000  1.0
  C  C65  1  0.11327000  0.46452000  0.74303000  1.0
  C  C66  1  0.76350000  0.89133000  0.81292000  1.0
  C  C67  1  0.73650000  0.60867000  0.31292000  1.0
  C  C68  1  0.23649000  0.10867000  0.18708000  1.0
  C  C69  1  0.26350000  0.39133000  0.68708000  1.0
  C  C70  1  0.99446000  0.81801000  0.79297000  1.0
  C  C71  1  0.50556000  0.68199000  0.29298000  1.0
  C  C72  1  0.00554000  0.18199000  0.20703000  1.0
  C  C73  1  0.49445000  0.31800000  0.70702000  1.0
  C  C74  1  0.49301000  0.67631000  0.70868000  1.0
  C  C75  1  0.00699000  0.82370000  0.20868000  1.0
  C  C76  1  0.50699000  0.32369000  0.29132000  1.0
  C  C77  1  0.99301000  0.17630000  0.79132000  1.0
  C  C78  1  0.48055000  0.62333000  0.51896000  1.0
  C  C79  1  0.01946000  0.87667000  0.01896000  1.0
  C  C80  1  0.51946000  0.37667000  0.48104000  1.0
  C  C81  1  0.98053000  0.12334000  0.98104000  1.0
  C  C82  1  0.69536000  0.53758000  0.53955000  1.0
  C  C83  1  0.80464000  0.96242000  0.03955000  1.0
  C  C84  1  0.30465000  0.46242000  0.46045000  1.0
  C  C85  1  0.19535000  0.03758000  0.96045000  1.0
  C  C86  1  0.28474000  0.58425000  0.47915000  1.0
  C  C87  1  0.21526000  0.91575000  0.97916000  1.0
  C  C88  1  0.71527000  0.41575000  0.52085000  1.0
  C  C89  1  0.78473000  0.08425000  0.02085000  1.0
  C  C90  1  0.45923000  0.75612000  0.53871000  1.0
  C  C91  1  0.04077000  0.74388000  0.03871000  1.0
  C  C92  1  0.54078000  0.24388000  0.46129000  1.0
  C  C93  1  0.95921000  0.25612000  0.96129000  1.0
  N  N94  1  0.28209000  0.76142000  0.67513000  1.0
  N  N95  1  0.21792000  0.73858000  0.17514000  1.0
  N  N96  1  0.71792000  0.23858000  0.32487000  1.0
  N  N97  1  0.78208000  0.26142000  0.82486000  1.0
  N  N98  1  0.05214000  0.88302000  0.58782000  1.0
  N  N99  1  0.44787000  0.61699000  0.08783000  1.0
  N  N100  1  0.94788000  0.11699000  0.41218000  1.0
  N  N101  1  0.55212000  0.38301000  0.91217000  1.0
  Cl  Cl102  1  0.11309000  0.13921000  0.58287000  1.0
  Cl  Cl103  1  0.38691000  0.36079000  0.08287000  1.0
  Cl  Cl104  1  0.88691000  0.86078000  0.41713000  1.0
  Cl  Cl105  1  0.61308000  0.63921000  0.91713000  1.0
