# generated using pymatgen
data_CdH18C18(NO)4
_symmetry_space_group_name_H-M   'P 1'
_cell_length_a   11.97200000
_cell_length_b   12.51180000
_cell_length_c   13.94760000
_cell_angle_alpha   81.17430000
_cell_angle_beta   89.99920000
_cell_angle_gamma   89.99970000
_symmetry_Int_Tables_number   1
_chemical_formula_structural   CdH18C18(NO)4
_chemical_formula_sum   'Cd4 H72 C72 N16 O16'
_cell_volume   2064.49153399
_cell_formula_units_Z   4
loop_
 _symmetry_equiv_pos_site_id
 _symmetry_equiv_pos_as_xyz
  1  'x, y, z'
loop_
 _atom_site_type_symbol
 _atom_site_label
 _atom_site_symmetry_multiplicity
 _atom_site_fract_x
 _atom_site_fract_y
 _atom_site_fract_z
 _atom_site_occupancy
  Cd  Cd0  1  0.04594000  0.53657000  0.12386000  1.0
  Cd  Cd1  1  0.54594000  0.46342000  0.37614000  1.0
  Cd  Cd2  1  0.95406000  0.46343000  0.87613000  1.0
  Cd  Cd3  1  0.45406000  0.53657000  0.62386000  1.0
  H  H4  1  0.31051000  0.50048000  0.14867000  1.0
  H  H5  1  0.81051000  0.49952000  0.35133000  1.0
  H  H6  1  0.68949000  0.49952000  0.85133000  1.0
  H  H7  1  0.18949000  0.50048000  0.64867000  1.0
  H  H8  1  0.45658000  0.35657000  0.15729000  1.0
  H  H9  1  0.95658000  0.64343000  0.34271000  1.0
  H  H10  1  0.54342000  0.64343000  0.84271000  1.0
  H  H11  1  0.04342000  0.35657000  0.65729000  1.0
  H  H12  1  0.39636000  0.16477000  0.15586000  1.0
  H  H13  1  0.89636000  0.83523000  0.34414000  1.0
  H  H14  1  0.60364000  0.83523000  0.84414000  1.0
  H  H15  1  0.10364000  0.16477000  0.65586000  1.0
  H  H16  1  0.05602000  0.27942000  0.13162000  1.0
  H  H17  1  0.55602000  0.72058000  0.36837000  1.0
  H  H18  1  0.94398000  0.72058000  0.86838000  1.0
  H  H19  1  0.44398000  0.27942000  0.63162000  1.0
  H  H20  1  0.21841000  0.92583000  0.15083000  1.0
  H  H21  1  0.71841000  0.07417000  0.34916000  1.0
  H  H22  1  0.78159000  0.07417000  0.84917000  1.0
  H  H23  1  0.28159000  0.92583000  0.65084000  1.0
  H  H24  1  0.32026000  0.00211000  0.20542000  1.0
  H  H25  1  0.82026000  0.99790000  0.29458000  1.0
  H  H26  1  0.67974000  0.99789000  0.79458000  1.0
  H  H27  1  0.17974000  0.00211000  0.70542000  1.0
  H  H28  1  0.31062000  0.01683000  0.07800000  1.0
  H  H29  1  0.81061000  0.98317000  0.42200000  1.0
  H  H30  1  0.68938000  0.98317000  0.92200000  1.0
  H  H31  1  0.18939000  0.01683000  0.57800000  1.0
  H  H32  1  0.90078000  0.14883000  0.09305000  1.0
  H  H33  1  0.40078000  0.85117000  0.40695000  1.0
  H  H34  1  0.09921000  0.85117000  0.90695000  1.0
  H  H35  1  0.59922000  0.14883000  0.59305000  1.0
  H  H36  1  0.77603000  0.07135000  0.11824000  1.0
  H  H37  1  0.27603000  0.92865000  0.38176000  1.0
  H  H38  1  0.22397000  0.92865000  0.88176000  1.0
  H  H39  1  0.72397000  0.07135000  0.61824000  1.0
  H  H40  1  0.83809000  0.08347000  0.00197000  1.0
  H  H41  1  0.33809000  0.91652000  0.49803000  1.0
  H  H42  1  0.16191000  0.91653000  0.99803000  1.0
  H  H43  1  0.66191000  0.08347000  0.50197000  1.0
  H  H44  1  0.70332000  0.91847000  0.11074000  1.0
  H  H45  1  0.20332000  0.08153000  0.38926000  1.0
  H  H46  1  0.29668000  0.08153000  0.88926000  1.0
  H  H47  1  0.79668000  0.91846000  0.61074000  1.0
  H  H48  1  0.63265000  0.73019000  0.11165000  1.0
  H  H49  1  0.13265000  0.26981000  0.38835000  1.0
  H  H50  1  0.36735000  0.26981000  0.88835000  1.0
  H  H51  1  0.86735000  0.73018000  0.61165000  1.0
  H  H52  1  0.76999000  0.57977000  0.11473000  1.0
  H  H53  1  0.26999000  0.42023000  0.38527000  1.0
  H  H54  1  0.23001000  0.42023000  0.88527000  1.0
  H  H55  1  0.73000000  0.57977000  0.61473000  1.0
  H  H56  1  0.03811000  0.79039000  0.10451000  1.0
  H  H57  1  0.53811000  0.20961000  0.39549000  1.0
  H  H58  1  0.96189000  0.20961000  0.89549000  1.0
  H  H59  1  0.46189000  0.79039000  0.60451000  1.0
  H  H60  1  0.14950000  0.79082000  0.31565000  1.0
  H  H61  1  0.64951000  0.20919000  0.18435000  1.0
  H  H62  1  0.85050000  0.20918000  0.68435000  1.0
  H  H63  1  0.35049000  0.79082000  0.81565000  1.0
  H  H64  1  0.28366000  0.78310000  0.26265000  1.0
  H  H65  1  0.78367000  0.21691000  0.23734000  1.0
  H  H66  1  0.71635000  0.21690000  0.73735000  1.0
  H  H67  1  0.21633000  0.78309000  0.76266000  1.0
  H  H68  1  0.27511000  0.72019000  0.45210000  1.0
  H  H69  1  0.77511000  0.27981000  0.04790000  1.0
  H  H70  1  0.72489000  0.27981000  0.54791000  1.0
  H  H71  1  0.22489000  0.72019000  0.95210000  1.0
  H  H72  1  0.19384000  0.61173000  0.42582000  1.0
  H  H73  1  0.69384000  0.38827000  0.07417000  1.0
  H  H74  1  0.80616000  0.38827000  0.57418000  1.0
  H  H75  1  0.30616000  0.61173000  0.92583000  1.0
  C  C76  1  0.28810000  0.41650000  0.14552000  1.0
  C  C77  1  0.78811000  0.58351000  0.35448000  1.0
  C  C78  1  0.71190000  0.58351000  0.85447000  1.0
  C  C79  1  0.21190000  0.41650000  0.64552000  1.0
  C  C80  1  0.36874000  0.33552000  0.15045000  1.0
  C  C81  1  0.86874000  0.66448000  0.34955000  1.0
  C  C82  1  0.63126000  0.66448000  0.84955000  1.0
  C  C83  1  0.13126000  0.33552000  0.65045000  1.0
  C  C84  1  0.33431000  0.22915000  0.15051000  1.0
  C  C85  1  0.83431000  0.77085000  0.34950000  1.0
  C  C86  1  0.66569000  0.77085000  0.84949000  1.0
  C  C87  1  0.16569000  0.22915000  0.65050000  1.0
  C  C88  1  0.21996000  0.20521000  0.14569000  1.0
  C  C89  1  0.71996000  0.79479000  0.35430000  1.0
  C  C90  1  0.78004000  0.79479000  0.85430000  1.0
  C  C91  1  0.28004000  0.20521000  0.64570000  1.0
  C  C92  1  0.14532000  0.29293000  0.13831000  1.0
  C  C93  1  0.64532000  0.70707000  0.36169000  1.0
  C  C94  1  0.85468000  0.70707000  0.86169000  1.0
  C  C95  1  0.35468000  0.29293000  0.63831000  1.0
  C  C96  1  0.17816000  0.09402000  0.14601000  1.0
  C  C97  1  0.67816000  0.90598000  0.35399000  1.0
  C  C98  1  0.82184000  0.90598000  0.85399000  1.0
  C  C99  1  0.32184000  0.09402000  0.64601000  1.0
  C  C100  1  0.26072000  0.00404000  0.14505000  1.0
  C  C101  1  0.76072000  0.99596000  0.35494000  1.0
  C  C102  1  0.73928000  0.99596000  0.85495000  1.0
  C  C103  1  0.23928000  0.00404000  0.64506000  1.0
  C  C104  1  0.92609000  0.97826000  0.11291000  1.0
  C  C105  1  0.42609000  0.02174000  0.38709000  1.0
  C  C106  1  0.07391000  0.02175000  0.88709000  1.0
  C  C107  1  0.57391000  0.97826000  0.61292000  1.0
  C  C108  1  0.85648000  0.07624000  0.07986000  1.0
  C  C109  1  0.35648000  0.92376000  0.42014000  1.0
  C  C110  1  0.14352000  0.92376000  0.92014000  1.0
  C  C111  1  0.64353000  0.07624000  0.57986000  1.0
  C  C112  1  0.87762000  0.87040000  0.11019000  1.0
  C  C113  1  0.37761000  0.12960000  0.38981000  1.0
  C  C114  1  0.12239000  0.12960000  0.88981000  1.0
  C  C115  1  0.62238000  0.87040000  0.61019000  1.0
  C  C116  1  0.76193000  0.85206000  0.10936000  1.0
  C  C117  1  0.26193000  0.14794000  0.39064000  1.0
  C  C118  1  0.23807000  0.14794000  0.89064000  1.0
  C  C119  1  0.73807000  0.85205000  0.60936000  1.0
  C  C120  1  0.72190000  0.74741000  0.11009000  1.0
  C  C121  1  0.22189000  0.25259000  0.38991000  1.0
  C  C122  1  0.27811000  0.25259000  0.88991000  1.0
  C  C123  1  0.77810000  0.74740000  0.61009000  1.0
  C  C124  1  0.79804000  0.66312000  0.11111000  1.0
  C  C125  1  0.29803000  0.33688000  0.38889000  1.0
  C  C126  1  0.20197000  0.33688000  0.88889000  1.0
  C  C127  1  0.70195000  0.66311000  0.61111000  1.0
  C  C128  1  0.94762000  0.78075000  0.10726000  1.0
  C  C129  1  0.44761000  0.21925000  0.39274000  1.0
  C  C130  1  0.05239000  0.21925000  0.89274000  1.0
  C  C131  1  0.55238000  0.78075000  0.60726000  1.0
  C  C132  1  0.16653000  0.66324000  0.23311000  1.0
  C  C133  1  0.66653000  0.33677000  0.26689000  1.0
  C  C134  1  0.83348000  0.33677000  0.76689000  1.0
  C  C135  1  0.33347000  0.66323000  0.73311000  1.0
  C  C136  1  0.21634000  0.73474000  0.30095000  1.0
  C  C137  1  0.71635000  0.26527000  0.19905000  1.0
  C  C138  1  0.78366000  0.26526000  0.69906000  1.0
  C  C139  1  0.28365000  0.73474000  0.80095000  1.0
  C  C140  1  0.25824000  0.67029000  0.39559000  1.0
  C  C141  1  0.75824000  0.32971000  0.10440000  1.0
  C  C142  1  0.74176000  0.32971000  0.60441000  1.0
  C  C143  1  0.24176000  0.67029000  0.89560000  1.0
  C  C144  1  0.36199000  0.60581000  0.38015000  1.0
  C  C145  1  0.86198000  0.39419000  0.11984000  1.0
  C  C146  1  0.63801000  0.39418000  0.61985000  1.0
  C  C147  1  0.13802000  0.60581000  0.88016000  1.0
  N  N148  1  0.17828000  0.39498000  0.13840000  1.0
  N  N149  1  0.67828000  0.60502000  0.36160000  1.0
  N  N150  1  0.82172000  0.60503000  0.86159000  1.0
  N  N151  1  0.32172000  0.39498000  0.63840000  1.0
  N  N152  1  0.06989000  0.08307000  0.14560000  1.0
  N  N153  1  0.56989000  0.91693000  0.35440000  1.0
  N  N154  1  0.93011000  0.91693000  0.85440000  1.0
  N  N155  1  0.43011000  0.08307000  0.64560000  1.0
  N  N156  1  0.02908000  0.98089000  0.14398000  1.0
  N  N157  1  0.52908000  0.01911000  0.35602000  1.0
  N  N158  1  0.97092000  0.01911000  0.85602000  1.0
  N  N159  1  0.47091000  0.98089000  0.64398000  1.0
  N  N160  1  0.90912000  0.68016000  0.10834000  1.0
  N  N161  1  0.40912000  0.31984000  0.39167000  1.0
  N  N162  1  0.09088000  0.31984000  0.89166000  1.0
  N  N163  1  0.59087000  0.68015000  0.60833000  1.0
  O  O164  1  0.10492000  0.58415000  0.27147000  1.0
  O  O165  1  0.60491000  0.41586000  0.22853000  1.0
  O  O166  1  0.89509000  0.41586000  0.72853000  1.0
  O  O167  1  0.39508000  0.58414000  0.77147000  1.0
  O  O168  1  0.18185000  0.68648000  0.14217000  1.0
  O  O169  1  0.68185000  0.31353000  0.35783000  1.0
  O  O170  1  0.81816000  0.31352000  0.85783000  1.0
  O  O171  1  0.31814000  0.68647000  0.64217000  1.0
  O  O172  1  0.38850000  0.58703000  0.29677000  1.0
  O  O173  1  0.88848000  0.41299000  0.20322000  1.0
  O  O174  1  0.61150000  0.41296000  0.70323000  1.0
  O  O175  1  0.11152000  0.58701000  0.79678000  1.0
  O  O176  1  0.42116000  0.56871000  0.45517000  1.0
  O  O177  1  0.92117000  0.43128000  0.04483000  1.0
  O  O178  1  0.57884000  0.43129000  0.54484000  1.0
  O  O179  1  0.07883000  0.56873000  0.95517000  1.0
