# generated using pymatgen
data_MnCrH22C31N8(ClO)2
_symmetry_space_group_name_H-M   'P 1'
_cell_length_a   10.30070000
_cell_length_b   11.56710000
_cell_length_c   14.75010000
_cell_angle_alpha   68.07070000
_cell_angle_beta   84.90100000
_cell_angle_gamma   87.35550000
_symmetry_Int_Tables_number   1
_chemical_formula_structural   MnCrH22C31N8(ClO)2
_chemical_formula_sum   'Mn2 Cr2 H44 C62 N16 Cl4 O4'
_cell_volume   1623.69131954
_cell_formula_units_Z   2
loop_
 _symmetry_equiv_pos_site_id
 _symmetry_equiv_pos_as_xyz
  1  'x, y, z'
loop_
 _atom_site_type_symbol
 _atom_site_label
 _atom_site_symmetry_multiplicity
 _atom_site_fract_x
 _atom_site_fract_y
 _atom_site_fract_z
 _atom_site_occupancy
  Mn  Mn0  1  0.61528000  0.00566000  0.74440000  1.0
  Mn  Mn1  1  0.38472000  0.99434000  0.25559000  1.0
  Cr  Cr2  1  0.11675000  0.00487000  0.73903000  1.0
  Cr  Cr3  1  0.88325000  0.99512000  0.26097000  1.0
  H  H4  1  0.54422000  0.90851000  0.06537000  1.0
  H  H5  1  0.45578000  0.09149000  0.93462000  1.0
  H  H6  1  0.59749000  0.70657000  0.19410000  1.0
  H  H7  1  0.40251000  0.29343000  0.80590000  1.0
  H  H8  1  0.57025000  0.64447000  0.81924000  1.0
  H  H9  1  0.42977000  0.35553000  0.18075000  1.0
  H  H10  1  0.72610000  0.38827000  0.41379000  1.0
  H  H11  1  0.27388000  0.61173000  0.58621000  1.0
  H  H12  1  0.61483000  0.38685000  0.74973000  1.0
  H  H13  1  0.38516000  0.61316000  0.25026000  1.0
  H  H14  1  0.28906000  0.64141000  0.03765000  1.0
  H  H15  1  0.71094000  0.35860000  0.96235000  1.0
  H  H16  1  0.12965000  0.16641000  0.01514000  1.0
  H  H17  1  0.87035000  0.83359000  0.98487000  1.0
  H  H18  1  0.20569000  0.98758000  0.07795000  1.0
  H  H19  1  0.79431000  0.01242000  0.92205000  1.0
  H  H20  1  0.60775000  0.91330000  0.50206000  1.0
  H  H21  1  0.39225000  0.08670000  0.49794000  1.0
  H  H22  1  0.70583000  0.78402000  0.56284000  1.0
  H  H23  1  0.29417000  0.21598000  0.43716000  1.0
  H  H24  1  0.82134000  0.89131000  0.63964000  1.0
  H  H25  1  0.17865000  0.10869000  0.36036000  1.0
  H  H26  1  0.82064000  0.98478000  0.51409000  1.0
  H  H27  1  0.17935000  0.01522000  0.48591000  1.0
  H  H28  1  0.63825000  0.53414000  0.97974000  1.0
  H  H29  1  0.36177000  0.46585000  0.02026000  1.0
  H  H30  1  0.21538000  0.74167000  0.86794000  1.0
  H  H31  1  0.78462000  0.25833000  0.13206000  1.0
  H  H32  1  0.28478000  0.77186000  0.14367000  1.0
  H  H33  1  0.71522000  0.22814000  0.85634000  1.0
  H  H34  1  0.51616000  0.72728000  0.67107000  1.0
  H  H35  1  0.48384000  0.27272000  0.32893000  1.0
  H  H36  1  0.45825000  0.88228000  0.63488000  1.0
  H  H37  1  0.54174000  0.11772000  0.36512000  1.0
  H  H38  1  0.63012000  0.58702000  0.60687000  1.0
  H  H39  1  0.36987000  0.41298000  0.39312000  1.0
  H  H40  1  0.02286000  0.28104000  0.67326000  1.0
  H  H41  1  0.97715000  0.71897000  0.32674000  1.0
  H  H42  1  0.77175000  0.17665000  0.47618000  1.0
  H  H43  1  0.22823000  0.82335000  0.52382000  1.0
  H  H44  1  0.05364000  0.38310000  0.92401000  1.0
  H  H45  1  0.94638000  0.61690000  0.07600000  1.0
  H  H46  1  0.00046000  0.44354000  0.74831000  1.0
  H  H47  1  0.99957000  0.55648000  0.25170000  1.0
  C  C48  1  0.57197000  0.84120000  0.94622000  1.0
  C  C49  1  0.42803000  0.15879000  0.05378000  1.0
  C  C50  1  0.56839000  0.82744000  0.04597000  1.0
  C  C51  1  0.43162000  0.17256000  0.95403000  1.0
  C  C52  1  0.06084000  0.11528000  0.60762000  1.0
  C  C53  1  0.93917000  0.88470000  0.39238000  1.0
  C  C54  1  0.68913000  0.27435000  0.56717000  1.0
  C  C55  1  0.31085000  0.72565000  0.43282000  1.0
  C  C56  1  0.15922000  0.85777000  0.70029000  1.0
  C  C57  1  0.84078000  0.14223000  0.29972000  1.0
  C  C58  1  0.59608000  0.71393000  0.11830000  1.0
  C  C59  1  0.40392000  0.28607000  0.88170000  1.0
  C  C60  1  0.65665000  0.27188000  0.66388000  1.0
  C  C61  1  0.34335000  0.72812000  0.33611000  1.0
  C  C62  1  0.58367000  0.73488000  0.82549000  1.0
  C  C63  1  0.41634000  0.26510000  0.17452000  1.0
  C  C64  1  0.59586000  0.73230000  0.92269000  1.0
  C  C65  1  0.40415000  0.26770000  0.07730000  1.0
  C  C66  1  0.16610000  0.98097000  0.93805000  1.0
  C  C67  1  0.83390000  0.01903000  0.06196000  1.0
  C  C68  1  0.69929000  0.38899000  0.48680000  1.0
  C  C69  1  0.30070000  0.61101000  0.51319000  1.0
  C  C70  1  0.63906000  0.38723000  0.67621000  1.0
  C  C71  1  0.36093000  0.61278000  0.32378000  1.0
  C  C72  1  0.11800000  0.10968000  0.89202000  1.0
  C  C73  1  0.88200000  0.89032000  0.10799000  1.0
  C  C74  1  0.25407000  0.73770000  0.01158000  1.0
  C  C75  1  0.74593000  0.26230000  0.98842000  1.0
  C  C76  1  0.10510000  0.19444000  0.93954000  1.0
  C  C77  1  0.89490000  0.80556000  0.06048000  1.0
  C  C78  1  0.92947000  0.94982000  0.78058000  1.0
  C  C79  1  0.07052000  0.05018000  0.21943000  1.0
  C  C80  1  0.20724000  0.93146000  0.03292000  1.0
  C  C81  1  0.79276000  0.06854000  0.96708000  1.0
  C  C82  1  0.65382000  0.86509000  0.57094000  1.0
  C  C83  1  0.34618000  0.13491000  0.42906000  1.0
  C  C84  1  0.75810000  0.94726000  0.58239000  1.0
  C  C85  1  0.24190000  0.05274000  0.41761000  1.0
  C  C86  1  0.62056000  0.61682000  0.99804000  1.0
  C  C87  1  0.37945000  0.38317000  0.00196000  1.0
  C  C88  1  0.21325000  0.79213000  0.91738000  1.0
  C  C89  1  0.78675000  0.20787000  0.08262000  1.0
  C  C90  1  0.30733000  0.05116000  0.70224000  1.0
  C  C91  1  0.69266000  0.94884000  0.29776000  1.0
  C  C92  1  0.25155000  0.80859000  0.07013000  1.0
  C  C93  1  0.74845000  0.19141000  0.92987000  1.0
  C  C94  1  0.62432000  0.60842000  0.09399000  1.0
  C  C95  1  0.37569000  0.39157000  0.90601000  1.0
  C  C96  1  0.67585000  0.49985000  0.50141000  1.0
  C  C97  1  0.32414000  0.50016000  0.49858000  1.0
  C  C98  1  0.54589000  0.82346000  0.65547000  1.0
  C  C99  1  0.45410000  0.17654000  0.34453000  1.0
  C  C100  1  0.64714000  0.49901000  0.59646000  1.0
  C  C101  1  0.35285000  0.50100000  0.40353000  1.0
  C  C102  1  0.04507000  0.26017000  0.74864000  1.0
  C  C103  1  0.95494000  0.73983000  0.25137000  1.0
  C  C104  1  0.72300000  0.16297000  0.54863000  1.0
  C  C105  1  0.27699000  0.83704000  0.45136000  1.0
  C  C106  1  0.06218000  0.31548000  0.88844000  1.0
  C  C107  1  0.93784000  0.68452000  0.11157000  1.0
  C  C108  1  0.03217000  0.34925000  0.79146000  1.0
  C  C109  1  0.96785000  0.65076000  0.20856000  1.0
  N  N110  1  0.70381000  0.04964000  0.61023000  1.0
  N  N111  1  0.29617000  0.95035000  0.38977000  1.0
  N  N112  1  0.58065000  0.83397000  0.74631000  1.0
  N  N113  1  0.41936000  0.16603000  0.25368000  1.0
  N  N114  1  0.17008000  0.91114000  0.88127000  1.0
  N  N115  1  0.82991000  0.08886000  0.11873000  1.0
  N  N116  1  0.08746000  0.14320000  0.79757000  1.0
  N  N117  1  0.91254000  0.85680000  0.20243000  1.0
  N  N118  1  0.42055000  0.06502000  0.69102000  1.0
  N  N119  1  0.57944000  0.93499000  0.30898000  1.0
  N  N120  1  0.81861000  0.92618000  0.80269000  1.0
  N  N121  1  0.18139000  0.07382000  0.19732000  1.0
  N  N122  1  0.02563000  0.18591000  0.53290000  1.0
  N  N123  1  0.97437000  0.81410000  0.46709000  1.0
  N  N124  1  0.19271000  0.76843000  0.68390000  1.0
  N  N125  1  0.80728000  0.23156000  0.31609000  1.0
  Cl  Cl126  1  0.66910000  0.46902000  0.18411000  1.0
  Cl  Cl127  1  0.33090000  0.53098000  0.81589000  1.0
  Cl  Cl128  1  0.68065000  0.64148000  0.40381000  1.0
  Cl  Cl129  1  0.31935000  0.35852000  0.59618000  1.0
  O  O130  1  0.54987000  0.95179000  0.87955000  1.0
  O  O131  1  0.45013000  0.04820000  0.12045000  1.0
  O  O132  1  0.64578000  0.16735000  0.74195000  1.0
  O  O133  1  0.35422000  0.83265000  0.25805000  1.0
