# generated using pymatgen
data_LaH21(C6O5)2
_symmetry_space_group_name_H-M   'P 1'
_cell_length_a   8.76577000
_cell_length_b   9.92473000
_cell_length_c   11.84340000
_cell_angle_alpha   74.85200000
_cell_angle_beta   69.54070000
_cell_angle_gamma   86.84310000
_symmetry_Int_Tables_number   1
_chemical_formula_structural   LaH21(C6O5)2
_chemical_formula_sum   'La2 H42 C24 O20'
_cell_volume   931.06522551
_cell_formula_units_Z   2
loop_
 _symmetry_equiv_pos_site_id
 _symmetry_equiv_pos_as_xyz
  1  'x, y, z'
loop_
 _atom_site_type_symbol
 _atom_site_label
 _atom_site_symmetry_multiplicity
 _atom_site_fract_x
 _atom_site_fract_y
 _atom_site_fract_z
 _atom_site_occupancy
  La  La0  1  0.75107000  0.48277000  0.50166000  1.0
  La  La1  1  0.24892000  0.51723000  0.49835000  1.0
  H  H2  1  0.23694000  0.28117000  0.86305000  1.0
  H  H3  1  0.76305000  0.71883000  0.13695000  1.0
  H  H4  1  0.20039000  0.46041000  0.83546000  1.0
  H  H5  1  0.79960000  0.53959000  0.16455000  1.0
  H  H6  1  0.39674000  0.29822000  0.99587000  1.0
  H  H7  1  0.60325000  0.70177000  0.00414000  1.0
  H  H8  1  0.39499000  0.48176000  0.95277000  1.0
  H  H9  1  0.60500000  0.51823000  0.04723000  1.0
  H  H10  1  0.09288000  0.47295000  0.05738000  1.0
  H  H11  1  0.90712000  0.52705000  0.94262000  1.0
  H  H12  1  0.08929000  0.28925000  0.10381000  1.0
  H  H13  1  0.91069000  0.71076000  0.89619000  1.0
  H  H14  1  0.26212000  0.29866000  0.23254000  1.0
  H  H15  1  0.73787000  0.70134000  0.76746000  1.0
  H  H16  1  0.29090000  0.47980000  0.17196000  1.0
  H  H17  1  0.70910000  0.52020000  0.82804000  1.0
  H  H18  1  0.70807000  0.96901000  0.55868000  1.0
  H  H19  1  0.29193000  0.03100000  0.44132000  1.0
  H  H20  1  0.70967000  0.97531000  0.70598000  1.0
  H  H21  1  0.29033000  0.02469000  0.29402000  1.0
  H  H22  1  0.95521000  0.86057000  0.60024000  1.0
  H  H23  1  0.04479000  0.13944000  0.39975000  1.0
  H  H24  1  0.01057000  0.01720000  0.62236000  1.0
  H  H25  1  0.98943000  0.98280000  0.37763000  1.0
  H  H26  1  0.96938000  0.71344000  0.24980000  1.0
  H  H27  1  0.03062000  0.28655000  0.75020000  1.0
  H  H28  1  0.71597000  0.77681000  0.44141000  1.0
  H  H29  1  0.28402000  0.22319000  0.55859000  1.0
  H  H30  1  0.52736000  0.75533000  0.51012000  1.0
  H  H31  1  0.47264000  0.24467000  0.48987000  1.0
  H  H32  1  0.99516000  0.74170000  0.36487000  1.0
  H  H33  1  0.00483000  0.25829000  0.63513000  1.0
  H  H34  1  0.75366000  0.93997000  0.98225000  1.0
  H  H35  1  0.24636000  0.06003000  0.01774000  1.0
  H  H36  1  0.66015000  0.01724000  0.10475000  1.0
  H  H37  1  0.33986000  0.98276000  0.89525000  1.0
  H  H38  1  0.94662000  0.11147000  0.07345000  1.0
  H  H39  1  0.05339000  0.88853000  0.92655000  1.0
  H  H40  1  0.90614000  0.93007000  0.13803000  1.0
  H  H41  1  0.09387000  0.06993000  0.86197000  1.0
  H  H42  1  0.62216000  0.25698000  0.83629000  1.0
  H  H43  1  0.37784000  0.74303000  0.16372000  1.0
  C  C44  1  0.43978000  0.41224000  0.73716000  1.0
  C  C45  1  0.56021000  0.58776000  0.26285000  1.0
  C  C46  1  0.29017000  0.38366000  0.85331000  1.0
  C  C47  1  0.70982000  0.61634000  0.14670000  1.0
  C  C48  1  0.32209000  0.38619000  0.97154000  1.0
  C  C49  1  0.67790000  0.61380000  0.02846000  1.0
  C  C50  1  0.16555000  0.38366000  0.08210000  1.0
  C  C51  1  0.83444000  0.61634000  0.91790000  1.0
  C  C52  1  0.20303000  0.39280000  0.19621000  1.0
  C  C53  1  0.79696000  0.60720000  0.80380000  1.0
  C  C54  1  0.05798000  0.41556000  0.30337000  1.0
  C  C55  1  0.94202000  0.58444000  0.69664000  1.0
  C  C56  1  0.75354000  0.17135000  0.57552000  1.0
  C  C57  1  0.24646000  0.82865000  0.42448000  1.0
  C  C58  1  0.77313000  0.01536000  0.60446000  1.0
  C  C59  1  0.22687000  0.98464000  0.39554000  1.0
  C  C60  1  0.95171000  0.97483000  0.56996000  1.0
  C  C61  1  0.04829000  0.02517000  0.43004000  1.0
  C  C62  1  0.75972000  0.16188000  0.92953000  1.0
  C  C63  1  0.24030000  0.83813000  0.07047000  1.0
  C  C64  1  0.76961000  0.02589000  0.02070000  1.0
  C  C65  1  0.23040000  0.97411000  0.97930000  1.0
  C  C66  1  0.92503000  0.01407000  0.05231000  1.0
  C  C67  1  0.07498000  0.98593000  0.94769000  1.0
  O  O68  1  0.58215000  0.38919000  0.74290000  1.0
  O  O69  1  0.41784000  0.61081000  0.25711000  1.0
  O  O70  1  0.42549000  0.46197000  0.63028000  1.0
  O  O71  1  0.57450000  0.53803000  0.36973000  1.0
  O  O72  1  0.91415000  0.40776000  0.30357000  1.0
  O  O73  1  0.08584000  0.59224000  0.69644000  1.0
  O  O74  1  0.08313000  0.44450000  0.39569000  1.0
  O  O75  1  0.91686000  0.55550000  0.60432000  1.0
  O  O76  1  0.85043000  0.24863000  0.59381000  1.0
  O  O77  1  0.14956000  0.75137000  0.40619000  1.0
  O  O78  1  0.64279000  0.22802000  0.53444000  1.0
  O  O79  1  0.35721000  0.77198000  0.46556000  1.0
  O  O80  1  0.90742000  0.71636000  0.33653000  1.0
  O  O81  1  0.09258000  0.28363000  0.66346000  1.0
  O  O82  1  0.63310000  0.73222000  0.52211000  1.0
  O  O83  1  0.36690000  0.26778000  0.47788000  1.0
  O  O84  1  0.63115000  0.16273000  0.89419000  1.0
  O  O85  1  0.36886000  0.83728000  0.10582000  1.0
  O  O86  1  0.85797000  0.26220000  0.89328000  1.0
  O  O87  1  0.14205000  0.73780000  0.10672000  1.0
