# generated using pymatgen
data_Al2H19C29(NO6)3
_symmetry_space_group_name_H-M   'P 1'
_cell_length_a   6.70734000
_cell_length_b   22.49280000
_cell_length_c   25.54130000
_cell_angle_alpha   91.04660000
_cell_angle_beta   90.59580000
_cell_angle_gamma   90.46680000
_symmetry_Int_Tables_number   1
_chemical_formula_structural   Al2H19C29(NO6)3
_chemical_formula_sum   'Al4 H38 C58 N6 O36'
_cell_volume   3852.35056071
_cell_formula_units_Z   2
loop_
 _symmetry_equiv_pos_site_id
 _symmetry_equiv_pos_as_xyz
  1  'x, y, z'
loop_
 _atom_site_type_symbol
 _atom_site_label
 _atom_site_symmetry_multiplicity
 _atom_site_fract_x
 _atom_site_fract_y
 _atom_site_fract_z
 _atom_site_occupancy
  Al  Al0  1  0.27905000  0.25572000  0.74695000  1.0
  Al  Al1  1  0.72875000  0.74419000  0.25340000  1.0
  Al  Al2  1  0.77862000  0.25393000  0.74622000  1.0
  Al  Al3  1  0.22961000  0.74763000  0.25435000  1.0
  H  H4  1  0.87433000  0.43426000  0.94994000  1.0
  H  H5  1  0.13212000  0.56577000  0.04961000  1.0
  H  H6  1  0.57077000  0.14989000  0.88756000  1.0
  H  H7  1  0.36540000  0.84655000  0.07941000  1.0
  H  H8  1  0.77840000  0.61468000  0.13830000  1.0
  H  H9  1  0.22498000  0.37960000  0.86558000  1.0
  H  H10  1  0.76587000  0.54274000  0.06166000  1.0
  H  H11  1  0.23788000  0.45174000  0.94205000  1.0
  H  H12  1  0.86175000  0.36212000  0.87300000  1.0
  H  H13  1  0.14492000  0.63789000  0.12662000  1.0
  H  H14  1  0.79500000  0.64773000  0.33751000  1.0
  H  H15  1  0.21462000  0.35411000  0.66327000  1.0
  H  H16  1  0.76362000  0.53781000  0.43635000  1.0
  H  H17  1  0.24460000  0.46273000  0.56337000  1.0
  H  H18  1  0.85927000  0.41802000  0.53610000  1.0
  H  H19  1  0.14870000  0.58236000  0.46372000  1.0
  H  H20  1  0.99527000  0.35289000  0.60409000  1.0
  H  H21  1  0.01343000  0.64826000  0.39609000  1.0
  H  H22  1  0.54842000  0.92805000  0.16245000  1.0
  H  H23  1  0.34846000  0.15415000  0.82647000  1.0
  H  H24  1  0.71353000  0.02990000  0.06505000  1.0
  H  H25  1  0.23806000  0.97106000  0.93627000  1.0
  H  H26  1  0.47456000  0.04618000  0.92574000  1.0
  H  H27  1  0.49684000  0.95450000  0.07297000  1.0
  H  H28  1  0.24806000  0.93350000  0.00524000  1.0
  H  H29  1  0.69607000  0.06634000  0.99058000  1.0
  H  H30  1  0.71305000  0.12825000  0.62422000  1.0
  H  H31  1  0.29345000  0.87051000  0.37671000  1.0
  H  H32  1  0.74255000  0.01866000  0.52013000  1.0
  H  H33  1  0.26385000  0.98000000  0.48126000  1.0
  H  H34  1  0.63044000  0.93579000  0.44217000  1.0
  H  H35  1  0.37560000  0.06370000  0.55840000  1.0
  H  H36  1  0.65252000  0.86042000  0.36884000  1.0
  H  H37  1  0.35466000  0.13968000  0.63065000  1.0
  H  H38  1  0.52165000  0.18046000  0.72673000  1.0
  H  H39  1  0.48876000  0.81628000  0.22804000  1.0
  H  H40  1  0.02730000  0.33046000  0.76367000  1.0
  H  H41  1  0.98473000  0.67096000  0.23477000  1.0
  C  C42  1  0.53693000  0.32581000  0.81859000  1.0
  C  C43  1  0.46775000  0.67168000  0.18323000  1.0
  C  C44  1  0.53300000  0.32251000  0.67264000  1.0
  C  C45  1  0.47715000  0.67971000  0.32840000  1.0
  C  C46  1  0.02410000  0.18183000  0.67612000  1.0
  C  C47  1  0.98425000  0.81780000  0.32444000  1.0
  C  C48  1  0.02710000  0.18584000  0.81995000  1.0
  C  C49  1  0.97055000  0.81641000  0.18383000  1.0
  C  C50  1  0.02653000  0.14482000  0.86457000  1.0
  C  C51  1  0.96140000  0.86201000  0.14233000  1.0
  C  C52  1  0.85293000  0.13457000  0.89400000  1.0
  C  C53  1  0.11943000  0.87055000  0.10743000  1.0
  C  C54  1  0.84524000  0.08716000  0.92910000  1.0
  C  C55  1  0.11333000  0.91543000  0.06974000  1.0
  C  C56  1  0.01224000  0.05080000  0.93832000  1.0
  C  C57  1  0.94130000  0.94975000  0.06149000  1.0
  C  C58  1  0.18691000  0.06276000  0.90941000  1.0
  C  C59  1  0.78017000  0.93895000  0.09573000  1.0
  C  C60  1  0.19632000  0.10957000  0.87442000  1.0
  C  C61  1  0.79203000  0.89853000  0.13662000  1.0
  C  C62  1  0.01568000  0.00095000  0.97523000  1.0
  C  C63  1  0.92724000  0.99801000  0.02326000  1.0
  C  C64  1  0.97414000  0.86168000  0.36897000  1.0
  C  C65  1  0.03281000  0.13776000  0.63199000  1.0
  C  C66  1  0.14934000  0.88494000  0.39123000  1.0
  C  C67  1  0.85764000  0.11395000  0.60997000  1.0
  C  C68  1  0.14028000  0.92725000  0.43197000  1.0
  C  C69  1  0.86634000  0.07148000  0.56936000  1.0
  C  C70  1  0.94933000  0.94579000  0.45044000  1.0
  C  C71  1  0.05695000  0.05304000  0.55073000  1.0
  C  C72  1  0.77428000  0.92108000  0.42756000  1.0
  C  C73  1  0.23175000  0.07815000  0.57317000  1.0
  C  C74  1  0.78584000  0.87963000  0.38726000  1.0
  C  C75  1  0.22043000  0.11994000  0.61324000  1.0
  C  C76  1  0.54306000  0.36744000  0.86452000  1.0
  C  C77  1  0.46179000  0.62982000  0.13713000  1.0
  C  C78  1  0.36633000  0.39212000  0.88423000  1.0
  C  C79  1  0.63781000  0.60351000  0.11861000  1.0
  C  C80  1  0.37259000  0.43174000  0.92641000  1.0
  C  C81  1  0.63173000  0.56401000  0.07633000  1.0
  C  C82  1  0.55759000  0.44707000  0.94978000  1.0
  C  C83  1  0.44762000  0.55035000  0.05169000  1.0
  C  C84  1  0.73393000  0.42186000  0.93065000  1.0
  C  C85  1  0.27199000  0.57701000  0.06973000  1.0
  C  C86  1  0.72670000  0.38234000  0.88823000  1.0
  C  C87  1  0.27922000  0.61652000  0.11219000  1.0
  C  C88  1  0.53685000  0.35993000  0.62590000  1.0
  C  C89  1  0.47195000  0.64131000  0.37462000  1.0
  C  C90  1  0.36684000  0.39411000  0.61178000  1.0
  C  C91  1  0.64179000  0.60699000  0.38844000  1.0
  C  C92  1  0.37502000  0.43649000  0.57305000  1.0
  C  C93  1  0.63334000  0.56419000  0.42684000  1.0
  C  C94  1  0.55545000  0.44533000  0.54693000  1.0
  C  C95  1  0.45274000  0.55518000  0.45285000  1.0
  C  C96  1  0.72352000  0.41138000  0.55845000  1.0
  C  C97  1  0.28462000  0.58920000  0.44149000  1.0
  C  C98  1  0.71370000  0.36756000  0.59648000  1.0
  C  C99  1  0.29482000  0.63342000  0.40378000  1.0
  N  N100  1  0.92363000  0.98768000  0.49002000  1.0
  N  N101  1  0.08298000  0.01103000  0.51111000  1.0
  N  N102  1  0.58284000  0.48715000  0.99262000  1.0
  N  N103  1  0.42280000  0.51044000  0.00876000  1.0
  N  N104  1  0.58308000  0.48725000  0.50691000  1.0
  N  N105  1  0.42513000  0.51310000  0.49271000  1.0
  O  O106  1  0.69490000  0.30741000  0.69406000  1.0
  O  O107  1  0.31684000  0.69449000  0.30628000  1.0
  O  O108  1  0.36582000  0.31112000  0.79980000  1.0
  O  O109  1  0.63854000  0.68366000  0.20350000  1.0
  O  O110  1  0.20107000  0.20197000  0.80292000  1.0
  O  O111  1  0.80492000  0.79284000  0.19618000  1.0
  O  O112  1  0.35846000  0.30910000  0.69149000  1.0
  O  O113  1  0.65201000  0.69420000  0.31080000  1.0
  O  O114  1  0.19131000  0.19951000  0.69534000  1.0
  O  O115  1  0.81823000  0.80146000  0.30406000  1.0
  O  O116  1  0.70330000  0.30813000  0.80082000  1.0
  O  O117  1  0.30081000  0.69163000  0.19886000  1.0
  O  O118  1  0.52548000  0.21764000  0.74659000  1.0
  O  O119  1  0.48234000  0.78231000  0.25107000  1.0
  O  O120  1  0.85385000  0.19829000  0.69234000  1.0
  O  O121  1  0.15548000  0.80096000  0.30964000  1.0
  O  O122  1  0.86419000  0.20022000  0.79886000  1.0
  O  O123  1  0.14017000  0.80484000  0.20388000  1.0
  O  O124  1  0.03024000  0.29149000  0.74686000  1.0
  O  O125  1  0.97972000  0.70843000  0.25407000  1.0
  O  O126  1  0.69813000  0.17229000  0.88980000  1.0
  O  O127  1  0.28360000  0.83562000  0.10940000  1.0
  O  O128  1  0.81818000  0.61467000  0.36326000  1.0
  O  O129  1  0.19044000  0.38658000  0.63705000  1.0
  O  O130  1  0.86746000  0.33030000  0.60430000  1.0
  O  O131  1  0.14138000  0.67079000  0.39609000  1.0
  O  O132  1  0.64047000  0.89614000  0.17161000  1.0
  O  O133  1  0.37254000  0.11864000  0.84957000  1.0
  O  O134  1  0.81214000  0.04628000  0.03953000  1.0
  O  O135  1  0.13001000  0.95265000  0.95872000  1.0
  O  O136  1  0.34848000  0.02497000  0.91357000  1.0
  O  O137  1  0.60727000  0.97413000  0.09396000  1.0
  O  O138  1  0.28959000  0.92304000  0.04275000  1.0
  O  O139  1  0.66462000  0.07783000  0.95319000  1.0
  O  O140  1  0.69714000  0.04840000  0.54851000  1.0
  O  O141  1  0.30935000  0.95019000  0.45300000  1.0
