# generated using pymatgen
data_LiH5C5SO4
_symmetry_space_group_name_H-M   'P 1'
_cell_length_a   7.80320000
_cell_length_b   7.96936000
_cell_length_c   10.91270000
_cell_angle_alpha   104.45400000
_cell_angle_beta   90.00000000
_cell_angle_gamma   89.99990000
_symmetry_Int_Tables_number   1
_chemical_formula_structural   LiH5C5SO4
_chemical_formula_sum   'Li4 H20 C20 S4 O16'
_cell_volume   657.14319559
_cell_formula_units_Z   4
loop_
 _symmetry_equiv_pos_site_id
 _symmetry_equiv_pos_as_xyz
  1  'x, y, z'
loop_
 _atom_site_type_symbol
 _atom_site_label
 _atom_site_symmetry_multiplicity
 _atom_site_fract_x
 _atom_site_fract_y
 _atom_site_fract_z
 _atom_site_occupancy
  Li  Li0  1  0.64581000  0.25258000  0.08983000  1.0
  Li  Li1  1  0.14581000  0.24742000  0.91017000  1.0
  Li  Li2  1  0.35419000  0.74742000  0.91017000  1.0
  Li  Li3  1  0.85419000  0.75258000  0.08983000  1.0
  H  H4  1  0.54389000  0.57357000  0.13450000  1.0
  H  H5  1  0.04389000  0.92643000  0.86550000  1.0
  H  H6  1  0.45611000  0.42643000  0.86550000  1.0
  H  H7  1  0.95611000  0.07357000  0.13450000  1.0
  H  H8  1  0.38729000  0.44342000  0.11858000  1.0
  H  H9  1  0.88729000  0.05658000  0.88142000  1.0
  H  H10  1  0.61271000  0.55658000  0.88143000  1.0
  H  H11  1  0.11271000  0.94342000  0.11858000  1.0
  H  H12  1  0.32734000  0.31552000  0.27178000  1.0
  H  H13  1  0.82734000  0.18448000  0.72822000  1.0
  H  H14  1  0.67266000  0.68448000  0.72822000  1.0
  H  H15  1  0.17266000  0.81552000  0.27178000  1.0
  H  H16  1  0.74987000  0.54430000  0.32686000  1.0
  H  H17  1  0.24988000  0.95570000  0.67314000  1.0
  H  H18  1  0.25012000  0.45570000  0.67314000  1.0
  H  H19  1  0.75012000  0.04430000  0.32686000  1.0
  H  H20  1  0.43220000  0.33588000  0.48906000  1.0
  H  H21  1  0.93220000  0.16412000  0.51094000  1.0
  H  H22  1  0.56780000  0.66412000  0.51094000  1.0
  H  H23  1  0.06780000  0.83588000  0.48906000  1.0
  C  C24  1  0.08233000  0.42802000  0.33345000  1.0
  C  C25  1  0.58233000  0.07198000  0.66656000  1.0
  C  C26  1  0.91767000  0.57198000  0.66656000  1.0
  C  C27  1  0.41768000  0.92802000  0.33344000  1.0
  C  C28  1  0.24420000  0.36910000  0.35188000  1.0
  C  C29  1  0.74420000  0.13090000  0.64812000  1.0
  C  C30  1  0.75580000  0.63090000  0.64812000  1.0
  C  C31  1  0.25580000  0.86910000  0.35188000  1.0
  C  C32  1  0.96871000  0.49544000  0.43707000  1.0
  C  C33  1  0.46871000  0.00456000  0.56294000  1.0
  C  C34  1  0.03129000  0.50456000  0.56294000  1.0
  C  C35  1  0.53129000  0.99544000  0.43706000  1.0
  C  C36  1  0.79958000  0.55284000  0.42125000  1.0
  C  C37  1  0.29958000  0.94716000  0.57875000  1.0
  C  C38  1  0.20042000  0.44716000  0.57875000  1.0
  C  C39  1  0.70042000  0.05284000  0.42125000  1.0
  C  C40  1  0.30322000  0.38024000  0.47564000  1.0
  C  C41  1  0.80323000  0.11975000  0.52436000  1.0
  C  C42  1  0.69677000  0.61975000  0.52436000  1.0
  C  C43  1  0.19677000  0.88025000  0.47564000  1.0
  S  S44  1  0.01736000  0.41851000  0.17553000  1.0
  S  S45  1  0.51736000  0.08149000  0.82447000  1.0
  S  S46  1  0.98264000  0.58149000  0.82448000  1.0
  S  S47  1  0.48264000  0.91851000  0.17552000  1.0
  O  O48  1  0.87899000  0.28770000  0.14577000  1.0
  O  O49  1  0.37899000  0.21230000  0.85423000  1.0
  O  O50  1  0.12101000  0.71230000  0.85423000  1.0
  O  O51  1  0.62101000  0.78770000  0.14577000  1.0
  O  O52  1  0.95874000  0.59169000  0.17296000  1.0
  O  O53  1  0.45873000  0.90831000  0.82704000  1.0
  O  O54  1  0.04127000  0.40831000  0.82704000  1.0
  O  O55  1  0.54127000  0.09169000  0.17296000  1.0
  O  O56  1  0.16778000  0.36020000  0.09401000  1.0
  O  O57  1  0.66778000  0.13979000  0.90599000  1.0
  O  O58  1  0.83222000  0.63979000  0.90599000  1.0
  O  O59  1  0.33222000  0.86021000  0.09401000  1.0
  O  O60  1  0.51083000  0.45501000  0.13626000  1.0
  O  O61  1  0.01082000  0.04499000  0.86374000  1.0
  O  O62  1  0.48917000  0.54500000  0.86375000  1.0
  O  O63  1  0.98917000  0.95501000  0.13626000  1.0
