# generated using pymatgen
data_CuH6C6IN2O
_symmetry_space_group_name_H-M   'P 1'
_cell_length_a   3.98539000
_cell_length_b   13.38060000
_cell_length_c   16.44370000
_cell_angle_alpha   108.72600000
_cell_angle_beta   89.99980000
_cell_angle_gamma   89.99870000
_symmetry_Int_Tables_number   1
_chemical_formula_structural   CuH6C6IN2O
_chemical_formula_sum   'Cu4 H24 C24 I4 N8 O4'
_cell_volume   830.47316697
_cell_formula_units_Z   4
loop_
 _symmetry_equiv_pos_site_id
 _symmetry_equiv_pos_as_xyz
  1  'x, y, z'
loop_
 _atom_site_type_symbol
 _atom_site_label
 _atom_site_symmetry_multiplicity
 _atom_site_fract_x
 _atom_site_fract_y
 _atom_site_fract_z
 _atom_site_occupancy
  Cu  Cu0  1  0.55586000  0.43109000  0.74656000  1.0
  Cu  Cu1  1  0.94414000  0.43109000  0.24656000  1.0
  Cu  Cu2  1  0.44414000  0.56891000  0.25344000  1.0
  Cu  Cu3  1  0.05585000  0.56892000  0.75344000  1.0
  H  H4  1  0.86027000  0.43612000  0.90909000  1.0
  H  H5  1  0.63975000  0.43612000  0.40908000  1.0
  H  H6  1  0.13975000  0.56388000  0.09092000  1.0
  H  H7  1  0.36024000  0.56388000  0.59092000  1.0
  H  H8  1  0.00303000  0.31060000  0.98723000  1.0
  H  H9  1  0.49699000  0.31060000  0.48721000  1.0
  H  H10  1  0.99694000  0.68940000  0.01279000  1.0
  H  H11  1  0.50300000  0.68940000  0.51278000  1.0
  H  H12  1  0.53569000  0.06414000  0.77988000  1.0
  H  H13  1  0.96432000  0.06413000  0.27986000  1.0
  H  H14  1  0.46428000  0.93587000  0.22014000  1.0
  H  H15  1  0.03568000  0.93587000  0.72012000  1.0
  H  H16  1  0.39952000  0.20108000  0.71222000  1.0
  H  H17  1  0.10052000  0.20107000  0.21221000  1.0
  H  H18  1  0.60050000  0.79892000  0.28778000  1.0
  H  H19  1  0.89948000  0.79893000  0.78779000  1.0
  H  H20  1  0.91304000  0.07828000  0.05361000  1.0
  H  H21  1  0.58699000  0.07829000  0.55360000  1.0
  H  H22  1  0.08697000  0.92170000  0.94639000  1.0
  H  H23  1  0.41306000  0.92171000  0.44639000  1.0
  H  H24  1  0.75186000  0.20104000  0.05257000  1.0
  H  H25  1  0.74813000  0.20103000  0.55257000  1.0
  H  H26  1  0.24812000  0.79897000  0.94743000  1.0
  H  H27  1  0.25186000  0.79897000  0.44744000  1.0
  C  C28  1  0.78854000  0.35312000  0.88344000  1.0
  C  C29  1  0.71148000  0.35311000  0.38343000  1.0
  C  C30  1  0.21146000  0.64688000  0.11657000  1.0
  C  C31  1  0.28849000  0.64690000  0.61657000  1.0
  C  C32  1  0.86488000  0.28255000  0.92688000  1.0
  C  C33  1  0.63514000  0.28254000  0.42687000  1.0
  C  C34  1  0.13510000  0.71746000  0.07313000  1.0
  C  C35  1  0.36486000  0.71745000  0.57313000  1.0
  C  C36  1  0.77358000  0.17651000  0.89073000  1.0
  C  C37  1  0.72646000  0.17650000  0.39072000  1.0
  C  C38  1  0.22640000  0.82350000  0.10928000  1.0
  C  C39  1  0.27358000  0.82349000  0.60928000  1.0
  C  C40  1  0.60880000  0.14585000  0.81143000  1.0
  C  C41  1  0.89123000  0.14585000  0.31141000  1.0
  C  C42  1  0.39118000  0.85415000  0.18859000  1.0
  C  C43  1  0.10880000  0.85415000  0.68857000  1.0
  C  C44  1  0.53499000  0.22188000  0.77301000  1.0
  C  C45  1  0.96504000  0.22187000  0.27299000  1.0
  C  C46  1  0.46501000  0.77812000  0.22700000  1.0
  C  C47  1  0.03497000  0.77813000  0.72699000  1.0
  C  C48  1  0.86063000  0.09627000  0.93347000  1.0
  C  C49  1  0.63941000  0.09626000  0.43346000  1.0
  C  C50  1  0.13937000  0.90374000  0.06654000  1.0
  C  C51  1  0.36063000  0.90374000  0.56653000  1.0
  I  I52  1  0.57301000  0.61643000  0.86559000  1.0
  I  I53  1  0.92696000  0.61643000  0.36559000  1.0
  I  I54  1  0.42697000  0.38357000  0.13441000  1.0
  I  I55  1  0.07303000  0.38357000  0.63441000  1.0
  N  N56  1  0.62290000  0.32435000  0.80798000  1.0
  N  N57  1  0.87713000  0.32434000  0.30797000  1.0
  N  N58  1  0.37710000  0.67565000  0.19203000  1.0
  N  N59  1  0.12288000  0.67566000  0.69203000  1.0
  N  N60  1  0.84441000  0.12838000  0.01943000  1.0
  N  N61  1  0.65560000  0.12838000  0.51942000  1.0
  N  N62  1  0.15558000  0.87162000  0.98058000  1.0
  N  N63  1  0.34442000  0.87162000  0.48057000  1.0
  O  O64  1  0.94853000  0.00531000  0.88855000  1.0
  O  O65  1  0.55147000  0.00529000  0.38853000  1.0
  O  O66  1  0.05144000  0.99470000  0.11146000  1.0
  O  O67  1  0.44855000  0.99470000  0.61146000  1.0
