# generated using pymatgen
data_ZnH12C22Br2N3O4
_symmetry_space_group_name_H-M   'P 1'
_cell_length_a   10.97780000
_cell_length_b   16.01000000
_cell_length_c   17.28120000
_cell_angle_alpha   86.71140000
_cell_angle_beta   88.81500000
_cell_angle_gamma   88.07570000
_symmetry_Int_Tables_number   1
_chemical_formula_structural   ZnH12C22Br2N3O4
_chemical_formula_sum   'Zn2 H24 C44 Br4 N6 O8'
_cell_volume   3030.00305734
_cell_formula_units_Z   2
loop_
 _symmetry_equiv_pos_site_id
 _symmetry_equiv_pos_as_xyz
  1  'x, y, z'
loop_
 _atom_site_type_symbol
 _atom_site_label
 _atom_site_symmetry_multiplicity
 _atom_site_fract_x
 _atom_site_fract_y
 _atom_site_fract_z
 _atom_site_occupancy
  Zn  Zn0  1  0.50710000  0.41139000  0.50233000  1.0
  Zn  Zn1  1  0.49288000  0.58857000  0.49776000  1.0
  H  H2  1  0.73116000  0.85126000  0.32871000  1.0
  H  H3  1  0.31727000  0.28999000  0.71554000  1.0
  H  H4  1  0.77506000  0.58265000  0.34881000  1.0
  H  H5  1  0.22511000  0.41759000  0.65101000  1.0
  H  H6  1  0.96505000  0.73297000  0.50300000  1.0
  H  H7  1  0.03480000  0.26703000  0.49719000  1.0
  H  H8  1  0.87252000  0.86178000  0.43877000  1.0
  H  H9  1  0.12741000  0.13829000  0.56154000  1.0
  H  H10  1  0.11528000  0.62171000  0.44935000  1.0
  H  H11  1  0.88470000  0.37834000  0.55061000  1.0
  H  H12  1  0.54872000  0.36941000  0.24844000  1.0
  H  H13  1  0.26900000  0.14899000  0.67146000  1.0
  H  H14  1  0.45268000  0.63064000  0.75161000  1.0
  H  H15  1  0.54457000  0.38417000  0.10259000  1.0
  H  H16  1  0.45823000  0.61604000  0.89747000  1.0
  H  H17  1  0.52958000  0.35152000  0.88656000  1.0
  H  H18  1  0.47356000  0.64866000  0.11351000  1.0
  H  H19  1  0.52289000  0.36642000  0.74033000  1.0
  H  H20  1  0.47874000  0.63361000  0.25977000  1.0
  H  H21  1  0.60876000  0.09460000  0.58509000  1.0
  H  H22  1  0.39125000  0.90535000  0.41495000  1.0
  H  H23  1  0.64383000  0.70006000  0.56901000  1.0
  H  H24  1  0.35601000  0.29986000  0.43111000  1.0
  H  H25  1  0.68306000  0.71035000  0.28436000  1.0
  C  C26  1  0.48821000  0.50810000  0.65109000  1.0
  C  C27  1  0.53223000  0.43013000  0.21805000  1.0
  C  C28  1  0.47280000  0.56216000  0.86231000  1.0
  C  C29  1  0.52983000  0.43804000  0.13775000  1.0
  C  C30  1  0.49579000  0.48289000  0.89978000  1.0
  C  C31  1  0.50728000  0.51734000  0.10027000  1.0
  C  C32  1  0.51261000  0.41211000  0.85588000  1.0
  C  C33  1  0.49023000  0.58807000  0.14419000  1.0
  C  C34  1  0.50886000  0.42039000  0.77547000  1.0
  C  C35  1  0.49310000  0.57968000  0.22461000  1.0
  C  C36  1  0.43953000  0.77529000  0.44519000  1.0
  C  C37  1  0.51231000  0.49182000  0.34899000  1.0
  C  C38  1  0.56044000  0.22466000  0.55486000  1.0
  C  C39  1  0.44719000  0.86120000  0.45013000  1.0
  C  C40  1  0.55280000  0.13874000  0.54992000  1.0
  C  C41  1  0.73602000  0.49991000  0.50124000  1.0
  C  C42  1  0.26395000  0.50013000  0.49879000  1.0
  C  C43  1  0.53012000  0.89100000  0.50170000  1.0
  C  C44  1  0.46984000  0.10895000  0.49836000  1.0
  C  C45  1  0.60402000  0.83282000  0.54492000  1.0
  C  C46  1  0.39591000  0.16711000  0.45517000  1.0
  C  C47  1  0.58938000  0.74772000  0.53663000  1.0
  C  C48  1  0.12757000  0.49819000  0.50309000  1.0
  C  C49  1  0.41051000  0.25221000  0.46347000  1.0
  C  C50  1  0.74475000  0.71595000  0.33233000  1.0
  C  C51  1  0.25545000  0.28430000  0.66767000  1.0
  C  C52  1  0.79662000  0.64376000  0.36867000  1.0
  C  C53  1  0.20347000  0.35642000  0.63129000  1.0
  C  C54  1  0.87658000  0.64884000  0.43047000  1.0
  C  C55  1  0.12341000  0.35124000  0.56952000  1.0
  C  C56  1  0.90378000  0.72828000  0.45463000  1.0
  C  C57  1  0.09614000  0.27179000  0.54549000  1.0
  C  C58  1  0.85122000  0.80067000  0.41862000  1.0
  C  C59  1  0.87237000  0.50187000  0.49688000  1.0
  C  C60  1  0.14876000  0.19945000  0.58158000  1.0
  C  C61  1  0.77164000  0.79475000  0.35725000  1.0
  C  C62  1  0.22849000  0.20546000  0.64288000  1.0
  C  C63  1  0.06305000  0.56887000  0.47243000  1.0
  C  C64  1  0.93691000  0.43118000  0.52753000  1.0
  C  C65  1  0.06408000  0.42741000  0.53211000  1.0
  C  C66  1  0.93588000  0.57265000  0.46784000  1.0
  C  C67  1  0.48827000  0.49936000  0.73788000  1.0
  C  C68  1  0.51321000  0.50066000  0.26219000  1.0
  C  C69  1  0.46960000  0.56994000  0.78203000  1.0
  Br  Br70  1  0.67230000  0.26451000  0.62472000  1.0
  Br  Br71  1  0.32772000  0.73543000  0.37528000  1.0
  Br  Br72  1  0.71734000  0.86701000  0.61628000  1.0
  Br  Br73  1  0.28258000  0.13285000  0.38384000  1.0
  N  N74  1  0.50366000  0.46753000  0.98081000  1.0
  N  N75  1  0.49966000  0.53274000  0.01921000  1.0
  N  N76  1  0.50759000  0.71967000  0.48799000  1.0
  N  N77  1  0.49232000  0.28026000  0.51208000  1.0
  N  N78  1  0.54653000  0.97724000  0.50840000  1.0
  N  N79  1  0.45346000  0.02271000  0.49166000  1.0
  O  O80  1  0.49070000  0.43993000  0.61605000  1.0
  O  O81  1  0.50932000  0.55999000  0.38407000  1.0
  O  O82  1  0.48619000  0.58164000  0.61903000  1.0
  O  O83  1  0.51406000  0.41828000  0.38101000  1.0
  O  O84  1  0.68942000  0.42855000  0.49687000  1.0
  O  O85  1  0.31050000  0.57150000  0.50330000  1.0
  O  O86  1  0.67752000  0.56853000  0.51076000  1.0
  O  O87  1  0.32247000  0.43155000  0.48921000  1.0
