# generated using pymatgen
data_VH3C8O5
_symmetry_space_group_name_H-M   'P 1'
_cell_length_a   11.93580000
_cell_length_b   12.23323117
_cell_length_c   12.23320545
_cell_angle_alpha   76.23113602
_cell_angle_beta   60.80121784
_cell_angle_gamma   60.80100231
_symmetry_Int_Tables_number   1
_chemical_formula_structural   VH3C8O5
_chemical_formula_sum   'V4 H12 C32 O20'
_cell_volume   1361.11037662
_cell_formula_units_Z   4
loop_
 _symmetry_equiv_pos_site_id
 _symmetry_equiv_pos_as_xyz
  1  'x, y, z'
loop_
 _atom_site_type_symbol
 _atom_site_label
 _atom_site_symmetry_multiplicity
 _atom_site_fract_x
 _atom_site_fract_y
 _atom_site_fract_z
 _atom_site_occupancy
  C  C0  1  0.51449500  0.04656500  0.26890500  1.0
  C  C1  1  0.40619000  0.02521500  0.39007500  1.0
  C  C2  1  0.42343000  0.99999500  0.50000500  1.0
  C  C3  1  0.28746000  0.02766000  0.39087000  1.0
  C  C4  1  0.32148500  0.97477500  0.60992500  1.0
  C  C5  1  0.18674000  0.00000000  0.50000000  1.0
  C  C6  1  0.20598500  0.97234000  0.60914000  1.0
  C  C7  1  0.32996500  0.95343500  0.73110500  1.0
  C  C8  1  0.31103000  0.26883000  0.95357000  1.0
  C  C9  1  0.18137000  0.39005500  0.97488500  1.0
  C  C10  1  0.17346500  0.50000500  0.99999500  1.0
  C  C11  1  0.06510000  0.39087000  0.97240000  1.0
  C  C12  1  0.04631500  0.60994500  0.02510500  1.0
  C  C13  1  0.93672500  0.50000000  0.00000000  1.0
  C  C14  1  0.92837500  0.60913000  0.02759000  1.0
  C  C15  1  0.03343000  0.73117000  0.04643000  1.0
  C  C16  1  0.48548500  0.73112500  0.95345500  1.0
  C  C17  1  0.59380000  0.60993500  0.97478500  1.0
  C  C18  1  0.57656500  0.50000000  0.00000000  1.0
  C  C19  1  0.71253000  0.60913500  0.97234500  1.0
  C  C20  1  0.67852000  0.39006500  0.02521500  1.0
  C  C21  1  0.81326000  0.50000000  0.00000000  1.0
  C  C22  1  0.79401500  0.39086500  0.02765500  1.0
  C  C23  1  0.67006500  0.26888000  0.04655000  1.0
  C  C24  1  0.68897500  0.04641000  0.73119000  1.0
  C  C25  1  0.81862500  0.02510500  0.60995500  1.0
  C  C26  1  0.82653000  1.00000000  0.50000000  1.0
  C  C27  1  0.93490000  0.02758500  0.60913500  1.0
  C  C28  1  0.95368500  0.97489500  0.39004500  1.0
  C  C29  1  0.06327000  0.00000000  0.50000000  1.0
  C  C30  1  0.07162000  0.97241500  0.39086500  1.0
  C  C31  1  0.96657500  0.95359000  0.26881000  1.0
  H  H32  1  0.51462500  1.00000000  0.50000000  1.0
  H  H33  1  0.27550000  0.05154000  0.30431000  1.0
  H  H34  1  0.13135000  0.94846000  0.69570000  1.0
  H  H35  1  0.26466500  0.49999500  0.99999500  1.0
  H  H36  1  0.07703000  0.30432000  0.94850000  1.0
  H  H37  1  0.82985000  0.69568500  0.05149500  1.0
  H  H38  1  0.48536500  0.50000000  1.00000000  1.0
  H  H39  1  0.72448500  0.69570000  0.94847000  1.0
  H  H40  1  0.86866000  0.30430500  0.05152500  1.0
  H  H41  1  0.73533500  0.00000000  0.50000000  1.0
  H  H42  1  0.92297000  0.05148500  0.69568500  1.0
  H  H43  1  0.17015000  0.94851000  0.30431000  1.0
  O  O44  1  0.64044000  0.00370000  0.25715000  1.0
  O  O45  1  0.47160000  0.10539500  0.18450500  1.0
  O  O46  1  0.26149000  0.89461500  0.81550500  1.0
  O  O47  1  0.40129000  0.99630000  0.74285000  1.0
  O  O48  1  0.39409000  0.25711500  0.99643500  1.0
  O  O49  1  0.32701000  0.18446500  0.89468500  1.0
  O  O50  1  0.90615500  0.81554500  0.10531500  1.0
  O  O51  1  0.14764500  0.74287500  0.00356500  1.0
  O  O52  1  0.35952500  0.74291500  0.99629500  1.0
  O  O53  1  0.52836000  0.81555000  0.89469000  1.0
  O  O54  1  0.73861500  0.18445500  0.10530500  1.0
  O  O55  1  0.59873500  0.25707500  0.00371500  1.0
  O  O56  1  0.60586500  0.00357500  0.74295500  1.0
  O  O57  1  0.67305000  0.10523000  0.81558000  1.0
  O  O58  1  0.09387000  0.89477000  0.18442000  1.0
  O  O59  1  0.85240500  0.99641500  0.25703500  1.0
  O  O60  1  0.73942500  0.01062000  0.01073000  1.0
  O  O61  1  0.26076500  0.98938000  0.98927000  1.0
  O  O62  1  0.50003000  0.01065500  0.98946500  1.0
  O  O63  1  0.00016000  0.98934500  0.01053500  1.0
  V  V64  1  0.82281500  0.00004000  0.10413000  1.0
  V  V65  1  0.42696500  0.99997500  0.89587500  1.0
  V  V66  1  0.57279000  0.10411500  0.00002500  1.0
  V  V67  1  0.17694000  0.89587000  0.99998000  1.0
