# generated using pymatgen
data_CuH10C15N8O
_symmetry_space_group_name_H-M   'P 1'
_cell_length_a   8.84431000
_cell_length_b   12.20780000
_cell_length_c   14.45250000
_cell_angle_alpha   70.77200000
_cell_angle_beta   89.99610000
_cell_angle_gamma   89.98940000
_symmetry_Int_Tables_number   1
_chemical_formula_structural   CuH10C15N8O
_chemical_formula_sum   'Cu4 H40 C60 N32 O4'
_cell_volume   1473.38240055
_cell_formula_units_Z   4
loop_
 _symmetry_equiv_pos_site_id
 _symmetry_equiv_pos_as_xyz
  1  'x, y, z'
loop_
 _atom_site_type_symbol
 _atom_site_label
 _atom_site_symmetry_multiplicity
 _atom_site_fract_x
 _atom_site_fract_y
 _atom_site_fract_z
 _atom_site_occupancy
  Cu  Cu0  1  0.41084000  0.44159000  0.61914000  1.0
  Cu  Cu1  1  0.91092000  0.55840000  0.88087000  1.0
  Cu  Cu2  1  0.58905000  0.55843000  0.38088000  1.0
  Cu  Cu3  1  0.08906000  0.44158000  0.11916000  1.0
  H  H4  1  0.68533000  0.06653000  0.84469000  1.0
  H  H5  1  0.18531000  0.93344000  0.65530000  1.0
  H  H6  1  0.31465000  0.93347000  0.15533000  1.0
  H  H7  1  0.81466000  0.06652000  0.34466000  1.0
  H  H8  1  0.64417000  0.28619000  0.77482000  1.0
  H  H9  1  0.14419000  0.71380000  0.72512000  1.0
  H  H10  1  0.35570000  0.71381000  0.22527000  1.0
  H  H11  1  0.85570000  0.28617000  0.27479000  1.0
  H  H12  1  0.99103000  0.40169000  0.38192000  1.0
  H  H13  1  0.49107000  0.59831000  0.11807000  1.0
  H  H14  1  0.00898000  0.59829000  0.61806000  1.0
  H  H15  1  0.50895000  0.40173000  0.88193000  1.0
  H  H16  1  0.17658000  0.51505000  0.45367000  1.0
  H  H17  1  0.67663000  0.48491000  0.04630000  1.0
  H  H18  1  0.82337000  0.48494000  0.54635000  1.0
  H  H19  1  0.32331000  0.51508000  0.95370000  1.0
  H  H20  1  0.00841000  0.18320000  0.44928000  1.0
  H  H21  1  0.50840000  0.81679000  0.05074000  1.0
  H  H22  1  0.99159000  0.81678000  0.55075000  1.0
  H  H23  1  0.49163000  0.18326000  0.94923000  1.0
  H  H24  1  0.51160000  0.85834000  0.65271000  1.0
  H  H25  1  0.01152000  0.14161000  0.84726000  1.0
  H  H26  1  0.48860000  0.14165000  0.34725000  1.0
  H  H27  1  0.98867000  0.85841000  0.15274000  1.0
  H  H28  1  0.20270000  0.95860000  0.40925000  1.0
  H  H29  1  0.70261000  0.04155000  0.09077000  1.0
  H  H30  1  0.79739000  0.04154000  0.59077000  1.0
  H  H31  1  0.29739000  0.95837000  0.90920000  1.0
  H  H32  1  0.20805000  0.75633000  0.40412000  1.0
  H  H33  1  0.70819000  0.24380000  0.09593000  1.0
  H  H34  1  0.79174000  0.24379000  0.59594000  1.0
  H  H35  1  0.29165000  0.75614000  0.90402000  1.0
  H  H36  1  0.50968000  0.94042000  0.78806000  1.0
  H  H37  1  0.00962000  0.05954000  0.71197000  1.0
  H  H38  1  0.49036000  0.05957000  0.21193000  1.0
  H  H39  1  0.99045000  0.94045000  0.28804000  1.0
  H  H40  1  0.35087000  0.00896000  0.53662000  1.0
  H  H41  1  0.85073000  0.99109000  0.96339000  1.0
  H  H42  1  0.64942000  0.99112000  0.46335000  1.0
  H  H43  1  0.14949000  0.00886000  0.03661000  1.0
  C  C44  1  0.59633000  0.10449000  0.79203000  1.0
  C  C45  1  0.09631000  0.89548000  0.70794000  1.0
  C  C46  1  0.40365000  0.89550000  0.20799000  1.0
  C  C47  1  0.90369000  0.10449000  0.29201000  1.0
  C  C48  1  0.57469000  0.22409000  0.75387000  1.0
  C  C49  1  0.07467000  0.77588000  0.74607000  1.0
  C  C50  1  0.42524000  0.77591000  0.24618000  1.0
  C  C51  1  0.92527000  0.22409000  0.25388000  1.0
  C  C52  1  0.38079000  0.19450000  0.65846000  1.0
  C  C53  1  0.88075000  0.80546000  0.84151000  1.0
  C  C54  1  0.61918000  0.80549000  0.34157000  1.0
  C  C55  1  0.11923000  0.19451000  0.15846000  1.0
  C  C56  1  0.07193000  0.35845000  0.43908000  1.0
  C  C57  1  0.57196000  0.64153000  0.06091000  1.0
  C  C58  1  0.92805000  0.64154000  0.56092000  1.0
  C  C59  1  0.42805000  0.35848000  0.93910000  1.0
  C  C60  1  0.54874000  0.63931000  0.66327000  1.0
  C  C61  1  0.04883000  0.36062000  0.83674000  1.0
  C  C62  1  0.45123000  0.36070000  0.33671000  1.0
  C  C63  1  0.95118000  0.63937000  0.16331000  1.0
  C  C64  1  0.26868000  0.24859000  0.58089000  1.0
  C  C65  1  0.76866000  0.75138000  0.91909000  1.0
  C  C66  1  0.73129000  0.75140000  0.41914000  1.0
  C  C67  1  0.23133000  0.24861000  0.08088000  1.0
  C  C68  1  0.17051000  0.42064000  0.47778000  1.0
  C  C69  1  0.67054000  0.57934000  0.02219000  1.0
  C  C70  1  0.82944000  0.57935000  0.52224000  1.0
  C  C71  1  0.32943000  0.42067000  0.97780000  1.0
  C  C72  1  0.36242000  0.69222000  0.52486000  1.0
  C  C73  1  0.86260000  0.30779000  0.97519000  1.0
  C  C74  1  0.63751000  0.30784000  0.47513000  1.0
  C  C75  1  0.13741000  0.69221000  0.02482000  1.0
  C  C76  1  0.45002000  0.72313000  0.59565000  1.0
  C  C77  1  0.95011000  0.27685000  0.90438000  1.0
  C  C78  1  0.54999000  0.27690000  0.40433000  1.0
  C  C79  1  0.04992000  0.72313000  0.09565000  1.0
  C  C80  1  0.08167000  0.23760000  0.47650000  1.0
  C  C81  1  0.58168000  0.76237000  0.02352000  1.0
  C  C82  1  0.91833000  0.76238000  0.52352000  1.0
  C  C83  1  0.41833000  0.23764000  0.97647000  1.0
  C  C84  1  0.44316000  0.83702000  0.59825000  1.0
  C  C85  1  0.94314000  0.16296000  0.90174000  1.0
  C  C86  1  0.55695000  0.16301000  0.40172000  1.0
  C  C87  1  0.05700000  0.83702000  0.09825000  1.0
  C  C88  1  0.27078000  0.89248000  0.46204000  1.0
  C  C89  1  0.77077000  0.10761000  0.03799000  1.0
  C  C90  1  0.72927000  0.10763000  0.53797000  1.0
  C  C91  1  0.22925000  0.89232000  0.96201000  1.0
  C  C92  1  0.27347000  0.78016000  0.45855000  1.0
  C  C93  1  0.77357000  0.21992000  0.04149000  1.0
  C  C94  1  0.72645000  0.21993000  0.54147000  1.0
  C  C95  1  0.22639000  0.78004000  0.95849000  1.0
  C  C96  1  0.49952000  0.03483000  0.75966000  1.0
  C  C97  1  0.99948000  0.96513000  0.74034000  1.0
  C  C98  1  0.50050000  0.96516000  0.24034000  1.0
  C  C99  1  0.00056000  0.03485000  0.25964000  1.0
  C  C100  1  0.35457000  0.92154000  0.53274000  1.0
  C  C101  1  0.85451000  0.07851000  0.96728000  1.0
  C  C102  1  0.64558000  0.07853000  0.46725000  1.0
  C  C103  1  0.14560000  0.92145000  0.03273000  1.0
  N  N104  1  0.46613000  0.26952000  0.68725000  1.0
  N  N105  1  0.96611000  0.73045000  0.81268000  1.0
  N  N106  1  0.53380000  0.73048000  0.31280000  1.0
  N  N107  1  0.03387000  0.26952000  0.18729000  1.0
  N  N108  1  0.17873000  0.18197000  0.54760000  1.0
  N  N109  1  0.67872000  0.81800000  0.95239000  1.0
  N  N110  1  0.82127000  0.81802000  0.45241000  1.0
  N  N111  1  0.32129000  0.18199000  0.04757000  1.0
  N  N112  1  0.55495000  0.52413000  0.67605000  1.0
  N  N113  1  0.05497000  0.47582000  0.82392000  1.0
  N  N114  1  0.44495000  0.47588000  0.32395000  1.0
  N  N115  1  0.94501000  0.52417000  0.17610000  1.0
  N  N116  1  0.26885000  0.36531000  0.54852000  1.0
  N  N117  1  0.76887000  0.63466000  0.95145000  1.0
  N  N118  1  0.73109000  0.63468000  0.45152000  1.0
  N  N119  1  0.23112000  0.36533000  0.04853000  1.0
  N  N120  1  0.39152000  0.07916000  0.69286000  1.0
  N  N121  1  0.89148000  0.92080000  0.80713000  1.0
  N  N122  1  0.60849000  0.92083000  0.30715000  1.0
  N  N123  1  0.10853000  0.07918000  0.19283000  1.0
  N  N124  1  0.66350000  0.47838000  0.74301000  1.0
  N  N125  1  0.16352000  0.52154000  0.75695000  1.0
  N  N126  1  0.33641000  0.52160000  0.25697000  1.0
  N  N127  1  0.83644000  0.47848000  0.24306000  1.0
  N  N128  1  0.71987000  0.56359000  0.76967000  1.0
  N  N129  1  0.21995000  0.43630000  0.73034000  1.0
  N  N130  1  0.28013000  0.43638000  0.23029000  1.0
  N  N131  1  0.78006000  0.56370000  0.26968000  1.0
  N  N132  1  0.65165000  0.66480000  0.72209000  1.0
  N  N133  1  0.15177000  0.33510000  0.77795000  1.0
  N  N134  1  0.34838000  0.33519000  0.27787000  1.0
  N  N135  1  0.84826000  0.66489000  0.22211000  1.0
  O  O136  1  0.36368000  0.58832000  0.51567000  1.0
  O  O137  1  0.86401000  0.41168000  0.98445000  1.0
  O  O138  1  0.63620000  0.41173000  0.48433000  1.0
  O  O139  1  0.13601000  0.58830000  0.01559000  1.0
