# generated using pymatgen
data_ZnH24C17(NO)4
_symmetry_space_group_name_H-M   'P 1'
_cell_length_a   8.07038000
_cell_length_b   9.43287000
_cell_length_c   13.69370000
_cell_angle_alpha   95.30690000
_cell_angle_beta   96.69840000
_cell_angle_gamma   101.61400000
_symmetry_Int_Tables_number   1
_chemical_formula_structural   ZnH24C17(NO)4
_chemical_formula_sum   'Zn2 H48 C34 N8 O8'
_cell_volume   1006.91289161
_cell_formula_units_Z   2
loop_
 _symmetry_equiv_pos_site_id
 _symmetry_equiv_pos_as_xyz
  1  'x, y, z'
loop_
 _atom_site_type_symbol
 _atom_site_label
 _atom_site_symmetry_multiplicity
 _atom_site_fract_x
 _atom_site_fract_y
 _atom_site_fract_z
 _atom_site_occupancy
  Zn  Zn0  1  0.75989000  0.77349000  0.77093000  1.0
  Zn  Zn1  1  0.24011000  0.22651000  0.22907000  1.0
  H  H2  1  0.97541000  0.09766000  0.81702000  1.0
  H  H3  1  0.02459000  0.90234000  0.18298000  1.0
  H  H4  1  0.59257000  0.87238000  0.96419000  1.0
  H  H5  1  0.40743000  0.12763000  0.03581000  1.0
  H  H6  1  0.74797000  0.14046000  0.07882000  1.0
  H  H7  1  0.25203000  0.85954000  0.92118000  1.0
  H  H8  1  0.11911000  0.30297000  0.94627000  1.0
  H  H9  1  0.88089000  0.69703000  0.05373000  1.0
  H  H10  1  0.06731000  0.29577000  0.06787000  1.0
  H  H11  1  0.93269000  0.70423000  0.93213000  1.0
  H  H12  1  0.82921000  0.42108000  0.02917000  1.0
  H  H13  1  0.17079000  0.57892000  0.97083000  1.0
  H  H14  1  0.87537000  0.43072000  0.90602000  1.0
  H  H15  1  0.12463000  0.56928000  0.09398000  1.0
  H  H16  1  0.43064000  0.54903000  0.66554000  1.0
  H  H17  1  0.56936000  0.45097000  0.33446000  1.0
  H  H18  1  0.71619000  0.91240000  0.55855000  1.0
  H  H19  1  0.28381000  0.08760000  0.44145000  1.0
  H  H20  1  0.44093000  0.77631000  0.41329000  1.0
  H  H21  1  0.55907000  0.22369000  0.58671000  1.0
  H  H22  1  0.25269000  0.41897000  0.49013000  1.0
  H  H23  1  0.74731000  0.58103000  0.50987000  1.0
  H  H24  1  0.22488000  0.53576000  0.39859000  1.0
  H  H25  1  0.77513000  0.46424000  0.60141000  1.0
  H  H26  1  0.05708000  0.66677000  0.50454000  1.0
  H  H27  1  0.94292000  0.33323000  0.49545000  1.0
  H  H28  1  0.09958000  0.56445000  0.60251000  1.0
  H  H29  1  0.90043000  0.43555000  0.39748000  1.0
  H  H30  1  0.32018000  0.82889000  0.76985000  1.0
  H  H31  1  0.67982000  0.17111000  0.23015000  1.0
  H  H32  1  0.26941000  0.81105000  0.64091000  1.0
  H  H33  1  0.73059000  0.18895000  0.35909000  1.0
  H  H34  1  0.49123000  0.02756000  0.68456000  1.0
  H  H35  1  0.50876000  0.97244000  0.31544000  1.0
  H  H36  1  0.29726000  0.07897000  0.64302000  1.0
  H  H37  1  0.70274000  0.92103000  0.35698000  1.0
  H  H38  1  0.46607000  0.10248000  0.85815000  1.0
  H  H39  1  0.53393000  0.89752000  0.14185000  1.0
  H  H40  1  0.25878000  0.13148000  0.82472000  1.0
  H  H41  1  0.74122000  0.86852000  0.17528000  1.0
  H  H42  1  0.37969000  0.32472000  0.72169000  1.0
  H  H43  1  0.62031000  0.67529000  0.27831000  1.0
  H  H44  1  0.58823000  0.30473000  0.76390000  1.0
  H  H45  1  0.41177000  0.69527000  0.23610000  1.0
  H  H46  1  0.55297000  0.38061000  0.93819000  1.0
  H  H47  1  0.44703000  0.61939000  0.06181000  1.0
  H  H48  1  0.34171000  0.39732000  0.89955000  1.0
  H  H49  1  0.65828000  0.60268000  0.10045000  1.0
  C  C50  1  0.89197000  0.07263000  0.87260000  1.0
  C  C51  1  0.10803000  0.92737000  0.12740000  1.0
  C  C52  1  0.69489000  0.95993000  0.95205000  1.0
  C  C53  1  0.30511000  0.04007000  0.04795000  1.0
  C  C54  1  0.77004000  0.09002000  0.00857000  1.0
  C  C55  1  0.22996000  0.90998000  0.99143000  1.0
  C  C56  1  0.01395000  0.29798000  0.99085000  1.0
  C  C57  1  0.98605000  0.70202000  0.00915000  1.0
  C  C58  1  0.93299000  0.42963000  0.98285000  1.0
  C  C59  1  0.06701000  0.57037000  0.01715000  1.0
  C  C60  1  0.47220000  0.63020000  0.61749000  1.0
  C  C61  1  0.52780000  0.36980000  0.38251000  1.0
  C  C62  1  0.61388000  0.81827000  0.55881000  1.0
  C  C63  1  0.38612000  0.18173000  0.44119000  1.0
  C  C64  1  0.48004000  0.75148000  0.48696000  1.0
  C  C65  1  0.51996000  0.24852000  0.51304000  1.0
  C  C66  1  0.23640000  0.52945000  0.47868000  1.0
  C  C67  1  0.76361000  0.47055000  0.52132000  1.0
  C  C68  1  0.07845000  0.55926000  0.52119000  1.0
  C  C69  1  0.92156000  0.44074000  0.47881000  1.0
  C  C70  1  0.07424000  0.86982000  0.71491000  1.0
  C  C71  1  0.92576000  0.13018000  0.28509000  1.0
  C  C72  1  0.26374000  0.88028000  0.70913000  1.0
  C  C73  1  0.73626000  0.11973000  0.29087000  1.0
  C  C74  1  0.36386000  0.03410000  0.70379000  1.0
  C  C75  1  0.63614000  0.96590000  0.29621000  1.0
  C  C76  1  0.38423000  0.13771000  0.79910000  1.0
  C  C77  1  0.61576000  0.86229000  0.20090000  1.0
  C  C78  1  0.45899000  0.29512000  0.78482000  1.0
  C  C79  1  0.54101000  0.70488000  0.21518000  1.0
  C  C80  1  0.46825000  0.40497000  0.87587000  1.0
  C  C81  1  0.53175000  0.59504000  0.12413000  1.0
  C  C82  1  0.53295000  0.56128000  0.85599000  1.0
  C  C83  1  0.46705000  0.43872000  0.14401000  1.0
  N  N84  1  0.77244000  0.95032000  0.86729000  1.0
  N  N85  1  0.22756000  0.04968000  0.13271000  1.0
  N  N86  1  0.89463000  0.15906000  0.95740000  1.0
  N  N87  1  0.10537000  0.84094000  0.04260000  1.0
  N  N88  1  0.60649000  0.74143000  0.63981000  1.0
  N  N89  1  0.39351000  0.25858000  0.36019000  1.0
  N  N90  1  0.39266000  0.63214000  0.52516000  1.0
  N  N91  1  0.60735000  0.36786000  0.47484000  1.0
  O  O92  1  0.00045000  0.76074000  0.75726000  1.0
  O  O93  1  0.99955000  0.23926000  0.24274000  1.0
  O  O94  1  0.99750000  0.96071000  0.67939000  1.0
  O  O95  1  0.00250000  0.03929000  0.32062000  1.0
  O  O96  1  0.44915000  0.65691000  0.87247000  1.0
  O  O97  1  0.55085000  0.34309000  0.12753000  1.0
  O  O98  1  0.67639000  0.58285000  0.81898000  1.0
  O  O99  1  0.32360000  0.41716000  0.18103000  1.0
