# generated using pymatgen
data_CuH10C12(N2O)2
_symmetry_space_group_name_H-M   'P 1'
_cell_length_a   9.82964000
_cell_length_b   12.02944320
_cell_length_c   12.02876705
_cell_angle_alpha   80.38718981
_cell_angle_beta   65.91017717
_cell_angle_gamma   65.89516514
_symmetry_Int_Tables_number   1
_chemical_formula_structural   CuH10C12(N2O)2
_chemical_formula_sum   'Cu4 H40 C48 N16 O8'
_cell_volume   1185.23949357
_cell_formula_units_Z   4
loop_
 _symmetry_equiv_pos_site_id
 _symmetry_equiv_pos_as_xyz
  1  'x, y, z'
loop_
 _atom_site_type_symbol
 _atom_site_label
 _atom_site_symmetry_multiplicity
 _atom_site_fract_x
 _atom_site_fract_y
 _atom_site_fract_z
 _atom_site_occupancy
  Cu  Cu0  1  0.00000000  0.00000000  0.00000000  1.0
  Cu  Cu1  1  0.50000000  0.50000000  0.00000000  1.0
  Cu  Cu2  1  0.50000000  0.50000000  0.50000000  1.0
  Cu  Cu3  1  0.50000000  0.00000000  0.50000000  1.0
  H  H4  1  0.86057000  0.21545000  0.15336000  1.0
  H  H5  1  0.57536000  0.65360000  0.78467000  1.0
  H  H6  1  0.72894000  0.28486000  0.34656000  1.0
  H  H7  1  0.51372000  0.84661000  0.71541000  1.0
  H  H8  1  0.13944000  0.78455000  0.84664000  1.0
  H  H9  1  0.42465000  0.34640000  0.21533000  1.0
  H  H10  1  0.27106000  0.71514000  0.65344000  1.0
  H  H11  1  0.48629000  0.15339000  0.28459000  1.0
  H  H12  1  0.93676000  0.38603000  0.17061000  1.0
  H  H13  1  0.82179000  0.67110000  0.61396000  1.0
  H  H14  1  0.99283000  0.11418000  0.32923000  1.0
  H  H15  1  0.60708000  0.82920000  0.88608000  1.0
  H  H16  1  0.06324000  0.61397000  0.82939000  1.0
  H  H17  1  0.17821000  0.32890000  0.38604000  1.0
  H  H18  1  0.00717000  0.88583000  0.67076000  1.0
  H  H19  1  0.39293000  0.17080000  0.11392000  1.0
  H  H20  1  0.19278000  0.40127000  0.01178000  1.0
  H  H21  1  0.09317000  0.51226000  0.59846000  1.0
  H  H22  1  0.10538000  0.09863000  0.48814000  1.0
  H  H23  1  0.70443000  0.98797000  0.90141000  1.0
  H  H24  1  0.80723000  0.59873000  0.98821000  1.0
  H  H25  1  0.90683000  0.48775000  0.40154000  1.0
  H  H26  1  0.89461000  0.90138000  0.51186000  1.0
  H  H27  1  0.29556000  0.01204000  0.09859000  1.0
  H  H28  1  0.36115000  0.24492000  0.84641000  1.0
  H  H29  1  0.10570000  0.34671000  0.75473000  1.0
  H  H30  1  0.95252000  0.25499000  0.65352000  1.0
  H  H31  1  0.70800000  0.15328000  0.74489000  1.0
  H  H32  1  0.63885000  0.75508000  0.15359000  1.0
  H  H33  1  0.89431000  0.65329000  0.24527000  1.0
  H  H34  1  0.04747000  0.74502000  0.34648000  1.0
  H  H35  1  0.29200000  0.84672000  0.25511000  1.0
  H  H36  1  0.27199000  0.07549000  0.84860000  1.0
  H  H37  1  0.84748000  0.34872000  0.92435000  1.0
  H  H38  1  0.69626000  0.42458000  0.65137000  1.0
  H  H39  1  0.62116000  0.15120000  0.57533000  1.0
  H  H40  1  0.72801000  0.92451000  0.15140000  1.0
  H  H41  1  0.15252000  0.65128000  0.07566000  1.0
  H  H42  1  0.30373000  0.57542000  0.34863000  1.0
  H  H43  1  0.37884000  0.84880000  0.42467000  1.0
  C  C44  1  0.31124000  0.81369000  0.00138000  1.0
  C  C45  1  0.62497000  0.50131000  0.18633000  1.0
  C  C46  1  0.62615000  0.68634000  0.49880000  1.0
  C  C47  1  0.81227000  0.99895000  0.31373000  1.0
  C  C48  1  0.68877000  0.18631000  0.99862000  1.0
  C  C49  1  0.37504000  0.49868000  0.81367000  1.0
  C  C50  1  0.37385000  0.31365000  0.50121000  1.0
  C  C51  1  0.18773000  0.00105000  0.68627000  1.0
  C  C52  1  0.97244000  0.22437000  0.09035000  1.0
  C  C53  1  0.69623000  0.59065000  0.77567000  1.0
  C  C54  1  0.78687000  0.27586000  0.40956000  1.0
  C  C55  1  0.56281000  0.90953000  0.72429000  1.0
  C  C56  1  0.02756000  0.77563000  0.90965000  1.0
  C  C57  1  0.30377000  0.40935000  0.22433000  1.0
  C  C58  1  0.21313000  0.72414000  0.59044000  1.0
  C  C59  1  0.43719000  0.09047000  0.27571000  1.0
  C  C60  1  0.01501000  0.31924000  0.09778000  1.0
  C  C61  1  0.83348000  0.59818000  0.68073000  1.0
  C  C62  1  0.93162000  0.18092000  0.40213000  1.0
  C  C63  1  0.61275000  0.90204000  0.81922000  1.0
  C  C64  1  0.98500000  0.68076000  0.90222000  1.0
  C  C65  1  0.16652000  0.40182000  0.31927000  1.0
  C  C66  1  0.06838000  0.81908000  0.59787000  1.0
  C  C67  1  0.38725000  0.09796000  0.18078000  1.0
  C  C68  1  0.15644000  0.32759000  0.00971000  1.0
  C  C69  1  0.98333000  0.51008000  0.67224000  1.0
  C  C70  1  0.99340000  0.17242000  0.49024000  1.0
  C  C71  1  0.66624000  0.99005000  0.82761000  1.0
  C  C72  1  0.84356000  0.67241000  0.99029000  1.0
  C  C73  1  0.01667000  0.48992000  0.32776000  1.0
  C  C74  1  0.00659000  0.82759000  0.50976000  1.0
  C  C75  1  0.33377000  0.00995000  0.17239000  1.0
  C  C76  1  0.25122000  0.24029000  0.91750000  1.0
  C  C77  1  0.99108000  0.41780000  0.75951000  1.0
  C  C78  1  0.90892000  0.25971000  0.58243000  1.0
  C  C79  1  0.66909000  0.08221000  0.74022000  1.0
  C  C80  1  0.74879000  0.75971000  0.08249000  1.0
  C  C81  1  0.00892000  0.58220000  0.24049000  1.0
  C  C82  1  0.09107000  0.74029000  0.41757000  1.0
  C  C83  1  0.33091000  0.91779000  0.25978000  1.0
  C  C84  1  0.20208000  0.14713000  0.91702000  1.0
  C  C85  1  0.84896000  0.41725000  0.85276000  1.0
  C  C86  1  0.76625000  0.35297000  0.58291000  1.0
  C  C87  1  0.61953000  0.08276000  0.64700000  1.0
  C  C88  1  0.79792000  0.85287000  0.08298000  1.0
  C  C89  1  0.15103000  0.58276000  0.14724000  1.0
  C  C90  1  0.23375000  0.64703000  0.41709000  1.0
  C  C91  1  0.38047000  0.91724000  0.35300000  1.0
  N  N92  1  0.22358000  0.88707000  0.95489000  1.0
  N  N93  1  0.61096000  0.45483000  0.11279000  1.0
  N  N94  1  0.56549000  0.61291000  0.54528000  1.0
  N  N95  1  0.67822000  0.04544000  0.38710000  1.0
  N  N96  1  0.77642000  0.11293000  0.04511000  1.0
  N  N97  1  0.38904000  0.54517000  0.88721000  1.0
  N  N98  1  0.43450000  0.38708000  0.45473000  1.0
  N  N99  1  0.32177000  0.95456000  0.61290000  1.0
  N  N100  1  0.06493000  0.13969000  0.00215000  1.0
  N  N101  1  0.70431000  0.50235000  0.86032000  1.0
  N  N102  1  0.70667000  0.36048000  0.49781000  1.0
  N  N103  1  0.56731000  0.99773000  0.63958000  1.0
  N  N104  1  0.93507000  0.86031000  0.99785000  1.0
  N  N105  1  0.29569000  0.49765000  0.13968000  1.0
  N  N106  1  0.29332000  0.63952000  0.50219000  1.0
  N  N107  1  0.43269000  0.00227000  0.36042000  1.0
  O  O108  1  0.40725000  0.73936000  0.04219000  1.0
  O  O109  1  0.64643000  0.54212000  0.26079000  1.0
  O  O110  1  0.68855000  0.76071000  0.45803000  1.0
  O  O111  1  0.94899000  0.95813000  0.23942000  1.0
  O  O112  1  0.59275000  0.26064000  0.95781000  1.0
  O  O113  1  0.35357000  0.45787000  0.73922000  1.0
  O  O114  1  0.31145000  0.23928000  0.54198000  1.0
  O  O115  1  0.05102000  0.04187000  0.76057000  1.0
