# generated using pymatgen
data_CdH14C17S(NO)4
_symmetry_space_group_name_H-M   'P 1'
_cell_length_a   8.98555000
_cell_length_b   9.60919000
_cell_length_c   11.35120000
_cell_angle_alpha   85.43670000
_cell_angle_beta   80.65790000
_cell_angle_gamma   68.91010000
_symmetry_Int_Tables_number   1
_chemical_formula_structural   CdH14C17S(NO)4
_chemical_formula_sum   'Cd2 H28 C34 S2 N8 O8'
_cell_volume   902.08908644
_cell_formula_units_Z   2
loop_
 _symmetry_equiv_pos_site_id
 _symmetry_equiv_pos_as_xyz
  1  'x, y, z'
loop_
 _atom_site_type_symbol
 _atom_site_label
 _atom_site_symmetry_multiplicity
 _atom_site_fract_x
 _atom_site_fract_y
 _atom_site_fract_z
 _atom_site_occupancy
  Cd  Cd0  1  0.10633000  0.11170000  0.89090000  1.0
  Cd  Cd1  1  0.89367000  0.88830000  0.10910000  1.0
  H  H2  1  0.89488000  0.40027000  0.04930000  1.0
  H  H3  1  0.10511000  0.59974000  0.95070000  1.0
  H  H4  1  0.91232000  0.54298000  0.21747000  1.0
  H  H5  1  0.08767000  0.45702000  0.78253000  1.0
  H  H6  1  0.37792000  0.19973000  0.24775000  1.0
  H  H7  1  0.62208000  0.80028000  0.75225000  1.0
  H  H8  1  0.34058000  0.07397000  0.07933000  1.0
  H  H9  1  0.65941000  0.92604000  0.92067000  1.0
  H  H10  1  0.40341000  0.63147000  0.61897000  1.0
  H  H11  1  0.59659000  0.36852000  0.38102000  1.0
  H  H12  1  0.36287000  0.82554000  0.76871000  1.0
  H  H13  1  0.63714000  0.17447000  0.23129000  1.0
  H  H14  1  0.89387000  0.05272000  0.70732000  1.0
  H  H15  1  0.10613000  0.94728000  0.29268000  1.0
  H  H16  1  0.91127000  0.86929000  0.55772000  1.0
  H  H17  1  0.08873000  0.13070000  0.44228000  1.0
  H  H18  1  0.48310000  0.30585000  0.65860000  1.0
  H  H19  1  0.51690000  0.69415000  0.34140000  1.0
  H  H20  1  0.62846000  0.15861000  0.73029000  1.0
  H  H21  1  0.37155000  0.84138000  0.26972000  1.0
  H  H22  1  0.56901000  0.43029000  0.79501000  1.0
  H  H23  1  0.43099000  0.56971000  0.20499000  1.0
  H  H24  1  0.37755000  0.42979000  0.86272000  1.0
  H  H25  1  0.62245000  0.57021000  0.13728000  1.0
  H  H26  1  0.54044000  0.36382000  0.01997000  1.0
  H  H27  1  0.45956000  0.63619000  0.98003000  1.0
  H  H28  1  0.53768000  0.19006000  0.98253000  1.0
  H  H29  1  0.46231000  0.80995000  0.01747000  1.0
  C  C30  1  0.99955000  0.36028000  0.09656000  1.0
  C  C31  1  0.00045000  0.63972000  0.90344000  1.0
  C  C32  1  0.01052000  0.43919000  0.19020000  1.0
  C  C33  1  0.98947000  0.56082000  0.80980000  1.0
  C  C34  1  0.14973000  0.38409000  0.24559000  1.0
  C  C35  1  0.85027000  0.61590000  0.75441000  1.0
  C  C36  1  0.26939000  0.24928000  0.20601000  1.0
  C  C37  1  0.73060000  0.75073000  0.79400000  1.0
  C  C38  1  0.24822000  0.17788000  0.11191000  1.0
  C  C39  1  0.75178000  0.82212000  0.88809000  1.0
  C  C40  1  0.17394000  0.46161000  0.34228000  1.0
  C  C41  1  0.82606000  0.53838000  0.65772000  1.0
  C  C42  1  0.17954000  0.61931000  0.49218000  1.0
  C  C43  1  0.82047000  0.38069000  0.50782000  1.0
  C  C44  1  0.15990000  0.73364000  0.57670000  1.0
  C  C45  1  0.84011000  0.26636000  0.42330000  1.0
  C  C46  1  0.28845000  0.72237000  0.63721000  1.0
  C  C47  1  0.71155000  0.27763000  0.36279000  1.0
  C  C48  1  0.26668000  0.82983000  0.71948000  1.0
  C  C49  1  0.73332000  0.17017000  0.28052000  1.0
  C  C50  1  0.00467000  0.95763000  0.68506000  1.0
  C  C51  1  0.99533000  0.04236000  0.31494000  1.0
  C  C52  1  0.01548000  0.85528000  0.60130000  1.0
  C  C53  1  0.98452000  0.14472000  0.39870000  1.0
  C  C54  1  0.38172000  0.17540000  0.78586000  1.0
  C  C55  1  0.61828000  0.82460000  0.21415000  1.0
  C  C56  1  0.50845000  0.24637000  0.74395000  1.0
  C  C57  1  0.49155000  0.75363000  0.25605000  1.0
  C  C58  1  0.50372000  0.35756000  0.83673000  1.0
  C  C59  1  0.49628000  0.64244000  0.16327000  1.0
  C  C60  1  0.57842000  0.28221000  0.94804000  1.0
  C  C61  1  0.42158000  0.71779000  0.05196000  1.0
  C  C62  1  0.76173000  0.22553000  0.92709000  1.0
  C  C63  1  0.23827000  0.77447000  0.07291000  1.0
  S  S64  1  0.04674000  0.63535000  0.39320000  1.0
  S  S65  1  0.95327000  0.36465000  0.60680000  1.0
  N  N66  1  0.11624000  0.23307000  0.05695000  1.0
  N  N67  1  0.88376000  0.76694000  0.94305000  1.0
  N  N68  1  0.30147000  0.40380000  0.39913000  1.0
  N  N69  1  0.69853000  0.59620000  0.60086000  1.0
  N  N70  1  0.30531000  0.49255000  0.48321000  1.0
  N  N71  1  0.69470000  0.50745000  0.51678000  1.0
  N  N72  1  0.12727000  0.94554000  0.74367000  1.0
  N  N73  1  0.87273000  0.05446000  0.25633000  1.0
  O  O74  1  0.23808000  0.24904000  0.76353000  1.0
  O  O75  1  0.76192000  0.75096000  0.23647000  1.0
  O  O76  1  0.41655000  0.05335000  0.84548000  1.0
  O  O77  1  0.58345000  0.94665000  0.15453000  1.0
  O  O78  1  0.83398000  0.30379000  0.86452000  1.0
  O  O79  1  0.16602000  0.69622000  0.13548000  1.0
  O  O80  1  0.84107000  0.10011000  0.97404000  1.0
  O  O81  1  0.15893000  0.89989000  0.02595000  1.0
