# generated using pymatgen
data_Cd3H8C8(N6Cl)2
_symmetry_space_group_name_H-M   'P 1'
_cell_length_a   8.33645000
_cell_length_b   13.17330000
_cell_length_c   17.03340000
_cell_angle_alpha   90.00000000
_cell_angle_beta   90.00000000
_cell_angle_gamma   90.00000000
_symmetry_Int_Tables_number   1
_chemical_formula_structural   Cd3H8C8(N6Cl)2
_chemical_formula_sum   'Cd12 H32 C32 N48 Cl8'
_cell_volume   1870.58340514
_cell_formula_units_Z   4
loop_
 _symmetry_equiv_pos_site_id
 _symmetry_equiv_pos_as_xyz
  1  'x, y, z'
loop_
 _atom_site_type_symbol
 _atom_site_label
 _atom_site_symmetry_multiplicity
 _atom_site_fract_x
 _atom_site_fract_y
 _atom_site_fract_z
 _atom_site_occupancy
  Cd  Cd0  1  0.25000000  0.68040000  0.56360000  1.0
  Cd  Cd1  1  0.75000000  0.18040000  0.93640000  1.0
  Cd  Cd2  1  0.75000000  0.31960000  0.43640000  1.0
  Cd  Cd3  1  0.25000000  0.81960000  0.06360000  1.0
  Cd  Cd4  1  0.99719000  0.56142000  0.75425000  1.0
  Cd  Cd5  1  0.00281000  0.06142000  0.74575000  1.0
  Cd  Cd6  1  0.49719000  0.43858000  0.24575000  1.0
  Cd  Cd7  1  0.50281000  0.93858000  0.25425000  1.0
  Cd  Cd8  1  0.00281000  0.43858000  0.24575000  1.0
  Cd  Cd9  1  0.99719000  0.93858000  0.25425000  1.0
  Cd  Cd10  1  0.50281000  0.56142000  0.75425000  1.0
  Cd  Cd11  1  0.49719000  0.06142000  0.74575000  1.0
  H  H12  1  0.99755000  0.55564000  0.43188000  1.0
  H  H13  1  0.00245000  0.05564000  0.06812000  1.0
  H  H14  1  0.49755000  0.44436000  0.56812000  1.0
  H  H15  1  0.50245000  0.94436000  0.93188000  1.0
  H  H16  1  0.00245000  0.44436000  0.56812000  1.0
  H  H17  1  0.99755000  0.94436000  0.93188000  1.0
  H  H18  1  0.50245000  0.55564000  0.43188000  1.0
  H  H19  1  0.49755000  0.05564000  0.06812000  1.0
  H  H20  1  0.99755000  0.66996000  0.93991000  1.0
  H  H21  1  0.00245000  0.16996000  0.56009000  1.0
  H  H22  1  0.49755000  0.33004000  0.06009000  1.0
  H  H23  1  0.50245000  0.83004000  0.43991000  1.0
  H  H24  1  0.00245000  0.33004000  0.06009000  1.0
  H  H25  1  0.99755000  0.83004000  0.43991000  1.0
  H  H26  1  0.50245000  0.66996000  0.93991000  1.0
  H  H27  1  0.49755000  0.16996000  0.56009000  1.0
  H  H28  1  0.91297000  0.80676000  0.80397000  1.0
  H  H29  1  0.08703000  0.30676000  0.69603000  1.0
  H  H30  1  0.41297000  0.19324000  0.19603000  1.0
  H  H31  1  0.58703000  0.69324000  0.30397000  1.0
  H  H32  1  0.08703000  0.19324000  0.19603000  1.0
  H  H33  1  0.91297000  0.69324000  0.30397000  1.0
  H  H34  1  0.58703000  0.80676000  0.80397000  1.0
  H  H35  1  0.41297000  0.30676000  0.69603000  1.0
  H  H36  1  0.07630000  0.90856000  0.58492000  1.0
  H  H37  1  0.92371000  0.40856000  0.91508000  1.0
  H  H38  1  0.57629000  0.09144000  0.41508000  1.0
  H  H39  1  0.42371000  0.59144000  0.08492000  1.0
  H  H40  1  0.92371000  0.09144000  0.41508000  1.0
  H  H41  1  0.07630000  0.59144000  0.08492000  1.0
  H  H42  1  0.42370000  0.90856000  0.58492000  1.0
  H  H43  1  0.57629000  0.40856000  0.91508000  1.0
  C  C44  1  0.12238000  0.54394000  0.41608000  1.0
  C  C45  1  0.87762000  0.04394000  0.08392000  1.0
  C  C46  1  0.62238000  0.45606000  0.58392000  1.0
  C  C47  1  0.37762000  0.95606000  0.91608000  1.0
  C  C48  1  0.87762000  0.45606000  0.58392000  1.0
  C  C49  1  0.12238000  0.95606000  0.91609000  1.0
  C  C50  1  0.37762000  0.54394000  0.41608000  1.0
  C  C51  1  0.62238000  0.04394000  0.08392000  1.0
  C  C52  1  0.12271000  0.65969000  0.92391000  1.0
  C  C53  1  0.87729000  0.15969000  0.57609000  1.0
  C  C54  1  0.62271000  0.34031000  0.07609000  1.0
  C  C55  1  0.37729000  0.84031000  0.42391000  1.0
  C  C56  1  0.87729000  0.34031000  0.07609000  1.0
  C  C57  1  0.12271000  0.84031000  0.42391000  1.0
  C  C58  1  0.37729000  0.65969000  0.92392000  1.0
  C  C59  1  0.62271000  0.15969000  0.57609000  1.0
  C  C60  1  0.95938000  0.80893000  0.74452000  1.0
  C  C61  1  0.04062000  0.30893000  0.75548000  1.0
  C  C62  1  0.45938000  0.19107000  0.25548000  1.0
  C  C63  1  0.54062000  0.69107000  0.24452000  1.0
  C  C64  1  0.04062000  0.19107000  0.25548000  1.0
  C  C65  1  0.95938000  0.69107000  0.24452000  1.0
  C  C66  1  0.54062000  0.80893000  0.74452000  1.0
  C  C67  1  0.45938000  0.30893000  0.75548000  1.0
  C  C68  1  0.03985000  0.86023000  0.63330000  1.0
  C  C69  1  0.96015000  0.36023000  0.86670000  1.0
  C  C70  1  0.53985000  0.13977000  0.36670000  1.0
  C  C71  1  0.46015000  0.63977000  0.13330000  1.0
  C  C72  1  0.96015000  0.13977000  0.36670000  1.0
  C  C73  1  0.03985000  0.63977000  0.13330000  1.0
  C  C74  1  0.46015000  0.86023000  0.63330000  1.0
  C  C75  1  0.53985000  0.36023000  0.86670000  1.0
  N  N76  1  0.98278000  0.89480000  0.70236000  1.0
  N  N77  1  0.01722000  0.39480000  0.79764000  1.0
  N  N78  1  0.48278000  0.10520000  0.29764000  1.0
  N  N79  1  0.51722000  0.60520000  0.20236000  1.0
  N  N80  1  0.01722000  0.10520000  0.29764000  1.0
  N  N81  1  0.98278000  0.60520000  0.20236000  1.0
  N  N82  1  0.51722000  0.89480000  0.70235000  1.0
  N  N83  1  0.48278000  0.39480000  0.79764000  1.0
  N  N84  1  0.25000000  0.57448000  0.45946000  1.0
  N  N85  1  0.75000000  0.07448000  0.04054000  1.0
  N  N86  1  0.75000000  0.42552000  0.54054000  1.0
  N  N87  1  0.25000000  0.92552000  0.95946000  1.0
  N  N88  1  0.99962000  0.72608000  0.70437000  1.0
  N  N89  1  0.00038000  0.22608000  0.79563000  1.0
  N  N90  1  0.49962000  0.27392000  0.29563000  1.0
  N  N91  1  0.50038000  0.77392000  0.20437000  1.0
  N  N92  1  0.00038000  0.27392000  0.29563000  1.0
  N  N93  1  0.99962000  0.77392000  0.20437000  1.0
  N  N94  1  0.50038000  0.72608000  0.70437000  1.0
  N  N95  1  0.49962000  0.22608000  0.79563000  1.0
  N  N96  1  0.16789000  0.49717000  0.35038000  1.0
  N  N97  1  0.83211000  0.99717000  0.14962000  1.0
  N  N98  1  0.66789000  0.50283000  0.64962000  1.0
  N  N99  1  0.33211000  0.00283000  0.85038000  1.0
  N  N100  1  0.83211000  0.50283000  0.64962000  1.0
  N  N101  1  0.16789000  0.00283000  0.85038000  1.0
  N  N102  1  0.33211000  0.49717000  0.35038000  1.0
  N  N103  1  0.66789000  0.99717000  0.14962000  1.0
  N  N104  1  0.05125000  0.75889000  0.63219000  1.0
  N  N105  1  0.94875000  0.25889000  0.86781000  1.0
  N  N106  1  0.55125000  0.24111000  0.36781000  1.0
  N  N107  1  0.44875000  0.74111000  0.13219000  1.0
  N  N108  1  0.94875000  0.24111000  0.36781000  1.0
  N  N109  1  0.05125000  0.74111000  0.13219000  1.0
  N  N110  1  0.44875000  0.75889000  0.63219000  1.0
  N  N111  1  0.55125000  0.25889000  0.86781000  1.0
  N  N112  1  0.25000000  0.68806000  0.96841000  1.0
  N  N113  1  0.75000000  0.18806000  0.53159000  1.0
  N  N114  1  0.75000000  0.31194000  0.03159000  1.0
  N  N115  1  0.25000000  0.81194000  0.46841000  1.0
  N  N116  1  0.16790000  0.61641000  0.85667000  1.0
  N  N117  1  0.83210000  0.11641000  0.64333000  1.0
  N  N118  1  0.66790000  0.38359000  0.14333000  1.0
  N  N119  1  0.33210000  0.88359000  0.35667000  1.0
  N  N120  1  0.83210000  0.38359000  0.14333000  1.0
  N  N121  1  0.16790000  0.88359000  0.35667000  1.0
  N  N122  1  0.33210000  0.61641000  0.85667000  1.0
  N  N123  1  0.66790000  0.11641000  0.64333000  1.0
  Cl  Cl124  1  0.25000000  0.51611000  0.65506000  1.0
  Cl  Cl125  1  0.75000000  0.01611000  0.84494000  1.0
  Cl  Cl126  1  0.75000000  0.48389000  0.34494000  1.0
  Cl  Cl127  1  0.25000000  0.98389000  0.15506000  1.0
  Cl  Cl128  1  0.75000000  0.60261000  0.84899000  1.0
  Cl  Cl129  1  0.25000000  0.10261000  0.65102000  1.0
  Cl  Cl130  1  0.25000000  0.39739000  0.15101000  1.0
  Cl  Cl131  1  0.75000000  0.89739000  0.34898000  1.0
