# generated using pymatgen
data_ZnH11C13(NO2)2
_symmetry_space_group_name_H-M   'P 1'
_cell_length_a   11.01890000
_cell_length_b   11.01890000
_cell_length_c   12.35470000
_cell_angle_alpha   101.81700000
_cell_angle_beta   101.81700000
_cell_angle_gamma   99.88970000
_symmetry_Int_Tables_number   1
_chemical_formula_structural   ZnH11C13(NO2)2
_chemical_formula_sum   'Zn4 H44 C52 N8 O16'
_cell_volume   1400.94744568
_cell_formula_units_Z   4
loop_
 _symmetry_equiv_pos_site_id
 _symmetry_equiv_pos_as_xyz
  1  'x, y, z'
loop_
 _atom_site_type_symbol
 _atom_site_label
 _atom_site_symmetry_multiplicity
 _atom_site_fract_x
 _atom_site_fract_y
 _atom_site_fract_z
 _atom_site_occupancy
  Zn  Zn0  1  0.65814000  0.26854000  0.62579000  1.0
  Zn  Zn1  1  0.73146000  0.34186000  0.87420000  1.0
  Zn  Zn2  1  0.34186000  0.73146000  0.37420000  1.0
  Zn  Zn3  1  0.26854000  0.65814000  0.12579000  1.0
  H  H4  1  0.60411000  0.92621000  0.19070000  1.0
  H  H5  1  0.72855000  0.01723000  0.14990000  1.0
  H  H6  1  0.76478000  0.94156000  0.26288000  1.0
  H  H7  1  0.75458000  0.49215000  0.51343000  1.0
  H  H8  1  0.76011000  0.49227000  0.36978000  1.0
  H  H9  1  0.61264000  0.47291000  0.40778000  1.0
  H  H10  1  0.63367000  0.04082000  0.43984000  1.0
  H  H11  1  0.76176000  0.98340000  0.92303000  1.0
  H  H12  1  0.77483000  0.76168000  0.93813000  1.0
  H  H13  1  0.61892000  0.62441000  0.57566000  1.0
  H  H14  1  0.61198000  0.84413000  0.55969000  1.0
  H  H15  1  0.07379000  0.39589000  0.30930000  1.0
  H  H16  1  0.98277000  0.27145000  0.35011000  1.0
  H  H17  1  0.05845000  0.23522000  0.23712000  1.0
  H  H18  1  0.50785000  0.24543000  0.98657000  1.0
  H  H19  1  0.50774000  0.23990000  0.13022000  1.0
  H  H20  1  0.52710000  0.38737000  0.09222000  1.0
  H  H21  1  0.95919000  0.36633000  0.06016000  1.0
  H  H22  1  0.01660000  0.23823000  0.57698000  1.0
  H  H23  1  0.23832000  0.22517000  0.56187000  1.0
  H  H24  1  0.37559000  0.38108000  0.92434000  1.0
  H  H25  1  0.15587000  0.38802000  0.94031000  1.0
  H  H26  1  0.39589000  0.07379000  0.80930000  1.0
  H  H27  1  0.27146000  0.98277000  0.85010000  1.0
  H  H28  1  0.23523000  0.05844000  0.73712000  1.0
  H  H29  1  0.24542000  0.50785000  0.48656000  1.0
  H  H30  1  0.23989000  0.50774000  0.63021000  1.0
  H  H31  1  0.38736000  0.52709000  0.59222000  1.0
  H  H32  1  0.36633000  0.95918000  0.56016000  1.0
  H  H33  1  0.23823000  0.01660000  0.07698000  1.0
  H  H34  1  0.22517000  0.23832000  0.06187000  1.0
  H  H35  1  0.38108000  0.37559000  0.42434000  1.0
  H  H36  1  0.38802000  0.15587000  0.44031000  1.0
  H  H37  1  0.92621000  0.60411000  0.69070000  1.0
  H  H38  1  0.01723000  0.72855000  0.64990000  1.0
  H  H39  1  0.94156000  0.76478000  0.76288000  1.0
  H  H40  1  0.49215000  0.75458000  0.01344000  1.0
  H  H41  1  0.49227000  0.76011000  0.86978000  1.0
  H  H42  1  0.47291000  0.61264000  0.90778000  1.0
  H  H43  1  0.04081000  0.63367000  0.93984000  1.0
  H  H44  1  0.98340000  0.76176000  0.42302000  1.0
  H  H45  1  0.76168000  0.77483000  0.43813000  1.0
  H  H46  1  0.62440000  0.61892000  0.07566000  1.0
  H  H47  1  0.84412000  0.61198000  0.05969000  1.0
  C  C48  1  0.71840000  0.23594000  0.29531000  1.0
  C  C49  1  0.67850000  0.05991000  0.73150000  1.0
  C  C50  1  0.68593000  0.92745000  0.74067000  1.0
  C  C51  1  0.73171000  0.90379000  0.84744000  1.0
  C  C52  1  0.73852000  0.78085000  0.85579000  1.0
  C  C53  1  0.69757000  0.67945000  0.75760000  1.0
  C  C54  1  0.70645000  0.54656000  0.76367000  1.0
  C  C55  1  0.65107000  0.70336000  0.65147000  1.0
  C  C56  1  0.64674000  0.82642000  0.64272000  1.0
  C  C57  1  0.69199000  0.10978000  0.30356000  1.0
  C  C58  1  0.69775000  0.99211000  0.22295000  1.0
  C  C59  1  0.70674000  0.44933000  0.42330000  1.0
  C  C60  1  0.69486000  0.30959000  0.39356000  1.0
  C  C61  1  0.76406000  0.28160000  0.20470000  1.0
  C  C62  1  0.94009000  0.32149000  0.76850000  1.0
  C  C63  1  0.07255000  0.31406000  0.75933000  1.0
  C  C64  1  0.09621000  0.26829000  0.65256000  1.0
  C  C65  1  0.21915000  0.26148000  0.64421000  1.0
  C  C66  1  0.32055000  0.30243000  0.74241000  1.0
  C  C67  1  0.45345000  0.29356000  0.73633000  1.0
  C  C68  1  0.29665000  0.34893000  0.84853000  1.0
  C  C69  1  0.17358000  0.35326000  0.85728000  1.0
  C  C70  1  0.89023000  0.30801000  0.19644000  1.0
  C  C71  1  0.00789000  0.30225000  0.27706000  1.0
  C  C72  1  0.55067000  0.29326000  0.07670000  1.0
  C  C73  1  0.69042000  0.30514000  0.10644000  1.0
  C  C74  1  0.28160000  0.76406000  0.70470000  1.0
  C  C75  1  0.32149000  0.94009000  0.26850000  1.0
  C  C76  1  0.31406000  0.07255000  0.25933000  1.0
  C  C77  1  0.26829000  0.09621000  0.15256000  1.0
  C  C78  1  0.26148000  0.21915000  0.14421000  1.0
  C  C79  1  0.30243000  0.32055000  0.24240000  1.0
  C  C80  1  0.29355000  0.45344000  0.23633000  1.0
  C  C81  1  0.34893000  0.29665000  0.34853000  1.0
  C  C82  1  0.35326000  0.17358000  0.35728000  1.0
  C  C83  1  0.30802000  0.89022000  0.69644000  1.0
  C  C84  1  0.30226000  0.00789000  0.77705000  1.0
  C  C85  1  0.29326000  0.55067000  0.57669000  1.0
  C  C86  1  0.30515000  0.69041000  0.60644000  1.0
  C  C87  1  0.23594000  0.71840000  0.79530000  1.0
  C  C88  1  0.05991000  0.67851000  0.23150000  1.0
  C  C89  1  0.92745000  0.68594000  0.24067000  1.0
  C  C90  1  0.90379000  0.73171000  0.34744000  1.0
  C  C91  1  0.78085000  0.73852000  0.35579000  1.0
  C  C92  1  0.67945000  0.69757000  0.25760000  1.0
  C  C93  1  0.54655000  0.70645000  0.26367000  1.0
  C  C94  1  0.70335000  0.65107000  0.15147000  1.0
  C  C95  1  0.82642000  0.64674000  0.14272000  1.0
  C  C96  1  0.10978000  0.69198000  0.80355000  1.0
  C  C97  1  0.99211000  0.69775000  0.72295000  1.0
  C  C98  1  0.44933000  0.70674000  0.92331000  1.0
  C  C99  1  0.30958000  0.69485000  0.89356000  1.0
  N  N100  1  0.65772000  0.23320000  0.45826000  1.0
  N  N101  1  0.65664000  0.11299000  0.40249000  1.0
  N  N102  1  0.76681000  0.34228000  0.04174000  1.0
  N  N103  1  0.88701000  0.34336000  0.09751000  1.0
  N  N104  1  0.34228000  0.76680000  0.54174000  1.0
  N  N105  1  0.34336000  0.88701000  0.59751000  1.0
  N  N106  1  0.23320000  0.65772000  0.95826000  1.0
  N  N107  1  0.11299000  0.65664000  0.90249000  1.0
  O  O108  1  0.70028000  0.14390000  0.82477000  1.0
  O  O109  1  0.65073000  0.07927000  0.63174000  1.0
  O  O110  1  0.66520000  0.46118000  0.66997000  1.0
  O  O111  1  0.75531000  0.52834000  0.86032000  1.0
  O  O112  1  0.85609000  0.29970000  0.67522000  1.0
  O  O113  1  0.92073000  0.34926000  0.86826000  1.0
  O  O114  1  0.53882000  0.33481000  0.83003000  1.0
  O  O115  1  0.47166000  0.24470000  0.63968000  1.0
  O  O116  1  0.29971000  0.85610000  0.17523000  1.0
  O  O117  1  0.34928000  0.92073000  0.36826000  1.0
  O  O118  1  0.33480000  0.53882000  0.33002000  1.0
  O  O119  1  0.24469000  0.47166000  0.13967000  1.0
  O  O120  1  0.14390000  0.70029000  0.32477000  1.0
  O  O121  1  0.07927000  0.65072000  0.13174000  1.0
  O  O122  1  0.46118000  0.66520000  0.16997000  1.0
  O  O123  1  0.52834000  0.75530000  0.36032000  1.0
