# generated using pymatgen
data_CuH8C9N2Cl
_symmetry_space_group_name_H-M   'P 1'
_cell_length_a   3.71942000
_cell_length_b   7.37966000
_cell_length_c   15.35240000
_cell_angle_alpha   94.21030000
_cell_angle_beta   89.99950000
_cell_angle_gamma   90.00000000
_symmetry_Int_Tables_number   1
_chemical_formula_structural   CuH8C9N2Cl
_chemical_formula_sum   'Cu2 H16 C18 N4 Cl2'
_cell_volume   420.25630279
_cell_formula_units_Z   2
loop_
 _symmetry_equiv_pos_site_id
 _symmetry_equiv_pos_as_xyz
  1  'x, y, z'
loop_
 _atom_site_type_symbol
 _atom_site_label
 _atom_site_symmetry_multiplicity
 _atom_site_fract_x
 _atom_site_fract_y
 _atom_site_fract_z
 _atom_site_occupancy
  Cu  Cu0  1  0.02464000  0.55437000  0.59576000  1.0
  Cu  Cu1  1  0.52464000  0.44563000  0.40424000  1.0
  H  H2  1  0.27341000  0.84319000  0.54295000  1.0
  H  H3  1  0.77341000  0.15682000  0.45705000  1.0
  H  H4  1  0.36424000  0.07184000  0.57688000  1.0
  H  H5  1  0.86424000  0.92816000  0.42312000  1.0
  H  H6  1  0.23973000  0.19977000  0.71842000  1.0
  H  H7  1  0.73971000  0.80023000  0.28158000  1.0
  H  H8  1  0.02444000  0.15143000  0.86901000  1.0
  H  H9  1  0.52443000  0.84856000  0.13099000  1.0
  H  H10  1  0.77198000  0.93848000  0.97269000  1.0
  H  H11  1  0.27198000  0.06151000  0.02731000  1.0
  H  H12  1  0.54868000  0.62955000  0.00161000  1.0
  H  H13  1  0.04869000  0.37044000  0.99838000  1.0
  H  H14  1  0.54828000  0.38417000  0.88159000  1.0
  H  H15  1  0.04828000  0.61583000  0.11840000  1.0
  H  H16  1  0.77280000  0.44378000  0.73416000  1.0
  H  H17  1  0.27280000  0.55622000  0.26584000  1.0
  C  C18  1  0.14005000  0.92031000  0.67000000  1.0
  C  C19  1  0.64005000  0.07969000  0.33000000  1.0
  C  C20  1  0.14070000  0.06823000  0.73577000  1.0
  C  C21  1  0.64068000  0.93177000  0.26423000  1.0
  C  C22  1  0.02328000  0.04048000  0.81790000  1.0
  C  C23  1  0.52325000  0.95952000  0.18210000  1.0
  C  C24  1  0.89775000  0.86611000  0.83761000  1.0
  C  C25  1  0.39774000  0.13389000  0.16239000  1.0
  C  C26  1  0.77187000  0.82859000  0.92116000  1.0
  C  C27  1  0.27186000  0.17140000  0.07884000  1.0
  C  C28  1  0.64894000  0.65766000  0.93734000  1.0
  C  C29  1  0.14894000  0.34233000  0.06266000  1.0
  C  C30  1  0.64962000  0.51861000  0.86940000  1.0
  C  C31  1  0.14962000  0.48138000  0.13059000  1.0
  C  C32  1  0.77399000  0.55085000  0.78710000  1.0
  C  C33  1  0.27398000  0.44915000  0.21290000  1.0
  C  C34  1  0.90016000  0.72463000  0.76895000  1.0
  C  C35  1  0.40016000  0.27537000  0.23105000  1.0
  N  N36  1  0.02176000  0.75342000  0.68613000  1.0
  N  N37  1  0.52175000  0.24659000  0.31387000  1.0
  N  N38  1  0.25899000  0.94892000  0.58925000  1.0
  N  N39  1  0.75899000  0.05109000  0.41075000  1.0
  Cl  Cl40  1  0.52074000  0.36632000  0.56695000  1.0
  Cl  Cl41  1  0.02074000  0.63368000  0.43305000  1.0
