# generated using pymatgen
data_NdH7C8SO9
_symmetry_space_group_name_H-M   'P 1'
_cell_length_a   6.40451000
_cell_length_b   8.76463000
_cell_length_c   10.70350000
_cell_angle_alpha   91.15790000
_cell_angle_beta   99.48120000
_cell_angle_gamma   107.55100000
_symmetry_Int_Tables_number   1
_chemical_formula_structural   NdH7C8SO9
_chemical_formula_sum   'Nd2 H14 C16 S2 O18'
_cell_volume   563.46495565
_cell_formula_units_Z   2
loop_
 _symmetry_equiv_pos_site_id
 _symmetry_equiv_pos_as_xyz
  1  'x, y, z'
loop_
 _atom_site_type_symbol
 _atom_site_label
 _atom_site_symmetry_multiplicity
 _atom_site_fract_x
 _atom_site_fract_y
 _atom_site_fract_z
 _atom_site_occupancy
  Nd  Nd0  1  0.14807000  0.23839000  0.61031000  1.0
  Nd  Nd1  1  0.85193000  0.76161000  0.38969000  1.0
  H  H2  1  0.61898000  0.41215000  0.14225000  1.0
  H  H3  1  0.38102000  0.58785000  0.85775000  1.0
  H  H4  1  0.65667000  0.36030000  0.91928000  1.0
  H  H5  1  0.34333000  0.63970000  0.08072000  1.0
  H  H6  1  0.17097000  0.15029000  0.05504000  1.0
  H  H7  1  0.82903000  0.84971000  0.94496000  1.0
  H  H8  1  0.53665000  0.08229000  0.67871000  1.0
  H  H9  1  0.46335000  0.91771000  0.32129000  1.0
  H  H10  1  0.31647000  0.94826000  0.61109000  1.0
  H  H11  1  0.68353000  0.05174000  0.38891000  1.0
  H  H12  1  0.65591000  0.34982000  0.71354000  1.0
  H  H13  1  0.34409000  0.65018000  0.28645000  1.0
  H  H14  1  0.58852000  0.49982000  0.65681000  1.0
  H  H15  1  0.41148000  0.50018000  0.34319000  1.0
  C  C16  1  0.01592000  0.22588000  0.19840000  1.0
  C  C17  1  0.98408000  0.77413000  0.80160000  1.0
  C  C18  1  0.86403000  0.30465000  0.22480000  1.0
  C  C19  1  0.13597000  0.69535000  0.77520000  1.0
  C  C20  1  0.73590000  0.35084000  0.12201000  1.0
  C  C21  1  0.26410000  0.64916000  0.87800000  1.0
  C  C22  1  0.75801000  0.32223000  0.99702000  1.0
  C  C23  1  0.24200000  0.67777000  0.00298000  1.0
  C  C24  1  0.91701000  0.25074000  0.97287000  1.0
  C  C25  1  0.08299000  0.74926000  0.02713000  1.0
  C  C26  1  0.04422000  0.20222000  0.07413000  1.0
  C  C27  1  0.95578000  0.79779000  0.92587000  1.0
  C  C28  1  0.83965000  0.34904000  0.35734000  1.0
  C  C29  1  0.16035000  0.65096000  0.64266000  1.0
  C  C30  1  0.97308000  0.23493000  0.84428000  1.0
  C  C31  1  0.02692000  0.76507000  0.15572000  1.0
  S  S32  1  0.20880000  0.17415000  0.31749000  1.0
  S  S33  1  0.79120000  0.82585000  0.68251000  1.0
  O  O34  1  0.08785000  0.04455000  0.39136000  1.0
  O  O35  1  0.91215000  0.95545000  0.60864000  1.0
  O  O36  1  0.30915000  0.31918000  0.40818000  1.0
  O  O37  1  0.69085000  0.68082000  0.59182000  1.0
  O  O38  1  0.36350000  0.12880000  0.25201000  1.0
  O  O39  1  0.63650000  0.87120000  0.74799000  1.0
  O  O40  1  0.84067000  0.24833000  0.44208000  1.0
  O  O41  1  0.15933000  0.75167000  0.55792000  1.0
  O  O42  1  0.81948000  0.48547000  0.37718000  1.0
  O  O43  1  0.18052000  0.51453000  0.62282000  1.0
  O  O44  1  0.15485000  0.20664000  0.83750000  1.0
  O  O45  1  0.84515000  0.79336000  0.16250000  1.0
  O  O46  1  0.84646000  0.25296000  0.74258000  1.0
  O  O47  1  0.15354000  0.74703000  0.25742000  1.0
  O  O48  1  0.38487000  0.06537000  0.63345000  1.0
  O  O49  1  0.61513000  0.93463000  0.36655000  1.0
  O  O50  1  0.53300000  0.39895000  0.69798000  1.0
  O  O51  1  0.46700000  0.60105000  0.30202000  1.0
