# generated using pymatgen
data_Al6H41C84N9(O7F3)4
_symmetry_space_group_name_H-M   'P 1'
_cell_length_a   12.61220000
_cell_length_b   12.79741710
_cell_length_c   27.77240000
_cell_angle_alpha   88.62152401
_cell_angle_beta   88.09250000
_cell_angle_gamma   61.28999344
_symmetry_Int_Tables_number   1
_chemical_formula_structural   Al6H41C84N9(O7F3)4
_chemical_formula_sum   'Al6 H41 C84 N9 O28 F12'
_cell_volume   3929.14363783
_cell_formula_units_Z   1
loop_
 _symmetry_equiv_pos_site_id
 _symmetry_equiv_pos_as_xyz
  1  'x, y, z'
loop_
 _atom_site_type_symbol
 _atom_site_label
 _atom_site_symmetry_multiplicity
 _atom_site_fract_x
 _atom_site_fract_y
 _atom_site_fract_z
 _atom_site_occupancy
  Al  Al0  1  0.39598000  0.40977000  0.50739000  1.0
  Al  Al1  1  0.42029000  0.64747000  0.50214000  1.0
  Al  Al2  1  0.64856000  0.41664000  0.50244000  1.0
  Al  Al3  1  0.93489000  0.90747000  0.01598000  1.0
  Al  Al4  1  0.67711000  0.91712000  0.01667000  1.0
  Al  Al5  1  0.89786000  0.67597000  0.01517000  1.0
  H  H6  1  0.45064000  0.82703000  0.79102000  1.0
  H  H7  1  0.69276000  0.96986000  0.78280000  1.0
  H  H8  1  0.22460000  0.45246000  0.78442000  1.0
  H  H9  1  0.03924000  0.61073000  0.72206000  1.0
  H  H10  1  0.38881000  0.51323000  0.73594000  1.0
  H  H11  1  0.32552000  0.70105000  0.80244000  1.0
  H  H12  1  0.14424000  0.85750000  0.73979000  1.0
  H  H13  1  0.97664000  0.79541000  0.78881000  1.0
  H  H14  1  0.68504000  0.88748000  0.15151000  1.0
  H  H15  1  0.72091000  0.51348000  0.22265000  1.0
  H  H16  1  0.73516000  0.53292000  0.13359000  1.0
  H  H17  1  0.72728000  0.33676000  0.36678000  1.0
  H  H18  1  0.51219000  0.59908000  0.75361000  1.0
  H  H19  1  0.84069000  0.14256000  0.22396000  1.0
  H  H20  1  0.86694000  0.07717000  0.13871000  1.0
  H  H21  1  0.53794000  0.11105000  0.30050000  1.0
  H  H22  1  0.11860000  0.56456000  0.40223000  1.0
  H  H23  1  0.96688000  0.86693000  0.15213000  1.0
  H  H24  1  0.29652000  0.69920000  0.26875000  1.0
  H  H25  1  0.85141000  0.53727000  0.72695000  1.0
  H  H26  1  0.85717000  0.17068000  0.78683000  1.0
  H  H27  1  0.40787000  0.17342000  0.74831000  1.0
  H  H28  1  0.44916000  0.19925000  0.69373000  1.0
  H  H29  1  0.41757000  0.90451000  0.36820000  1.0
  H  H30  1  0.45075000  0.82359000  0.42199000  1.0
  H  H31  1  0.53024000  0.96738000  0.71486000  1.0
  H  H32  1  0.59112000  0.87304000  0.66821000  1.0
  H  H33  1  0.69401000  0.87292000  0.28152000  1.0
  H  H34  1  0.68257000  0.95545000  0.23060000  1.0
  H  H35  1  0.48372000  0.12088000  0.10017000  1.0
  H  H36  1  0.39388000  0.18397000  0.15259000  1.0
  H  H37  1  0.00332000  0.85534000  0.28222000  1.0
  H  H38  1  0.92544000  0.94122000  0.23476000  1.0
  H  H39  1  0.00592000  0.56753000  0.28294000  1.0
  H  H40  1  0.00401000  0.53009000  0.34156000  1.0
  H  H41  1  0.77287000  0.40062000  0.79738000  1.0
  H  H42  1  0.70770000  0.48257000  0.84651000  1.0
  H  H43  1  0.94902000  0.93324000  0.73315000  1.0
  H  H44  1  0.86782000  0.95597000  0.68409000  1.0
  H  H45  1  0.31698000  0.28748000  0.48394000  1.0
  H  H46  1  0.07844000  0.95911000  0.04199000  1.0
  C  C47  1  0.27300000  0.62179000  0.57078000  1.0
  C  C48  1  0.62242000  0.61982000  0.62051000  1.0
  C  C49  1  0.72750000  0.72630000  0.76129000  1.0
  C  C50  1  0.65828000  0.70699000  0.80672000  1.0
  C  C51  1  0.76254000  0.60182000  0.74126000  1.0
  C  C52  1  0.64270000  0.65720000  0.71174000  1.0
  C  C53  1  0.69595000  0.57891000  0.78537000  1.0
  C  C54  1  0.57292000  0.63684000  0.75656000  1.0
  C  C55  1  0.66870000  0.72478000  0.85596000  1.0
  C  C56  1  0.63264000  0.63502000  0.66299000  1.0
  C  C57  1  0.77952000  0.07463000  0.73779000  1.0
  C  C58  1  0.59856000  0.59581000  0.57307000  1.0
  C  C59  1  0.77756000  0.16760000  0.77423000  1.0
  C  C60  1  0.70783000  0.10050000  0.90118000  1.0
  C  C61  1  0.64655000  0.22161000  0.61735000  1.0
  C  C62  1  0.68555000  0.05529000  0.77167000  1.0
  C  C63  1  0.68557000  0.14802000  0.80840000  1.0
  C  C64  1  0.57717000  0.15751000  0.74433000  1.0
  C  C65  1  0.66932000  0.17724000  0.71021000  1.0
  C  C66  1  0.57673000  0.25086000  0.78072000  1.0
  C  C67  1  0.66964000  0.26865000  0.74737000  1.0
  C  C68  1  0.69551000  0.12682000  0.85857000  1.0
  C  C69  1  0.61328000  0.27628000  0.57052000  1.0
  C  C70  1  0.65886000  0.19765000  0.66019000  1.0
  C  C71  1  0.10313000  0.62994000  0.74042000  1.0
  C  C72  1  0.20576000  0.54259000  0.77415000  1.0
  C  C73  1  0.11696000  0.65933000  0.90374000  1.0
  C  C74  1  0.22696000  0.65603000  0.61901000  1.0
  C  C75  1  0.06839000  0.73450000  0.77598000  1.0
  C  C76  1  0.17069000  0.64680000  0.81116000  1.0
  C  C77  1  0.16039000  0.76808000  0.75010000  1.0
  C  C78  1  0.19473000  0.66404000  0.71310000  1.0
  C  C79  1  0.26243000  0.68072000  0.78405000  1.0
  C  C80  1  0.29147000  0.60809000  0.43251000  1.0
  C  C81  1  0.29723000  0.57616000  0.74826000  1.0
  C  C82  1  0.14750000  0.64808000  0.86127000  1.0
  C  C83  1  0.21024000  0.66486000  0.66256000  1.0
  C  C84  1  0.65257000  0.63839000  0.39187000  1.0
  C  C85  1  0.57424000  0.74807000  0.36797000  1.0
  C  C86  1  0.59562000  0.75837000  0.31825000  1.0
  C  C87  1  0.68856000  0.67219000  0.29029000  1.0
  C  C88  1  0.76739000  0.56783000  0.31556000  1.0
  C  C89  1  0.75133000  0.55239000  0.36414000  1.0
  C  C90  1  0.69890000  0.79063000  0.21776000  1.0
  C  C91  1  0.62108000  0.60796000  0.43962000  1.0
  C  C92  1  0.69392000  0.80503000  0.16736000  1.0
  C  C93  1  0.72194000  0.60537000  0.15704000  1.0
  C  C94  1  0.71609000  0.59439000  0.20683000  1.0
  C  C95  1  0.70189000  0.68596000  0.23783000  1.0
  C  C96  1  0.70606000  0.71388000  0.13738000  1.0
  C  C97  1  0.62110000  0.24889000  0.38321000  1.0
  C  C98  1  0.68551000  0.28750000  0.35218000  1.0
  C  C99  1  0.69307000  0.26591000  0.30332000  1.0
  C  C100  1  0.64156000  0.20239000  0.28246000  1.0
  C  C101  1  0.57959000  0.16150000  0.31403000  1.0
  C  C102  1  0.60032000  0.28957000  0.43414000  1.0
  C  C103  1  0.56932000  0.18523000  0.36290000  1.0
  C  C104  1  0.56215000  0.17664000  0.20471000  1.0
  C  C105  1  0.57208000  0.14309000  0.15580000  1.0
  C  C106  1  0.78109000  0.10556000  0.15807000  1.0
  C  C107  1  0.76677000  0.14099000  0.20549000  1.0
  C  C108  1  0.65535000  0.17522000  0.23059000  1.0
  C  C109  1  0.68767000  0.10256000  0.13277000  1.0
  C  C110  1  0.24475000  0.62622000  0.38271000  1.0
  C  C111  1  0.15465000  0.59652000  0.37257000  1.0
  C  C112  1  0.11115000  0.60634000  0.32588000  1.0
  C  C113  1  0.60449000  0.78628000  0.73197000  1.0
  C  C114  1  0.16351000  0.64353000  0.28790000  1.0
  C  C115  1  0.25459000  0.67201000  0.29781000  1.0
  C  C116  1  0.29340000  0.66407000  0.34444000  1.0
  C  C117  1  0.04659000  0.76967000  0.21767000  1.0
  C  C118  1  0.02194000  0.77969000  0.16847000  1.0
  C  C119  1  0.13722000  0.56678000  0.15876000  1.0
  C  C120  1  0.16586000  0.55694000  0.20732000  1.0
  C  C121  1  0.12338000  0.65555000  0.23742000  1.0
  C  C122  1  0.06632000  0.67980000  0.13883000  1.0
  C  C123  1  0.73262000  0.04598000  0.94823000  1.0
  C  C124  1  0.53916000  0.76203000  0.77651000  1.0
  C  C125  1  0.70903000  0.74394000  0.94755000  1.0
  C  C126  1  0.05672000  0.69481000  0.94991000  1.0
  C  C127  1  0.71801000  0.04835000  0.08449000  1.0
  C  C128  1  0.71244000  0.73441000  0.08468000  1.0
  C  C129  1  0.03059000  0.70218000  0.08735000  1.0
  C  C130  1  0.68043000  0.73167000  0.89909000  1.0
  N  N131  1  0.47900000  0.14943000  0.72455000  1.0
  N  N132  1  0.47963000  0.84161000  0.38986000  1.0
  N  N133  1  0.55091000  0.88551000  0.70152000  1.0
  N  N134  1  0.70695000  0.87409000  0.24542000  1.0
  N  N135  1  0.47448000  0.14869000  0.13468000  1.0
  N  N136  1  0.00265000  0.87007000  0.24613000  1.0
  N  N137  1  0.01594000  0.58461000  0.31750000  1.0
  N  N138  1  0.75319000  0.47710000  0.81481000  1.0
  N  N139  1  0.88452000  0.99613000  0.71192000  1.0
  O  O140  1  0.50644000  0.30891000  0.55842000  1.0
  O  O141  1  0.52124000  0.68412000  0.46067000  1.0
  O  O142  1  0.68916000  0.50499000  0.45781000  1.0
  O  O143  1  0.68032000  0.31292000  0.45114000  1.0
  O  O144  1  0.48954000  0.49110000  0.50362000  1.0
  O  O145  1  0.03361000  0.79636000  0.96456000  1.0
  O  O146  1  0.83496000  0.01549000  0.96524000  1.0
  O  O147  1  0.64804000  0.02859000  0.96768000  1.0
  O  O148  1  0.63480000  0.83717000  0.97098000  1.0
  O  O149  1  0.81001000  0.66245000  0.96317000  1.0
  O  O150  1  0.02656000  0.62204000  0.97166000  1.0
  O  O151  1  0.29987000  0.51716000  0.55894000  1.0
  O  O152  1  0.02446000  0.79533000  0.06807000  1.0
  O  O153  1  0.82486000  0.00928000  0.06846000  1.0
  O  O154  1  0.63427000  0.03831000  0.06185000  1.0
  O  O155  1  0.64147000  0.83884000  0.06841000  1.0
  O  O156  1  0.79373000  0.65058000  0.05900000  1.0
  O  O157  1  0.00224000  0.62977000  0.06732000  1.0
  O  O158  1  0.83567000  0.83258000  0.01577000  1.0
  O  O159  1  0.28834000  0.69789000  0.54399000  1.0
  O  O160  1  0.49890000  0.67266000  0.55458000  1.0
  O  O161  1  0.67567000  0.49790000  0.55339000  1.0
  O  O162  1  0.69387000  0.29186000  0.54628000  1.0
  O  O163  1  0.50402000  0.30540000  0.45548000  1.0
  O  O164  1  0.29702000  0.51995000  0.45594000  1.0
  O  O165  1  0.32465000  0.68209000  0.44791000  1.0
  O  O166  1  0.31056000  0.33503000  0.51152000  1.0
  O  O167  1  0.02288000  0.97958000  0.01589000  1.0
  F  F168  1  0.47584000  0.33912000  0.80255000  1.0
  F  F169  1  0.51097000  0.86072000  0.29640000  1.0
  F  F170  1  0.86567000  0.48060000  0.29213000  1.0
  F  F171  1  0.83592000  0.44968000  0.38433000  1.0
  F  F172  1  0.45104000  0.21225000  0.22632000  1.0
  F  F173  1  0.75113000  0.31169000  0.27458000  1.0
  F  F174  1  0.50915000  0.14195000  0.39107000  1.0
  F  F175  1  0.24019000  0.44680000  0.22555000  1.0
  F  F176  1  0.18477000  0.46655000  0.13175000  1.0
  F  F177  1  0.38655000  0.68750000  0.35162000  1.0
  F  F178  1  0.80709000  0.77098000  0.76386000  1.0
  F  F179  1  0.66059000  0.37616000  0.73364000  1.0
