# generated using pymatgen
data_CdMo4H26C18N4O15
_symmetry_space_group_name_H-M   'P 1'
_cell_length_a   11.83550000
_cell_length_b   13.29940000
_cell_length_c   13.30620000
_cell_angle_alpha   75.79250000
_cell_angle_beta   67.09610000
_cell_angle_gamma   65.03690000
_symmetry_Int_Tables_number   1
_chemical_formula_structural   CdMo4H26C18N4O15
_chemical_formula_sum   'Cd2 Mo8 H52 C36 N8 O30'
_cell_volume   1740.80992957
_cell_formula_units_Z   2
loop_
 _symmetry_equiv_pos_site_id
 _symmetry_equiv_pos_as_xyz
  1  'x, y, z'
loop_
 _atom_site_type_symbol
 _atom_site_label
 _atom_site_symmetry_multiplicity
 _atom_site_fract_x
 _atom_site_fract_y
 _atom_site_fract_z
 _atom_site_occupancy
  Cd  Cd0  1  0.50000000  0.50000000  0.00000000  1.0
  Cd  Cd1  1  0.50000000  0.00000000  0.50000000  1.0
  Mo  Mo2  1  0.87611000  0.37986000  0.89743000  1.0
  Mo  Mo3  1  0.12389000  0.62014000  0.10257000  1.0
  Mo  Mo4  1  0.72698000  0.65862000  0.93074000  1.0
  Mo  Mo5  1  0.27301000  0.34138000  0.06926000  1.0
  Mo  Mo6  1  0.14844000  0.22099000  0.96657000  1.0
  Mo  Mo7  1  0.85156000  0.77901000  0.03343000  1.0
  Mo  Mo8  1  0.90200000  0.46797000  0.14369000  1.0
  Mo  Mo9  1  0.09799000  0.53203000  0.85632000  1.0
  H  H10  1  0.69557000  0.39048000  0.78616000  1.0
  H  H11  1  0.30444000  0.60952000  0.21383000  1.0
  H  H12  1  0.71103000  0.39979000  0.59185000  1.0
  H  H13  1  0.28897000  0.60020000  0.40815000  1.0
  H  H14  1  0.35735000  0.69529000  0.64876000  1.0
  H  H15  1  0.64266000  0.30471000  0.35123000  1.0
  H  H16  1  0.35747000  0.67503000  0.84067000  1.0
  H  H17  1  0.64254000  0.32497000  0.15933000  1.0
  H  H18  1  0.46824000  0.62579000  0.46604000  1.0
  H  H19  1  0.53177000  0.37421000  0.53396000  1.0
  H  H20  1  0.62884000  0.52105000  0.43386000  1.0
  H  H21  1  0.37116000  0.47895000  0.56613000  1.0
  H  H22  1  0.62859000  0.82033000  0.66530000  1.0
  H  H23  1  0.37140000  0.17966000  0.33470000  1.0
  H  H24  1  0.78724000  0.62570000  0.67675000  1.0
  H  H25  1  0.21275000  0.37429000  0.32325000  1.0
  H  H26  1  0.84668000  0.61935000  0.33593000  1.0
  H  H27  1  0.15333000  0.38065000  0.66406000  1.0
  H  H28  1  0.68587000  0.81345000  0.33794000  1.0
  H  H29  1  0.31413000  0.18655000  0.66206000  1.0
  H  H30  1  0.90932000  0.44345000  0.58732000  1.0
  H  H31  1  0.09068000  0.55655000  0.41268000  1.0
  H  H32  1  0.95035000  0.44728000  0.44291000  1.0
  H  H33  1  0.04966000  0.55271000  0.55709000  1.0
  H  H34  1  0.40765000  0.83790000  0.39865000  1.0
  H  H35  1  0.59234000  0.16210000  0.60136000  1.0
  H  H36  1  0.37907000  0.74713000  0.30364000  1.0
  H  H37  1  0.62093000  0.25287000  0.69636000  1.0
  H  H38  1  0.47974000  0.74733000  0.16294000  1.0
  H  H39  1  0.52026000  0.25267000  0.83706000  1.0
  H  H40  1  0.30751000  0.83013000  0.20032000  1.0
  H  H41  1  0.69249000  0.16987000  0.79968000  1.0
  H  H42  1  0.46682000  0.03339000  0.15999000  1.0
  H  H43  1  0.53318000  0.96660000  0.84002000  1.0
  H  H44  1  0.36027000  0.00734000  0.11325000  1.0
  H  H45  1  0.63974000  0.99266000  0.88675000  1.0
  H  H46  1  0.53298000  0.92241000  0.07495000  1.0
  H  H47  1  0.46702000  0.07759000  0.92505000  1.0
  H  H48  1  0.58180000  0.09931000  0.24555000  1.0
  H  H49  1  0.41820000  0.90069000  0.75445000  1.0
  H  H50  1  0.82224000  0.02928000  0.02580000  1.0
  H  H51  1  0.17775000  0.97072000  0.97420000  1.0
  H  H52  1  0.81100000  0.16833000  0.02479000  1.0
  H  H53  1  0.18900000  0.83168000  0.97521000  1.0
  H  H54  1  0.66523000  0.13676000  0.07370000  1.0
  H  H55  1  0.33477000  0.86324000  0.92630000  1.0
  H  H56  1  0.93869000  0.11545000  0.16855000  1.0
  H  H57  1  0.06131000  0.88455000  0.83145000  1.0
  H  H58  1  0.97668000  0.97883000  0.13911000  1.0
  H  H59  1  0.02332000  0.02117000  0.86089000  1.0
  H  H60  1  0.89704000  0.01375000  0.27785000  1.0
  H  H61  1  0.10296000  0.98625000  0.72215000  1.0
  C  C62  1  0.62347000  0.45707000  0.75193000  1.0
  C  C63  1  0.37654000  0.54293000  0.24807000  1.0
  C  C64  1  0.63064000  0.46248000  0.64449000  1.0
  C  C65  1  0.36936000  0.53751000  0.35551000  1.0
  C  C66  1  0.53335000  0.54724000  0.60502000  1.0
  C  C67  1  0.46666000  0.45276000  0.39498000  1.0
  C  C68  1  0.43523000  0.62718000  0.67535000  1.0
  C  C69  1  0.56478000  0.37282000  0.32465000  1.0
  C  C70  1  0.43465000  0.61697000  0.78191000  1.0
  C  C71  1  0.56535000  0.38303000  0.21809000  1.0
  C  C72  1  0.52958000  0.54379000  0.49510000  1.0
  C  C73  1  0.47042000  0.45621000  0.50490000  1.0
  C  C74  1  0.67616000  0.77192000  0.59511000  1.0
  C  C75  1  0.32384000  0.22807000  0.40489000  1.0
  C  C76  1  0.76587000  0.66385000  0.60047000  1.0
  C  C77  1  0.23412000  0.33615000  0.39953000  1.0
  C  C78  1  0.82921000  0.60563000  0.50719000  1.0
  C  C79  1  0.17079000  0.39437000  0.49281000  1.0
  C  C80  1  0.79865000  0.65964000  0.41161000  1.0
  C  C81  1  0.20136000  0.34036000  0.58838000  1.0
  C  C82  1  0.70786000  0.76820000  0.41238000  1.0
  C  C83  1  0.29214000  0.23180000  0.58762000  1.0
  C  C84  1  0.93511000  0.49306000  0.50846000  1.0
  C  C85  1  0.06489000  0.50694000  0.49154000  1.0
  C  C86  1  0.42824000  0.90291000  0.33205000  1.0
  C  C87  1  0.57176000  0.09710000  0.66795000  1.0
  C  C88  1  0.39576000  0.79881000  0.22536000  1.0
  C  C89  1  0.60424000  0.20119000  0.77464000  1.0
  C  C90  1  0.44754000  0.96841000  0.14017000  1.0
  C  C91  1  0.55246000  0.03159000  0.85983000  1.0
  C  C92  1  0.67072000  0.07878000  0.26692000  1.0
  C  C93  1  0.32929000  0.92122000  0.73308000  1.0
  C  C94  1  0.76875000  0.10455000  0.06964000  1.0
  C  C95  1  0.23125000  0.89544000  0.93036000  1.0
  C  C96  1  0.90486000  0.04521000  0.19226000  1.0
  C  C97  1  0.09515000  0.95479000  0.80774000  1.0
  N  N98  1  0.52613000  0.53251000  0.81989000  1.0
  N  N99  1  0.47387000  0.46749000  0.18011000  1.0
  N  N100  1  0.64710000  0.82334000  0.50263000  1.0
  N  N101  1  0.35290000  0.17666000  0.49737000  1.0
  N  N102  1  0.42294000  0.89125000  0.23733000  1.0
  N  N103  1  0.57706000  0.10875000  0.76267000  1.0
  N  N104  1  0.77643000  0.07926000  0.18013000  1.0
  N  N105  1  0.22357000  0.92073000  0.81987000  1.0
  O  O106  1  0.57579000  0.64112000  0.98913000  1.0
  O  O107  1  0.42421000  0.35889000  0.01088000  1.0
  O  O108  1  0.71882000  0.37339000  0.95975000  1.0
  O  O109  1  0.28118000  0.62661000  0.04025000  1.0
  O  O110  1  0.70308000  0.76635000  0.83123000  1.0
  O  O111  1  0.29692000  0.23366000  0.16877000  1.0
  O  O112  1  0.82704000  0.53472000  0.84386000  1.0
  O  O113  1  0.17296000  0.46528000  0.15614000  1.0
  O  O114  1  0.93546000  0.32030000  0.77833000  1.0
  O  O115  1  0.06454000  0.67970000  0.22167000  1.0
  O  O116  1  0.81325000  0.48838000  0.05356000  1.0
  O  O117  1  0.18674000  0.51163000  0.94645000  1.0
  O  O118  1  0.96306000  0.26598000  0.98992000  1.0
  O  O119  1  0.03694000  0.73402000  0.01009000  1.0
  O  O120  1  0.22005000  0.15913000  0.84707000  1.0
  O  O121  1  0.77995000  0.84088000  0.15293000  1.0
  O  O122  1  0.16711000  0.11213000  0.06684000  1.0
  O  O123  1  0.83289000  0.88787000  0.93315000  1.0
  O  O124  1  0.71807000  0.72571000  0.04614000  1.0
  O  O125  1  0.28193000  0.27430000  0.95386000  1.0
  O  O126  1  0.06921000  0.40537000  0.86620000  1.0
  O  O127  1  0.93078000  0.59463000  0.13381000  1.0
  O  O128  1  0.81276000  0.43778000  0.27694000  1.0
  O  O129  1  0.18723000  0.56222000  0.72306000  1.0
  O  O130  1  0.94134000  0.64587000  0.89882000  1.0
  O  O131  1  0.05866000  0.35414000  0.10118000  1.0
  O  O132  1  0.45374000  0.97921000  0.34733000  1.0
  O  O133  1  0.54626000  0.02079000  0.65268000  1.0
  O  O134  1  0.66943000  0.05690000  0.36474000  1.0
  O  O135  1  0.33057000  0.94311000  0.63526000  1.0
