# generated using pymatgen
data_NaH2C3S(ClO2)2
_symmetry_space_group_name_H-M   'P 1'
_cell_length_a   5.61844000
_cell_length_b   10.66860000
_cell_length_c   11.57210000
_cell_angle_alpha   91.10040000
_cell_angle_beta   89.99940000
_cell_angle_gamma   89.99980000
_symmetry_Int_Tables_number   1
_chemical_formula_structural   NaH2C3S(ClO2)2
_chemical_formula_sum   'Na4 H8 C12 S4 Cl8 O16'
_cell_volume   693.51403858
_cell_formula_units_Z   4
loop_
 _symmetry_equiv_pos_site_id
 _symmetry_equiv_pos_as_xyz
  1  'x, y, z'
loop_
 _atom_site_type_symbol
 _atom_site_label
 _atom_site_symmetry_multiplicity
 _atom_site_fract_x
 _atom_site_fract_y
 _atom_site_fract_z
 _atom_site_occupancy
  Na  Na0  1  0.48150000  0.69995000  0.61933000  1.0
  Na  Na1  1  0.98150000  0.80005000  0.38066000  1.0
  Na  Na2  1  0.51849000  0.30006000  0.38066000  1.0
  Na  Na3  1  0.01850000  0.19995000  0.61933000  1.0
  H  H4  1  0.50429000  0.74145000  0.38400000  1.0
  H  H5  1  0.00429000  0.75855000  0.61600000  1.0
  H  H6  1  0.49571000  0.25855000  0.61600000  1.0
  H  H7  1  0.99570000  0.24145000  0.38400000  1.0
  H  H8  1  0.63615000  0.61113000  0.38884000  1.0
  H  H9  1  0.13614000  0.88887000  0.61116000  1.0
  H  H10  1  0.36386000  0.38887000  0.61116000  1.0
  H  H11  1  0.86384000  0.11114000  0.38885000  1.0
  C  C12  1  0.99440000  0.51221000  0.87660000  1.0
  C  C13  1  0.49440000  0.98779000  0.12340000  1.0
  C  C14  1  0.00561000  0.48778000  0.12340000  1.0
  C  C15  1  0.50560000  0.01222000  0.87660000  1.0
  C  C16  1  0.16450000  0.43643000  0.93083000  1.0
  C  C17  1  0.66450000  0.06357000  0.06917000  1.0
  C  C18  1  0.83551000  0.56356000  0.06917000  1.0
  C  C19  1  0.33550000  0.93643000  0.93084000  1.0
  C  C20  1  0.82675000  0.57438000  0.94760000  1.0
  C  C21  1  0.32674000  0.92562000  0.05240000  1.0
  C  C22  1  0.17326000  0.42562000  0.05240000  1.0
  C  C23  1  0.67325000  0.07438000  0.94760000  1.0
  S  S24  1  0.99226000  0.51866000  0.71828000  1.0
  S  S25  1  0.49226000  0.98134000  0.28172000  1.0
  S  S26  1  0.00774000  0.48134000  0.28172000  1.0
  S  S27  1  0.50774000  0.01866000  0.71828000  1.0
  Cl  Cl28  1  0.36630000  0.34945000  0.85157000  1.0
  Cl  Cl29  1  0.86629000  0.15055000  0.14842000  1.0
  Cl  Cl30  1  0.63370000  0.65055000  0.14843000  1.0
  Cl  Cl31  1  0.13371000  0.84946000  0.85158000  1.0
  Cl  Cl32  1  0.60166000  0.66467000  0.89392000  1.0
  Cl  Cl33  1  0.10165000  0.83532000  0.10608000  1.0
  Cl  Cl34  1  0.39835000  0.33532000  0.10608000  1.0
  Cl  Cl35  1  0.89834000  0.16468000  0.89391000  1.0
  O  O36  1  0.61636000  0.69205000  0.43018000  1.0
  O  O37  1  0.11636000  0.80795000  0.56982000  1.0
  O  O38  1  0.38364000  0.30795000  0.56982000  1.0
  O  O39  1  0.88363000  0.19205000  0.43018000  1.0
  O  O40  1  0.24179000  0.53438000  0.68256000  1.0
  O  O41  1  0.74179000  0.96562000  0.31744000  1.0
  O  O42  1  0.75821000  0.46562000  0.31744000  1.0
  O  O43  1  0.25821000  0.03438000  0.68256000  1.0
  O  O44  1  0.85020000  0.62755000  0.68590000  1.0
  O  O45  1  0.35020000  0.87244000  0.31410000  1.0
  O  O46  1  0.14981000  0.37245000  0.31410000  1.0
  O  O47  1  0.64981000  0.12756000  0.68590000  1.0
  O  O48  1  0.88820000  0.39877000  0.68283000  1.0
  O  O49  1  0.38818000  0.10122000  0.31718000  1.0
  O  O50  1  0.11180000  0.60123000  0.31717000  1.0
  O  O51  1  0.61182000  0.89877000  0.68282000  1.0
