# generated using pymatgen
data_ZnH8C20(N2O3)2
_symmetry_space_group_name_H-M   'P 1'
_cell_length_a   13.18860000
_cell_length_b   14.48920000
_cell_length_c   23.69000000
_cell_angle_alpha   90.07770000
_cell_angle_beta   90.01380000
_cell_angle_gamma   91.25360000
_symmetry_Int_Tables_number   1
_chemical_formula_structural   ZnH8C20(N2O3)2
_chemical_formula_sum   'Zn2 H16 C40 N8 O12'
_cell_volume   4525.88787437
_cell_formula_units_Z   2
loop_
 _symmetry_equiv_pos_site_id
 _symmetry_equiv_pos_as_xyz
  1  'x, y, z'
loop_
 _atom_site_type_symbol
 _atom_site_label
 _atom_site_symmetry_multiplicity
 _atom_site_fract_x
 _atom_site_fract_y
 _atom_site_fract_z
 _atom_site_occupancy
  Zn  Zn0  1  0.39457000  0.49847000  0.49872000  1.0
  Zn  Zn1  1  0.60538000  0.50149000  0.49939000  1.0
  H  H2  1  0.33321000  0.50518000  0.78291000  1.0
  H  H3  1  0.66428000  0.49680000  0.21434000  1.0
  H  H4  1  0.65902000  0.50216000  0.78543000  1.0
  H  H5  1  0.33839000  0.49678000  0.21349000  1.0
  H  H6  1  0.33628000  0.50307000  0.67689000  1.0
  H  H7  1  0.66310000  0.49808000  0.32040000  1.0
  H  H8  1  0.66130000  0.50021000  0.67943000  1.0
  H  H9  1  0.33797000  0.49782000  0.31954000  1.0
  H  H10  1  0.61668000  0.79196000  0.04014000  1.0
  H  H11  1  0.56894000  0.73946000  0.10160000  1.0
  H  H12  1  0.43204000  0.26065000  0.89662000  1.0
  H  H13  1  0.44945000  0.19469000  0.95786000  1.0
  H  H14  1  0.39409000  0.20386000  0.03608000  1.0
  H  H15  1  0.44120000  0.25534000  0.09812000  1.0
  H  H16  1  0.56706000  0.74320000  0.89983000  1.0
  H  H17  1  0.56012000  0.80685000  0.96291000  1.0
  C  C18  1  0.50066000  0.68054000  0.49956000  1.0
  C  C19  1  0.49893000  0.31943000  0.49903000  1.0
  C  C20  1  0.50018000  0.50025000  0.60889000  1.0
  C  C21  1  0.49995000  0.49946000  0.38924000  1.0
  C  C22  1  0.48299000  0.41309000  0.11990000  1.0
  C  C23  1  0.52146000  0.58641000  0.87823000  1.0
  C  C24  1  0.52191000  0.58235000  0.12103000  1.0
  C  C25  1  0.47043000  0.41964000  0.87718000  1.0
  C  C26  1  0.52234000  0.58267000  0.05937000  1.0
  C  C27  1  0.47314000  0.41875000  0.93881000  1.0
  C  C28  1  0.48127000  0.41508000  0.05823000  1.0
  C  C29  1  0.52317000  0.58439000  0.93988000  1.0
  C  C30  1  0.50062000  0.49958000  0.02906000  1.0
  C  C31  1  0.49874000  0.50098000  0.96911000  1.0
  C  C32  1  0.54657000  0.66547000  0.03058000  1.0
  C  C33  1  0.45372000  0.33495000  0.96758000  1.0
  C  C34  1  0.45830000  0.33300000  0.02828000  1.0
  C  C35  1  0.54759000  0.66622000  0.96982000  1.0
  C  C36  1  0.40472000  0.50446000  0.75991000  1.0
  C  C37  1  0.59318000  0.49675000  0.23776000  1.0
  C  C38  1  0.58868000  0.50236000  0.76129000  1.0
  C  C39  1  0.40916000  0.49698000  0.23726000  1.0
  C  C40  1  0.40638000  0.50310000  0.70118000  1.0
  C  C41  1  0.59256000  0.49755000  0.29651000  1.0
  C  C42  1  0.58999000  0.50136000  0.70256000  1.0
  C  C43  1  0.40888000  0.49749000  0.29601000  1.0
  C  C44  1  0.49888000  0.50152000  0.67215000  1.0
  C  C45  1  0.50049000  0.49805000  0.32597000  1.0
  C  C46  1  0.49601000  0.50389000  0.78955000  1.0
  C  C47  1  0.50143000  0.49673000  0.20857000  1.0
  C  C48  1  0.50135000  0.78021000  0.49989000  1.0
  C  C49  1  0.49856000  0.21978000  0.49948000  1.0
  C  C50  1  0.50100000  0.86489000  0.50016000  1.0
  C  C51  1  0.49912000  0.13511000  0.49990000  1.0
  C  C52  1  0.50050000  0.95742000  0.50029000  1.0
  C  C53  1  0.49976000  0.04258000  0.50022000  1.0
  C  C54  1  0.85126000  0.50149000  0.49936000  1.0
  C  C55  1  0.14870000  0.49869000  0.49949000  1.0
  C  C56  1  0.95353000  0.50048000  0.49952000  1.0
  C  C57  1  0.04644000  0.49970000  0.49959000  1.0
  N  N58  1  0.50189000  0.49737000  0.14756000  1.0
  N  N59  1  0.49516000  0.50361000  0.85055000  1.0
  N  N60  1  0.76267000  0.50250000  0.49920000  1.0
  N  N61  1  0.23729000  0.49763000  0.49932000  1.0
  N  N62  1  0.56735000  0.74639000  0.05837000  1.0
  N  N63  1  0.42883000  0.25491000  0.93989000  1.0
  N  N64  1  0.44187000  0.25036000  0.05479000  1.0
  N  N65  1  0.57414000  0.74648000  0.94306000  1.0
  O  O66  1  0.41366000  0.64065000  0.49894000  1.0
  O  O67  1  0.58587000  0.35951000  0.49901000  1.0
  O  O68  1  0.41253000  0.35698000  0.49871000  1.0
  O  O69  1  0.58698000  0.64279000  0.49993000  1.0
  O  O70  1  0.41449000  0.49909000  0.58390000  1.0
  O  O71  1  0.58581000  0.50133000  0.41403000  1.0
  O  O72  1  0.41362000  0.49869000  0.41350000  1.0
  O  O73  1  0.58666000  0.50055000  0.58482000  1.0
  O  O74  1  0.46870000  0.34232000  0.14892000  1.0
  O  O75  1  0.54150000  0.65613000  0.84918000  1.0
  O  O76  1  0.53779000  0.65192000  0.15101000  1.0
  O  O77  1  0.44850000  0.35120000  0.84730000  1.0
