# generated using pymatgen
data_CdH8C8S2(BrN)2
_symmetry_space_group_name_H-M   'P 1'
_cell_length_a   7.14085000
_cell_length_b   9.64108000
_cell_length_c   10.31300000
_cell_angle_alpha   112.48800000
_cell_angle_beta   105.59300000
_cell_angle_gamma   94.30710000
_symmetry_Int_Tables_number   1
_chemical_formula_structural   CdH8C8S2(BrN)2
_chemical_formula_sum   'Cd2 H16 C16 S4 Br4 N4'
_cell_volume   619.11482559
_cell_formula_units_Z   2
loop_
 _symmetry_equiv_pos_site_id
 _symmetry_equiv_pos_as_xyz
  1  'x, y, z'
loop_
 _atom_site_type_symbol
 _atom_site_label
 _atom_site_symmetry_multiplicity
 _atom_site_fract_x
 _atom_site_fract_y
 _atom_site_fract_z
 _atom_site_occupancy
  Cd  Cd0  1  0.25278000  0.58858000  0.47776000  1.0
  Cd  Cd1  1  0.74721000  0.41142000  0.52224000  1.0
  H  H2  1  0.17574000  0.37984000  0.07469000  1.0
  H  H3  1  0.82425000  0.62016000  0.92532000  1.0
  H  H4  1  0.43610000  0.44044000  0.13169000  1.0
  H  H5  1  0.56390000  0.55956000  0.86831000  1.0
  H  H6  1  0.28321000  0.43772000  0.96097000  1.0
  H  H7  1  0.71679000  0.56227000  0.03903000  1.0
  H  H8  1  0.24408000  0.00571000  0.23729000  1.0
  H  H9  1  0.75592000  0.99429000  0.76271000  1.0
  H  H10  1  0.26027000  0.16435000  0.49747000  1.0
  H  H11  1  0.73974000  0.83564000  0.50252000  1.0
  H  H12  1  0.22291000  0.79201000  0.79894000  1.0
  H  H13  1  0.77709000  0.20800000  0.20106000  1.0
  H  H14  1  0.07619000  0.93115000  0.85088000  1.0
  H  H15  1  0.92381000  0.06886000  0.14913000  1.0
  H  H16  1  0.33828000  0.98404000  0.93238000  1.0
  H  H17  1  0.66172000  0.01598000  0.06762000  1.0
  C  C18  1  0.29342000  0.46068000  0.07556000  1.0
  C  C19  1  0.70657000  0.53932000  0.92445000  1.0
  C  C20  1  0.27549000  0.62120000  0.15628000  1.0
  C  C21  1  0.72450000  0.37880000  0.84371000  1.0
  C  C22  1  0.25057000  0.89038000  0.22900000  1.0
  C  C23  1  0.74944000  0.10962000  0.77100000  1.0
  C  C24  1  0.26098000  0.83863000  0.33767000  1.0
  C  C25  1  0.73902000  0.16136000  0.66232000  1.0
  C  C26  1  0.25283000  0.92818000  0.48547000  1.0
  C  C27  1  0.74718000  0.07182000  0.51453000  1.0
  C  C28  1  0.25122000  0.08244000  0.54564000  1.0
  C  C29  1  0.74879000  0.91756000  0.45436000  1.0
  C  C30  1  0.23122000  0.95389000  0.70630000  1.0
  C  C31  1  0.76878000  0.04612000  0.29370000  1.0
  C  C32  1  0.21703000  0.91330000  0.82909000  1.0
  C  C33  1  0.78297000  0.08671000  0.17091000  1.0
  S  S34  1  0.25651000  0.74561000  0.07135000  1.0
  S  S35  1  0.74349000  0.25438000  0.92864000  1.0
  S  S36  1  0.23406000  0.13785000  0.71891000  1.0
  S  S37  1  0.76595000  0.86215000  0.28109000  1.0
  Br  Br38  1  0.34601000  0.30852000  0.33858000  1.0
  Br  Br39  1  0.65399000  0.69148000  0.66143000  1.0
  Br  Br40  1  0.15511000  0.48706000  0.67700000  1.0
  Br  Br41  1  0.84489000  0.51294000  0.32300000  1.0
  N  N42  1  0.27536000  0.68628000  0.29463000  1.0
  N  N43  1  0.72464000  0.31372000  0.70536000  1.0
  N  N44  1  0.24125000  0.85730000  0.57778000  1.0
  N  N45  1  0.75875000  0.14271000  0.42222000  1.0
