# generated using pymatgen
data_CoH17C23NO10
_symmetry_space_group_name_H-M   'P 1'
_cell_length_a   4.81229000
_cell_length_b   15.30131258
_cell_length_c   15.62106367
_cell_angle_alpha   116.33185125
_cell_angle_beta   96.76952271
_cell_angle_gamma   95.13585966
_symmetry_Int_Tables_number   1
_chemical_formula_structural   CoH17C23NO10
_chemical_formula_sum   'Co2 H34 C46 N2 O20'
_cell_volume   1010.63246534
_cell_formula_units_Z   2
loop_
 _symmetry_equiv_pos_site_id
 _symmetry_equiv_pos_as_xyz
  1  'x, y, z'
loop_
 _atom_site_type_symbol
 _atom_site_label
 _atom_site_symmetry_multiplicity
 _atom_site_fract_x
 _atom_site_fract_y
 _atom_site_fract_z
 _atom_site_occupancy
  Co  Co0  1  0.87893000  0.33266000  0.63813000  1.0
  Co  Co1  1  0.12107000  0.66734000  0.36187000  1.0
  H  H2  1  0.25645000  0.06193000  0.67117000  1.0
  H  H3  1  0.74352000  0.93806000  0.32883000  1.0
  H  H4  1  0.64951000  0.16197000  0.48847000  1.0
  H  H5  1  0.35050000  0.83803000  0.51153000  1.0
  H  H6  1  0.88441000  0.14204000  0.56004000  1.0
  H  H7  1  0.11560000  0.85796000  0.43996000  1.0
  H  H8  1  0.49139000  0.13494000  0.32254000  1.0
  H  H9  1  0.50860000  0.86506000  0.67746000  1.0
  H  H10  1  0.36618000  0.00476000  0.93316000  1.0
  H  H11  1  0.63382000  0.99524000  0.06684000  1.0
  H  H12  1  0.15923000  0.11247000  0.07474000  1.0
  H  H13  1  0.84078000  0.88754000  0.92527000  1.0
  H  H14  1  0.95457000  0.12487000  0.75726000  1.0
  H  H15  1  0.04542000  0.87512000  0.24273000  1.0
  H  H16  1  0.57825000  0.25657000  0.78066000  1.0
  H  H17  1  0.42175000  0.74343000  0.21934000  1.0
  H  H18  1  0.19003000  0.44733000  0.01611000  1.0
  H  H19  1  0.80996000  0.55267000  0.98389000  1.0
  H  H20  1  0.45607000  0.39766000  0.12824000  1.0
  H  H21  1  0.54394000  0.60234000  0.87176000  1.0
  H  H22  1  0.73330000  0.18395000  0.15160000  1.0
  H  H23  1  0.26670000  0.81605000  0.84840000  1.0
  H  H24  1  0.60822000  0.29668000  0.18010000  1.0
  H  H25  1  0.39180000  0.70332000  0.81990000  1.0
  H  H26  1  0.08389000  0.44333000  0.21084000  1.0
  H  H27  1  0.91612000  0.55667000  0.78916000  1.0
  H  H28  1  0.72589000  0.45007000  0.43146000  1.0
  H  H29  1  0.27412000  0.54993000  0.56854000  1.0
  H  H30  1  0.07364000  0.19513000  0.27346000  1.0
  H  H31  1  0.92637000  0.80487000  0.72654000  1.0
  H  H32  1  0.19527000  0.20448000  0.67896000  1.0
  H  H33  1  0.80474000  0.79552000  0.32104000  1.0
  H  H34  1  0.39277000  0.14619000  0.60218000  1.0
  H  H35  1  0.60723000  0.85381000  0.39782000  1.0
  C  C36  1  0.31182000  0.99366000  0.75833000  1.0
  C  C37  1  0.68815000  0.00633000  0.24166000  1.0
  C  C38  1  0.17812000  0.05862000  0.83728000  1.0
  C  C39  1  0.82186000  0.94138000  0.16272000  1.0
  C  C40  1  0.22974000  0.05549000  0.92708000  1.0
  C  C41  1  0.77027000  0.94451000  0.07293000  1.0
  C  C42  1  0.11530000  0.11573000  0.00627000  1.0
  C  C43  1  0.88470000  0.88427000  0.99373000  1.0
  C  C44  1  0.94454000  0.18074000  0.99494000  1.0
  C  C45  1  0.05547000  0.81926000  0.00506000  1.0
  C  C46  1  0.88403000  0.18362000  0.90432000  1.0
  C  C47  1  0.11596000  0.81638000  0.09568000  1.0
  C  C48  1  0.00183000  0.12275000  0.82615000  1.0
  C  C49  1  0.99815000  0.87724000  0.17384000  1.0
  C  C50  1  0.69451000  0.25502000  0.91757000  1.0
  C  C51  1  0.30549000  0.74498000  0.08243000  1.0
  C  C52  1  0.54668000  0.28486000  0.85549000  1.0
  C  C53  1  0.45332000  0.71514000  0.14451000  1.0
  C  C54  1  0.35847000  0.35172000  0.89075000  1.0
  C  C55  1  0.64154000  0.64828000  0.10926000  1.0
  C  C56  1  0.33242000  0.39342000  0.98945000  1.0
  C  C57  1  0.66758000  0.60658000  0.01055000  1.0
  C  C58  1  0.47838000  0.36475000  0.05245000  1.0
  C  C59  1  0.52162000  0.63525000  0.94755000  1.0
  C  C60  1  0.65251000  0.29359000  0.01534000  1.0
  C  C61  1  0.34748000  0.70640000  0.98465000  1.0
  C  C62  1  0.16750000  0.37523000  0.82425000  1.0
  C  C63  1  0.83250000  0.62477000  0.17576000  1.0
  C  C64  1  0.78770000  0.25782000  0.15705000  1.0
  C  C65  1  0.21231000  0.74218000  0.84295000  1.0
  C  C66  1  0.05263000  0.31222000  0.23278000  1.0
  C  C67  1  0.94741000  0.68779000  0.76724000  1.0
  C  C68  1  0.17563000  0.40695000  0.25137000  1.0
  C  C69  1  0.82438000  0.59305000  0.74862000  1.0
  C  C70  1  0.42292000  0.45525000  0.32105000  1.0
  C  C71  1  0.57710000  0.54475000  0.67895000  1.0
  C  C72  1  0.53698000  0.41187000  0.37623000  1.0
  C  C73  1  0.46301000  0.58814000  0.62378000  1.0
  C  C74  1  0.40978000  0.31897000  0.36032000  1.0
  C  C75  1  0.59023000  0.68103000  0.63968000  1.0
  C  C76  1  0.17148000  0.26827000  0.28698000  1.0
  C  C77  1  0.82855000  0.73173000  0.71302000  1.0
  C  C78  1  0.57708000  0.55134000  0.33519000  1.0
  C  C79  1  0.42294000  0.44867000  0.66482000  1.0
  C  C80  1  0.53023000  0.27981000  0.42548000  1.0
  C  C81  1  0.46976000  0.72019000  0.57451000  1.0
  N  N82  1  0.80652000  0.24778000  0.06083000  1.0
  N  N83  1  0.19349000  0.75222000  0.93918000  1.0
  O  O84  1  0.43006000  0.92533000  0.76429000  1.0
  O  O85  1  0.56991000  0.07466000  0.23570000  1.0
  O  O86  1  0.31124000  0.00104000  0.67700000  1.0
  O  O87  1  0.68870000  0.99895000  0.32299000  1.0
  O  O88  1  0.72338000  0.17750000  0.55699000  1.0
  O  O89  1  0.27663000  0.82250000  0.44301000  1.0
  O  O90  1  0.08063000  0.30099000  0.73558000  1.0
  O  O91  1  0.91938000  0.69901000  0.26442000  1.0
  O  O92  1  0.08478000  0.45601000  0.85038000  1.0
  O  O93  1  0.91521000  0.54399000  0.14963000  1.0
  O  O94  1  0.44687000  0.60913000  0.31263000  1.0
  O  O95  1  0.55314000  0.39087000  0.68737000  1.0
  O  O96  1  0.84265000  0.56842000  0.36714000  1.0
  O  O97  1  0.15735000  0.43158000  0.63285000  1.0
  O  O98  1  0.67407000  0.33739000  0.50588000  1.0
  O  O99  1  0.32591000  0.66260000  0.49411000  1.0
  O  O100  1  0.47493000  0.18323000  0.39777000  1.0
  O  O101  1  0.52507000  0.81677000  0.60222000  1.0
  O  O102  1  0.22030000  0.13586000  0.62745000  1.0
  O  O103  1  0.77971000  0.86414000  0.37256000  1.0
