# generated using pymatgen
data_CdH28C20(N5O3)2
_symmetry_space_group_name_H-M   'P 1'
_cell_length_a   8.13193000
_cell_length_b   9.03875000
_cell_length_c   17.65720000
_cell_angle_alpha   89.99980000
_cell_angle_beta   89.99980000
_cell_angle_gamma   110.85500000
_symmetry_Int_Tables_number   1
_chemical_formula_structural   CdH28C20(N5O3)2
_chemical_formula_sum   'Cd2 H56 C40 N20 O12'
_cell_volume   1212.81869567
_cell_formula_units_Z   2
loop_
 _symmetry_equiv_pos_site_id
 _symmetry_equiv_pos_as_xyz
  1  'x, y, z'
loop_
 _atom_site_type_symbol
 _atom_site_label
 _atom_site_symmetry_multiplicity
 _atom_site_fract_x
 _atom_site_fract_y
 _atom_site_fract_z
 _atom_site_occupancy
  Cd  Cd0  1  0.00000000  0.50000000  0.50000000  1.0
  Cd  Cd1  1  0.00000000  0.00000000  0.00000000  1.0
  H  H2  1  0.68400000  0.59479000  0.60151000  1.0
  H  H3  1  0.31600000  0.90521000  0.10151000  1.0
  H  H4  1  0.31600000  0.40522000  0.39849000  1.0
  H  H5  1  0.68400000  0.09478000  0.89849000  1.0
  H  H6  1  0.17394000  0.60109000  0.68329000  1.0
  H  H7  1  0.82605000  0.89891000  0.18329000  1.0
  H  H8  1  0.82606000  0.39892000  0.31671000  1.0
  H  H9  1  0.17395000  0.10109000  0.81671000  1.0
  H  H10  1  0.01151000  0.72613000  0.79414000  1.0
  H  H11  1  0.98849000  0.77388000  0.29415000  1.0
  H  H12  1  0.98848000  0.27388000  0.20586000  1.0
  H  H13  1  0.01152000  0.22612000  0.70586000  1.0
  H  H14  1  0.30820000  0.85219000  0.92973000  1.0
  H  H15  1  0.69180000  0.64781000  0.42972000  1.0
  H  H16  1  0.69180000  0.14781000  0.07028000  1.0
  H  H17  1  0.30821000  0.35219000  0.57028000  1.0
  H  H18  1  0.76270000  0.61079000  0.95360000  1.0
  H  H19  1  0.23730000  0.88921000  0.45360000  1.0
  H  H20  1  0.23730000  0.38920000  0.04640000  1.0
  H  H21  1  0.76270000  0.11079000  0.54640000  1.0
  H  H22  1  0.91307000  0.40110000  0.89692000  1.0
  H  H23  1  0.08693000  0.09890000  0.39692000  1.0
  H  H24  1  0.08693000  0.59890000  0.10308000  1.0
  H  H25  1  0.91308000  0.90110000  0.60308000  1.0
  H  H26  1  0.21274000  0.43909000  0.84501000  1.0
  H  H27  1  0.78726000  0.06091000  0.34501000  1.0
  H  H28  1  0.78726000  0.56090000  0.15500000  1.0
  H  H29  1  0.21274000  0.93909000  0.65499000  1.0
  H  H30  1  0.34595000  0.51322000  0.92654000  1.0
  H  H31  1  0.65404000  0.98678000  0.42654000  1.0
  H  H32  1  0.65405000  0.48678000  0.07346000  1.0
  H  H33  1  0.34596000  0.01321000  0.57346000  1.0
  H  H34  1  0.49866000  0.76815000  0.86522000  1.0
  H  H35  1  0.50135000  0.73185000  0.36522000  1.0
  H  H36  1  0.50134000  0.23185000  0.13478000  1.0
  H  H37  1  0.49866000  0.26814000  0.63478000  1.0
  H  H38  1  0.35468000  0.71608000  0.78623000  1.0
  H  H39  1  0.64532000  0.78393000  0.28623000  1.0
  H  H40  1  0.64531000  0.28392000  0.21377000  1.0
  H  H41  1  0.35469000  0.21608000  0.71377000  1.0
  H  H42  1  0.60890000  0.54848000  0.83226000  1.0
  H  H43  1  0.39110000  0.95152000  0.33226000  1.0
  H  H44  1  0.39110000  0.45152000  0.16774000  1.0
  H  H45  1  0.60890000  0.04847000  0.66774000  1.0
  H  H46  1  0.47113000  0.50444000  0.75103000  1.0
  H  H47  1  0.52887000  0.99557000  0.25103000  1.0
  H  H48  1  0.52887000  0.49557000  0.24897000  1.0
  H  H49  1  0.47113000  0.00443000  0.74897000  1.0
  H  H50  1  0.62014000  0.77521000  0.70075000  1.0
  H  H51  1  0.37986000  0.72479000  0.20075000  1.0
  H  H52  1  0.37986000  0.22479000  0.29925000  1.0
  H  H53  1  0.62014000  0.27521000  0.79925000  1.0
  H  H54  1  0.75718000  0.82809000  0.78270000  1.0
  H  H55  1  0.24283000  0.67191000  0.28270000  1.0
  H  H56  1  0.24282000  0.17191000  0.21730000  1.0
  H  H57  1  0.75718000  0.32809000  0.71730000  1.0
  C  C58  1  0.79731000  0.61143000  0.63743000  1.0
  C  C59  1  0.20269000  0.88857000  0.13743000  1.0
  C  C60  1  0.20269000  0.38858000  0.36257000  1.0
  C  C61  1  0.79731000  0.11142000  0.86257000  1.0
  C  C62  1  0.04782000  0.61687000  0.68340000  1.0
  C  C63  1  0.95218000  0.88313000  0.18341000  1.0
  C  C64  1  0.95218000  0.38314000  0.31659000  1.0
  C  C65  1  0.04783000  0.11686000  0.81660000  1.0
  C  C66  1  0.97041000  0.67920000  0.73803000  1.0
  C  C67  1  0.02958000  0.82080000  0.23804000  1.0
  C  C68  1  0.02958000  0.32081000  0.26197000  1.0
  C  C69  1  0.97042000  0.17920000  0.76196000  1.0
  C  C70  1  0.18076000  0.75787000  0.93009000  1.0
  C  C71  1  0.81924000  0.74212000  0.43009000  1.0
  C  C72  1  0.81924000  0.24212000  0.06991000  1.0
  C  C73  1  0.18077000  0.25788000  0.56991000  1.0
  C  C74  1  0.89852000  0.62942000  0.94021000  1.0
  C  C75  1  0.10148000  0.87058000  0.44021000  1.0
  C  C76  1  0.10148000  0.37058000  0.05979000  1.0
  C  C77  1  0.89852000  0.12942000  0.55979000  1.0
  C  C78  1  0.97122000  0.52502000  0.91179000  1.0
  C  C79  1  0.02877000  0.97498000  0.41179000  1.0
  C  C80  1  0.02878000  0.47498000  0.08821000  1.0
  C  C81  1  0.97123000  0.02502000  0.58821000  1.0
  C  C82  1  0.28275000  0.54654000  0.87770000  1.0
  C  C83  1  0.71725000  0.95347000  0.37770000  1.0
  C  C84  1  0.71725000  0.45346000  0.12230000  1.0
  C  C85  1  0.28276000  0.04653000  0.62231000  1.0
  C  C86  1  0.42076000  0.66847000  0.82919000  1.0
  C  C87  1  0.57924000  0.83154000  0.32919000  1.0
  C  C88  1  0.57924000  0.33153000  0.17081000  1.0
  C  C89  1  0.42076000  0.16846000  0.67081000  1.0
  C  C90  1  0.54508000  0.59982000  0.79014000  1.0
  C  C91  1  0.45492000  0.90018000  0.29014000  1.0
  C  C92  1  0.45492000  0.40018000  0.20986000  1.0
  C  C93  1  0.54508000  0.09982000  0.70986000  1.0
  C  C94  1  0.68352000  0.72974000  0.74530000  1.0
  C  C95  1  0.31648000  0.77026000  0.24530000  1.0
  C  C96  1  0.31647000  0.27027000  0.25470000  1.0
  C  C97  1  0.68353000  0.22973000  0.75470000  1.0
  N  N98  1  0.93875000  0.57575000  0.62086000  1.0
  N  N99  1  0.06125000  0.92425000  0.12087000  1.0
  N  N100  1  0.06125000  0.42426000  0.37914000  1.0
  N  N101  1  0.93875000  0.07574000  0.87914000  1.0
  N  N102  1  0.81211000  0.67501000  0.70803000  1.0
  N  N103  1  0.18789000  0.82499000  0.20803000  1.0
  N  N104  1  0.18789000  0.32499000  0.29197000  1.0
  N  N105  1  0.81211000  0.17500000  0.79197000  1.0
  N  N106  1  0.03073000  0.77442000  0.95113000  1.0
  N  N107  1  0.96927000  0.72557000  0.45113000  1.0
  N  N108  1  0.96927000  0.22557000  0.04887000  1.0
  N  N109  1  0.03073000  0.27443000  0.54887000  1.0
  N  N110  1  0.14969000  0.60812000  0.90540000  1.0
  N  N111  1  0.85031000  0.89188000  0.40540000  1.0
  N  N112  1  0.85031000  0.39188000  0.09460000  1.0
  N  N113  1  0.14970000  0.10812000  0.59460000  1.0
  N  N114  1  0.57321000  0.30057000  0.44721000  1.0
  N  N115  1  0.42679000  0.19942000  0.94720000  1.0
  N  N116  1  0.42679000  0.69943000  0.55279000  1.0
  N  N117  1  0.57321000  0.80057000  0.05280000  1.0
  O  O118  1  0.44563000  0.17122000  0.44611000  1.0
  O  O119  1  0.55437000  0.32878000  0.94611000  1.0
  O  O120  1  0.55438000  0.82879000  0.55389000  1.0
  O  O121  1  0.44562000  0.67122000  0.05389000  1.0
  O  O122  1  0.60071000  0.39697000  0.39227000  1.0
  O  O123  1  0.39928000  0.10303000  0.89227000  1.0
  O  O124  1  0.39929000  0.60304000  0.60773000  1.0
  O  O125  1  0.60072000  0.89696000  0.10774000  1.0
  O  O126  1  0.67568000  0.33669000  0.50510000  1.0
  O  O127  1  0.32432000  0.16331000  0.00510000  1.0
  O  O128  1  0.32432000  0.66332000  0.49490000  1.0
  O  O129  1  0.67568000  0.83669000  0.99490000  1.0
