# generated using pymatgen
data_ZnH15C21N2ClO4
_symmetry_space_group_name_H-M   'P 1'
_cell_length_a   7.97247000
_cell_length_b   9.12829026
_cell_length_c   31.06950000
_cell_angle_alpha   90.00003284
_cell_angle_beta   90.00020000
_cell_angle_gamma   113.13347800
_symmetry_Int_Tables_number   1
_chemical_formula_structural   ZnH15C21N2ClO4
_chemical_formula_sum   'Zn4 H60 C84 N8 Cl4 O16'
_cell_volume   2079.27450916
_cell_formula_units_Z   4
loop_
 _symmetry_equiv_pos_site_id
 _symmetry_equiv_pos_as_xyz
  1  'x, y, z'
loop_
 _atom_site_type_symbol
 _atom_site_label
 _atom_site_symmetry_multiplicity
 _atom_site_fract_x
 _atom_site_fract_y
 _atom_site_fract_z
 _atom_site_occupancy
  Zn  Zn0  1  0.20871000  0.32851000  0.09730000  1.0
  Zn  Zn1  1  0.79130000  0.17150000  0.59730000  1.0
  Zn  Zn2  1  0.79131000  0.67150000  0.90270000  1.0
  Zn  Zn3  1  0.20870000  0.82850000  0.40270000  1.0
  H  H4  1  0.82968000  0.85731000  0.11977000  1.0
  H  H5  1  0.17033000  0.64270000  0.61977000  1.0
  H  H6  1  0.17033000  0.14271000  0.88023000  1.0
  H  H7  1  0.82967000  0.35729000  0.38024000  1.0
  H  H8  1  0.77464000  0.08065000  0.23741000  1.0
  H  H9  1  0.22537000  0.41936000  0.73742000  1.0
  H  H10  1  0.22538000  0.91936000  0.76259000  1.0
  H  H11  1  0.77463000  0.58063000  0.26259000  1.0
  H  H12  1  0.36123000  0.62518000  0.19932000  1.0
  H  H13  1  0.63878000  0.87482000  0.69932000  1.0
  H  H14  1  0.63879000  0.37483000  0.80068000  1.0
  H  H15  1  0.36121000  0.12517000  0.30068000  1.0
  H  H16  1  0.47047000  0.96548000  0.27480000  1.0
  H  H17  1  0.52954000  0.53451000  0.77480000  1.0
  H  H18  1  0.52955000  0.03453000  0.72520000  1.0
  H  H19  1  0.47047000  0.46548000  0.22521000  1.0
  H  H20  1  0.30209000  0.77979000  0.25928000  1.0
  H  H21  1  0.69791000  0.72021000  0.75928000  1.0
  H  H22  1  0.69793000  0.22022000  0.74072000  1.0
  H  H23  1  0.30208000  0.27979000  0.24072000  1.0
  H  H24  1  0.74560000  0.96391000  0.30836000  1.0
  H  H25  1  0.25440000  0.53608000  0.80837000  1.0
  H  H26  1  0.25442000  0.03611000  0.69164000  1.0
  H  H27  1  0.74560000  0.46390000  0.19164000  1.0
  H  H28  1  0.82829000  0.86246000  0.37652000  1.0
  H  H29  1  0.17171000  0.63753000  0.87652000  1.0
  H  H30  1  0.17172000  0.13755000  0.62348000  1.0
  H  H31  1  0.82829000  0.36246000  0.12348000  1.0
  H  H32  1  0.31902000  0.44882000  0.36487000  1.0
  H  H33  1  0.68096000  0.05118000  0.86487000  1.0
  H  H34  1  0.68098000  0.55119000  0.63513000  1.0
  H  H35  1  0.31901000  0.94882000  0.13513000  1.0
  H  H36  1  0.25658000  0.57018000  0.29844000  1.0
  H  H37  1  0.74341000  0.92981000  0.79845000  1.0
  H  H38  1  0.74343000  0.42983000  0.70156000  1.0
  H  H39  1  0.25658000  0.07019000  0.20156000  1.0
  H  H40  1  0.75753000  0.67448000  0.43107000  1.0
  H  H41  1  0.24246000  0.82552000  0.93107000  1.0
  H  H42  1  0.24244000  0.32551000  0.56894000  1.0
  H  H43  1  0.75754000  0.17449000  0.06893000  1.0
  H  H44  1  0.41338000  0.36227000  0.42093000  1.0
  H  H45  1  0.58660000  0.13772000  0.92093000  1.0
  H  H46  1  0.58661000  0.63771000  0.57907000  1.0
  H  H47  1  0.41338000  0.86229000  0.07907000  1.0
  H  H48  1  0.83824000  0.60542000  0.48866000  1.0
  H  H49  1  0.16174000  0.89457000  0.98866000  1.0
  H  H50  1  0.16175000  0.39456000  0.51134000  1.0
  H  H51  1  0.83824000  0.10541000  0.01134000  1.0
  H  H52  1  0.91701000  0.48933000  0.55391000  1.0
  H  H53  1  0.08296000  0.01067000  0.05391000  1.0
  H  H54  1  0.08296000  0.51065000  0.44609000  1.0
  H  H55  1  0.91703000  0.98934000  0.94609000  1.0
  H  H56  1  0.45768000  0.07010000  0.54245000  1.0
  H  H57  1  0.54233000  0.42989000  0.04245000  1.0
  H  H58  1  0.54231000  0.92988000  0.45755000  1.0
  H  H59  1  0.45768000  0.57010000  0.95755000  1.0
  H  H60  1  0.35764000  0.16630000  0.47553000  1.0
  H  H61  1  0.64236000  0.33370000  0.97554000  1.0
  H  H62  1  0.64235000  0.83369000  0.52446000  1.0
  H  H63  1  0.35764000  0.66629000  0.02446000  1.0
  C  C64  1  0.51947000  0.59283000  0.12495000  1.0
  C  C65  1  0.48055000  0.90718000  0.62495000  1.0
  C  C66  1  0.48056000  0.40719000  0.87505000  1.0
  C  C67  1  0.51945000  0.09281000  0.37505000  1.0
  C  C68  1  0.59366000  0.72424000  0.15773000  1.0
  C  C69  1  0.40635000  0.77578000  0.65774000  1.0
  C  C70  1  0.40636000  0.27578000  0.84227000  1.0
  C  C71  1  0.59364000  0.22422000  0.34227000  1.0
  C  C72  1  0.75689000  0.85406000  0.14961000  1.0
  C  C73  1  0.24313000  0.64596000  0.64961000  1.0
  C  C74  1  0.24314000  0.14597000  0.85039000  1.0
  C  C75  1  0.75686000  0.35403000  0.35039000  1.0
  C  C76  1  0.82091000  0.98215000  0.17827000  1.0
  C  C77  1  0.17910000  0.51787000  0.67827000  1.0
  C  C78  1  0.17911000  0.01788000  0.82173000  1.0
  C  C79  1  0.82090000  0.48213000  0.32173000  1.0
  C  C80  1  0.72288000  0.97759000  0.21601000  1.0
  C  C81  1  0.27712000  0.52242000  0.71601000  1.0
  C  C82  1  0.27713000  0.02242000  0.78399000  1.0
  C  C83  1  0.72287000  0.47757000  0.28399000  1.0
  C  C84  1  0.55882000  0.84848000  0.22448000  1.0
  C  C85  1  0.44118000  0.65152000  0.72448000  1.0
  C  C86  1  0.44119000  0.15153000  0.77552000  1.0
  C  C87  1  0.55881000  0.34847000  0.27552000  1.0
  C  C88  1  0.49363000  0.72325000  0.19484000  1.0
  C  C89  1  0.50638000  0.77676000  0.69484000  1.0
  C  C90  1  0.50639000  0.27676000  0.80516000  1.0
  C  C91  1  0.49361000  0.22323000  0.30516000  1.0
  C  C92  1  0.98489000  0.13126000  0.16727000  1.0
  C  C93  1  0.01513000  0.36876000  0.66727000  1.0
  C  C94  1  0.01514000  0.86877000  0.83273000  1.0
  C  C95  1  0.98488000  0.63124000  0.33274000  1.0
  C  C96  1  0.44902000  0.84497000  0.26414000  1.0
  C  C97  1  0.55098000  0.65503000  0.76414000  1.0
  C  C98  1  0.55100000  0.15504000  0.73586000  1.0
  C  C99  1  0.44902000  0.34497000  0.23586000  1.0
  C  C100  1  0.65833000  0.85032000  0.32238000  1.0
  C  C101  1  0.34167000  0.64967000  0.82238000  1.0
  C  C102  1  0.34168000  0.14969000  0.67762000  1.0
  C  C103  1  0.65832000  0.35031000  0.17762000  1.0
  C  C104  1  0.70180000  0.79234000  0.35968000  1.0
  C  C105  1  0.29819000  0.70765000  0.85968000  1.0
  C  C106  1  0.29821000  0.20767000  0.64032000  1.0
  C  C107  1  0.70180000  0.29234000  0.14032000  1.0
  C  C108  1  0.58150000  0.64527000  0.37685000  1.0
  C  C109  1  0.41849000  0.85473000  0.87686000  1.0
  C  C110  1  0.41851000  0.35474000  0.62315000  1.0
  C  C111  1  0.58148000  0.14527000  0.12314000  1.0
  C  C112  1  0.41939000  0.56240000  0.35377000  1.0
  C  C113  1  0.58060000  0.93760000  0.85377000  1.0
  C  C114  1  0.58062000  0.43761000  0.64623000  1.0
  C  C115  1  0.41937000  0.06240000  0.14623000  1.0
  C  C116  1  0.38196000  0.62667000  0.31667000  1.0
  C  C117  1  0.61803000  0.87332000  0.81667000  1.0
  C  C118  1  0.61805000  0.37334000  0.68333000  1.0
  C  C119  1  0.38196000  0.12667000  0.18333000  1.0
  C  C120  1  0.63145000  0.59037000  0.41669000  1.0
  C  C121  1  0.36854000  0.90963000  0.91669000  1.0
  C  C122  1  0.36855000  0.40963000  0.58331000  1.0
  C  C123  1  0.63145000  0.09038000  0.08330000  1.0
  C  C124  1  0.53779000  0.44786000  0.43564000  1.0
  C  C125  1  0.46220000  0.05214000  0.93564000  1.0
  C  C126  1  0.46221000  0.55213000  0.56435000  1.0
  C  C127  1  0.53778000  0.94786000  0.06435000  1.0
  C  C128  1  0.59220000  0.39335000  0.47524000  1.0
  C  C129  1  0.40779000  0.10665000  0.97524000  1.0
  C  C130  1  0.40780000  0.60663000  0.52476000  1.0
  C  C131  1  0.59220000  0.89335000  0.02476000  1.0
  C  C132  1  0.74990000  0.48526000  0.49867000  1.0
  C  C133  1  0.25008000  0.01473000  0.99867000  1.0
  C  C134  1  0.25010000  0.51472000  0.50133000  1.0
  C  C135  1  0.74989000  0.98525000  0.00133000  1.0
  C  C136  1  0.79497000  0.42177000  0.53530000  1.0
  C  C137  1  0.20502000  0.07823000  0.03530000  1.0
  C  C138  1  0.20503000  0.57822000  0.46470000  1.0
  C  C139  1  0.79497000  0.92177000  0.96470000  1.0
  C  C140  1  0.53713000  0.18725000  0.52871000  1.0
  C  C141  1  0.46286000  0.31274000  0.02871000  1.0
  C  C142  1  0.46286000  0.81273000  0.47129000  1.0
  C  C143  1  0.53713000  0.68725000  0.97129000  1.0
  C  C144  1  0.48340000  0.24237000  0.49171000  1.0
  C  C145  1  0.51658000  0.25762000  0.99171000  1.0
  C  C146  1  0.51660000  0.75761000  0.50829000  1.0
  C  C147  1  0.48339000  0.74236000  0.00829000  1.0
  N  N148  1  0.69238000  0.27420000  0.54994000  1.0
  N  N149  1  0.30760000  0.22579000  0.04994000  1.0
  N  N150  1  0.30761000  0.72578000  0.45006000  1.0
  N  N151  1  0.69238000  0.77420000  0.95006000  1.0
  N  N152  1  0.49955000  0.76906000  0.30151000  1.0
  N  N153  1  0.50045000  0.73093000  0.80151000  1.0
  N  N154  1  0.50047000  0.23095000  0.69849000  1.0
  N  N155  1  0.49954000  0.26906000  0.19849000  1.0
  Cl  Cl156  1  0.05797000  0.45707000  0.06315000  1.0
  Cl  Cl157  1  0.94202000  0.04293000  0.56314000  1.0
  Cl  Cl158  1  0.94201000  0.54292000  0.93686000  1.0
  Cl  Cl159  1  0.05797000  0.95706000  0.43686000  1.0
  O  O160  1  0.38327000  0.46827000  0.13883000  1.0
  O  O161  1  0.61676000  0.03175000  0.63883000  1.0
  O  O162  1  0.61678000  0.53175000  0.86117000  1.0
  O  O163  1  0.38324000  0.96825000  0.36117000  1.0
  O  O164  1  0.58846000  0.61164000  0.08834000  1.0
  O  O165  1  0.41159000  0.88839000  0.58834000  1.0
  O  O166  1  0.41157000  0.38840000  0.91165000  1.0
  O  O167  1  0.58843000  0.11161000  0.41166000  1.0
  O  O168  1  0.03898000  0.13607000  0.12766000  1.0
  O  O169  1  0.96102000  0.36393000  0.62766000  1.0
  O  O170  1  0.96104000  0.86394000  0.87234000  1.0
  O  O171  1  0.03897000  0.63606000  0.37234000  1.0
  O  O172  1  0.05292000  0.23580000  0.19537000  1.0
  O  O173  1  0.94708000  0.26421000  0.69537000  1.0
  O  O174  1  0.94708000  0.76422000  0.80463000  1.0
  O  O175  1  0.05292000  0.73578000  0.30463000  1.0
