# generated using pymatgen
data_AlH39(C13O2)3
_symmetry_space_group_name_H-M   'P 1'
_cell_length_a   4.23661000
_cell_length_b   16.02954887
_cell_length_c   16.19600000
_cell_angle_alpha   60.34391668
_cell_angle_beta   89.72230000
_cell_angle_gamma   89.43405758
_symmetry_Int_Tables_number   1
_chemical_formula_structural   AlH39(C13O2)3
_chemical_formula_sum   'Al1 H39 C39 O6'
_cell_volume   955.76616829
_cell_formula_units_Z   1
loop_
 _symmetry_equiv_pos_site_id
 _symmetry_equiv_pos_as_xyz
  1  'x, y, z'
loop_
 _atom_site_type_symbol
 _atom_site_label
 _atom_site_symmetry_multiplicity
 _atom_site_fract_x
 _atom_site_fract_y
 _atom_site_fract_z
 _atom_site_occupancy
  Al  Al0  1  0.99993000  0.50082000  0.99842000  1.0
  H  H1  1  0.49997000  0.91980000  0.16048000  1.0
  H  H2  1  0.56826000  0.92068000  0.42363000  1.0
  H  H3  1  0.43188000  0.65583000  0.42364000  1.0
  H  H4  1  0.71897000  0.44344000  0.33275000  1.0
  H  H5  1  0.72692000  0.45064000  0.21987000  1.0
  H  H6  1  0.04939000  0.49287000  0.25685000  1.0
  H  H7  1  0.27183000  0.83589000  0.94600000  1.0
  H  H8  1  0.25824000  0.72171000  0.95366000  1.0
  H  H9  1  0.93426000  0.76247000  0.99286000  1.0
  H  H10  1  0.06985000  0.56629000  0.33848000  1.0
  H  H11  1  0.93057000  0.65463000  0.36485000  1.0
  H  H12  1  0.73883000  0.54220000  0.41355000  1.0
  H  H13  1  0.90149000  0.84162000  0.06698000  1.0
  H  H14  1  0.01719000  0.86151000  0.16023000  1.0
  H  H15  1  0.22652000  0.91650000  0.05103000  1.0
  H  H16  1  0.72812000  0.21822000  0.94601000  1.0
  H  H17  1  0.74169000  0.32473000  0.95370000  1.0
  H  H18  1  0.06572000  0.24477000  0.99291000  1.0
  H  H19  1  0.09843000  0.09150000  0.06698000  1.0
  H  H20  1  0.98278000  0.97838000  0.16022000  1.0
  H  H21  1  0.77337000  0.03258000  0.05103000  1.0
  H  H22  1  0.28101000  0.22387000  0.33280000  1.0
  H  H23  1  0.27299000  0.32956000  0.21993000  1.0
  H  H24  1  0.95056000  0.25034000  0.25690000  1.0
  H  H25  1  0.93011000  0.09531000  0.33847000  1.0
  H  H26  1  0.06938000  0.98060000  0.36484000  1.0
  H  H27  1  0.26110000  0.04433000  0.41356000  1.0
  H  H28  1  0.23832000  0.91646000  0.53951000  1.0
  H  H29  1  0.04759000  0.86224000  0.48113000  1.0
  H  H30  1  0.91297000  0.84002000  0.59354000  1.0
  H  H31  1  0.98375000  0.75573000  0.76557000  1.0
  H  H32  1  0.36346000  0.75029000  0.81183000  1.0
  H  H33  1  0.25703000  0.84865000  0.69990000  1.0
  H  H34  1  0.76208000  0.54427000  0.53943000  1.0
  H  H35  1  0.95265000  0.65688000  0.48110000  1.0
  H  H36  1  0.08745000  0.56668000  0.59349000  1.0
  H  H37  1  0.01647000  0.47882000  0.76553000  1.0
  H  H38  1  0.63676000  0.43801000  0.81176000  1.0
  H  H39  1  0.74314000  0.45163000  0.69981000  1.0
  C  C40  1  0.50476000  0.35403000  0.07215000  1.0
  C  C41  1  0.49991000  0.57331000  0.85342000  1.0
  C  C42  1  0.49508000  0.57394000  0.07211000  1.0
  C  C43  1  0.52059000  0.93479000  0.28484000  1.0
  C  C44  1  0.49998000  0.88133000  0.23744000  1.0
  C  C45  1  0.47937000  0.78047000  0.28486000  1.0
  C  C46  1  0.46739000  0.73299000  0.38504000  1.0
  C  C47  1  0.50005000  0.78139000  0.43737000  1.0
  C  C48  1  0.53264000  0.88210000  0.38505000  1.0
  C  C49  1  0.33673000  0.71635000  0.08823000  1.0
  C  C50  1  0.31569000  0.76326000  0.14217000  1.0
  C  C51  1  0.47813000  0.72687000  0.23014000  1.0
  C  C52  1  0.64871000  0.63916000  0.26386000  1.0
  C  C53  1  0.63887000  0.58665000  0.21527000  1.0
  C  C54  1  0.49022000  0.62717000  0.12669000  1.0
  C  C55  1  0.68429000  0.09468000  0.14218000  1.0
  C  C56  1  0.66324000  0.19552000  0.08825000  1.0
  C  C57  1  0.50974000  0.24621000  0.12672000  1.0
  C  C58  1  0.36105000  0.19816000  0.21531000  1.0
  C  C59  1  0.35123000  0.09708000  0.26387000  1.0
  C  C60  1  0.52182000  0.04309000  0.23014000  1.0
  C  C61  1  0.33648000  0.76403000  0.59709000  1.0
  C  C62  1  0.35788000  0.71812000  0.69689000  1.0
  C  C63  1  0.50008000  0.62640000  0.74729000  1.0
  C  C64  1  0.64232000  0.58512000  0.69687000  1.0
  C  C65  1  0.66378000  0.63903000  0.59708000  1.0
  C  C66  1  0.50012000  0.72775000  0.54466000  1.0
  C  C67  1  0.79051000  0.48848000  0.25812000  1.0
  C  C68  1  0.19348000  0.76128000  0.99035000  1.0
  C  C69  1  0.85673000  0.59859000  0.34983000  1.0
  C  C70  1  0.10601000  0.85042000  0.10308000  1.0
  C  C71  1  0.80646000  0.24848000  0.99037000  1.0
  C  C72  1  0.89391000  0.04660000  0.10308000  1.0
  C  C73  1  0.20941000  0.25346000  0.25818000  1.0
  C  C74  1  0.14319000  0.05166000  0.34983000  1.0
  C  C75  1  0.12420000  0.85048000  0.55025000  1.0
  C  C76  1  0.23431000  0.77082000  0.74613000  1.0
  C  C77  1  0.87618000  0.59950000  0.55020000  1.0
  C  C78  1  0.76591000  0.48319000  0.74607000  1.0
  O  O79  1  0.73105000  0.58753000  0.01786000  1.0
  O  O80  1  0.73778000  0.39640000  0.08467000  1.0
  O  O81  1  0.73623000  0.51857000  0.89583000  1.0
  O  O82  1  0.26209000  0.51904000  0.08465000  1.0
  O  O83  1  0.26349000  0.58565000  0.89578000  1.0
  O  O84  1  0.26880000  0.39467000  0.01790000  1.0
