# generated using pymatgen
data_MnH16C26N5O4
_symmetry_space_group_name_H-M   'P 1'
_cell_length_a   14.75330000
_cell_length_b   15.67830000
_cell_length_c   16.57190000
_cell_angle_alpha   93.16360000
_cell_angle_beta   109.45300000
_cell_angle_gamma   110.72600000
_symmetry_Int_Tables_number   1
_chemical_formula_structural   MnH16C26N5O4
_chemical_formula_sum   'Mn4 H64 C104 N20 O16'
_cell_volume   3314.74524918
_cell_formula_units_Z   4
loop_
 _symmetry_equiv_pos_site_id
 _symmetry_equiv_pos_as_xyz
  1  'x, y, z'
loop_
 _atom_site_type_symbol
 _atom_site_label
 _atom_site_symmetry_multiplicity
 _atom_site_fract_x
 _atom_site_fract_y
 _atom_site_fract_z
 _atom_site_occupancy
  Mn  Mn0  1  0.83374000  0.26023000  0.32167000  1.0
  Mn  Mn1  1  0.16626000  0.73977000  0.67834000  1.0
  Mn  Mn2  1  0.66378000  0.67016000  0.74210000  1.0
  Mn  Mn3  1  0.33622000  0.32984000  0.25789000  1.0
  H  H4  1  0.82476000  0.39496000  0.46999000  1.0
  H  H5  1  0.17524000  0.60504000  0.53001000  1.0
  H  H6  1  0.93436000  0.47840000  0.62636000  1.0
  H  H7  1  0.06565000  0.52160000  0.37364000  1.0
  H  H8  1  0.11159000  0.47287000  0.69625000  1.0
  H  H9  1  0.88841000  0.52713000  0.30375000  1.0
  H  H10  1  0.17102000  0.38501000  0.61070000  1.0
  H  H11  1  0.82899000  0.61499000  0.38930000  1.0
  H  H12  1  0.03914000  0.02153000  0.31532000  1.0
  H  H13  1  0.96086000  0.97847000  0.68468000  1.0
  H  H14  1  0.96085000  0.90388000  0.17948000  1.0
  H  H15  1  0.03915000  0.09612000  0.82052000  1.0
  H  H16  1  0.86673000  0.09725000  0.03227000  1.0
  H  H17  1  0.13327000  0.90275000  0.96773000  1.0
  H  H18  1  0.94361000  0.21426000  0.16871000  1.0
  H  H19  1  0.05639000  0.78574000  0.83129000  1.0
  H  H20  1  0.71322000  0.68673000  0.93833000  1.0
  H  H21  1  0.28679000  0.31327000  0.06167000  1.0
  H  H22  1  0.79905000  0.80421000  0.07689000  1.0
  H  H23  1  0.20095000  0.19579000  0.92310000  1.0
  H  H24  1  0.89725000  0.01314000  0.92940000  1.0
  H  H25  1  0.10275000  0.98686000  0.07060000  1.0
  H  H26  1  0.80423000  0.88726000  0.79685000  1.0
  H  H27  1  0.19577000  0.11274000  0.20315000  1.0
  H  H28  1  0.67136000  0.52286000  0.60547000  1.0
  H  H29  1  0.32864000  0.47714000  0.39453000  1.0
  H  H30  1  0.55390000  0.36427000  0.50964000  1.0
  H  H31  1  0.44610000  0.63573000  0.49036000  1.0
  H  H32  1  0.37016000  0.29055000  0.50592000  1.0
  H  H33  1  0.62984000  0.70944000  0.49408000  1.0
  H  H34  1  0.31187000  0.37426000  0.59595000  1.0
  H  H35  1  0.68814000  0.62574000  0.40406000  1.0
  H  H36  1  0.55837000  0.83236000  0.79358000  1.0
  H  H37  1  0.44163000  0.16764000  0.20642000  1.0
  H  H38  1  0.63639000  0.97184000  0.91043000  1.0
  H  H39  1  0.36361000  0.02816000  0.08957000  1.0
  H  H40  1  0.52651000  0.80057000  0.08078000  1.0
  H  H41  1  0.47348000  0.19943000  0.91922000  1.0
  H  H42  1  0.44727000  0.66169000  0.96337000  1.0
  H  H43  1  0.55273000  0.33831000  0.03663000  1.0
  H  H44  1  0.77552000  0.05052000  0.29557000  1.0
  H  H45  1  0.22447000  0.94948000  0.70443000  1.0
  H  H46  1  0.68840000  0.90739000  0.17982000  1.0
  H  H47  1  0.31160000  0.09262000  0.82018000  1.0
  H  H48  1  0.60570000  0.07590000  0.99339000  1.0
  H  H49  1  0.39430000  0.92411000  0.00661000  1.0
  H  H50  1  0.69919000  0.21218000  0.11647000  1.0
  H  H51  1  0.30081000  0.78782000  0.88353000  1.0
  H  H52  1  0.65149000  0.05833000  0.46494000  1.0
  H  H53  1  0.34851000  0.94167000  0.53506000  1.0
  H  H54  1  0.35101000  0.03830000  0.46567000  1.0
  H  H55  1  0.64899000  0.96170000  0.53433000  1.0
  H  H56  1  0.51658000  0.24356000  0.34874000  1.0
  H  H57  1  0.48341000  0.75644000  0.65126000  1.0
  H  H58  1  0.84505000  0.52838000  0.94118000  1.0
  H  H59  1  0.15495000  0.47161000  0.05881000  1.0
  H  H60  1  0.14444000  0.52876000  0.95622000  1.0
  H  H61  1  0.85556000  0.47124000  0.04378000  1.0
  H  H62  1  0.97096000  0.63114000  0.75154000  1.0
  H  H63  1  0.02904000  0.36886000  0.24846000  1.0
  H  H64  1  0.30528000  0.58355000  0.80936000  1.0
  H  H65  1  0.69472000  0.41645000  0.19064000  1.0
  H  H66  1  0.18200000  0.17897000  0.39869000  1.0
  H  H67  1  0.81800000  0.82103000  0.60131000  1.0
  C  C68  1  0.90193000  0.39465000  0.50424000  1.0
  C  C69  1  0.09808000  0.60535000  0.49576000  1.0
  C  C70  1  0.96268000  0.44027000  0.59058000  1.0
  C  C71  1  0.03732000  0.55973000  0.40942000  1.0
  C  C72  1  0.06091000  0.43702000  0.62948000  1.0
  C  C73  1  0.93909000  0.56299000  0.37052000  1.0
  C  C74  1  0.09452000  0.38789000  0.58164000  1.0
  C  C75  1  0.90548000  0.61211000  0.41836000  1.0
  C  C76  1  0.02815000  0.34285000  0.49569000  1.0
  C  C77  1  0.97185000  0.65715000  0.50431000  1.0
  C  C78  1  0.05372000  0.28542000  0.44157000  1.0
  C  C79  1  0.94628000  0.71458000  0.55843000  1.0
  C  C80  1  0.03350000  0.19065000  0.33323000  1.0
  C  C81  1  0.96650000  0.80935000  0.66677000  1.0
  C  C82  1  0.99375000  0.12486000  0.25129000  1.0
  C  C83  1  0.00625000  0.87514000  0.74871000  1.0
  C  C84  1  0.00037000  0.03770000  0.25327000  1.0
  C  C85  1  0.99963000  0.96230000  0.74673000  1.0
  C  C86  1  0.95610000  0.97162000  0.17670000  1.0
  C  C87  1  0.04390000  0.02838000  0.82330000  1.0
  C  C88  1  0.90642000  0.99142000  0.09601000  1.0
  C  C89  1  0.09358000  0.00858000  0.90399000  1.0
  C  C90  1  0.90460000  0.08034000  0.09423000  1.0
  C  C91  1  0.09541000  0.91966000  0.90577000  1.0
  C  C92  1  0.94671000  0.14601000  0.17077000  1.0
  C  C93  1  0.05329000  0.85399000  0.82923000  1.0
  C  C94  1  0.75413000  0.76021000  0.93949000  1.0
  C  C95  1  0.24587000  0.23979000  0.06050000  1.0
  C  C96  1  0.80362000  0.82593000  0.01654000  1.0
  C  C97  1  0.19638000  0.17407000  0.98346000  1.0
  C  C98  1  0.85575000  0.91995000  0.01554000  1.0
  C  C99  1  0.14425000  0.08005000  0.98446000  1.0
  C  C100  1  0.85577000  0.94204000  0.93456000  1.0
  C  C101  1  0.14423000  0.05796000  0.06544000  1.0
  C  C102  1  0.80452000  0.87199000  0.86036000  1.0
  C  C103  1  0.19549000  0.12801000  0.13964000  1.0
  C  C104  1  0.59106000  0.48682000  0.60108000  1.0
  C  C105  1  0.40894000  0.51319000  0.39892000  1.0
  C  C106  1  0.52594000  0.39926000  0.54863000  1.0
  C  C107  1  0.47406000  0.60075000  0.45136000  1.0
  C  C108  1  0.42415000  0.35826000  0.54668000  1.0
  C  C109  1  0.57585000  0.64174000  0.45332000  1.0
  C  C110  1  0.39116000  0.40502000  0.59727000  1.0
  C  C111  1  0.60885000  0.59499000  0.40273000  1.0
  C  C112  1  0.46178000  0.49216000  0.64898000  1.0
  C  C113  1  0.53823000  0.50785000  0.35102000  1.0
  C  C114  1  0.43677000  0.54522000  0.70748000  1.0
  C  C115  1  0.56323000  0.45478000  0.29253000  1.0
  C  C116  1  0.45897000  0.65394000  0.80458000  1.0
  C  C117  1  0.54103000  0.34606000  0.19542000  1.0
  C  C118  1  0.50014000  0.73751000  0.87135000  1.0
  C  C119  1  0.49986000  0.26249000  0.12865000  1.0
  C  C120  1  0.55201000  0.82573000  0.85673000  1.0
  C  C121  1  0.44799000  0.17428000  0.14327000  1.0
  C  C122  1  0.59478000  0.90395000  0.92231000  1.0
  C  C123  1  0.40522000  0.09605000  0.07769000  1.0
  C  C124  1  0.58869000  0.89631000  0.00466000  1.0
  C  C125  1  0.41131000  0.10369000  0.99534000  1.0
  C  C126  1  0.53444000  0.80798000  0.01811000  1.0
  C  C127  1  0.46555000  0.19202000  0.98189000  1.0
  C  C128  1  0.48964000  0.72965000  0.95213000  1.0
  C  C129  1  0.51036000  0.27035000  0.04787000  1.0
  C  C130  1  0.73766000  0.05290000  0.22738000  1.0
  C  C131  1  0.26234000  0.94710000  0.77262000  1.0
  C  C132  1  0.68745000  0.97323000  0.16260000  1.0
  C  C133  1  0.31255000  0.02677000  0.83740000  1.0
  C  C134  1  0.63949000  0.97889000  0.07543000  1.0
  C  C135  1  0.36051000  0.02111000  0.92456000  1.0
  C  C136  1  0.64392000  0.06695000  0.05909000  1.0
  C  C137  1  0.35608000  0.93306000  0.94091000  1.0
  C  C138  1  0.69552000  0.14330000  0.12768000  1.0
  C  C139  1  0.30448000  0.85671000  0.87232000  1.0
  C  C140  1  0.68286000  0.19394000  0.37719000  1.0
  C  C141  1  0.31714000  0.80606000  0.62281000  1.0
  C  C142  1  0.59181000  0.15316000  0.40414000  1.0
  C  C143  1  0.40819000  0.84684000  0.59585000  1.0
  C  C144  1  0.58661000  0.08045000  0.44987000  1.0
  C  C145  1  0.41338000  0.91955000  0.55012000  1.0
  C  C146  1  0.50179000  0.03792000  0.47494000  1.0
  C  C147  1  0.49821000  0.96208000  0.52506000  1.0
  C  C148  1  0.42028000  0.06933000  0.45017000  1.0
  C  C149  1  0.57972000  0.93067000  0.54983000  1.0
  C  C150  1  0.42460000  0.14214000  0.40456000  1.0
  C  C151  1  0.57540000  0.85786000  0.59544000  1.0
  C  C152  1  0.51142000  0.18544000  0.38258000  1.0
  C  C153  1  0.48857000  0.81456000  0.61742000  1.0
  C  C154  1  0.33593000  0.17364000  0.38032000  1.0
  C  C155  1  0.66407000  0.82636000  0.61968000  1.0
  C  C156  1  0.80800000  0.60659000  0.80324000  1.0
  C  C157  1  0.19200000  0.39341000  0.19676000  1.0
  C  C158  1  0.89989000  0.58169000  0.84374000  1.0
  C  C159  1  0.10012000  0.41831000  0.15626000  1.0
  C  C160  1  0.90868000  0.54194000  0.91791000  1.0
  C  C161  1  0.09132000  0.45805000  0.08208000  1.0
  C  C162  1  0.99569000  0.52112000  0.96060000  1.0
  C  C163  1  0.00431000  0.47888000  0.03940000  1.0
  C  C164  1  0.07444000  0.54234000  0.92626000  1.0
  C  C165  1  0.92556000  0.45766000  0.07374000  1.0
  C  C166  1  0.06639000  0.58187000  0.85190000  1.0
  C  C167  1  0.93360000  0.41813000  0.14810000  1.0
  C  C168  1  0.97845000  0.60105000  0.80991000  1.0
  C  C169  1  0.02155000  0.39895000  0.19008000  1.0
  C  C170  1  0.15240000  0.60341000  0.81761000  1.0
  C  C171  1  0.84760000  0.39659000  0.18239000  1.0
  N  N172  1  0.98599000  0.24034000  0.35815000  1.0
  N  N173  1  0.01401000  0.75966000  0.64185000  1.0
  N  N174  1  0.75350000  0.78238000  0.86195000  1.0
  N  N175  1  0.24651000  0.21762000  0.13805000  1.0
  N  N176  1  0.74286000  0.13731000  0.21071000  1.0
  N  N177  1  0.25714000  0.86269000  0.78929000  1.0
  N  N178  1  0.50768000  0.63098000  0.75656000  1.0
  N  N179  1  0.49232000  0.36902000  0.24344000  1.0
  N  N180  1  0.93370000  0.34700000  0.45750000  1.0
  N  N181  1  0.06630000  0.65300000  0.54251000  1.0
  N  N182  1  0.55993000  0.53249000  0.65018000  1.0
  N  N183  1  0.44007000  0.46751000  0.34982000  1.0
  N  N184  1  0.34821000  0.51511000  0.72257000  1.0
  N  N185  1  0.65179000  0.48489000  0.27743000  1.0
  N  N186  1  0.36436000  0.58442000  0.78437000  1.0
  N  N187  1  0.63564000  0.41558000  0.21564000  1.0
  N  N188  1  0.12453000  0.20632000  0.39930000  1.0
  N  N189  1  0.87547000  0.79368000  0.60070000  1.0
  N  N190  1  0.13936000  0.26651000  0.46839000  1.0
  N  N191  1  0.86064000  0.73349000  0.53161000  1.0
  O  O192  1  0.75115000  0.15845000  0.39313000  1.0
  O  O193  1  0.24885000  0.84155000  0.60687000  1.0
  O  O194  1  0.68952000  0.26261000  0.33761000  1.0
  O  O195  1  0.31048000  0.73739000  0.66238000  1.0
  O  O196  1  0.34670000  0.24469000  0.34431000  1.0
  O  O197  1  0.65330000  0.75530000  0.65568000  1.0
  O  O198  1  0.25685000  0.13012000  0.39842000  1.0
  O  O199  1  0.74315000  0.86988000  0.60158000  1.0
  O  O200  1  0.73665000  0.58698000  0.83469000  1.0
  O  O201  1  0.26335000  0.41302000  0.16531000  1.0
  O  O202  1  0.80486000  0.64961000  0.73934000  1.0
  O  O203  1  0.19514000  0.35039000  0.26066000  1.0
  O  O204  1  0.22998000  0.58335000  0.85636000  1.0
  O  O205  1  0.77001000  0.41665000  0.14364000  1.0
  O  O206  1  0.14081000  0.63936000  0.74931000  1.0
  O  O207  1  0.85919000  0.36064000  0.25069000  1.0
