# generated using pymatgen
data_ZnMo2H11C15N3O7
_symmetry_space_group_name_H-M   'P 1'
_cell_length_a   8.70052000
_cell_length_b   10.25030000
_cell_length_c   11.14190000
_cell_angle_alpha   91.66000000
_cell_angle_beta   110.77600000
_cell_angle_gamma   112.48700000
_symmetry_Int_Tables_number   1
_chemical_formula_structural   ZnMo2H11C15N3O7
_chemical_formula_sum   'Zn2 Mo4 H22 C30 N6 O14'
_cell_volume   842.68115601
_cell_formula_units_Z   2
loop_
 _symmetry_equiv_pos_site_id
 _symmetry_equiv_pos_as_xyz
  1  'x, y, z'
loop_
 _atom_site_type_symbol
 _atom_site_label
 _atom_site_symmetry_multiplicity
 _atom_site_fract_x
 _atom_site_fract_y
 _atom_site_fract_z
 _atom_site_occupancy
  Zn  Zn0  1  0.06948000  0.27911000  0.18154000  1.0
  Zn  Zn1  1  0.93052000  0.72090000  0.81846000  1.0
  Mo  Mo2  1  0.09885000  0.62154000  0.14366000  1.0
  Mo  Mo3  1  0.90115000  0.37846000  0.85634000  1.0
  Mo  Mo4  1  0.95813000  0.90984000  0.11141000  1.0
  Mo  Mo5  1  0.04187000  0.09016000  0.88859000  1.0
  H  H6  1  0.36395000  0.43324000  0.06066000  1.0
  H  H7  1  0.63605000  0.56676000  0.93934000  1.0
  H  H8  1  0.70329000  0.53124000  0.13693000  1.0
  H  H9  1  0.29671000  0.46876000  0.86307000  1.0
  H  H10  1  0.88326000  0.51064000  0.36059000  1.0
  H  H11  1  0.11674000  0.48936000  0.63942000  1.0
  H  H12  1  0.72158000  0.40070000  0.50448000  1.0
  H  H13  1  0.27842000  0.59930000  0.49552000  1.0
  H  H14  1  0.56564000  0.29866000  0.60984000  1.0
  H  H15  1  0.43436000  0.70134000  0.39016000  1.0
  H  H16  1  0.35817000  0.19783000  0.72330000  1.0
  H  H17  1  0.64183000  0.80216000  0.27670000  1.0
  H  H18  1  0.02863000  0.13458000  0.60799000  1.0
  H  H19  1  0.97137000  0.86542000  0.39202000  1.0
  H  H20  1  0.75600000  0.09309000  0.49426000  1.0
  H  H21  1  0.24400000  0.90691000  0.50574000  1.0
  H  H22  1  0.43439000  0.01819000  0.33482000  1.0
  H  H23  1  0.56561000  0.98181000  0.66518000  1.0
  H  H24  1  0.37707000  0.05953000  0.10510000  1.0
  H  H25  1  0.62293000  0.94047000  0.89489000  1.0
  H  H26  1  0.64098000  0.18079000  0.04456000  1.0
  H  H27  1  0.35903000  0.81921000  0.95544000  1.0
  C  C28  1  0.44937000  0.42928000  0.15808000  1.0
  C  C29  1  0.55063000  0.57072000  0.84192000  1.0
  C  C30  1  0.63665000  0.48125000  0.20039000  1.0
  C  C31  1  0.36335000  0.51875000  0.79961000  1.0
  C  C32  1  0.73645000  0.47067000  0.32599000  1.0
  C  C33  1  0.26355000  0.52933000  0.67401000  1.0
  C  C34  1  0.64663000  0.41023000  0.40577000  1.0
  C  C35  1  0.35337000  0.58977000  0.59423000  1.0
  C  C36  1  0.45833000  0.36201000  0.35699000  1.0
  C  C37  1  0.54167000  0.63799000  0.64301000  1.0
  C  C38  1  0.35084000  0.29955000  0.43520000  1.0
  C  C39  1  0.64916000  0.70046000  0.56480000  1.0
  C  C40  1  0.42224000  0.27411000  0.56134000  1.0
  C  C41  1  0.57776000  0.72589000  0.43866000  1.0
  C  C42  1  0.30523000  0.21608000  0.62406000  1.0
  C  C43  1  0.69477000  0.78392000  0.37594000  1.0
  C  C44  1  0.12078000  0.18179000  0.56001000  1.0
  C  C45  1  0.87923000  0.81821000  0.43999000  1.0
  C  C46  1  0.05790000  0.20807000  0.43317000  1.0
  C  C47  1  0.94210000  0.79193000  0.56683000  1.0
  C  C48  1  0.86514000  0.17004000  0.35021000  1.0
  C  C49  1  0.13486000  0.82996000  0.64979000  1.0
  C  C50  1  0.72557000  0.10886000  0.39360000  1.0
  C  C51  1  0.27443000  0.89113000  0.60640000  1.0
  C  C52  1  0.54724000  0.06762000  0.30521000  1.0
  C  C53  1  0.45276000  0.93238000  0.69478000  1.0
  C  C54  1  0.51380000  0.09103000  0.17774000  1.0
  C  C55  1  0.48620000  0.90897000  0.82226000  1.0
  C  C56  1  0.66007000  0.15701000  0.14247000  1.0
  C  C57  1  0.33993000  0.84298000  0.85753000  1.0
  N  N58  1  0.36224000  0.37065000  0.23424000  1.0
  N  N59  1  0.63776000  0.62935000  0.76576000  1.0
  N  N60  1  0.17361000  0.26730000  0.37589000  1.0
  N  N61  1  0.82639000  0.73270000  0.62411000  1.0
  N  N62  1  0.83110000  0.19425000  0.22663000  1.0
  N  N63  1  0.16890000  0.80575000  0.77337000  1.0
  O  O64  1  0.30863000  0.71744000  0.14103000  1.0
  O  O65  1  0.69137000  0.28255000  0.85897000  1.0
  O  O66  1  0.13872000  0.63192000  0.30849000  1.0
  O  O67  1  0.86128000  0.36808000  0.69151000  1.0
  O  O68  1  0.94220000  0.71574000  0.09292000  1.0
  O  O69  1  0.05780000  0.28426000  0.90708000  1.0
  O  O70  1  0.01317000  0.42585000  0.08893000  1.0
  O  O71  1  0.98683000  0.57415000  0.91107000  1.0
  O  O72  1  0.99393000  0.89938000  0.93997000  1.0
  O  O73  1  0.00607000  0.10062000  0.06003000  1.0
  O  O74  1  0.74830000  0.87027000  0.11253000  1.0
  O  O75  1  0.25170000  0.12973000  0.88747000  1.0
  O  O76  1  0.12134000  0.97298000  0.26944000  1.0
  O  O77  1  0.87866000  0.02702000  0.73056000  1.0
