# generated using pymatgen
data_Cu2H11(C3N5)3
_symmetry_space_group_name_H-M   'P 1'
_cell_length_a   7.58635000
_cell_length_b   8.68192000
_cell_length_c   12.97490000
_cell_angle_alpha   83.56740000
_cell_angle_beta   78.95280000
_cell_angle_gamma   71.95600000
_symmetry_Int_Tables_number   1
_chemical_formula_structural   Cu2H11(C3N5)3
_chemical_formula_sum   'Cu4 H22 C18 N30'
_cell_volume   796.22213825
_cell_formula_units_Z   2
loop_
 _symmetry_equiv_pos_site_id
 _symmetry_equiv_pos_as_xyz
  1  'x, y, z'
loop_
 _atom_site_type_symbol
 _atom_site_label
 _atom_site_symmetry_multiplicity
 _atom_site_fract_x
 _atom_site_fract_y
 _atom_site_fract_z
 _atom_site_occupancy
  Cu  Cu0  1  0.16691000  0.03958000  0.91317000  1.0
  Cu  Cu1  1  0.83309000  0.96041000  0.08683000  1.0
  Cu  Cu2  1  0.30506000  0.54595000  0.58276000  1.0
  Cu  Cu3  1  0.69493000  0.45406000  0.41724000  1.0
  H  H4  1  0.47532000  0.68028000  0.89382000  1.0
  H  H5  1  0.52469000  0.31972000  0.10618000  1.0
  H  H6  1  0.85181000  0.65701000  0.83388000  1.0
  H  H7  1  0.14821000  0.34299000  0.16612000  1.0
  H  H8  1  0.53781000  0.15248000  0.85066000  1.0
  H  H9  1  0.46219000  0.84752000  0.14933000  1.0
  H  H10  1  0.17336000  0.38011000  0.97787000  1.0
  H  H11  1  0.82666000  0.61988000  0.02213000  1.0
  H  H12  1  0.24171000  0.61295000  0.82421000  1.0
  H  H13  1  0.75830000  0.38705000  0.17580000  1.0
  H  H14  1  0.21165000  0.21191000  0.67920000  1.0
  H  H15  1  0.78835000  0.78809000  0.32080000  1.0
  H  H16  1  0.07956000  0.87084000  0.46807000  1.0
  H  H17  1  0.92042000  0.12916000  0.53193000  1.0
  H  H18  1  0.68983000  0.96667000  0.49773000  1.0
  H  H19  1  0.31015000  0.03332000  0.50228000  1.0
  H  H20  1  0.88587000  0.51195000  0.66119000  1.0
  H  H21  1  0.11413000  0.48804000  0.33881000  1.0
  H  H22  1  0.86724000  0.94662000  0.80754000  1.0
  H  H23  1  0.13277000  0.05338000  0.19246000  1.0
  H  H24  1  0.59266000  0.74095000  0.61471000  1.0
  H  H25  1  0.40733000  0.25904000  0.38530000  1.0
  C  C26  1  0.54136000  0.77609000  0.87592000  1.0
  C  C27  1  0.45866000  0.22391000  0.12408000  1.0
  C  C28  1  0.72915000  0.76204000  0.84598000  1.0
  C  C29  1  0.27087000  0.23796000  0.15401000  1.0
  C  C30  1  0.56829000  0.02188000  0.85434000  1.0
  C  C31  1  0.43171000  0.97812000  0.14566000  1.0
  C  C32  1  0.18970000  0.38014000  0.89312000  1.0
  C  C33  1  0.81030000  0.61985000  0.10688000  1.0
  C  C34  1  0.22510000  0.49546000  0.81680000  1.0
  C  C35  1  0.77490000  0.50455000  0.18320000  1.0
  C  C36  1  0.21173000  0.28919000  0.73928000  1.0
  C  C37  1  0.78826000  0.71082000  0.26071000  1.0
  C  C38  1  0.98192000  0.80994000  0.51222000  1.0
  C  C39  1  0.01806000  0.19007000  0.48779000  1.0
  C  C40  1  0.78884000  0.85821000  0.52619000  1.0
  C  C41  1  0.21114000  0.14178000  0.47382000  1.0
  C  C42  1  0.88754000  0.62102000  0.61193000  1.0
  C  C43  1  0.11245000  0.37897000  0.38807000  1.0
  N  N44  1  0.89343000  0.13632000  0.97887000  1.0
  N  N45  1  0.10657000  0.86367000  0.02113000  1.0
  N  N46  1  0.79633000  0.27009000  0.95275000  1.0
  N  N47  1  0.20367000  0.72991000  0.04724000  1.0
  N  N48  1  0.70554000  0.39767000  0.92746000  1.0
  N  N49  1  0.29449000  0.60233000  0.07253000  1.0
  N  N50  1  0.11218000  0.94093000  0.76382000  1.0
  N  N51  1  0.88783000  0.05908000  0.23617000  1.0
  N  N52  1  0.22958000  0.86079000  0.70147000  1.0
  N  N53  1  0.77042000  0.13921000  0.29852000  1.0
  N  N54  1  0.34661000  0.78019000  0.63833000  1.0
  N  N55  1  0.65339000  0.21981000  0.36167000  1.0
  N  N56  1  0.44233000  0.93910000  0.88112000  1.0
  N  N57  1  0.55767000  0.06089000  0.11888000  1.0
  N  N58  1  0.74244000  0.91772000  0.83254000  1.0
  N  N59  1  0.25757000  0.08228000  0.16746000  1.0
  N  N60  1  0.18137000  0.25080000  0.84334000  1.0
  N  N61  1  0.81862000  0.74921000  0.15666000  1.0
  N  N62  1  0.23849000  0.43703000  0.71992000  1.0
  N  N63  1  0.76150000  0.56297000  0.28008000  1.0
  N  N64  1  0.04171000  0.66180000  0.56620000  1.0
  N  N65  1  0.95828000  0.33820000  0.43381000  1.0
  N  N66  1  0.73291000  0.73726000  0.58876000  1.0
  N  N67  1  0.26708000  0.26273000  0.41124000  1.0
  N  N68  1  0.57951000  0.41122000  0.57040000  1.0
  N  N69  1  0.42048000  0.58878000  0.42960000  1.0
  N  N70  1  0.65955000  0.34212000  0.64279000  1.0
  N  N71  1  0.34044000  0.65788000  0.35721000  1.0
  N  N72  1  0.73910000  0.27609000  0.71082000  1.0
  N  N73  1  0.26090000  0.72391000  0.28918000  1.0
