# generated using pymatgen
data_CuH9C9BrN3O
_symmetry_space_group_name_H-M   'P 1'
_cell_length_a   7.61368000
_cell_length_b   9.84411000
_cell_length_c   14.78100000
_cell_angle_alpha   105.29000000
_cell_angle_beta   94.95520000
_cell_angle_gamma   108.56900000
_symmetry_Int_Tables_number   1
_chemical_formula_structural   CuH9C9BrN3O
_chemical_formula_sum   'Cu4 H36 C36 Br4 N12 O4'
_cell_volume   995.25451600
_cell_formula_units_Z   4
loop_
 _symmetry_equiv_pos_site_id
 _symmetry_equiv_pos_as_xyz
  1  'x, y, z'
loop_
 _atom_site_type_symbol
 _atom_site_label
 _atom_site_symmetry_multiplicity
 _atom_site_fract_x
 _atom_site_fract_y
 _atom_site_fract_z
 _atom_site_occupancy
  Cu  Cu0  1  0.22452000  0.06842000  0.45855000  1.0
  Cu  Cu1  1  0.77547000  0.93158000  0.54145000  1.0
  Cu  Cu2  1  0.40096000  0.45554000  0.08455000  1.0
  Cu  Cu3  1  0.59905000  0.54447000  0.91545000  1.0
  H  H4  1  0.16894000  0.29445000  0.66284000  1.0
  H  H5  1  0.83105000  0.70555000  0.33716000  1.0
  H  H6  1  0.12856000  0.52544000  0.76430000  1.0
  H  H7  1  0.87144000  0.47456000  0.23570000  1.0
  H  H8  1  0.15968000  0.74585000  0.70648000  1.0
  H  H9  1  0.84032000  0.25415000  0.29352000  1.0
  H  H10  1  0.23396000  0.74559000  0.54658000  1.0
  H  H11  1  0.76603000  0.25441000  0.45342000  1.0
  H  H12  1  0.20037000  0.38319000  0.23863000  1.0
  H  H13  1  0.79963000  0.61681000  0.76137000  1.0
  H  H14  1  0.44378000  0.42986000  0.28600000  1.0
  H  H15  1  0.55621000  0.57014000  0.71400000  1.0
  H  H16  1  0.52983000  0.67399000  0.24589000  1.0
  H  H17  1  0.47017000  0.32601000  0.75411000  1.0
  H  H18  1  0.11732000  0.52592000  0.13239000  1.0
  H  H19  1  0.88268000  0.47408000  0.86760000  1.0
  H  H20  1  0.30321000  0.69367000  0.12313000  1.0
  H  H21  1  0.69680000  0.30633000  0.87687000  1.0
  H  H22  1  0.60005000  0.89053000  0.14564000  1.0
  H  H23  1  0.39995000  0.10947000  0.85436000  1.0
  H  H24  1  0.90977000  0.98201000  0.09758000  1.0
  H  H25  1  0.09022000  0.01797000  0.90242000  1.0
  H  H26  1  0.00956000  0.21306000  0.04907000  1.0
  H  H27  1  0.99044000  0.78693000  0.95093000  1.0
  H  H28  1  0.80210000  0.36575000  0.04817000  1.0
  H  H29  1  0.19792000  0.63425000  0.95183000  1.0
  H  H30  1  0.03123000  0.89749000  0.24191000  1.0
  H  H31  1  0.96877000  0.10251000  0.75808000  1.0
  H  H32  1  0.14072000  0.09460000  0.25819000  1.0
  H  H33  1  0.85928000  0.90540000  0.74181000  1.0
  H  H34  1  0.45028000  0.08257000  0.34064000  1.0
  H  H35  1  0.54972000  0.91743000  0.65936000  1.0
  H  H36  1  0.15516000  0.79222000  0.35767000  1.0
  H  H37  1  0.84483000  0.20778000  0.64233000  1.0
  H  H38  1  0.40495000  0.88510000  0.41946000  1.0
  H  H39  1  0.59504000  0.11489000  0.58054000  1.0
  C  C40  1  0.22244000  0.38981000  0.54713000  1.0
  C  C41  1  0.77755000  0.61019000  0.45286000  1.0
  C  C42  1  0.18128000  0.39141000  0.63816000  1.0
  C  C43  1  0.81870000  0.60859000  0.36184000  1.0
  C  C44  1  0.15992000  0.52065000  0.69331000  1.0
  C  C45  1  0.84007000  0.47935000  0.30669000  1.0
  C  C46  1  0.17928000  0.64699000  0.66067000  1.0
  C  C47  1  0.82071000  0.35301000  0.33933000  1.0
  C  C48  1  0.22178000  0.64869000  0.57146000  1.0
  C  C49  1  0.77821000  0.35131000  0.42854000  1.0
  C  C50  1  0.24316000  0.51757000  0.51615000  1.0
  C  C51  1  0.75682000  0.48243000  0.48384000  1.0
  C  C52  1  0.33420000  0.47631000  0.27320000  1.0
  C  C53  1  0.66579000  0.52368000  0.72680000  1.0
  C  C54  1  0.39089000  0.58552000  0.21853000  1.0
  C  C55  1  0.60911000  0.41448000  0.78147000  1.0
  C  C56  1  0.26659000  0.59633000  0.14912000  1.0
  C  C57  1  0.73341000  0.40366000  0.85088000  1.0
  C  C58  1  0.52894000  0.07944000  0.12324000  1.0
  C  C59  1  0.47107000  0.92056000  0.87676000  1.0
  C  C60  1  0.64332000  0.99313000  0.12532000  1.0
  C  C61  1  0.35668000  0.00687000  0.87468000  1.0
  C  C62  1  0.81634000  0.04603000  0.09867000  1.0
  C  C63  1  0.18366000  0.95397000  0.90133000  1.0
  C  C64  1  0.87342000  0.17857000  0.07092000  1.0
  C  C65  1  0.12659000  0.82142000  0.92908000  1.0
  C  C66  1  0.75994000  0.26375000  0.06933000  1.0
  C  C67  1  0.24007000  0.73625000  0.93067000  1.0
  C  C68  1  0.58461000  0.21299000  0.09683000  1.0
  C  C69  1  0.41540000  0.78701000  0.90317000  1.0
  C  C70  1  0.16580000  0.98922000  0.25197000  1.0
  C  C71  1  0.83420000  0.01078000  0.74803000  1.0
  C  C72  1  0.30853000  0.00070000  0.33216000  1.0
  C  C73  1  0.69147000  0.99930000  0.66784000  1.0
  C  C74  1  0.28363000  0.89173000  0.37827000  1.0
  C  C75  1  0.71637000  0.10827000  0.62173000  1.0
  Br  Br76  1  0.19111000  0.02156000  0.60809000  1.0
  Br  Br77  1  0.80896000  0.97847000  0.39193000  1.0
  Br  Br78  1  0.24649000  0.36789000  0.91906000  1.0
  Br  Br79  1  0.75354000  0.63211000  0.08094000  1.0
  N  N80  1  0.28071000  0.47302000  0.42668000  1.0
  N  N81  1  0.71928000  0.52698000  0.57332000  1.0
  N  N82  1  0.28260000  0.33355000  0.40154000  1.0
  N  N83  1  0.71739000  0.66645000  0.59846000  1.0
  N  N84  1  0.24769000  0.28079000  0.47464000  1.0
  N  N85  1  0.75230000  0.71922000  0.52536000  1.0
  N  N86  1  0.43995000  0.26907000  0.10271000  1.0
  N  N87  1  0.56007000  0.73094000  0.89729000  1.0
  N  N88  1  0.29860000  0.17693000  0.12786000  1.0
  N  N89  1  0.70141000  0.82308000  0.87214000  1.0
  N  N90  1  0.35250000  0.06615000  0.14170000  1.0
  N  N91  1  0.64751000  0.93386000  0.85830000  1.0
  O  O92  1  0.31121000  0.56081000  0.36732000  1.0
  O  O93  1  0.68878000  0.43919000  0.63268000  1.0
  O  O94  1  0.22676000  0.94542000  0.15858000  1.0
  O  O95  1  0.77325000  0.05459000  0.84142000  1.0
