# generated using pymatgen
data_FeP3H27(C6O)6
_symmetry_space_group_name_H-M   'P 1'
_cell_length_a   9.58865000
_cell_length_b   25.08630000
_cell_length_c   25.08630000
_cell_angle_alpha   120.00000000
_cell_angle_beta   90.00000000
_cell_angle_gamma   90.00000000
_symmetry_Int_Tables_number   1
_chemical_formula_structural   FeP3H27(C6O)6
_chemical_formula_sum   'Fe4 P12 H108 C144 O24'
_cell_volume   5225.90272324
_cell_formula_units_Z   4
loop_
 _symmetry_equiv_pos_site_id
 _symmetry_equiv_pos_as_xyz
  1  'x, y, z'
loop_
 _atom_site_type_symbol
 _atom_site_label
 _atom_site_symmetry_multiplicity
 _atom_site_fract_x
 _atom_site_fract_y
 _atom_site_fract_z
 _atom_site_occupancy
  Fe  Fe0  1  0.03264000  0.33333333  0.66666667  1.0
  Fe  Fe1  1  0.96736000  0.66666667  0.33333333  1.0
  Fe  Fe2  1  0.53242000  0.33333333  0.66666667  1.0
  Fe  Fe3  1  0.46758000  0.66666667  0.33333333  1.0
  P  P4  1  0.78703000  0.24398000  0.56669000  1.0
  P  P5  1  0.78703000  0.32271000  0.75602000  1.0
  P  P6  1  0.78703000  0.43332000  0.67730000  1.0
  P  P7  1  0.21297000  0.75602000  0.43331000  1.0
  P  P8  1  0.21297000  0.67729000  0.24398000  1.0
  P  P9  1  0.21297000  0.56669000  0.32271000  1.0
  P  P10  1  0.71333000  0.75201000  0.31654000  1.0
  P  P11  1  0.71333000  0.56453000  0.24799000  1.0
  P  P12  1  0.71333000  0.68346000  0.43547000  1.0
  P  P13  1  0.28667000  0.24799000  0.68346000  1.0
  P  P14  1  0.28667000  0.43547000  0.75201000  1.0
  P  P15  1  0.28667000  0.31654000  0.56453000  1.0
  H  H16  1  0.55710000  0.15972000  0.50450000  1.0
  H  H17  1  0.55710000  0.34478000  0.84028000  1.0
  H  H18  1  0.55710000  0.49550000  0.65522000  1.0
  H  H19  1  0.44290000  0.84028000  0.49550000  1.0
  H  H20  1  0.44290000  0.65522000  0.15972000  1.0
  H  H21  1  0.44290000  0.50450000  0.34478000  1.0
  H  H22  1  0.98494000  0.14832000  0.54946000  1.0
  H  H23  1  0.98494000  0.40114000  0.85168000  1.0
  H  H24  1  0.98494000  0.45054000  0.59886000  1.0
  H  H25  1  0.01506000  0.85168000  0.45054000  1.0
  H  H26  1  0.01506000  0.59886000  0.14832000  1.0
  H  H27  1  0.01506000  0.54946000  0.40114000  1.0
  H  H28  1  0.94049000  0.18172000  0.44884000  1.0
  H  H29  1  0.94049000  0.26712000  0.81828000  1.0
  H  H30  1  0.94049000  0.55116000  0.73288000  1.0
  H  H31  1  0.05951000  0.81828000  0.55116000  1.0
  H  H32  1  0.05951000  0.73288000  0.18172000  1.0
  H  H33  1  0.05951000  0.44884000  0.26712000  1.0
  H  H34  1  0.96149000  0.20386000  0.36339000  1.0
  H  H35  1  0.96149000  0.15953000  0.79614000  1.0
  H  H36  1  0.96149000  0.63661000  0.84047000  1.0
  H  H37  1  0.03851000  0.79614000  0.63661000  1.0
  H  H38  1  0.03851000  0.84047000  0.20386000  1.0
  H  H39  1  0.03851000  0.36339000  0.15953000  1.0
  H  H40  1  0.84408000  0.29571000  0.37031000  1.0
  H  H41  1  0.84408000  0.07460000  0.70429000  1.0
  H  H42  1  0.84408000  0.62969000  0.92540000  1.0
  H  H43  1  0.15592000  0.70429000  0.62969000  1.0
  H  H44  1  0.15592000  0.92540000  0.29571000  1.0
  H  H45  1  0.15592000  0.37031000  0.07460000  1.0
  H  H46  1  0.70723000  0.36622000  0.46429000  1.0
  H  H47  1  0.70722000  0.09807000  0.63379000  1.0
  H  H48  1  0.70723000  0.53572000  0.90194000  1.0
  H  H49  1  0.29277000  0.63378000  0.53571000  1.0
  H  H50  1  0.29277000  0.90193000  0.36621000  1.0
  H  H51  1  0.29278000  0.46428000  0.09806000  1.0
  H  H52  1  0.68207000  0.34243000  0.54904000  1.0
  H  H53  1  0.68207000  0.20661000  0.65757000  1.0
  H  H54  1  0.68207000  0.45096000  0.79339000  1.0
  H  H55  1  0.31793000  0.65757000  0.45096000  1.0
  H  H56  1  0.31793000  0.79339000  0.34243000  1.0
  H  H57  1  0.31793000  0.54904000  0.20661000  1.0
  H  H58  1  0.97215000  0.03449000  0.49009000  1.0
  H  H59  1  0.97215000  0.45560000  0.96551000  1.0
  H  H60  1  0.97215000  0.50991000  0.54440000  1.0
  H  H61  1  0.02785000  0.96551000  0.50991000  1.0
  H  H62  1  0.02785000  0.54440000  0.03449000  1.0
  H  H63  1  0.02785000  0.49009000  0.45560000  1.0
  H  H64  1  0.54204000  0.04612000  0.44617000  1.0
  H  H65  1  0.54204000  0.40005000  0.95387000  1.0
  H  H66  1  0.54204000  0.55382000  0.59994000  1.0
  H  H67  1  0.45796000  0.95388000  0.55383000  1.0
  H  H68  1  0.45796000  0.59995000  0.04613000  1.0
  H  H69  1  0.45796000  0.44618000  0.40006000  1.0
  H  H70  1  0.51873000  0.84708000  0.39651000  1.0
  H  H71  1  0.51873000  0.54943000  0.15292000  1.0
  H  H72  1  0.51873000  0.60349000  0.45057000  1.0
  H  H73  1  0.48127000  0.15292000  0.60349000  1.0
  H  H74  1  0.48127000  0.45057000  0.84708000  1.0
  H  H75  1  0.48127000  0.39651000  0.54943000  1.0
  H  H76  1  0.94046000  0.83650000  0.33322000  1.0
  H  H77  1  0.94046000  0.49672000  0.16350000  1.0
  H  H78  1  0.94046000  0.66678000  0.50328000  1.0
  H  H79  1  0.05954000  0.16350000  0.66678000  1.0
  H  H80  1  0.05954000  0.50328000  0.83650000  1.0
  H  H81  1  0.05954000  0.33322000  0.49672000  1.0
  H  H82  1  0.85014000  0.66249000  0.20485000  1.0
  H  H83  1  0.85013000  0.54236000  0.33751000  1.0
  H  H84  1  0.85013000  0.79515000  0.45764000  1.0
  H  H85  1  0.14987000  0.33751000  0.79515000  1.0
  H  H86  1  0.14987000  0.45764000  0.66249000  1.0
  H  H87  1  0.14987000  0.20485000  0.54236000  1.0
  H  H88  1  0.82687000  0.63518000  0.09479000  1.0
  H  H89  1  0.82687000  0.45961000  0.36483000  1.0
  H  H90  1  0.82687000  0.90522000  0.54040000  1.0
  H  H91  1  0.17313000  0.36483000  0.90522000  1.0
  H  H92  1  0.17313000  0.54039000  0.63517000  1.0
  H  H93  1  0.17313000  0.09478000  0.45961000  1.0
  H  H94  1  0.65592000  0.69138000  0.06594000  1.0
  H  H95  1  0.65592000  0.37456000  0.30862000  1.0
  H  H96  1  0.65592000  0.93406000  0.62544000  1.0
  H  H97  1  0.34407000  0.30862000  0.93406000  1.0
  H  H98  1  0.34408000  0.62544000  0.69138000  1.0
  H  H99  1  0.34408000  0.06594000  0.37456000  1.0
  H  H100  1  0.50423000  0.77226000  0.14635000  1.0
  H  H101  1  0.50423000  0.37408000  0.22774000  1.0
  H  H102  1  0.50423000  0.85366000  0.62592000  1.0
  H  H103  1  0.49577000  0.22774000  0.85365000  1.0
  H  H104  1  0.49577000  0.62591000  0.77225000  1.0
  H  H105  1  0.49577000  0.14634000  0.37408000  1.0
  H  H106  1  0.52531000  0.79805000  0.25518000  1.0
  H  H107  1  0.52531000  0.45713000  0.20195000  1.0
  H  H108  1  0.52531000  0.74482000  0.54287000  1.0
  H  H109  1  0.47469000  0.20195000  0.74482000  1.0
  H  H110  1  0.47469000  0.54287000  0.79805000  1.0
  H  H111  1  0.47469000  0.25518000  0.45713000  1.0
  H  H112  1  0.95805000  0.95013000  0.39238000  1.0
  H  H113  1  0.95804000  0.44225000  0.04988000  1.0
  H  H114  1  0.95805000  0.60763000  0.55776000  1.0
  H  H115  1  0.04195000  0.04988000  0.60763000  1.0
  H  H116  1  0.04196000  0.55775000  0.95012000  1.0
  H  H117  1  0.04195000  0.39237000  0.44224000  1.0
  H  H118  1  0.53470000  0.96087000  0.45559000  1.0
  H  H119  1  0.53470000  0.49473000  0.03913000  1.0
  H  H120  1  0.53471000  0.54440000  0.50527000  1.0
  H  H121  1  0.46530000  0.03913000  0.54440000  1.0
  H  H122  1  0.46530000  0.50527000  0.96087000  1.0
  H  H123  1  0.46530000  0.45560000  0.49473000  1.0
  C  C124  1  0.77363000  0.16123000  0.52895000  1.0
  C  C125  1  0.77363000  0.36772000  0.83876000  1.0
  C  C126  1  0.77363000  0.47104000  0.63227000  1.0
  C  C127  1  0.22637000  0.83877000  0.47105000  1.0
  C  C128  1  0.22637000  0.63227000  0.16123000  1.0
  C  C129  1  0.22637000  0.52896000  0.36773000  1.0
  C  C130  1  0.64796000  0.13209000  0.50105000  1.0
  C  C131  1  0.64796000  0.36896000  0.86790000  1.0
  C  C132  1  0.64796000  0.49894000  0.63103000  1.0
  C  C133  1  0.35204000  0.86791000  0.49895000  1.0
  C  C134  1  0.35204000  0.63104000  0.13210000  1.0
  C  C135  1  0.35204000  0.50106000  0.36897000  1.0
  C  C136  1  0.88943000  0.12553000  0.52530000  1.0
  C  C137  1  0.88943000  0.39977000  0.87447000  1.0
  C  C138  1  0.88943000  0.47470000  0.60023000  1.0
  C  C139  1  0.11057000  0.87447000  0.47470000  1.0
  C  C140  1  0.11057000  0.60023000  0.12553000  1.0
  C  C141  1  0.11057000  0.52530000  0.39977000  1.0
  C  C142  1  0.81072000  0.26116000  0.50489000  1.0
  C  C143  1  0.81072000  0.24373000  0.73884000  1.0
  C  C144  1  0.81072000  0.49511000  0.75627000  1.0
  C  C145  1  0.18928000  0.73884000  0.49511000  1.0
  C  C146  1  0.18928000  0.75627000  0.26116000  1.0
  C  C147  1  0.18928000  0.50489000  0.24373000  1.0
  C  C148  1  0.88931000  0.22221000  0.45242000  1.0
  C  C149  1  0.88931000  0.23021000  0.77779000  1.0
  C  C150  1  0.88931000  0.54758000  0.76979000  1.0
  C  C151  1  0.11069000  0.77779000  0.54758000  1.0
  C  C152  1  0.11069000  0.76979000  0.22221000  1.0
  C  C153  1  0.11069000  0.45242000  0.23021000  1.0
  C  C154  1  0.90090000  0.23460000  0.40418000  1.0
  C  C155  1  0.90090000  0.16958000  0.76540000  1.0
  C  C156  1  0.90090000  0.59582000  0.83042000  1.0
  C  C157  1  0.09910000  0.76540000  0.59582000  1.0
  C  C158  1  0.09910000  0.83042000  0.23460000  1.0
  C  C159  1  0.09910000  0.40418000  0.16958000  1.0
  C  C160  1  0.83512000  0.28626000  0.40820000  1.0
  C  C161  1  0.83512000  0.12194000  0.71374000  1.0
  C  C162  1  0.83512000  0.59180000  0.87806000  1.0
  C  C163  1  0.16488000  0.71374000  0.59180000  1.0
  C  C164  1  0.16488000  0.87806000  0.28626000  1.0
  C  C165  1  0.16488000  0.40820000  0.12194000  1.0
  C  C166  1  0.75810000  0.32564000  0.46072000  1.0
  C  C167  1  0.75810000  0.13508000  0.67436000  1.0
  C  C168  1  0.75810000  0.53928000  0.86492000  1.0
  C  C169  1  0.24190000  0.67436000  0.53928000  1.0
  C  C170  1  0.24190000  0.86492000  0.32564000  1.0
  C  C171  1  0.24190000  0.46072000  0.13508000  1.0
  C  C172  1  0.74499000  0.31291000  0.50869000  1.0
  C  C173  1  0.74499000  0.19578000  0.68709000  1.0
  C  C174  1  0.74499000  0.49131000  0.80422000  1.0
  C  C175  1  0.25501000  0.68709000  0.49131000  1.0
  C  C176  1  0.25501000  0.80422000  0.31291000  1.0
  C  C177  1  0.25501000  0.50869000  0.19578000  1.0
  C  C178  1  0.88110000  0.06161000  0.49237000  1.0
  C  C179  1  0.88110000  0.43076000  0.93839000  1.0
  C  C180  1  0.88110000  0.50763000  0.56924000  1.0
  C  C181  1  0.11890000  0.93839000  0.50763000  1.0
  C  C182  1  0.11890000  0.56924000  0.06161000  1.0
  C  C183  1  0.11890000  0.49237000  0.43076000  1.0
  C  C184  1  0.63963000  0.06818000  0.46878000  1.0
  C  C185  1  0.63963000  0.40060000  0.93183000  1.0
  C  C186  1  0.63963000  0.53123000  0.59941000  1.0
  C  C187  1  0.36037000  0.93183000  0.53123000  1.0
  C  C188  1  0.36036000  0.59940000  0.06817000  1.0
  C  C189  1  0.36036000  0.46877000  0.40060000  1.0
  C  C190  1  0.75637000  0.03175000  0.46322000  1.0
  C  C191  1  0.75637000  0.43147000  0.96825000  1.0
  C  C192  1  0.75637000  0.53678000  0.56853000  1.0
  C  C193  1  0.24363000  0.96824000  0.53677000  1.0
  C  C194  1  0.24363000  0.56853000  0.03175000  1.0
  C  C195  1  0.24363000  0.46322000  0.43146000  1.0
  C  C196  1  0.72696000  0.83479000  0.35995000  1.0
  C  C197  1  0.72696000  0.52516000  0.16521000  1.0
  C  C198  1  0.72697000  0.64005000  0.47484000  1.0
  C  C199  1  0.27304000  0.16521000  0.64005000  1.0
  C  C200  1  0.27304000  0.47484000  0.83479000  1.0
  C  C201  1  0.27304000  0.35995000  0.52516000  1.0
  C  C202  1  0.61336000  0.87017000  0.39472000  1.0
  C  C203  1  0.61336000  0.52455000  0.12982000  1.0
  C  C204  1  0.61336000  0.60527000  0.47544000  1.0
  C  C205  1  0.38664000  0.12983000  0.60527000  1.0
  C  C206  1  0.38664000  0.47544000  0.87017000  1.0
  C  C207  1  0.38664000  0.39473000  0.52456000  1.0
  C  C208  1  0.85143000  0.86399000  0.35973000  1.0
  C  C209  1  0.85143000  0.49574000  0.13601000  1.0
  C  C210  1  0.85143000  0.64027000  0.50426000  1.0
  C  C211  1  0.14857000  0.13601000  0.64027000  1.0
  C  C212  1  0.14857000  0.50426000  0.86399000  1.0
  C  C213  1  0.14857000  0.35973000  0.49574000  1.0
  C  C214  1  0.68951000  0.73158000  0.23672000  1.0
  C  C215  1  0.68951000  0.50514000  0.26842000  1.0
  C  C216  1  0.68951000  0.76328000  0.49486000  1.0
  C  C217  1  0.31049000  0.26842000  0.76328000  1.0
  C  C218  1  0.31049000  0.49486000  0.73158000  1.0
  C  C219  1  0.31049000  0.23672000  0.50514000  1.0
  C  C220  1  0.77374000  0.68567000  0.19125000  1.0
  C  C221  1  0.77374000  0.50559000  0.31433000  1.0
  C  C222  1  0.77374000  0.80874000  0.49441000  1.0
  C  C223  1  0.22626000  0.31433000  0.80875000  1.0
  C  C224  1  0.22626000  0.49442000  0.68568000  1.0
  C  C225  1  0.22626000  0.19126000  0.50559000  1.0
  C  C226  1  0.76092000  0.67096000  0.12991000  1.0
  C  C227  1  0.76091000  0.45895000  0.32904000  1.0
  C  C228  1  0.76091000  0.87009000  0.54105000  1.0
  C  C229  1  0.23908000  0.32904000  0.87009000  1.0
  C  C230  1  0.23908000  0.54105000  0.67096000  1.0
  C  C231  1  0.23908000  0.12991000  0.45895000  1.0
  C  C232  1  0.66511000  0.70248000  0.11378000  1.0
  C  C233  1  0.66511000  0.41130000  0.29751000  1.0
  C  C234  1  0.66511000  0.88621000  0.58869000  1.0
  C  C235  1  0.33488000  0.29751000  0.88621000  1.0
  C  C236  1  0.33489000  0.58870000  0.70249000  1.0
  C  C237  1  0.33489000  0.11379000  0.41130000  1.0
  C  C238  1  0.58048000  0.74819000  0.15897000  1.0
  C  C239  1  0.58048000  0.41078000  0.25181000  1.0
  C  C240  1  0.58048000  0.84103000  0.58922000  1.0
  C  C241  1  0.41952000  0.25181000  0.84103000  1.0
  C  C242  1  0.41952000  0.58922000  0.74819000  1.0
  C  C243  1  0.41952000  0.15897000  0.41078000  1.0
  C  C244  1  0.59215000  0.76260000  0.22023000  1.0
  C  C245  1  0.59215000  0.45763000  0.23740000  1.0
  C  C246  1  0.59215000  0.77977000  0.54237000  1.0
  C  C247  1  0.40785000  0.23740000  0.77977000  1.0
  C  C248  1  0.40785000  0.54237000  0.76260000  1.0
  C  C249  1  0.40785000  0.22023000  0.45763000  1.0
  C  C250  1  0.86126000  0.92786000  0.39353000  1.0
  C  C251  1  0.86126000  0.46567000  0.07214000  1.0
  C  C252  1  0.86126000  0.60647000  0.53433000  1.0
  C  C253  1  0.13874000  0.07214000  0.60647000  1.0
  C  C254  1  0.13874000  0.53433000  0.92786000  1.0
  C  C255  1  0.13874000  0.39353000  0.46567000  1.0
  C  C256  1  0.62332000  0.93399000  0.42801000  1.0
  C  C257  1  0.62332000  0.49403000  0.06602000  1.0
  C  C258  1  0.62332000  0.57199000  0.50598000  1.0
  C  C259  1  0.37668000  0.06601000  0.57198000  1.0
  C  C260  1  0.37667000  0.50597000  0.93398000  1.0
  C  C261  1  0.37668000  0.42801000  0.49402000  1.0
  C  C262  1  0.74713000  0.96398000  0.42794000  1.0
  C  C263  1  0.74713000  0.46396000  0.03602000  1.0
  C  C264  1  0.74713000  0.57206000  0.53604000  1.0
  C  C265  1  0.25287000  0.03602000  0.57206000  1.0
  C  C266  1  0.25287000  0.53604000  0.96398000  1.0
  C  C267  1  0.25287000  0.42794000  0.46396000  1.0
  O  O268  1  0.91484000  0.26106000  0.60818000  1.0
  O  O269  1  0.91484000  0.34712000  0.73894000  1.0
  O  O270  1  0.91484000  0.39182000  0.65288000  1.0
  O  O271  1  0.08516000  0.73894000  0.39182000  1.0
  O  O272  1  0.08516000  0.65288000  0.26106000  1.0
  O  O273  1  0.08516000  0.60818000  0.34712000  1.0
  O  O274  1  0.64741000  0.27122000  0.59660000  1.0
  O  O275  1  0.64741000  0.32538000  0.72877000  1.0
  O  O276  1  0.64741000  0.40339000  0.67461000  1.0
  O  O277  1  0.35259000  0.72878000  0.40340000  1.0
  O  O278  1  0.35259000  0.67462000  0.27123000  1.0
  O  O279  1  0.35259000  0.59661000  0.32539000  1.0
  O  O280  1  0.58511000  0.73672000  0.34225000  1.0
  O  O281  1  0.58511000  0.60553000  0.26328000  1.0
  O  O282  1  0.58511000  0.65775000  0.39447000  1.0
  O  O283  1  0.41489000  0.26328000  0.65775000  1.0
  O  O284  1  0.41489000  0.39447000  0.73672000  1.0
  O  O285  1  0.41489000  0.34226000  0.60553000  1.0
  O  O286  1  0.85308000  0.72542000  0.32023000  1.0
  O  O287  1  0.85308000  0.59481000  0.27458000  1.0
  O  O288  1  0.85309000  0.67977000  0.40519000  1.0
  O  O289  1  0.14691000  0.27458000  0.67977000  1.0
  O  O290  1  0.14691000  0.40519000  0.72542000  1.0
  O  O291  1  0.14691000  0.32023000  0.59481000  1.0
