# generated using pymatgen
data_CuH10C6N2O5
_symmetry_space_group_name_H-M   'P 1'
_cell_length_a   7.98560000
_cell_length_b   8.31539000
_cell_length_c   8.57945000
_cell_angle_alpha   92.14730000
_cell_angle_beta   115.29400000
_cell_angle_gamma   110.62900000
_symmetry_Int_Tables_number   1
_chemical_formula_structural   CuH10C6N2O5
_chemical_formula_sum   'Cu2 H20 C12 N4 O10'
_cell_volume   470.00988159
_cell_formula_units_Z   2
loop_
 _symmetry_equiv_pos_site_id
 _symmetry_equiv_pos_as_xyz
  1  'x, y, z'
loop_
 _atom_site_type_symbol
 _atom_site_label
 _atom_site_symmetry_multiplicity
 _atom_site_fract_x
 _atom_site_fract_y
 _atom_site_fract_z
 _atom_site_occupancy
  Cu  Cu0  1  0.58272000  0.63396000  0.62561000  1.0
  Cu  Cu1  1  0.41727000  0.36602000  0.37439000  1.0
  H  H2  1  0.08923000  0.67452000  0.04742000  1.0
  H  H3  1  0.91078000  0.32547000  0.95260000  1.0
  H  H4  1  0.19394000  0.85965000  0.22450000  1.0
  H  H5  1  0.80607000  0.14036000  0.77551000  1.0
  H  H6  1  0.81348000  0.64604000  0.09948000  1.0
  H  H7  1  0.18651000  0.35395000  0.90051000  1.0
  H  H8  1  0.89961000  0.49050000  0.19910000  1.0
  H  H9  1  0.10040000  0.50950000  0.80090000  1.0
  H  H10  1  0.00930000  0.85982000  0.39662000  1.0
  H  H11  1  0.99067000  0.14018000  0.60337000  1.0
  H  H12  1  0.10075000  0.70729000  0.49669000  1.0
  H  H13  1  0.89925000  0.29273000  0.50331000  1.0
  H  H14  1  0.43083000  0.69513000  0.86965000  1.0
  H  H15  1  0.56917000  0.30487000  0.13034000  1.0
  H  H16  1  0.49687000  0.83116000  0.06482000  1.0
  H  H17  1  0.50314000  0.16885000  0.93517000  1.0
  H  H18  1  0.82856000  0.06399000  0.21815000  1.0
  H  H19  1  0.17144000  0.93601000  0.78184000  1.0
  H  H20  1  0.99687000  0.08335000  0.13271000  1.0
  H  H21  1  0.00315000  0.91665000  0.86729000  1.0
  C  C22  1  0.28656000  0.64880000  0.30057000  1.0
  C  C23  1  0.71343000  0.35119000  0.69942000  1.0
  C  C24  1  0.13119000  0.71540000  0.18656000  1.0
  C  C25  1  0.86881000  0.28461000  0.81345000  1.0
  C  C26  1  0.94039000  0.63290000  0.20999000  1.0
  C  C27  1  0.05960000  0.36710000  0.79002000  1.0
  C  C28  1  0.97055000  0.71767000  0.38579000  1.0
  C  C29  1  0.02943000  0.28233000  0.61421000  1.0
  C  C30  1  0.79122000  0.63877000  0.42106000  1.0
  C  C31  1  0.20878000  0.36123000  0.57894000  1.0
  C  C32  1  0.71059000  0.89654000  0.97627000  1.0
  C  C33  1  0.28942000  0.10346000  0.02373000  1.0
  N  N34  1  0.52184000  0.81216000  0.96076000  1.0
  N  N35  1  0.47817000  0.18784000  0.03923000  1.0
  N  N36  1  0.85182000  0.03014000  0.11703000  1.0
  N  N37  1  0.14819000  0.96986000  0.88297000  1.0
  O  O38  1  0.41392000  0.73925000  0.45747000  1.0
  O  O39  1  0.58608000  0.26075000  0.54252000  1.0
  O  O40  1  0.26891000  0.50068000  0.23241000  1.0
  O  O41  1  0.73108000  0.49930000  0.76759000  1.0
  O  O42  1  0.79485000  0.72827000  0.54706000  1.0
  O  O43  1  0.20516000  0.27174000  0.45296000  1.0
  O  O44  1  0.65243000  0.48836000  0.32621000  1.0
  O  O45  1  0.34756000  0.51164000  0.67379000  1.0
  O  O46  1  0.75166000  0.85443000  0.85771000  1.0
  O  O47  1  0.24835000  0.14557000  0.14229000  1.0
