# generated using pymatgen
data_Er2P2H16C14N2O19
_symmetry_space_group_name_H-M   'P 1'
_cell_length_a   11.38780000
_cell_length_b   14.66980000
_cell_length_c   16.22150000
_cell_angle_alpha   89.99980000
_cell_angle_beta   89.99940000
_cell_angle_gamma   89.99960000
_symmetry_Int_Tables_number   1
_chemical_formula_structural   Er2P2H16C14N2O19
_chemical_formula_sum   'Er8 P8 H64 C56 N8 O76'
_cell_volume   2709.91104459
_cell_formula_units_Z   4
loop_
 _symmetry_equiv_pos_site_id
 _symmetry_equiv_pos_as_xyz
  1  'x, y, z'
loop_
 _atom_site_type_symbol
 _atom_site_label
 _atom_site_symmetry_multiplicity
 _atom_site_fract_x
 _atom_site_fract_y
 _atom_site_fract_z
 _atom_site_occupancy
  Er  Er0  1  0.72464000  0.25588000  0.56688000  1.0
  Er  Er1  1  0.77537000  0.74412000  0.06688000  1.0
  Er  Er2  1  0.27537000  0.75589000  0.93313000  1.0
  Er  Er3  1  0.22465000  0.24411000  0.43313000  1.0
  Er  Er4  1  0.75988000  0.20024000  0.94672000  1.0
  Er  Er5  1  0.74013000  0.79975000  0.44671000  1.0
  Er  Er6  1  0.24012000  0.70023000  0.55329000  1.0
  Er  Er7  1  0.25988000  0.29977000  0.05329000  1.0
  P  P8  1  0.73332000  0.18364000  0.17339000  1.0
  P  P9  1  0.76668000  0.81636000  0.67339000  1.0
  P  P10  1  0.26667000  0.68364000  0.32661000  1.0
  P  P11  1  0.23332000  0.31636000  0.82661000  1.0
  P  P12  1  0.67758000  0.04454000  0.45711000  1.0
  P  P13  1  0.82243000  0.95545000  0.95710000  1.0
  P  P14  1  0.32242000  0.54455000  0.04290000  1.0
  P  P15  1  0.17759000  0.45545000  0.54289000  1.0
  H  H16  1  0.58889000  0.24462000  0.24540000  1.0
  H  H17  1  0.91111000  0.75539000  0.74539000  1.0
  H  H18  1  0.41109000  0.74461000  0.25459000  1.0
  H  H19  1  0.08887000  0.25539000  0.75461000  1.0
  H  H20  1  0.52478000  0.96001000  0.46114000  1.0
  H  H21  1  0.97523000  0.03999000  0.96113000  1.0
  H  H22  1  0.47524000  0.46001000  0.03888000  1.0
  H  H23  1  0.02478000  0.53999000  0.53885000  1.0
  H  H24  1  0.71787000  0.47200000  0.52892000  1.0
  H  H25  1  0.78214000  0.52801000  0.02892000  1.0
  H  H26  1  0.28215000  0.97199000  0.97109000  1.0
  H  H27  1  0.21789000  0.02801000  0.47108000  1.0
  H  H28  1  0.72962000  0.43823000  0.62165000  1.0
  H  H29  1  0.77039000  0.56177000  0.12165000  1.0
  H  H30  1  0.27040000  0.93823000  0.87835000  1.0
  H  H31  1  0.22961000  0.06178000  0.37835000  1.0
  H  H32  1  0.76040000  0.97575000  0.30464000  1.0
  H  H33  1  0.73961000  0.02425000  0.80464000  1.0
  H  H34  1  0.23961000  0.47575000  0.19536000  1.0
  H  H35  1  0.26038000  0.52425000  0.69537000  1.0
  H  H36  1  0.13673000  0.83393000  0.26026000  1.0
  H  H37  1  0.36327000  0.16607000  0.76026000  1.0
  H  H38  1  0.86327000  0.33394000  0.23974000  1.0
  H  H39  1  0.63672000  0.66607000  0.73974000  1.0
  H  H40  1  0.65629000  0.03082000  0.19402000  1.0
  H  H41  1  0.84372000  0.96918000  0.69401000  1.0
  H  H42  1  0.34370000  0.53082000  0.30598000  1.0
  H  H43  1  0.15628000  0.46918000  0.80599000  1.0
  H  H44  1  0.80603000  0.02875000  0.16946000  1.0
  H  H45  1  0.69398000  0.97125000  0.66946000  1.0
  H  H46  1  0.19396000  0.52876000  0.33054000  1.0
  H  H47  1  0.30603000  0.47125000  0.83054000  1.0
  H  H48  1  0.59353000  0.08290000  0.32350000  1.0
  H  H49  1  0.90647000  0.91708000  0.82350000  1.0
  H  H50  1  0.40647000  0.58290000  0.17650000  1.0
  H  H51  1  0.09352000  0.41712000  0.67650000  1.0
  H  H52  1  0.69936000  0.16601000  0.35496000  1.0
  H  H53  1  0.80062000  0.83398000  0.85496000  1.0
  H  H54  1  0.30063000  0.66602000  0.14504000  1.0
  H  H55  1  0.19935000  0.33399000  0.64504000  1.0
  H  H56  1  0.90069000  0.05074000  0.38561000  1.0
  H  H57  1  0.59931000  0.94927000  0.88561000  1.0
  H  H58  1  0.09931000  0.55072000  0.11439000  1.0
  H  H59  1  0.40068000  0.44927000  0.61438000  1.0
  H  H60  1  0.89979000  0.14787000  0.31795000  1.0
  H  H61  1  0.60021000  0.85213000  0.81795000  1.0
  H  H62  1  0.10020000  0.64786000  0.18204000  1.0
  H  H63  1  0.39978000  0.35214000  0.68205000  1.0
  H  H64  1  0.99758000  0.13605000  0.17883000  1.0
  H  H65  1  0.50242000  0.86395000  0.67883000  1.0
  H  H66  1  0.00241000  0.63605000  0.32117000  1.0
  H  H67  1  0.49758000  0.36395000  0.82117000  1.0
  H  H68  1  0.14410000  0.05401000  0.09236000  1.0
  H  H69  1  0.35589000  0.94599000  0.59237000  1.0
  H  H70  1  0.85588000  0.55402000  0.40763000  1.0
  H  H71  1  0.64410000  0.44599000  0.90763000  1.0
  H  H72  1  0.20848000  0.89428000  0.13781000  1.0
  H  H73  1  0.29150000  0.10571000  0.63781000  1.0
  H  H74  1  0.79150000  0.39429000  0.36219000  1.0
  H  H75  1  0.70849000  0.60571000  0.86219000  1.0
  H  H76  1  0.99899000  0.90662000  0.34668000  1.0
  H  H77  1  0.50101000  0.09339000  0.84667000  1.0
  H  H78  1  0.00100000  0.40662000  0.15332000  1.0
  H  H79  1  0.49898000  0.59338000  0.65332000  1.0
  C  C80  1  0.74043000  0.06446000  0.20693000  1.0
  C  C81  1  0.75958000  0.93553000  0.70693000  1.0
  C  C82  1  0.25956000  0.56447000  0.29307000  1.0
  C  C83  1  0.24042000  0.43553000  0.79307000  1.0
  C  C84  1  0.68031000  0.09273000  0.35146000  1.0
  C  C85  1  0.81969000  0.90726000  0.85147000  1.0
  C  C86  1  0.31969000  0.59274000  0.14854000  1.0
  C  C87  1  0.18030000  0.40727000  0.64854000  1.0
  C  C88  1  0.89255000  0.07359000  0.32145000  1.0
  C  C89  1  0.60745000  0.92641000  0.82145000  1.0
  C  C90  1  0.10745000  0.57359000  0.17855000  1.0
  C  C91  1  0.39255000  0.42641000  0.67855000  1.0
  C  C92  1  0.98307000  0.02775000  0.26829000  1.0
  C  C93  1  0.51692000  0.97225000  0.76829000  1.0
  C  C94  1  0.01693000  0.52774000  0.23171000  1.0
  C  C95  1  0.48307000  0.47225000  0.73171000  1.0
  C  C96  1  0.02739000  0.06803000  0.19634000  1.0
  C  C97  1  0.47261000  0.93197000  0.69635000  1.0
  C  C98  1  0.97261000  0.56803000  0.30365000  1.0
  C  C99  1  0.52739000  0.43196000  0.80366000  1.0
  C  C100  1  0.10942000  0.02223000  0.14778000  1.0
  C  C101  1  0.39056000  0.97777000  0.64779000  1.0
  C  C102  1  0.89058000  0.52223000  0.35221000  1.0
  C  C103  1  0.60943000  0.47777000  0.85220000  1.0
  C  C104  1  0.14731000  0.93672000  0.17233000  1.0
  C  C105  1  0.35267000  0.06327000  0.67234000  1.0
  C  C106  1  0.85268000  0.43673000  0.32767000  1.0
  C  C107  1  0.64732000  0.56327000  0.82766000  1.0
  C  C108  1  0.02614000  0.94244000  0.29058000  1.0
  C  C109  1  0.47386000  0.05756000  0.79059000  1.0
  C  C110  1  0.97385000  0.44244000  0.20942000  1.0
  C  C111  1  0.52613000  0.55755000  0.70941000  1.0
  C  C112  1  0.49875000  0.26417000  0.45351000  1.0
  C  C113  1  0.00127000  0.73583000  0.95352000  1.0
  C  C114  1  0.50126000  0.76416000  0.04648000  1.0
  C  C115  1  0.99875000  0.23584000  0.54648000  1.0
  C  C116  1  0.45327000  0.24051000  0.54116000  1.0
  C  C117  1  0.04674000  0.75949000  0.04116000  1.0
  C  C118  1  0.54674000  0.74051000  0.95883000  1.0
  C  C119  1  0.95327000  0.25949000  0.45883000  1.0
  C  C120  1  0.74214000  0.18063000  0.74917000  1.0
  C  C121  1  0.75785000  0.81937000  0.24916000  1.0
  C  C122  1  0.25785000  0.68063000  0.75084000  1.0
  C  C123  1  0.24216000  0.31938000  0.25084000  1.0
  C  C124  1  0.74826000  0.28434000  0.76342000  1.0
  C  C125  1  0.75174000  0.71566000  0.26341000  1.0
  C  C126  1  0.25175000  0.78434000  0.73660000  1.0
  C  C127  1  0.24824000  0.21566000  0.23659000  1.0
  C  C128  1  0.53364000  0.30188000  0.01297000  1.0
  C  C129  1  0.96635000  0.69812000  0.51296000  1.0
  C  C130  1  0.46638000  0.80188000  0.48703000  1.0
  C  C131  1  0.03362000  0.19812000  0.98703000  1.0
  C  C132  1  0.48944000  0.20725000  0.98477000  1.0
  C  C133  1  0.01056000  0.79275000  0.48477000  1.0
  C  C134  1  0.51058000  0.70725000  0.51522000  1.0
  C  C135  1  0.98943000  0.29276000  0.01522000  1.0
  N  N136  1  0.76842000  0.04825000  0.29608000  1.0
  N  N137  1  0.73158000  0.95175000  0.79608000  1.0
  N  N138  1  0.23158000  0.54825000  0.20393000  1.0
  N  N139  1  0.26841000  0.45175000  0.70393000  1.0
  N  N140  1  0.10571000  0.90036000  0.24273000  1.0
  N  N141  1  0.39427000  0.09964000  0.74273000  1.0
  N  N142  1  0.89427000  0.40036000  0.25727000  1.0
  N  N143  1  0.60572000  0.59964000  0.75726000  1.0
  O  O144  1  0.82117000  0.23764000  0.22270000  1.0
  O  O145  1  0.67884000  0.76235000  0.72270000  1.0
  O  O146  1  0.17883000  0.73764000  0.27730000  1.0
  O  O147  1  0.32116000  0.26236000  0.77730000  1.0
  O  O148  1  0.74572000  0.17824000  0.08151000  1.0
  O  O149  1  0.75427000  0.82177000  0.58151000  1.0
  O  O150  1  0.25427000  0.67824000  0.41850000  1.0
  O  O151  1  0.24572000  0.32176000  0.91849000  1.0
  O  O152  1  0.60059000  0.21723000  0.19115000  1.0
  O  O153  1  0.89941000  0.78276000  0.69113000  1.0
  O  O154  1  0.39940000  0.71723000  0.30885000  1.0
  O  O155  1  0.10059000  0.28277000  0.80886000  1.0
  O  O156  1  0.74634000  0.95682000  0.45651000  1.0
  O  O157  1  0.75365000  0.04316000  0.95651000  1.0
  O  O158  1  0.25365000  0.45684000  0.04349000  1.0
  O  O159  1  0.24635000  0.54317000  0.54349000  1.0
  O  O160  1  0.71986000  0.11818000  0.51453000  1.0
  O  O161  1  0.78015000  0.88181000  0.01453000  1.0
  O  O162  1  0.28012000  0.61818000  0.98547000  1.0
  O  O163  1  0.21991000  0.38182000  0.48548000  1.0
  O  O164  1  0.54158000  0.02667000  0.47356000  1.0
  O  O165  1  0.95843000  0.97332000  0.97354000  1.0
  O  O166  1  0.45841000  0.52667000  0.02645000  1.0
  O  O167  1  0.04159000  0.47333000  0.52643000  1.0
  O  O168  1  0.60655000  0.28381000  0.44738000  1.0
  O  O169  1  0.89347000  0.71620000  0.94738000  1.0
  O  O170  1  0.39346000  0.78378000  0.05262000  1.0
  O  O171  1  0.10655000  0.21623000  0.55263000  1.0
  O  O172  1  0.42413000  0.26088000  0.39555000  1.0
  O  O173  1  0.07588000  0.73913000  0.89555000  1.0
  O  O174  1  0.57587000  0.76086000  0.10444000  1.0
  O  O175  1  0.92412000  0.23914000  0.60445000  1.0
  O  O176  1  0.34573000  0.22000000  0.54718000  1.0
  O  O177  1  0.15429000  0.77999000  0.04717000  1.0
  O  O178  1  0.65429000  0.72001000  0.95282000  1.0
  O  O179  1  0.84572000  0.27999000  0.45283000  1.0
  O  O180  1  0.52657000  0.24420000  0.59989000  1.0
  O  O181  1  0.97345000  0.75581000  0.09990000  1.0
  O  O182  1  0.47344000  0.74419000  0.90010000  1.0
  O  O183  1  0.02657000  0.25581000  0.40010000  1.0
  O  O184  1  0.72253000  0.15103000  0.67822000  1.0
  O  O185  1  0.77748000  0.84897000  0.17822000  1.0
  O  O186  1  0.27746000  0.65103000  0.82178000  1.0
  O  O187  1  0.22255000  0.34898000  0.32178000  1.0
  O  O188  1  0.75614000  0.13178000  0.81393000  1.0
  O  O189  1  0.74384000  0.86821000  0.31393000  1.0
  O  O190  1  0.24385000  0.63179000  0.68606000  1.0
  O  O191  1  0.25615000  0.36822000  0.18606000  1.0
  O  O192  1  0.76001000  0.30977000  0.83732000  1.0
  O  O193  1  0.73999000  0.69022000  0.33732000  1.0
  O  O194  1  0.23999000  0.80978000  0.66269000  1.0
  O  O195  1  0.25999000  0.19023000  0.16268000  1.0
  O  O196  1  0.73847000  0.33325000  0.69930000  1.0
  O  O197  1  0.76157000  0.66675000  0.19930000  1.0
  O  O198  1  0.26157000  0.83326000  0.80071000  1.0
  O  O199  1  0.23842000  0.16675000  0.30070000  1.0
  O  O200  1  0.45862000  0.35135000  0.05106000  1.0
  O  O201  1  0.04138000  0.64865000  0.55106000  1.0
  O  O202  1  0.54140000  0.85136000  0.44894000  1.0
  O  O203  1  0.95860000  0.14865000  0.94894000  1.0
  O  O204  1  0.63638000  0.32446000  0.99388000  1.0
  O  O205  1  0.86362000  0.67553000  0.49388000  1.0
  O  O206  1  0.36365000  0.82447000  0.50613000  1.0
  O  O207  1  0.13636000  0.17553000  0.00613000  1.0
  O  O208  1  0.56178000  0.16133000  0.94193000  1.0
  O  O209  1  0.93822000  0.83867000  0.44193000  1.0
  O  O210  1  0.43823000  0.66134000  0.55807000  1.0
  O  O211  1  0.06177000  0.33868000  0.05806000  1.0
  O  O212  1  0.38633000  0.18493000  0.00387000  1.0
  O  O213  1  0.11368000  0.81506000  0.50386000  1.0
  O  O214  1  0.61369000  0.68493000  0.49613000  1.0
  O  O215  1  0.88632000  0.31507000  0.99614000  1.0
  O  O216  1  0.70904000  0.41999000  0.56549000  1.0
  O  O217  1  0.79098000  0.58001000  0.06549000  1.0
  O  O218  1  0.29099000  0.91999000  0.93451000  1.0
  O  O219  1  0.20902000  0.08001000  0.43451000  1.0
