# generated using pymatgen
data_Zn3H8C28(IO3)5
_symmetry_space_group_name_H-M   'P 1'
_cell_length_a   18.56410000
_cell_length_b   18.62500000
_cell_length_c   18.71650000
_cell_angle_alpha   109.42200000
_cell_angle_beta   109.18100000
_cell_angle_gamma   109.23000000
_symmetry_Int_Tables_number   1
_chemical_formula_structural   Zn3H8C28(IO3)5
_chemical_formula_sum   'Zn6 H16 C56 I10 O30'
_cell_volume   5017.00974646
_cell_formula_units_Z   2
loop_
 _symmetry_equiv_pos_site_id
 _symmetry_equiv_pos_as_xyz
  1  'x, y, z'
loop_
 _atom_site_type_symbol
 _atom_site_label
 _atom_site_symmetry_multiplicity
 _atom_site_fract_x
 _atom_site_fract_y
 _atom_site_fract_z
 _atom_site_occupancy
  Zn  Zn0  1  0.99787000  0.93462000  0.43825000  1.0
  Zn  Zn1  1  0.00400000  0.06443000  0.56653000  1.0
  Zn  Zn2  1  0.42888000  0.49681000  0.43355000  1.0
  Zn  Zn3  1  0.55726000  0.49556000  0.55931000  1.0
  Zn  Zn4  1  0.43927000  0.93643000  0.00070000  1.0
  Zn  Zn5  1  0.56562000  0.06534000  0.00255000  1.0
  H  H6  1  0.80336000  0.66441000  0.57295000  1.0
  H  H7  1  0.26582000  0.99712000  0.86064000  1.0
  H  H8  1  0.55941000  0.73164000  0.52437000  1.0
  H  H9  1  0.97588000  0.82748000  0.56201000  1.0
  H  H10  1  0.70079000  0.16560000  0.25395000  1.0
  H  H11  1  0.68382000  0.92409000  0.87579000  1.0
  H  H12  1  0.43275000  0.17599000  0.01763000  1.0
  H  H13  1  0.46400000  0.98955000  0.76092000  1.0
  H  H14  1  0.85769000  0.12331000  0.39947000  1.0
  H  H15  1  0.67541000  0.89108000  0.08817000  1.0
  H  H16  1  0.78327000  0.87477000  0.19409000  1.0
  H  H17  1  0.33217000  0.71949000  0.73643000  1.0
  H  H18  1  0.44689000  0.09749000  0.24078000  1.0
  H  H19  1  0.44716000  0.34928000  0.20381000  1.0
  H  H20  1  0.38615000  0.22553000  0.55781000  1.0
  H  H21  1  0.14828000  0.29669000  0.50747000  1.0
  C  C22  1  0.12373000  0.98027000  0.59378000  1.0
  C  C23  1  0.20105000  0.98846000  0.66317000  1.0
  C  C24  1  0.73744000  0.82078000  0.50820000  1.0
  C  C25  1  0.12305000  0.13750000  0.52821000  1.0
  C  C26  1  0.67469000  0.75034000  0.50482000  1.0
  C  C27  1  0.70000000  0.69531000  0.53071000  1.0
  C  C28  1  0.78455000  0.70838000  0.55568000  1.0
  C  C29  1  0.84544000  0.77524000  0.55397000  1.0
  C  C30  1  0.82283000  0.83360000  0.53273000  1.0
  C  C31  1  0.81919000  0.07275000  0.33116000  1.0
  C  C32  1  0.76107000  0.08410000  0.27181000  1.0
  C  C33  1  0.23761000  0.25902000  0.45411000  1.0
  C  C34  1  0.70859000  0.01758000  0.18391000  1.0
  C  C35  1  0.71602000  0.94191000  0.15624000  1.0
  C  C36  1  0.77622000  0.93287000  0.21532000  1.0
  C  C37  1  0.88873000  0.98695000  0.36835000  1.0
  C  C38  1  0.82720000  0.99774000  0.30339000  1.0
  C  C39  1  0.46680000  0.61397000  0.58664000  1.0
  C  C40  1  0.40572000  0.38576000  0.53009000  1.0
  C  C41  1  0.46093000  0.37164000  0.35730000  1.0
  C  C42  1  0.63290000  0.61783000  0.52352000  1.0
  C  C43  1  0.47602000  0.85913000  0.88289000  1.0
  C  C44  1  0.20142000  0.28121000  0.51798000  1.0
  C  C45  1  0.41503000  0.01864000  0.87489000  1.0
  C  C46  1  0.46342000  0.09179000  0.10369000  1.0
  C  C47  1  0.64052000  0.02277000  0.11836000  1.0
  C  C48  1  0.54722000  0.75171000  0.73130000  1.0
  C  C49  1  0.88839000  0.90427000  0.52907000  1.0
  C  C50  1  0.55141000  0.80707000  0.80588000  1.0
  C  C51  1  0.47282000  0.79342000  0.80760000  1.0
  C  C52  1  0.39234000  0.72711000  0.73501000  1.0
  C  C53  1  0.38898000  0.67238000  0.65992000  1.0
  C  C54  1  0.46672000  0.68146000  0.65814000  1.0
  C  C55  1  0.19858000  0.20092000  0.52998000  1.0
  C  C56  1  0.45081000  0.22140000  0.29799000  1.0
  C  C57  1  0.44863000  0.15379000  0.23401000  1.0
  C  C58  1  0.45161000  0.15896000  0.16223000  1.0
  C  C59  1  0.45070000  0.22993000  0.15079000  1.0
  C  C60  1  0.44926000  0.29531000  0.21367000  1.0
  C  C61  1  0.29580000  0.26245000  0.60875000  1.0
  C  C62  1  0.45217000  0.29386000  0.28868000  1.0
  C  C63  1  0.29726000  0.34202000  0.59552000  1.0
  C  C64  1  0.33488000  0.31962000  0.53108000  1.0
  C  C65  1  0.33304000  0.24111000  0.54556000  1.0
  C  C66  1  0.19834000  0.98961000  0.73789000  1.0
  C  C67  1  0.23739000  0.17982000  0.46759000  1.0
  C  C68  1  0.58156000  0.73272000  0.47596000  1.0
  C  C69  1  0.93115000  0.77834000  0.57027000  1.0
  C  C70  1  0.75280000  0.16377000  0.30342000  1.0
  C  C71  1  0.63833000  0.87649000  0.88515000  1.0
  C  C72  1  0.44621000  0.23571000  0.07225000  1.0
  C  C73  1  0.43003000  0.01275000  0.72056000  1.0
  C  C74  1  0.26871000  0.99807000  0.80385000  1.0
  C  C75  1  0.34403000  0.00842000  0.79815000  1.0
  C  C76  1  0.35069000  0.01024000  0.72558000  1.0
  C  C77  1  0.27850000  0.00103000  0.65867000  1.0
  I  I78  1  0.34810000  0.46826000  0.69756000  1.0
  I  I79  1  0.09280000  0.98050000  0.76099000  1.0
  I  I80  1  0.28433000  0.01195000  0.55141000  1.0
  I  I81  1  0.70410000  0.90631000  0.47194000  1.0
  I  I82  1  0.66829000  0.77972000  0.73249000  1.0
  I  I83  1  0.34000000  0.26528000  0.72903000  1.0
  I  I84  1  0.26300000  0.57857000  0.55343000  1.0
  I  I85  1  0.44692000  0.20506000  0.40245000  1.0
  I  I86  1  0.19818000  0.05741000  0.36580000  1.0
  I  I87  1  0.18471000  0.25003000  0.33113000  1.0
  O  O88  1  0.08566000  0.91812000  0.51526000  1.0
  O  O89  1  0.53129000  0.93831000  0.91346000  1.0
  O  O90  1  0.38931000  0.97231000  0.90729000  1.0
  O  O91  1  0.10135000  0.03656000  0.62049000  1.0
  O  O92  1  0.49551000  0.07467000  0.90537000  1.0
  O  O93  1  0.41578000  0.01128000  0.08020000  1.0
  O  O94  1  0.52200000  0.11999000  0.08392000  1.0
  O  O95  1  0.56142000  0.97036000  0.09169000  1.0
  O  O96  1  0.66626000  0.07787000  0.09302000  1.0
  O  O97  1  0.09029000  0.05766000  0.47406000  1.0
  O  O98  1  0.09677000  0.16794000  0.58064000  1.0
  O  O99  1  0.51690000  0.58473000  0.61168000  1.0
  O  O100  1  0.91148000  0.92983000  0.33986000  1.0
  O  O101  1  0.91474000  0.03556000  0.44810000  1.0
  O  O102  1  0.90546000  0.87669000  0.46856000  1.0
  O  O103  1  0.92180000  0.98424000  0.58594000  1.0
  O  O104  1  0.41692000  0.59009000  0.50724000  1.0
  O  O105  1  0.53469000  0.72382000  0.40679000  1.0
  O  O106  1  0.95055000  0.72768000  0.58868000  1.0
  O  O107  1  0.79834000  0.22456000  0.37839000  1.0
  O  O108  1  0.65940000  0.87957000  0.95560000  1.0
  O  O109  1  0.45470000  0.30078000  0.06547000  1.0
  O  O110  1  0.38070000  0.41390000  0.47906000  1.0
  O  O111  1  0.45716000  0.03542000  0.67613000  1.0
  O  O112  1  0.48588000  0.41038000  0.58060000  1.0
  O  O113  1  0.41058000  0.40214000  0.33209000  1.0
  O  O114  1  0.51894000  0.40314000  0.43491000  1.0
  O  O115  1  0.55381000  0.58726000  0.46783000  1.0
  O  O116  1  0.65866000  0.58702000  0.57290000  1.0
  O  O117  1  0.42173000  0.83248000  0.90887000  1.0
