# generated using pymatgen
data_CdH28C28I2(NO)2
_symmetry_space_group_name_H-M   'P 1'
_cell_length_a   6.98421000
_cell_length_b   13.94270000
_cell_length_c   14.39200000
_cell_angle_alpha   90.00000000
_cell_angle_beta   90.00000000
_cell_angle_gamma   90.00000000
_symmetry_Int_Tables_number   1
_chemical_formula_structural   CdH28C28I2(NO)2
_chemical_formula_sum   'Cd2 H56 C56 I4 N4 O4'
_cell_volume   1401.47489469
_cell_formula_units_Z   2
loop_
 _symmetry_equiv_pos_site_id
 _symmetry_equiv_pos_as_xyz
  1  'x, y, z'
loop_
 _atom_site_type_symbol
 _atom_site_label
 _atom_site_symmetry_multiplicity
 _atom_site_fract_x
 _atom_site_fract_y
 _atom_site_fract_z
 _atom_site_occupancy
  Cd  Cd0  1  0.70705000  0.50000000  0.00000000  1.0
  Cd  Cd1  1  0.29294000  0.00000000  0.50000000  1.0
  H  H2  1  0.28728000  0.59746000  0.98445000  1.0
  H  H3  1  0.28728000  0.40254000  0.01555000  1.0
  H  H4  1  0.71272000  0.90254000  0.48445000  1.0
  H  H5  1  0.71272000  0.09746000  0.51555000  1.0
  H  H6  1  0.02549000  0.61597000  0.87402000  1.0
  H  H7  1  0.02549000  0.38403000  0.12598000  1.0
  H  H8  1  0.97451000  0.88403000  0.37402000  1.0
  H  H9  1  0.97451000  0.11597000  0.62598000  1.0
  H  H10  1  0.40067000  0.50393000  0.66068000  1.0
  H  H11  1  0.40066000  0.49607000  0.33931000  1.0
  H  H12  1  0.59934000  0.99607000  0.16069000  1.0
  H  H13  1  0.59933000  0.00393000  0.83932000  1.0
  H  H14  1  0.64861000  0.48429000  0.78274000  1.0
  H  H15  1  0.64861000  0.51570000  0.21726000  1.0
  H  H16  1  0.35139000  0.01571000  0.28274000  1.0
  H  H17  1  0.35139000  0.98429000  0.71726000  1.0
  H  H18  1  0.90564000  0.69225000  0.76012000  1.0
  H  H19  1  0.90564000  0.30775000  0.23988000  1.0
  H  H20  1  0.09436000  0.80775000  0.26012000  1.0
  H  H21  1  0.09435000  0.19225000  0.73988000  1.0
  H  H22  1  0.63935000  0.78118000  0.71782000  1.0
  H  H23  1  0.63935000  0.21882000  0.28218000  1.0
  H  H24  1  0.36065000  0.71882000  0.21782000  1.0
  H  H25  1  0.36065000  0.28118000  0.78218000  1.0
  H  H26  1  0.45798000  0.71569000  0.65839000  1.0
  H  H27  1  0.45798000  0.28431000  0.34161000  1.0
  H  H28  1  0.54202000  0.78431000  0.15839000  1.0
  H  H29  1  0.54202000  0.21569000  0.84161000  1.0
  H  H30  1  0.60735000  0.79394000  0.59626000  1.0
  H  H31  1  0.60736000  0.20606000  0.40374000  1.0
  H  H32  1  0.39265000  0.70606000  0.09626000  1.0
  H  H33  1  0.39265000  0.29394000  0.90374000  1.0
  H  H34  1  0.59549000  0.58074000  0.42399000  1.0
  H  H35  1  0.59548000  0.41926000  0.57601000  1.0
  H  H36  1  0.40452000  0.91926000  0.92399000  1.0
  H  H37  1  0.40452000  0.08074000  0.07601000  1.0
  H  H38  1  0.59274000  0.70217000  0.46161000  1.0
  H  H39  1  0.59274000  0.29783000  0.53838000  1.0
  H  H40  1  0.40726000  0.79783000  0.96162000  1.0
  H  H41  1  0.40726000  0.20217000  0.03838000  1.0
  H  H42  1  0.43628000  0.61839000  0.51307000  1.0
  H  H43  1  0.43628000  0.38161000  0.48692000  1.0
  H  H44  1  0.56372000  0.88161000  0.01308000  1.0
  H  H45  1  0.56372000  0.11839000  0.98692000  1.0
  H  H46  1  0.19605000  0.29988000  0.61519000  1.0
  H  H47  1  0.19605000  0.70012000  0.38481000  1.0
  H  H48  1  0.80396000  0.20012000  0.11519000  1.0
  H  H49  1  0.80396000  0.79988000  0.88481000  1.0
  H  H50  1  0.94718000  0.32645000  0.60245000  1.0
  H  H51  1  0.94719000  0.67354000  0.39756000  1.0
  H  H52  1  0.05282000  0.17354000  0.10244000  1.0
  H  H53  1  0.05282000  0.82646000  0.89756000  1.0
  H  H54  1  0.06827000  0.35938000  0.70817000  1.0
  H  H55  1  0.06827000  0.64062000  0.29183000  1.0
  H  H56  1  0.93173000  0.14062000  0.20817000  1.0
  H  H57  1  0.93173000  0.85938000  0.79183000  1.0
  C  C58  1  0.30945000  0.57778000  0.91184000  1.0
  C  C59  1  0.30945000  0.42222000  0.08816000  1.0
  C  C60  1  0.69055000  0.92222000  0.41184000  1.0
  C  C61  1  0.69055000  0.07778000  0.58816000  1.0
  C  C62  1  0.16175000  0.58863000  0.84852000  1.0
  C  C63  1  0.16174000  0.41137000  0.15147000  1.0
  C  C64  1  0.83825000  0.91137000  0.34852000  1.0
  C  C65  1  0.83825000  0.08863000  0.65148000  1.0
  C  C66  1  0.18724000  0.56132000  0.75526000  1.0
  C  C67  1  0.18724000  0.43868000  0.24474000  1.0
  C  C68  1  0.81276000  0.93868000  0.25526000  1.0
  C  C69  1  0.81276000  0.06132000  0.74474000  1.0
  C  C70  1  0.36905000  0.52500000  0.73166000  1.0
  C  C71  1  0.36905000  0.47500000  0.26834000  1.0
  C  C72  1  0.63095000  0.97500000  0.23166000  1.0
  C  C73  1  0.63095000  0.02500000  0.76834000  1.0
  C  C74  1  0.50880000  0.51476000  0.79943000  1.0
  C  C75  1  0.50880000  0.48524000  0.20056000  1.0
  C  C76  1  0.49120000  0.98524000  0.29944000  1.0
  C  C77  1  0.49120000  0.01476000  0.70057000  1.0
  C  C78  1  0.03089000  0.57264000  0.68738000  1.0
  C  C79  1  0.03088000  0.42736000  0.31262000  1.0
  C  C80  1  0.96911000  0.92736000  0.18738000  1.0
  C  C81  1  0.96911000  0.07264000  0.81262000  1.0
  C  C82  1  0.01216000  0.51487000  0.60767000  1.0
  C  C83  1  0.01216000  0.48513000  0.39233000  1.0
  C  C84  1  0.98784000  0.98513000  0.10767000  1.0
  C  C85  1  0.98784000  0.01487000  0.89233000  1.0
  C  C86  1  0.86581000  0.53080000  0.54240000  1.0
  C  C87  1  0.86581000  0.46920000  0.45760000  1.0
  C  C88  1  0.13419000  0.96920000  0.04240000  1.0
  C  C89  1  0.13419000  0.03080000  0.95760000  1.0
  C  C90  1  0.73277000  0.60525000  0.55614000  1.0
  C  C91  1  0.73277000  0.39475000  0.44386000  1.0
  C  C92  1  0.26723000  0.89475000  0.05614000  1.0
  C  C93  1  0.26723000  0.10525000  0.94386000  1.0
  C  C94  1  0.74568000  0.66209000  0.63722000  1.0
  C  C95  1  0.74568000  0.33791000  0.36278000  1.0
  C  C96  1  0.25432000  0.83791000  0.13722000  1.0
  C  C97  1  0.25432000  0.16209000  0.86278000  1.0
  C  C98  1  0.89300000  0.64497000  0.70014000  1.0
  C  C99  1  0.89300000  0.35503000  0.29986000  1.0
  C  C100  1  0.10700000  0.85503000  0.20014000  1.0
  C  C101  1  0.10699000  0.14497000  0.79986000  1.0
  C  C102  1  0.60614000  0.74201000  0.65377000  1.0
  C  C103  1  0.60614000  0.25799000  0.34623000  1.0
  C  C104  1  0.39386000  0.75799000  0.15377000  1.0
  C  C105  1  0.39386000  0.24201000  0.84623000  1.0
  C  C106  1  0.58179000  0.62713000  0.48499000  1.0
  C  C107  1  0.58179000  0.37287000  0.51501000  1.0
  C  C108  1  0.41821000  0.87287000  0.98499000  1.0
  C  C109  1  0.41821000  0.12713000  0.01501000  1.0
  C  C110  1  0.08337000  0.35171000  0.63227000  1.0
  C  C111  1  0.08337000  0.64829000  0.36773000  1.0
  C  C112  1  0.91664000  0.14829000  0.13227000  1.0
  C  C113  1  0.91664000  0.85171000  0.86773000  1.0
  I  I114  1  0.89024000  0.65302000  0.07903000  1.0
  I  I115  1  0.89025000  0.34698000  0.92097000  1.0
  I  I116  1  0.10975000  0.84698000  0.57903000  1.0
  I  I117  1  0.10976000  0.15302000  0.42097000  1.0
  N  N118  1  0.48078000  0.54012000  0.88875000  1.0
  N  N119  1  0.48078000  0.45988000  0.11124000  1.0
  N  N120  1  0.51922000  0.95988000  0.38876000  1.0
  N  N121  1  0.51922000  0.04012000  0.61124000  1.0
  O  O122  1  0.14013000  0.44114000  0.59082000  1.0
  O  O123  1  0.14013000  0.55886000  0.40918000  1.0
  O  O124  1  0.85987000  0.05886000  0.09082000  1.0
  O  O125  1  0.85987000  0.94114000  0.90918000  1.0
