# generated using pymatgen
data_CeH27C27SN5Cl3
_symmetry_space_group_name_H-M   'P 1'
_cell_length_a   9.16916000
_cell_length_b   18.39390000
_cell_length_c   18.53760000
_cell_angle_alpha   106.97400000
_cell_angle_beta   89.96490000
_cell_angle_gamma   104.44500000
_symmetry_Int_Tables_number   1
_chemical_formula_structural   CeH27C27SN5Cl3
_chemical_formula_sum   'Ce4 H108 C108 S4 N20 Cl12'
_cell_volume   2886.94574924
_cell_formula_units_Z   4
loop_
 _symmetry_equiv_pos_site_id
 _symmetry_equiv_pos_as_xyz
  1  'x, y, z'
loop_
 _atom_site_type_symbol
 _atom_site_label
 _atom_site_symmetry_multiplicity
 _atom_site_fract_x
 _atom_site_fract_y
 _atom_site_fract_z
 _atom_site_occupancy
  Ce  Ce0  1  0.43095000  0.72970000  0.61624000  1.0
  Ce  Ce1  1  0.70126000  0.27023000  0.88377000  1.0
  Ce  Ce2  1  0.56899000  0.27029000  0.38378000  1.0
  Ce  Ce3  1  0.29882000  0.72979000  0.11621000  1.0
  H  H4  1  0.22859000  0.68069000  0.31706000  1.0
  H  H5  1  0.54814000  0.31935000  0.18312000  1.0
  H  H6  1  0.77132000  0.31924000  0.68298000  1.0
  H  H7  1  0.45193000  0.68051000  0.81677000  1.0
  H  H8  1  0.36502000  0.74757000  0.44457000  1.0
  H  H9  1  0.61766000  0.25234000  0.05557000  1.0
  H  H10  1  0.63484000  0.25238000  0.55546000  1.0
  H  H11  1  0.38239000  0.74757000  0.94430000  1.0
  H  H12  1  0.90860000  0.53185000  0.41841000  1.0
  H  H13  1  0.37667000  0.46795000  0.08168000  1.0
  H  H14  1  0.09131000  0.46806000  0.58161000  1.0
  H  H15  1  0.62332000  0.53195000  0.91826000  1.0
  H  H16  1  0.06123000  0.60394000  0.54242000  1.0
  H  H17  1  0.45729000  0.39577000  0.95768000  1.0
  H  H18  1  0.93860000  0.39599000  0.45762000  1.0
  H  H19  1  0.54272000  0.60418000  0.04226000  1.0
  H  H20  1  0.05586000  0.73455000  0.63892000  1.0
  H  H21  1  0.32127000  0.26534000  0.86117000  1.0
  H  H22  1  0.94406000  0.26549000  0.36115000  1.0
  H  H23  1  0.67885000  0.73472000  0.13880000  1.0
  H  H24  1  0.88364000  0.82116000  0.67319000  1.0
  H  H25  1  0.06253000  0.17876000  0.82680000  1.0
  H  H26  1  0.11636000  0.17892000  0.32685000  1.0
  H  H27  1  0.93756000  0.82133000  0.17321000  1.0
  H  H28  1  0.25927000  0.01599000  0.66849000  1.0
  H  H29  1  0.24317000  0.98388000  0.83144000  1.0
  H  H30  1  0.74075000  0.98404000  0.33153000  1.0
  H  H31  1  0.75686000  0.01619000  0.16856000  1.0
  H  H32  1  0.41938000  0.92109000  0.63910000  1.0
  H  H33  1  0.49804000  0.07878000  0.86098000  1.0
  H  H34  1  0.58063000  0.07893000  0.36094000  1.0
  H  H35  1  0.50200000  0.92126000  0.13901000  1.0
  H  H36  1  0.68038000  0.88066000  0.74139000  1.0
  H  H37  1  0.79940000  0.11924000  0.75849000  1.0
  H  H38  1  0.31965000  0.11939000  0.25859000  1.0
  H  H39  1  0.20062000  0.88087000  0.24160000  1.0
  H  H40  1  0.25042000  0.77358000  0.78461000  1.0
  H  H41  1  0.47691000  0.22645000  0.71536000  1.0
  H  H42  1  0.74960000  0.22647000  0.21541000  1.0
  H  H43  1  0.52309000  0.77364000  0.28474000  1.0
  H  H44  1  0.28787000  0.85773000  0.91977000  1.0
  H  H45  1  0.43048000  0.14234000  0.58018000  1.0
  H  H46  1  0.71227000  0.14232000  0.08025000  1.0
  H  H47  1  0.56953000  0.85776000  0.41991000  1.0
  H  H48  1  0.73563000  0.96952000  0.87498000  1.0
  H  H49  1  0.76611000  0.03041000  0.62491000  1.0
  H  H50  1  0.26442000  0.03050000  0.12500000  1.0
  H  H51  1  0.23395000  0.96973000  0.37518000  1.0
  H  H52  1  0.92273000  0.54741000  0.12500000  1.0
  H  H53  1  0.37565000  0.45243000  0.37513000  1.0
  H  H54  1  0.07713000  0.45248000  0.87491000  1.0
  H  H55  1  0.62446000  0.54749000  0.62491000  1.0
  H  H56  1  0.81104000  0.46015000  0.99776000  1.0
  H  H57  1  0.35068000  0.53974000  0.50231000  1.0
  H  H58  1  0.18894000  0.53974000  0.00213000  1.0
  H  H59  1  0.64935000  0.46019000  0.49770000  1.0
  H  H60  1  0.95389000  0.27325000  0.02723000  1.0
  H  H61  1  0.68047000  0.72666000  0.47275000  1.0
  H  H62  1  0.04610000  0.72666000  0.97268000  1.0
  H  H63  1  0.31949000  0.27330000  0.52721000  1.0
  H  H64  1  0.06619000  0.35167000  0.15758000  1.0
  H  H65  1  0.71452000  0.64823000  0.34240000  1.0
  H  H66  1  0.93375000  0.64822000  0.84233000  1.0
  H  H67  1  0.28549000  0.35170000  0.65762000  1.0
  H  H68  1  0.51921000  0.93109000  0.02592000  1.0
  H  H69  1  0.58813000  0.06891000  0.47397000  1.0
  H  H70  1  0.48083000  0.06896000  0.97407000  1.0
  H  H71  1  0.41194000  0.93124000  0.52613000  1.0
  H  H72  1  0.66843000  0.00067000  0.00216000  1.0
  H  H73  1  0.66771000  0.99927000  0.49763000  1.0
  H  H74  1  0.33164000  0.99938000  0.99785000  1.0
  H  H75  1  0.33237000  0.00087000  0.50247000  1.0
  H  H76  1  0.10441000  0.46727000  0.26088000  1.0
  H  H77  1  0.63749000  0.53261000  0.23914000  1.0
  H  H78  1  0.89549000  0.53258000  0.73903000  1.0
  H  H79  1  0.36252000  0.46732000  0.76086000  1.0
  H  H80  1  0.17934000  0.54668000  0.22418000  1.0
  H  H81  1  0.63277000  0.45313000  0.27580000  1.0
  H  H82  1  0.82057000  0.45319000  0.77576000  1.0
  H  H83  1  0.36722000  0.54680000  0.72420000  1.0
  H  H84  1  0.86920000  0.51424000  0.28763000  1.0
  H  H85  1  0.35525000  0.48582000  0.21260000  1.0
  H  H86  1  0.13075000  0.48567000  0.71238000  1.0
  H  H87  1  0.64476000  0.51405000  0.78732000  1.0
  H  H88  1  0.95030000  0.59515000  0.25263000  1.0
  H  H89  1  0.35527000  0.40488000  0.24756000  1.0
  H  H90  1  0.04967000  0.40477000  0.74740000  1.0
  H  H91  1  0.64476000  0.59499000  0.75236000  1.0
  H  H92  1  0.99350000  0.03302000  0.68232000  1.0
  H  H93  1  0.96034000  0.96691000  0.81763000  1.0
  H  H94  1  0.00656000  0.96705000  0.31770000  1.0
  H  H95  1  0.03974000  0.03318000  0.18241000  1.0
  H  H96  1  0.84302000  0.95270000  0.68739000  1.0
  H  H97  1  0.89028000  0.04727000  0.81259000  1.0
  H  H98  1  0.15702000  0.04738000  0.31265000  1.0
  H  H99  1  0.10977000  0.95283000  0.18744000  1.0
  H  H100  1  0.97417000  0.73805000  0.32997000  1.0
  H  H101  1  0.23631000  0.26195000  0.17014000  1.0
  H  H102  1  0.02579000  0.26200000  0.67010000  1.0
  H  H103  1  0.76370000  0.73803000  0.82984000  1.0
  H  H104  1  0.82277000  0.83494000  0.30489000  1.0
  H  H105  1  0.98792000  0.16511000  0.19528000  1.0
  H  H106  1  0.17728000  0.16513000  0.69515000  1.0
  H  H107  1  0.01207000  0.83489000  0.80471000  1.0
  H  H108  1  0.96156000  0.94255000  0.53610000  1.0
  H  H109  1  0.01912000  0.05756000  0.96399000  1.0
  H  H110  1  0.03857000  0.05755000  0.46393000  1.0
  H  H111  1  0.98078000  0.94248000  0.03598000  1.0
  C  C112  1  0.51726000  0.92014000  0.90884000  1.0
  C  C113  1  0.59741000  0.07992000  0.59109000  1.0
  C  C114  1  0.48284000  0.07993000  0.09119000  1.0
  C  C115  1  0.40265000  0.92020000  0.40900000  1.0
  C  C116  1  0.37807000  0.86474000  0.88203000  1.0
  C  C117  1  0.51360000  0.13535000  0.61795000  1.0
  C  C118  1  0.62205000  0.13534000  0.11802000  1.0
  C  C119  1  0.48642000  0.86476000  0.38213000  1.0
  C  C120  1  0.35628000  0.81827000  0.80689000  1.0
  C  C121  1  0.53812000  0.18178000  0.69311000  1.0
  C  C122  1  0.64375000  0.18180000  0.19318000  1.0
  C  C123  1  0.46187000  0.81831000  0.30697000  1.0
  C  C124  1  0.09784000  0.79760000  0.64690000  1.0
  C  C125  1  0.30032000  0.20231000  0.85317000  1.0
  C  C126  1  0.90202000  0.20246000  0.35315000  1.0
  C  C127  1  0.69978000  0.79776000  0.14683000  1.0
  C  C128  1  0.26315000  0.69926000  0.43660000  1.0
  C  C129  1  0.56415000  0.30065000  0.06351000  1.0
  C  C130  1  0.73668000  0.30067000  0.56338000  1.0
  C  C131  1  0.43588000  0.69927000  0.93640000  1.0
  C  C132  1  0.62672000  0.92671000  0.85699000  1.0
  C  C133  1  0.70007000  0.07328000  0.64293000  1.0
  C  C134  1  0.37334000  0.07335000  0.14305000  1.0
  C  C135  1  0.29998000  0.92684000  0.35714000  1.0
  C  C136  1  0.21008000  0.95443000  0.66441000  1.0
  C  C137  1  0.25559000  0.04546000  0.83555000  1.0
  C  C138  1  0.78986000  0.04562000  0.33562000  1.0
  C  C139  1  0.74445000  0.95461000  0.16447000  1.0
  C  C140  1  0.29941000  0.90162000  0.64662000  1.0
  C  C141  1  0.39770000  0.09831000  0.85343000  1.0
  C  C142  1  0.70054000  0.09845000  0.35342000  1.0
  C  C143  1  0.60235000  0.90174000  0.14657000  1.0
  C  C144  1  0.59627000  0.87783000  0.78278000  1.0
  C  C145  1  0.71827000  0.12217000  0.71715000  1.0
  C  C146  1  0.40382000  0.12226000  0.21725000  1.0
  C  C147  1  0.28177000  0.87793000  0.28293000  1.0
  C  C148  1  0.54779000  0.96988000  0.98991000  1.0
  C  C149  1  0.57798000  0.03014000  0.51000000  1.0
  C  C150  1  0.45230000  0.03016000  0.01009000  1.0
  C  C151  1  0.42207000  0.96998000  0.49008000  1.0
  C  C152  1  0.00184000  0.84688000  0.66666667  1.0
  C  C153  1  0.15504000  0.15305000  0.83337000  1.0
  C  C154  1  0.99811000  0.15321000  0.33343000  1.0
  C  C155  1  0.84504000  0.84703000  0.16664000  1.0
  C  C156  1  0.00902000  0.57978000  0.42212000  1.0
  C  C157  1  0.42924000  0.42003000  0.07795000  1.0
  C  C158  1  0.99085000  0.42011000  0.57784000  1.0
  C  C159  1  0.57079000  0.57989000  0.92200000  1.0
  C  C160  1  0.05830000  0.92777000  0.67733000  1.0
  C  C161  1  0.13053000  0.07213000  0.82261000  1.0
  C  C162  1  0.94167000  0.07230000  0.32271000  1.0
  C  C163  1  0.86954000  0.92796000  0.17742000  1.0
  C  C164  1  0.05678000  0.59954000  0.35696000  1.0
  C  C165  1  0.45738000  0.40039000  0.14314000  1.0
  C  C166  1  0.94313000  0.40034000  0.64302000  1.0
  C  C167  1  0.54268000  0.59952000  0.85680000  1.0
  C  C168  1  0.18665000  0.66192000  0.36556000  1.0
  C  C169  1  0.52503000  0.33806000  0.13457000  1.0
  C  C170  1  0.81320000  0.33797000  0.63443000  1.0
  C  C171  1  0.47502000  0.66184000  0.86535000  1.0
  C  C172  1  0.00251000  0.45649000  0.15356000  1.0
  C  C173  1  0.54623000  0.54337000  0.34645000  1.0
  C  C174  1  0.99738000  0.54341000  0.84637000  1.0
  C  C175  1  0.45378000  0.45654000  0.65352000  1.0
  C  C176  1  0.96200000  0.98351000  0.70602000  1.0
  C  C177  1  0.97841000  0.01641000  0.79391000  1.0
  C  C178  1  0.03804000  0.01656000  0.29399000  1.0
  C  C179  1  0.02164000  0.98367000  0.20612000  1.0
  C  C180  1  0.93001000  0.48647000  0.10654000  1.0
  C  C181  1  0.44377000  0.51337000  0.39351000  1.0
  C  C182  1  0.06989000  0.51343000  0.89338000  1.0
  C  C183  1  0.55632000  0.48654000  0.60647000  1.0
  C  C184  1  0.09305000  0.61964000  0.49106000  1.0
  C  C185  1  0.47351000  0.38009000  0.00900000  1.0
  C  C186  1  0.90671000  0.38025000  0.50892000  1.0
  C  C187  1  0.52652000  0.61986000  0.99094000  1.0
  C  C188  1  0.86936000  0.43810000  0.03484000  1.0
  C  C189  1  0.43111000  0.56173000  0.46517000  1.0
  C  C190  1  0.13061000  0.56180000  0.96508000  1.0
  C  C191  1  0.56890000  0.43816000  0.53478000  1.0
  C  C192  1  0.01153000  0.37850000  0.12390000  1.0
  C  C193  1  0.63299000  0.62137000  0.37606000  1.0
  C  C194  1  0.98841000  0.62140000  0.87603000  1.0
  C  C195  1  0.36700000  0.37853000  0.62390000  1.0
  C  C196  1  0.94911000  0.33424000  0.05122000  1.0
  C  C197  1  0.61475000  0.66564000  0.44872000  1.0
  C  C198  1  0.05089000  0.66567000  0.94871000  1.0
  C  C199  1  0.38526000  0.33429000  0.55121000  1.0
  C  C200  1  0.97543000  0.55407000  0.28075000  1.0
  C  C201  1  0.42158000  0.44594000  0.21940000  1.0
  C  C202  1  0.02451000  0.44582000  0.71924000  1.0
  C  C203  1  0.57847000  0.55395000  0.78055000  1.0
  C  C204  1  0.07351000  0.50564000  0.23114000  1.0
  C  C205  1  0.56820000  0.49426000  0.26891000  1.0
  C  C206  1  0.92639000  0.49425000  0.76881000  1.0
  C  C207  1  0.43181000  0.50566000  0.73108000  1.0
  C  C208  1  0.95257000  0.78901000  0.37130000  1.0
  C  C209  1  0.16377000  0.21103000  0.12879000  1.0
  C  C210  1  0.04741000  0.21106000  0.62874000  1.0
  C  C211  1  0.83623000  0.78897000  0.87120000  1.0
  C  C212  1  0.87703000  0.84060000  0.35914000  1.0
  C  C213  1  0.03658000  0.15945000  0.14100000  1.0
  C  C214  1  0.12302000  0.15948000  0.64089000  1.0
  C  C215  1  0.96340000  0.84056000  0.85900000  1.0
  C  C216  1  0.94647000  0.89932000  0.48050000  1.0
  C  C217  1  0.04732000  0.10078000  0.01959000  1.0
  C  C218  1  0.05363000  0.10079000  0.51952000  1.0
  C  C219  1  0.95259000  0.89925000  0.98039000  1.0
  S  S220  1  0.02146000  0.81926000  0.46406000  1.0
  S  S221  1  0.20245000  0.18080000  0.03600000  1.0
  S  S222  1  0.97854000  0.18082000  0.53597000  1.0
  S  S223  1  0.79750000  0.81921000  0.96400000  1.0
  N  N224  1  0.46369000  0.82379000  0.75752000  1.0
  N  N225  1  0.63984000  0.17625000  0.74249000  1.0
  N  N226  1  0.53636000  0.17632000  0.24256000  1.0
  N  N227  1  0.36017000  0.82383000  0.25757000  1.0
  N  N228  1  0.22007000  0.67795000  0.49870000  1.0
  N  N229  1  0.54233000  0.32184000  0.00136000  1.0
  N  N230  1  0.77966000  0.32196000  0.50126000  1.0
  N  N231  1  0.45769000  0.67810000  0.99857000  1.0
  N  N232  1  0.24572000  0.82417000  0.63819000  1.0
  N  N233  1  0.42161000  0.17578000  0.86191000  1.0
  N  N234  1  0.75413000  0.17591000  0.36186000  1.0
  N  N235  1  0.57845000  0.82427000  0.13809000  1.0
  N  N236  1  0.87667000  0.36280000  0.00694000  1.0
  N  N237  1  0.51367000  0.63705000  0.49300000  1.0
  N  N238  1  0.12336000  0.63712000  0.99298000  1.0
  N  N239  1  0.48633000  0.36284000  0.50690000  1.0
  N  N240  1  0.87462000  0.90351000  0.42113000  1.0
  N  N241  1  0.97123000  0.09659000  0.07900000  1.0
  N  N242  1  0.12550000  0.09660000  0.57889000  1.0
  N  N243  1  0.02871000  0.90344000  0.92099000  1.0
  Cl  Cl244  1  0.61507000  0.85008000  0.57442000  1.0
  Cl  Cl245  1  0.76491000  0.14998000  0.92544000  1.0
  Cl  Cl246  1  0.38513000  0.15010000  0.42553000  1.0
  Cl  Cl247  1  0.23512000  0.84995000  0.07448000  1.0
  Cl  Cl248  1  0.67092000  0.69870000  0.67725000  1.0
  Cl  Cl249  1  0.97219000  0.30117000  0.82271000  1.0
  Cl  Cl250  1  0.32901000  0.30124000  0.32283000  1.0
  Cl  Cl251  1  0.02789000  0.69881000  0.17724000  1.0
  Cl  Cl252  1  0.22147000  0.62836000  0.66977000  1.0
  Cl  Cl253  1  0.59339000  0.37148000  0.83036000  1.0
  Cl  Cl254  1  0.77818000  0.37155000  0.33039000  1.0
  Cl  Cl255  1  0.40667000  0.62855000  0.16962000  1.0
