# generated using pymatgen
data_LiH2C2O3
_symmetry_space_group_name_H-M   'P 1'
_cell_length_a   5.36323000
_cell_length_b   5.55800000
_cell_length_c   11.27860000
_cell_angle_alpha   86.64630000
_cell_angle_beta   89.99230000
_cell_angle_gamma   61.17200000
_symmetry_Int_Tables_number   1
_chemical_formula_structural   LiH2C2O3
_chemical_formula_sum   'Li4 H8 C8 O12'
_cell_volume   293.88084568
_cell_formula_units_Z   4
loop_
 _symmetry_equiv_pos_site_id
 _symmetry_equiv_pos_as_xyz
  1  'x, y, z'
loop_
 _atom_site_type_symbol
 _atom_site_label
 _atom_site_symmetry_multiplicity
 _atom_site_fract_x
 _atom_site_fract_y
 _atom_site_fract_z
 _atom_site_occupancy
  Li  Li0  1  0.54552000  0.11289000  0.82726000  1.0
  Li  Li1  1  0.34237000  0.11262000  0.32722000  1.0
  Li  Li2  1  0.76658000  0.55400000  0.18569000  1.0
  Li  Li3  1  0.67897000  0.55402000  0.68568000  1.0
  H  H4  1  0.16759000  0.90897000  0.10076000  1.0
  H  H5  1  0.92329000  0.90833000  0.60040000  1.0
  H  H6  1  0.31433000  0.71628000  0.90762000  1.0
  H  H7  1  0.96993000  0.71573000  0.40714000  1.0
  H  H8  1  0.70824000  0.06156000  0.11384000  1.0
  H  H9  1  0.22991000  0.06103000  0.61368000  1.0
  H  H10  1  0.00278000  0.17125000  0.89157000  1.0
  H  H11  1  0.82678000  0.17099000  0.39148000  1.0
  C  C12  1  0.08981000  0.76983000  0.07181000  1.0
  C  C13  1  0.14018000  0.76920000  0.57152000  1.0
  C  C14  1  0.99811000  0.59112000  0.88419000  1.0
  C  C15  1  0.41161000  0.59071000  0.38407000  1.0
  C  C16  1  0.29142000  0.48030000  0.12551000  1.0
  C  C17  1  0.22787000  0.47972000  0.62531000  1.0
  C  C18  1  0.09313000  0.78442000  0.93363000  1.0
  C  C19  1  0.12292000  0.78379000  0.43336000  1.0
  O  O20  1  0.55706000  0.39150000  0.11391000  1.0
  O  O21  1  0.05114000  0.39069000  0.61390000  1.0
  O  O22  1  0.81085000  0.85424000  0.11185000  1.0
  O  O23  1  0.33466000  0.85377000  0.61163000  1.0
  O  O24  1  0.18315000  0.34738000  0.17963000  1.0
  O  O25  1  0.46905000  0.34691000  0.67938000  1.0
  O  O26  1  0.17075000  0.33407000  0.90019000  1.0
  O  O27  1  0.49636000  0.33356000  0.40005000  1.0
  O  O28  1  0.90515000  0.05480000  0.88692000  1.0
  O  O29  1  0.04080000  0.05432000  0.38681000  1.0
  O  O30  1  0.75583000  0.69598000  0.83100000  1.0
  O  O31  1  0.54898000  0.69580000  0.33098000  1.0
