# generated using pymatgen
data_CuH26C18(NO2)2
_symmetry_space_group_name_H-M   'P 1'
_cell_length_a   9.41454000
_cell_length_b   9.41460000
_cell_length_c   11.40410000
_cell_angle_alpha   73.32180000
_cell_angle_beta   73.32320000
_cell_angle_gamma   69.31170000
_symmetry_Int_Tables_number   1
_chemical_formula_structural   CuH26C18(NO2)2
_chemical_formula_sum   'Cu2 H52 C36 N4 O8'
_cell_volume   886.19664780
_cell_formula_units_Z   2
loop_
 _symmetry_equiv_pos_site_id
 _symmetry_equiv_pos_as_xyz
  1  'x, y, z'
loop_
 _atom_site_type_symbol
 _atom_site_label
 _atom_site_symmetry_multiplicity
 _atom_site_fract_x
 _atom_site_fract_y
 _atom_site_fract_z
 _atom_site_occupancy
  Cu  Cu0  1  0.00000000  0.50000000  0.00000000  1.0
  Cu  Cu1  1  0.00000000  0.50000000  0.50000000  1.0
  H  H2  1  0.11748000  0.56442000  0.77254000  1.0
  H  H3  1  0.93558000  0.38253000  0.72745000  1.0
  H  H4  1  0.88253000  0.43558000  0.22746000  1.0
  H  H5  1  0.06442000  0.61746000  0.27255000  1.0
  H  H6  1  0.16772000  0.75565000  0.91100000  1.0
  H  H7  1  0.74436000  0.33228000  0.58899000  1.0
  H  H8  1  0.83228000  0.24435000  0.08901000  1.0
  H  H9  1  0.25564000  0.66771000  0.41101000  1.0
  H  H10  1  0.29502000  0.57431000  0.87740000  1.0
  H  H11  1  0.92570000  0.20498000  0.62259000  1.0
  H  H12  1  0.70498000  0.42568000  0.12260000  1.0
  H  H13  1  0.07429000  0.79501000  0.37741000  1.0
  H  H14  1  0.37537000  0.79912000  0.72414000  1.0
  H  H15  1  0.70089000  0.12463000  0.77585000  1.0
  H  H16  1  0.62463000  0.20088000  0.27587000  1.0
  H  H17  1  0.29909000  0.87537000  0.22415000  1.0
  H  H18  1  0.32952000  0.68331000  0.65004000  1.0
  H  H19  1  0.81670000  0.17048000  0.84995000  1.0
  H  H20  1  0.67048000  0.31669000  0.34996000  1.0
  H  H21  1  0.18329000  0.82952000  0.15005000  1.0
  H  H22  1  0.20693000  0.96343000  0.56675000  1.0
  H  H23  1  0.53657000  0.29305000  0.93324000  1.0
  H  H24  1  0.79307000  0.03657000  0.43325000  1.0
  H  H25  1  0.46342000  0.70695000  0.06676000  1.0
  H  H26  1  0.11826000  0.99403000  0.71939000  1.0
  H  H27  1  0.50597000  0.38173000  0.78060000  1.0
  H  H28  1  0.88174000  0.00596000  0.28061000  1.0
  H  H29  1  0.49403000  0.61827000  0.21940000  1.0
  H  H30  1  0.05421000  0.78312000  0.59075000  1.0
  H  H31  1  0.71689000  0.44578000  0.90924000  1.0
  H  H32  1  0.94580000  0.21688000  0.40926000  1.0
  H  H33  1  0.28311000  0.55423000  0.09075000  1.0
  H  H34  1  0.92507000  0.96161000  0.62604000  1.0
  H  H35  1  0.53840000  0.57491000  0.87396000  1.0
  H  H36  1  0.07493000  0.03838000  0.37396000  1.0
  H  H37  1  0.46160000  0.42510000  0.12604000  1.0
  H  H38  1  0.91251000  0.85275000  0.85391000  1.0
  H  H39  1  0.64724000  0.58750000  0.64609000  1.0
  H  H40  1  0.08750000  0.14724000  0.14610000  1.0
  H  H41  1  0.35277000  0.41249000  0.35390000  1.0
  H  H42  1  0.85816000  0.73778000  0.78673000  1.0
  H  H43  1  0.76221000  0.64184000  0.71327000  1.0
  H  H44  1  0.14184000  0.26221000  0.21328000  1.0
  H  H45  1  0.23780000  0.35815000  0.28672000  1.0
  H  H46  1  0.37539000  0.00324000  0.98253000  1.0
  H  H47  1  0.49679000  0.12457000  0.51751000  1.0
  H  H48  1  0.62461000  0.99678000  0.01747000  1.0
  H  H49  1  0.50322000  0.87542000  0.48248000  1.0
  H  H50  1  0.60553000  0.83068000  0.86772000  1.0
  H  H51  1  0.66933000  0.89446000  0.63235000  1.0
  H  H52  1  0.39447000  0.16933000  0.13229000  1.0
  H  H53  1  0.33068000  0.10555000  0.36765000  1.0
  C  C54  1  0.20957000  0.68104000  0.84201000  1.0
  C  C55  1  0.81896000  0.29043000  0.65799000  1.0
  C  C56  1  0.79043000  0.31896000  0.15800000  1.0
  C  C57  1  0.18103000  0.70957000  0.34201000  1.0
  C  C58  1  0.28000000  0.76482000  0.71419000  1.0
  C  C59  1  0.73518000  0.21999000  0.78580000  1.0
  C  C60  1  0.71999000  0.23518000  0.28581000  1.0
  C  C61  1  0.26481000  0.78001000  0.21420000  1.0
  C  C62  1  0.15725000  0.90700000  0.66058000  1.0
  C  C63  1  0.59300000  0.34275000  0.83941000  1.0
  C  C64  1  0.84275000  0.09299000  0.33942000  1.0
  C  C65  1  0.40700000  0.65726000  0.16059000  1.0
  C  C66  1  0.01880000  0.85998000  0.65740000  1.0
  C  C67  1  0.64002000  0.48119000  0.84259000  1.0
  C  C68  1  0.98120000  0.14002000  0.34260000  1.0
  C  C69  1  0.35998000  0.51882000  0.15740000  1.0
  C  C70  1  0.95559000  0.77540000  0.78711000  1.0
  C  C71  1  0.72459000  0.54441000  0.71289000  1.0
  C  C72  1  0.04441000  0.22459000  0.21290000  1.0
  C  C73  1  0.27542000  0.45558000  0.28711000  1.0
  C  C74  1  0.16830000  0.26694000  0.88360000  1.0
  C  C75  1  0.23308000  0.33172000  0.61640000  1.0
  C  C76  1  0.83170000  0.73307000  0.11639000  1.0
  C  C77  1  0.76692000  0.66829000  0.38360000  1.0
  C  C78  1  0.30693000  0.16012000  0.81578000  1.0
  C  C79  1  0.33988000  0.19308000  0.68423000  1.0
  C  C80  1  0.69308000  0.83989000  0.18421000  1.0
  C  C81  1  0.66012000  0.80693000  0.31576000  1.0
  C  C82  1  0.40266000  0.02911000  0.88056000  1.0
  C  C83  1  0.47089000  0.09732000  0.61948000  1.0
  C  C84  1  0.59734000  0.97090000  0.11944000  1.0
  C  C85  1  0.52912000  0.90268000  0.38052000  1.0
  C  C86  1  0.53208000  0.93237000  0.81547000  1.0
  C  C87  1  0.56763000  0.96791000  0.68458000  1.0
  C  C88  1  0.46792000  0.06764000  0.18453000  1.0
  C  C89  1  0.43238000  0.03210000  0.31542000  1.0
  N  N90  1  0.07559000  0.63675000  0.83600000  1.0
  N  N91  1  0.86323000  0.42441000  0.66400000  1.0
  N  N92  1  0.92442000  0.36324000  0.16400000  1.0
  N  N93  1  0.13678000  0.57558000  0.33599000  1.0
  O  O94  1  0.19691000  0.33136000  0.95643000  1.0
  O  O95  1  0.16864000  0.30311000  0.54359000  1.0
  O  O96  1  0.80309000  0.66864000  0.04358000  1.0
  O  O97  1  0.83136000  0.69688000  0.45641000  1.0
  O  O98  1  0.03511000  0.29198000  0.86524000  1.0
  O  O99  1  0.20809000  0.46489000  0.63475000  1.0
  O  O100  1  0.96489000  0.70803000  0.13475000  1.0
  O  O101  1  0.79191000  0.53511000  0.36525000  1.0
