# generated using pymatgen
data_Zn4H47C47N5O13
_symmetry_space_group_name_H-M   'P 1'
_cell_length_a   13.11000000
_cell_length_b   19.15740000
_cell_length_c   19.30720000
_cell_angle_alpha   85.07290000
_cell_angle_beta   84.40090000
_cell_angle_gamma   84.02600000
_symmetry_Int_Tables_number   1
_chemical_formula_structural   Zn4H47C47N5O13
_chemical_formula_sum   'Zn4 H47 C47 N5 O13'
_cell_volume   4785.65760163
_cell_formula_units_Z   1
loop_
 _symmetry_equiv_pos_site_id
 _symmetry_equiv_pos_as_xyz
  1  'x, y, z'
loop_
 _atom_site_type_symbol
 _atom_site_label
 _atom_site_symmetry_multiplicity
 _atom_site_fract_x
 _atom_site_fract_y
 _atom_site_fract_z
 _atom_site_occupancy
  Zn  Zn0  1  0.42124000  0.56307000  0.44665000  1.0
  Zn  Zn1  1  0.41924000  0.44580000  0.57272000  1.0
  Zn  Zn2  1  0.60131000  0.54479000  0.55175000  1.0
  Zn  Zn3  1  0.58811000  0.43380000  0.43741000  1.0
  H  H4  1  0.91820000  0.54003000  0.53049000  1.0
  H  H5  1  0.50450000  0.90919000  0.37799000  1.0
  H  H6  1  0.61365000  0.42775000  0.22181000  1.0
  H  H7  1  0.59854000  0.22034000  0.42419000  1.0
  H  H8  1  0.92354000  0.46021000  0.39794000  1.0
  H  H9  1  0.08210000  0.50215000  0.57546000  1.0
  H  H10  1  0.36924000  0.47745000  0.78152000  1.0
  H  H11  1  0.54665000  0.75926000  0.59564000  1.0
  H  H12  1  0.33968000  0.58268000  0.10769000  1.0
  H  H13  1  0.37064000  0.10110000  0.60853000  1.0
  H  H14  1  0.35563000  0.58526000  0.23642000  1.0
  H  H15  1  0.37278000  0.23313000  0.60067000  1.0
  H  H16  1  0.60181000  0.42850000  0.09232000  1.0
  H  H17  1  0.18388000  0.54408000  0.39903000  1.0
  H  H18  1  0.09534000  0.59236000  0.30279000  1.0
  H  H19  1  0.97457000  0.57787000  0.34952000  1.0
  H  H20  1  0.05189000  0.50679000  0.31094000  1.0
  H  H21  1  0.19640000  0.45113000  0.04208000  1.0
  H  H22  1  0.59371000  0.08887000  0.43043000  1.0
  H  H23  1  0.14141000  0.42140000  0.97078000  1.0
  H  H24  1  0.19431000  0.35949000  0.03470000  1.0
  H  H25  1  0.31886000  0.36595000  0.92724000  1.0
  H  H26  1  0.37093000  0.39742000  0.99803000  1.0
  H  H27  1  0.30795000  0.52201000  0.95386000  1.0
  H  H28  1  0.26619000  0.48690000  0.88050000  1.0
  H  H29  1  0.62778000  0.99789000  0.69164000  1.0
  H  H30  1  0.68022000  0.91343000  0.72376000  1.0
  H  H31  1  0.76124000  0.97186000  0.67452000  1.0
  H  H32  1  0.72203000  0.87977000  0.59876000  1.0
  H  H33  1  0.66819000  0.96353000  0.56827000  1.0
  H  H34  1  0.49697000  0.93697000  0.63254000  1.0
  H  H35  1  0.55325000  0.85209000  0.65952000  1.0
  H  H36  1  0.93667000  0.49730000  0.72107000  1.0
  H  H37  1  0.86615000  0.51209000  0.64630000  1.0
  H  H38  1  0.91118000  0.58420000  0.68257000  1.0
  H  H39  1  0.68662000  0.47483000  0.89906000  1.0
  H  H40  1  0.72115000  0.57897000  0.71515000  1.0
  H  H41  1  0.78903000  0.56468000  0.79062000  1.0
  H  H42  1  0.78393000  0.43598000  0.79053000  1.0
  H  H43  1  0.72820000  0.44657000  0.71014000  1.0
  H  H44  1  0.42903000  0.77643000  0.22228000  1.0
  H  H45  1  0.41442000  0.69208000  0.26579000  1.0
  H  H46  1  0.30397000  0.75117000  0.24945000  1.0
  H  H47  1  0.34071000  0.74885000  0.37551000  1.0
  H  H48  1  0.35520000  0.83303000  0.33281000  1.0
  H  H49  1  0.54557000  0.80195000  0.31467000  1.0
  H  H50  1  0.53091000  0.71735000  0.35639000  1.0
  C  C51  1  0.52860000  0.48251000  0.68991000  1.0
  C  C52  1  0.54565000  0.12123000  0.46700000  1.0
  C  C53  1  0.54864000  0.46234000  0.12464000  1.0
  C  C54  1  0.47083000  0.50644000  0.09301000  1.0
  C  C55  1  0.48105000  0.08822000  0.51956000  1.0
  C  C56  1  0.40000000  0.54982000  0.13348000  1.0
  C  C57  1  0.41920000  0.12834000  0.56810000  1.0
  C  C58  1  0.51372000  0.68354000  0.49438000  1.0
  C  C59  1  0.40873000  0.55095000  0.20451000  1.0
  C  C60  1  0.42062000  0.20102000  0.56381000  1.0
  C  C61  1  0.42897000  0.48134000  0.88052000  1.0
  C  C62  1  0.53285000  0.86592000  0.55105000  1.0
  C  C63  1  0.43854000  0.47880000  0.80825000  1.0
  C  C64  1  0.53392000  0.79337000  0.54841000  1.0
  C  C65  1  0.52249000  0.48216000  0.91219000  1.0
  C  C66  1  0.51746000  0.90733000  0.48746000  1.0
  C  C67  1  0.53307000  0.47887000  0.76721000  1.0
  C  C68  1  0.51799000  0.76149000  0.48796000  1.0
  C  C69  1  0.62611000  0.47676000  0.79877000  1.0
  C  C70  1  0.50760000  0.80240000  0.42426000  1.0
  C  C71  1  0.49433000  0.50638000  0.31281000  1.0
  C  C72  1  0.49178000  0.31157000  0.50906000  1.0
  C  C73  1  0.61753000  0.47735000  0.87127000  1.0
  C  C74  1  0.55516000  0.46221000  0.19589000  1.0
  C  C75  1  0.51002000  0.87487000  0.42589000  1.0
  C  C76  1  0.78375000  0.48224000  0.46709000  1.0
  C  C77  1  0.23187000  0.51368000  0.52117000  1.0
  C  C78  1  0.12183000  0.51567000  0.52478000  1.0
  C  C79  1  0.06424000  0.52659000  0.46733000  1.0
  C  C80  1  0.54810000  0.19359000  0.46369000  1.0
  C  C81  1  0.89441000  0.48629000  0.44482000  1.0
  C  C82  1  0.95388000  0.51904000  0.48208000  1.0
  C  C83  1  0.48602000  0.50687000  0.23629000  1.0
  C  C84  1  0.48589000  0.23400000  0.51202000  1.0
  C  C85  1  0.05397000  0.55481000  0.33831000  1.0
  C  C86  1  0.32363000  0.47895000  0.91917000  1.0
  C  C87  1  0.30949000  0.40881000  0.96258000  1.0
  C  C88  1  0.20466000  0.41011000  0.00483000  1.0
  C  C89  1  0.55600000  0.89478000  0.61756000  1.0
  C  C90  1  0.66270000  0.92282000  0.61193000  1.0
  C  C91  1  0.68423000  0.95312000  0.67911000  1.0
  C  C92  1  0.73126000  0.47127000  0.75911000  1.0
  C  C93  1  0.77723000  0.54205000  0.74177000  1.0
  C  C94  1  0.87856000  0.53362000  0.69553000  1.0
  C  C95  1  0.49865000  0.77264000  0.35549000  1.0
  C  C96  1  0.38778000  0.77758000  0.33455000  1.0
  C  C97  1  0.38339000  0.74773000  0.26416000  1.0
  N  N98  1  0.45568000  0.50794000  0.02153000  1.0
  N  N99  1  0.10600000  0.54093000  0.40151000  1.0
  N  N100  1  0.47751000  0.01465000  0.52962000  1.0
  N  N101  1  0.53460000  0.48553000  0.98346000  1.0
  N  N102  1  0.51304000  0.98128000  0.47726000  1.0
  O  O103  1  0.50981000  0.49651000  0.50245000  1.0
  O  O104  1  0.42932000  0.34639000  0.55135000  1.0
  O  O105  1  0.57661000  0.64744000  0.53316000  1.0
  O  O106  1  0.58954000  0.52167000  0.65286000  1.0
  O  O107  1  0.55976000  0.33655000  0.46435000  1.0
  O  O108  1  0.55146000  0.45566000  0.34059000  1.0
  O  O109  1  0.74513000  0.51600000  0.51920000  1.0
  O  O110  1  0.27799000  0.49035000  0.57570000  1.0
  O  O111  1  0.28064000  0.53557000  0.46227000  1.0
  O  O112  1  0.73631000  0.44527000  0.43092000  1.0
  O  O113  1  0.46222000  0.44799000  0.66747000  1.0
  O  O114  1  0.44620000  0.65967000  0.46167000  1.0
  O  O115  1  0.44380000  0.55678000  0.34455000  1.0
