# generated using pymatgen
data_CuH22C19O7
_symmetry_space_group_name_H-M   'P 1'
_cell_length_a   8.22358000
_cell_length_b   9.16290000
_cell_length_c   13.62546092
_cell_angle_alpha   70.37277221
_cell_angle_beta   84.68461523
_cell_angle_gamma   73.97040000
_symmetry_Int_Tables_number   1
_chemical_formula_structural   CuH22C19O7
_chemical_formula_sum   'Cu2 H44 C38 O14'
_cell_volume   929.45025571
_cell_formula_units_Z   2
loop_
 _symmetry_equiv_pos_site_id
 _symmetry_equiv_pos_as_xyz
  1  'x, y, z'
loop_
 _atom_site_type_symbol
 _atom_site_label
 _atom_site_symmetry_multiplicity
 _atom_site_fract_x
 _atom_site_fract_y
 _atom_site_fract_z
 _atom_site_occupancy
  Cu  Cu0  1  0.56166000  0.20609000  0.45163000  1.0
  Cu  Cu1  1  0.06188000  0.65772000  0.54834000  1.0
  H  H2  1  0.40562000  0.98642000  0.52145000  1.0
  H  H3  1  0.90600000  0.50759000  0.47851000  1.0
  H  H4  1  0.65454000  0.51729000  0.23129000  1.0
  H  H5  1  0.15425000  0.74912000  0.76867000  1.0
  H  H6  1  0.85874000  0.65056000  0.12181000  1.0
  H  H7  1  0.35828000  0.77306000  0.87829000  1.0
  H  H8  1  0.11683000  0.63046000  0.00937000  1.0
  H  H9  1  0.61639000  0.64062000  0.99082000  1.0
  H  H10  1  0.30685000  0.36444000  0.01814000  1.0
  H  H11  1  0.80655000  0.38351000  0.98195000  1.0
  H  H12  1  0.23302000  0.11498000  0.13449000  1.0
  H  H13  1  0.73305000  0.25043000  0.86541000  1.0
  H  H14  1  0.97622000  0.13641000  0.24589000  1.0
  H  H15  1  0.47620000  0.38304000  0.75403000  1.0
  H  H16  1  0.49121000  0.21008000  0.22330000  1.0
  H  H17  1  0.99130000  0.43369000  0.77669000  1.0
  H  H18  1  0.47077000  0.42078000  0.18131000  1.0
  H  H19  1  0.97081000  0.60238000  0.81876000  1.0
  H  H20  1  0.62932000  0.29487000  0.12394000  1.0
  H  H21  1  0.12954000  0.41920000  0.87602000  1.0
  H  H22  1  0.13217000  0.60740000  0.27524000  1.0
  H  H23  1  0.63216000  0.88252000  0.72482000  1.0
  H  H24  1  0.25892000  0.71676000  0.11216000  1.0
  H  H25  1  0.75956000  0.82880000  0.88786000  1.0
  H  H26  1  0.45221000  0.87616000  0.00416000  1.0
  H  H27  1  0.95272000  0.88070000  0.99573000  1.0
  H  H28  1  0.62225000  0.98918000  0.08724000  1.0
  H  H29  1  0.12201000  0.07739000  0.91258000  1.0
  H  H30  1  0.58962000  0.94980000  0.27843000  1.0
  H  H31  1  0.08906000  0.22884000  0.72136000  1.0
  H  H32  1  0.39188000  0.79922000  0.38370000  1.0
  H  H33  1  0.89135000  0.18313000  0.61626000  1.0
  H  H34  1  0.96442000  0.91850000  0.21948000  1.0
  H  H35  1  0.46467000  0.13820000  0.78054000  1.0
  H  H36  1  0.84167000  0.92939000  0.33438000  1.0
  H  H37  1  0.34166000  0.26381000  0.66572000  1.0
  H  H38  1  0.85823000  0.76479000  0.28618000  1.0
  H  H39  1  0.35808000  0.05107000  0.71408000  1.0
  H  H40  1  0.21040000  0.23397000  0.34838000  1.0
  H  H41  1  0.71100000  0.58203000  0.65168000  1.0
  H  H42  1  0.15650000  0.06112000  0.43976000  1.0
  H  H43  1  0.65703000  0.50058000  0.56024000  1.0
  H  H44  1  0.16475000  0.22626000  0.48059000  1.0
  H  H45  1  0.66514000  0.70654000  0.51950000  1.0
  C  C46  1  0.79735000  0.39955000  0.37085000  1.0
  C  C47  1  0.29724000  0.77072000  0.62916000  1.0
  C  C48  1  0.75034000  0.40155000  0.26310000  1.0
  C  C49  1  0.25012000  0.66516000  0.73690000  1.0
  C  C50  1  0.90206000  0.39407000  0.19129000  1.0
  C  C51  1  0.40182000  0.58600000  0.80877000  1.0
  C  C52  1  0.94174000  0.53336000  0.12437000  1.0
  C  C53  1  0.44138000  0.65849000  0.87572000  1.0
  C  C54  1  0.08691000  0.52205000  0.06241000  1.0
  C  C55  1  0.58651000  0.58527000  0.93772000  1.0
  C  C56  1  0.19300000  0.37194000  0.06623000  1.0
  C  C57  1  0.69272000  0.43906000  0.93384000  1.0
  C  C58  1  0.15176000  0.23272000  0.13120000  1.0
  C  C59  1  0.65170000  0.36484000  0.86874000  1.0
  C  C60  1  0.00751000  0.24424000  0.19357000  1.0
  C  C61  1  0.50742000  0.43859000  0.80639000  1.0
  C  C62  1  0.56111000  0.30208000  0.19613000  1.0
  C  C63  1  0.06117000  0.49856000  0.80388000  1.0
  C  C64  1  0.28398000  0.50966000  0.41088000  1.0
  C  C65  1  0.78376000  0.92037000  0.58909000  1.0
  C  C66  1  0.19284000  0.65645000  0.32144000  1.0
  C  C67  1  0.69273000  0.97776000  0.67858000  1.0
  C  C68  1  0.31517000  0.74571000  0.25493000  1.0
  C  C69  1  0.81505000  0.00076000  0.74505000  1.0
  C  C70  1  0.33197000  0.76844000  0.14807000  1.0
  C  C71  1  0.83228000  0.91662000  0.85189000  1.0
  C  C72  1  0.44215000  0.85607000  0.08781000  1.0
  C  C73  1  0.94239000  0.94427000  0.91209000  1.0
  C  C74  1  0.53722000  0.91995000  0.13436000  1.0
  C  C75  1  0.03708000  0.05499000  0.86551000  1.0
  C  C76  1  0.51926000  0.89824000  0.24115000  1.0
  C  C77  1  0.01886000  0.13992000  0.75872000  1.0
  C  C78  1  0.40864000  0.81248000  0.30101000  1.0
  C  C79  1  0.90826000  0.11377000  0.69894000  1.0
  C  C80  1  0.92416000  0.84820000  0.29616000  1.0
  C  C81  1  0.42413000  0.14442000  0.70394000  1.0
  C  C82  1  0.22158000  0.15509000  0.42938000  1.0
  C  C83  1  0.72207000  0.58420000  0.57066000  1.0
  O  O84  1  0.73390000  0.31879000  0.45323000  1.0
  O  O85  1  0.23396000  0.77214000  0.54676000  1.0
  O  O86  1  0.89510000  0.48386000  0.37156000  1.0
  O  O87  1  0.39488000  0.85583000  0.62848000  1.0
  O  O88  1  0.67586000  0.27242000  0.27762000  1.0
  O  O89  1  0.17575000  0.55051000  0.72235000  1.0
  O  O90  1  0.24072000  0.49069000  0.50496000  1.0
  O  O91  1  0.74019000  0.99538000  0.49506000  1.0
  O  O92  1  0.40027000  0.41201000  0.37917000  1.0
  O  O93  1  0.90026000  0.79118000  0.62072000  1.0
  O  O94  1  0.06623000  0.76068000  0.36400000  1.0
  O  O95  1  0.56600000  0.12443000  0.63600000  1.0
  O  O96  1  0.39871000  0.07915000  0.45237000  1.0
  O  O97  1  0.89918000  0.53134000  0.54758000  1.0
