# generated using pymatgen
data_AgH4C6NO2
_symmetry_space_group_name_H-M   'P 1'
_cell_length_a   7.14701000
_cell_length_b   19.80840000
_cell_length_c   19.80840000
_cell_angle_alpha   74.35680000
_cell_angle_beta   79.59730000
_cell_angle_gamma   79.59730000
_symmetry_Int_Tables_number   1
_chemical_formula_structural   AgH4C6NO2
_chemical_formula_sum   'Ag16 H64 C96 N16 O32'
_cell_volume   2630.15993256
_cell_formula_units_Z   16
loop_
 _symmetry_equiv_pos_site_id
 _symmetry_equiv_pos_as_xyz
  1  'x, y, z'
loop_
 _atom_site_type_symbol
 _atom_site_label
 _atom_site_symmetry_multiplicity
 _atom_site_fract_x
 _atom_site_fract_y
 _atom_site_fract_z
 _atom_site_occupancy
  Ag  Ag0  1  0.51442000  0.52206000  0.05929000  1.0
  Ag  Ag1  1  0.90443000  0.55932000  0.02206000  1.0
  Ag  Ag2  1  0.98558000  0.94071000  0.47794000  1.0
  Ag  Ag3  1  0.59557000  0.97794000  0.44068000  1.0
  Ag  Ag4  1  0.48559000  0.47794000  0.94071000  1.0
  Ag  Ag5  1  0.09557000  0.44068000  0.97794000  1.0
  Ag  Ag6  1  0.01442000  0.05929000  0.52206000  1.0
  Ag  Ag7  1  0.40444000  0.02206000  0.55932000  1.0
  Ag  Ag8  1  0.96583000  0.04203000  0.93216000  1.0
  Ag  Ag9  1  0.05993000  0.43223000  0.54206000  1.0
  Ag  Ag10  1  0.53416000  0.06784000  0.95797000  1.0
  Ag  Ag11  1  0.44007000  0.45794000  0.56777000  1.0
  Ag  Ag12  1  0.03417000  0.95797000  0.06784000  1.0
  Ag  Ag13  1  0.94007000  0.56777000  0.45794000  1.0
  Ag  Ag14  1  0.46584000  0.93216000  0.04203000  1.0
  Ag  Ag15  1  0.55993000  0.54206000  0.43223000  1.0
  H  H16  1  0.73037000  0.45459000  0.19257000  1.0
  H  H17  1  0.62276000  0.69271000  0.95442000  1.0
  H  H18  1  0.76963000  0.80743000  0.54541000  1.0
  H  H19  1  0.87724000  0.04558000  0.30729000  1.0
  H  H20  1  0.26963000  0.54541000  0.80743000  1.0
  H  H21  1  0.37723000  0.30729000  0.04558000  1.0
  H  H22  1  0.23037000  0.19257000  0.45459000  1.0
  H  H23  1  0.12277000  0.95442000  0.69271000  1.0
  H  H24  1  0.75100000  0.46671000  0.31584000  1.0
  H  H25  1  0.46626000  0.81591000  0.96675000  1.0
  H  H26  1  0.74900000  0.68416000  0.53329000  1.0
  H  H27  1  0.03374000  0.03325000  0.18409000  1.0
  H  H28  1  0.24900000  0.53329000  0.68416000  1.0
  H  H29  1  0.53374000  0.18409000  0.03325000  1.0
  H  H30  1  0.25100000  0.31584000  0.46671000  1.0
  H  H31  1  0.96627000  0.96675000  0.81591000  1.0
  H  H32  1  0.35278000  0.64829000  0.28485000  1.0
  H  H33  1  0.71460000  0.78485000  0.14817000  1.0
  H  H34  1  0.14722000  0.71515000  0.35171000  1.0
  H  H35  1  0.78539000  0.85183000  0.21515000  1.0
  H  H36  1  0.64722000  0.35171000  0.71515000  1.0
  H  H37  1  0.28540000  0.21516000  0.85183000  1.0
  H  H38  1  0.85278000  0.28485000  0.64829000  1.0
  H  H39  1  0.21460000  0.14817000  0.78485000  1.0
  H  H40  1  0.33530000  0.63718000  0.16172000  1.0
  H  H41  1  0.86617000  0.66172000  0.13698000  1.0
  H  H42  1  0.16469000  0.83828000  0.36282000  1.0
  H  H43  1  0.63383000  0.86302000  0.33827000  1.0
  H  H44  1  0.66470000  0.36282000  0.83828000  1.0
  H  H45  1  0.13383000  0.33828000  0.86302000  1.0
  H  H46  1  0.83530000  0.16172000  0.63718000  1.0
  H  H47  1  0.36617000  0.13698000  0.66172000  1.0
  H  H48  1  0.10483000  0.66658000  0.83322000  1.0
  H  H49  1  0.39620000  0.33333333  0.16635000  1.0
  H  H50  1  0.39518000  0.16678000  0.33342000  1.0
  H  H51  1  0.10381000  0.83364000  0.66666667  1.0
  H  H52  1  0.89518000  0.33342000  0.16678000  1.0
  H  H53  1  0.60380000  0.66666667  0.83364000  1.0
  H  H54  1  0.60482000  0.83322000  0.66658000  1.0
  H  H55  1  0.89620000  0.16636000  0.33329000  1.0
  H  H56  1  0.88710000  0.77942000  0.79131000  1.0
  H  H57  1  0.54310000  0.29130000  0.27915000  1.0
  H  H58  1  0.61290000  0.20869000  0.22058000  1.0
  H  H59  1  0.95691000  0.72085000  0.70870000  1.0
  H  H60  1  0.11291000  0.22058000  0.20869000  1.0
  H  H61  1  0.45690000  0.70870000  0.72085000  1.0
  H  H62  1  0.38709000  0.79131000  0.77942000  1.0
  H  H63  1  0.04309000  0.27915000  0.29130000  1.0
  H  H64  1  0.83080000  0.87290000  0.85681000  1.0
  H  H65  1  0.44004000  0.35660000  0.37277000  1.0
  H  H66  1  0.66920000  0.14319000  0.12710000  1.0
  H  H67  1  0.05996000  0.62723000  0.64340000  1.0
  H  H68  1  0.16921000  0.12710000  0.14319000  1.0
  H  H69  1  0.55996000  0.64340000  0.62723000  1.0
  H  H70  1  0.33079000  0.85681000  0.87290000  1.0
  H  H71  1  0.94004000  0.37277000  0.35660000  1.0
  H  H72  1  0.18570000  0.74130000  0.00897000  1.0
  H  H73  1  0.06411000  0.50880000  0.24136000  1.0
  H  H74  1  0.31429000  0.99103000  0.25870000  1.0
  H  H75  1  0.43589000  0.75864000  0.49120000  1.0
  H  H76  1  0.81429000  0.25870000  0.99103000  1.0
  H  H77  1  0.93589000  0.49120000  0.75864000  1.0
  H  H78  1  0.68571000  0.00897000  0.74130000  1.0
  H  H79  1  0.56411000  0.24136000  0.50880000  1.0
  C  C80  1  0.64835000  0.49843000  0.21317000  1.0
  C  C81  1  0.64031000  0.71329000  0.99826000  1.0
  C  C82  1  0.85165000  0.78683000  0.50157000  1.0
  C  C83  1  0.85968000  0.00174000  0.28671000  1.0
  C  C84  1  0.35165000  0.50157000  0.78683000  1.0
  C  C85  1  0.35969000  0.28671000  0.00174000  1.0
  C  C86  1  0.14835000  0.21317000  0.49843000  1.0
  C  C87  1  0.14032000  0.99826000  0.71329000  1.0
  C  C88  1  0.66012000  0.50510000  0.28060000  1.0
  C  C89  1  0.55429000  0.78069000  0.00504000  1.0
  C  C90  1  0.83988000  0.71940000  0.49490000  1.0
  C  C91  1  0.94570000  0.99496000  0.21931000  1.0
  C  C92  1  0.33988000  0.49490000  0.71939000  1.0
  C  C93  1  0.44570000  0.21932000  0.99496000  1.0
  C  C94  1  0.16012000  0.28060000  0.50510000  1.0
  C  C95  1  0.05430000  0.00504000  0.78068000  1.0
  C  C96  1  0.43978000  0.60532000  0.26391000  1.0
  C  C97  1  0.69140000  0.76393000  0.10521000  1.0
  C  C98  1  0.06022000  0.73609000  0.39468000  1.0
  C  C99  1  0.80859000  0.89479000  0.23607000  1.0
  C  C100  1  0.56022000  0.39468000  0.73609000  1.0
  C  C101  1  0.30860000  0.23608000  0.89479000  1.0
  C  C102  1  0.93978000  0.26391000  0.60532000  1.0
  C  C103  1  0.19140000  0.10521000  0.76393000  1.0
  C  C104  1  0.42909000  0.59912000  0.19632000  1.0
  C  C105  1  0.77584000  0.69637000  0.09893000  1.0
  C  C106  1  0.07090000  0.80368000  0.40088000  1.0
  C  C107  1  0.72416000  0.90106000  0.30363000  1.0
  C  C108  1  0.57090000  0.40088000  0.80368000  1.0
  C  C109  1  0.22416000  0.30364000  0.90107000  1.0
  C  C110  1  0.92910000  0.19632000  0.59912000  1.0
  C  C111  1  0.27584000  0.09893000  0.69637000  1.0
  C  C112  1  0.28028000  0.62806000  0.95075000  1.0
  C  C113  1  0.14111000  0.45069000  0.12803000  1.0
  C  C114  1  0.21972000  0.04925000  0.37194000  1.0
  C  C115  1  0.35889000  0.87197000  0.54931000  1.0
  C  C116  1  0.71973000  0.37194000  0.04926000  1.0
  C  C117  1  0.85889000  0.54931000  0.87197000  1.0
  C  C118  1  0.78028000  0.95074000  0.62806000  1.0
  C  C119  1  0.64111000  0.12803000  0.45069000  1.0
  C  C120  1  0.15826000  0.69707000  0.92351000  1.0
  C  C121  1  0.22160000  0.42346000  0.19699000  1.0
  C  C122  1  0.34174000  0.07649000  0.30293000  1.0
  C  C123  1  0.27841000  0.80301000  0.57654000  1.0
  C  C124  1  0.84173000  0.30293000  0.07649000  1.0
  C  C125  1  0.77840000  0.57654000  0.80301000  1.0
  C  C126  1  0.65827000  0.92351000  0.69707000  1.0
  C  C127  1  0.72160000  0.19699000  0.42346000  1.0
  C  C128  1  0.07578000  0.70814000  0.86161000  1.0
  C  C129  1  0.35520000  0.36161000  0.20797000  1.0
  C  C130  1  0.42421000  0.13839000  0.29186000  1.0
  C  C131  1  0.14480000  0.79203000  0.63839000  1.0
  C  C132  1  0.92421000  0.29186000  0.13839000  1.0
  C  C133  1  0.64480000  0.63839000  0.79203000  1.0
  C  C134  1  0.57579000  0.86161000  0.70814000  1.0
  C  C135  1  0.85520000  0.20797000  0.36161000  1.0
  C  C136  1  0.95628000  0.77099000  0.83816000  1.0
  C  C137  1  0.43533000  0.33812000  0.27080000  1.0
  C  C138  1  0.54372000  0.16184000  0.22901000  1.0
  C  C139  1  0.06468000  0.72920000  0.66188000  1.0
  C  C140  1  0.04372000  0.22901000  0.16184000  1.0
  C  C141  1  0.56467000  0.66189000  0.72920000  1.0
  C  C142  1  0.45628000  0.83816000  0.77099000  1.0
  C  C143  1  0.93533000  0.27080000  0.33811000  1.0
  C  C144  1  0.92354000  0.82376000  0.87489000  1.0
  C  C145  1  0.37836000  0.37473000  0.32365000  1.0
  C  C146  1  0.57646000  0.12511000  0.17624000  1.0
  C  C147  1  0.12165000  0.67635000  0.62526000  1.0
  C  C148  1  0.07646000  0.17623000  0.12511000  1.0
  C  C149  1  0.62164000  0.62527000  0.67635000  1.0
  C  C150  1  0.42354000  0.87489000  0.82376000  1.0
  C  C151  1  0.87835000  0.32365000  0.37473000  1.0
  C  C152  1  0.00861000  0.81417000  0.93594000  1.0
  C  C153  1  0.24168000  0.43578000  0.31413000  1.0
  C  C154  1  0.49139000  0.06406000  0.18583000  1.0
  C  C155  1  0.25833000  0.68587000  0.56422000  1.0
  C  C156  1  0.99139000  0.18582000  0.06406000  1.0
  C  C157  1  0.75833000  0.56422000  0.68587000  1.0
  C  C158  1  0.50861000  0.93594000  0.81417000  1.0
  C  C159  1  0.74167000  0.31413000  0.43578000  1.0
  C  C160  1  0.12280000  0.75008000  0.96069000  1.0
  C  C161  1  0.16670000  0.46056000  0.25007000  1.0
  C  C162  1  0.37720000  0.03931000  0.24992000  1.0
  C  C163  1  0.33333333  0.74993000  0.53944000  1.0
  C  C164  1  0.87720000  0.24992000  0.03931000  1.0
  C  C165  1  0.83330000  0.53944000  0.74993000  1.0
  C  C166  1  0.62280000  0.96069000  0.75008000  1.0
  C  C167  1  0.66666667  0.25007000  0.46056000  1.0
  C  C168  1  0.98491000  0.87436000  0.97093000  1.0
  C  C169  1  0.17011000  0.47069000  0.37438000  1.0
  C  C170  1  0.51509000  0.02907000  0.12564000  1.0
  C  C171  1  0.32989000  0.62561000  0.52931000  1.0
  C  C172  1  0.01509000  0.12564000  0.02907000  1.0
  C  C173  1  0.82989000  0.52931000  0.62561000  1.0
  C  C174  1  0.48491000  0.97093000  0.87436000  1.0
  C  C175  1  0.67011000  0.37439000  0.47069000  1.0
  N  N176  1  0.53332000  0.54544000  0.17100000  1.0
  N  N177  1  0.75055000  0.67109000  0.04524000  1.0
  N  N178  1  0.96667000  0.82900000  0.45456000  1.0
  N  N179  1  0.74945000  0.95476000  0.32891000  1.0
  N  N180  1  0.46668000  0.45457000  0.82900000  1.0
  N  N181  1  0.24944000  0.32891000  0.95476000  1.0
  N  N182  1  0.03332000  0.17100000  0.54543000  1.0
  N  N183  1  0.25056000  0.04524000  0.67109000  1.0
  N  N184  1  0.55583000  0.55851000  0.30623000  1.0
  N  N185  1  0.57964000  0.80626000  0.05846000  1.0
  N  N186  1  0.94417000  0.69377000  0.44149000  1.0
  N  N187  1  0.92036000  0.94154000  0.19374000  1.0
  N  N188  1  0.44418000  0.44149000  0.69377000  1.0
  N  N189  1  0.42036000  0.19374000  0.94154000  1.0
  N  N190  1  0.05582000  0.30623000  0.55851000  1.0
  N  N191  1  0.07964000  0.05846000  0.80626000  1.0
  O  O192  1  0.33793000  0.61980000  0.01008000  1.0
  O  O193  1  0.03252000  0.51007000  0.11980000  1.0
  O  O194  1  0.16207000  0.98992000  0.38020000  1.0
  O  O195  1  0.46748000  0.88020000  0.48993000  1.0
  O  O196  1  0.66207000  0.38020000  0.98992000  1.0
  O  O197  1  0.96749000  0.48994000  0.88020000  1.0
  O  O198  1  0.83793000  0.01008000  0.61980000  1.0
  O  O199  1  0.53251000  0.11980000  0.51006000  1.0
  O  O200  1  0.31469000  0.58401000  0.91206000  1.0
  O  O201  1  0.18916000  0.41197000  0.08402000  1.0
  O  O202  1  0.18531000  0.08794000  0.41599000  1.0
  O  O203  1  0.31084000  0.91598000  0.58803000  1.0
  O  O204  1  0.68532000  0.41599000  0.08794000  1.0
  O  O205  1  0.81084000  0.58804000  0.91598000  1.0
  O  O206  1  0.81469000  0.91206000  0.58402000  1.0
  O  O207  1  0.68916000  0.08402000  0.41196000  1.0
  O  O208  1  0.04454000  0.86179000  0.03059000  1.0
  O  O209  1  0.06360000  0.53040000  0.36185000  1.0
  O  O210  1  0.45546000  0.96941000  0.13821000  1.0
  O  O211  1  0.43640000  0.63815000  0.46960000  1.0
  O  O212  1  0.95546000  0.13821000  0.96941000  1.0
  O  O213  1  0.93640000  0.46960000  0.63815000  1.0
  O  O214  1  0.54455000  0.03059000  0.86178000  1.0
  O  O215  1  0.56360000  0.36185000  0.53040000  1.0
  O  O216  1  0.90896000  0.93395000  0.93627000  1.0
  O  O217  1  0.22079000  0.43591000  0.43400000  1.0
  O  O218  1  0.59104000  0.06373000  0.06605000  1.0
  O  O219  1  0.27921000  0.56600000  0.56408000  1.0
  O  O220  1  0.09104000  0.06605000  0.06373000  1.0
  O  O221  1  0.77921000  0.56409000  0.56600000  1.0
  O  O222  1  0.40896000  0.93627000  0.93395000  1.0
  O  O223  1  0.72079000  0.43400000  0.43592000  1.0
