# generated using pymatgen
data_ZnH26C34S2(NO2)2
_symmetry_space_group_name_H-M   'P 1'
_cell_length_a   12.92240000
_cell_length_b   15.72970000
_cell_length_c   16.35180000
_cell_angle_alpha   89.99990000
_cell_angle_beta   81.40050000
_cell_angle_gamma   89.99990000
_symmetry_Int_Tables_number   1
_chemical_formula_structural   ZnH26C34S2(NO2)2
_chemical_formula_sum   'Zn4 H104 C136 S8 N8 O16'
_cell_volume   3286.38968542
_cell_formula_units_Z   4
loop_
 _symmetry_equiv_pos_site_id
 _symmetry_equiv_pos_as_xyz
  1  'x, y, z'
loop_
 _atom_site_type_symbol
 _atom_site_label
 _atom_site_symmetry_multiplicity
 _atom_site_fract_x
 _atom_site_fract_y
 _atom_site_fract_z
 _atom_site_occupancy
  Zn  Zn0  1  0.35504000  0.65332000  0.22596000  1.0
  Zn  Zn1  1  0.64497000  0.15332000  0.27404000  1.0
  Zn  Zn2  1  0.64496000  0.34668000  0.77405000  1.0
  Zn  Zn3  1  0.35503000  0.84668000  0.72596000  1.0
  H  H4  1  0.72535000  0.57790000  0.27612000  1.0
  H  H5  1  0.27465000  0.07790000  0.22388000  1.0
  H  H6  1  0.27465000  0.42211000  0.72388000  1.0
  H  H7  1  0.72535000  0.92210000  0.77612000  1.0
  H  H8  1  0.87220000  0.47093000  0.25363000  1.0
  H  H9  1  0.12780000  0.97093000  0.24637000  1.0
  H  H10  1  0.12780000  0.52908000  0.74638000  1.0
  H  H11  1  0.87220000  0.02907000  0.75362000  1.0
  H  H12  1  0.84423000  0.33644000  0.17691000  1.0
  H  H13  1  0.15576000  0.83645000  0.32310000  1.0
  H  H14  1  0.15577000  0.66356000  0.82310000  1.0
  H  H15  1  0.84423000  0.16356000  0.67690000  1.0
  H  H16  1  0.68169000  0.31139000  0.12416000  1.0
  H  H17  1  0.31831000  0.81139000  0.37585000  1.0
  H  H18  1  0.31831000  0.68861000  0.87584000  1.0
  H  H19  1  0.68169000  0.18861000  0.62415000  1.0
  H  H20  1  0.57930000  0.31066000  0.03006000  1.0
  H  H21  1  0.42070000  0.81066000  0.46994000  1.0
  H  H22  1  0.42070000  0.68933000  0.96994000  1.0
  H  H23  1  0.57930000  0.18934000  0.53006000  1.0
  H  H24  1  0.52056000  0.25903000  0.12284000  1.0
  H  H25  1  0.47944000  0.75904000  0.37716000  1.0
  H  H26  1  0.47944000  0.74097000  0.87716000  1.0
  H  H27  1  0.52056000  0.24096000  0.62283000  1.0
  H  H28  1  0.43827000  0.39689000  0.95313000  1.0
  H  H29  1  0.56174000  0.89689000  0.54686000  1.0
  H  H30  1  0.56173000  0.60311000  0.04686000  1.0
  H  H31  1  0.43827000  0.10311000  0.45313000  1.0
  H  H32  1  0.27923000  0.36874000  0.88978000  1.0
  H  H33  1  0.72077000  0.86874000  0.61022000  1.0
  H  H34  1  0.72077000  0.63126000  0.11022000  1.0
  H  H35  1  0.27923000  0.13126000  0.38978000  1.0
  H  H36  1  0.16220000  0.24769000  0.93922000  1.0
  H  H37  1  0.83781000  0.74769000  0.56078000  1.0
  H  H38  1  0.83780000  0.75231000  0.06078000  1.0
  H  H39  1  0.16219000  0.25231000  0.43922000  1.0
  H  H40  1  0.36768000  0.18089000  0.11401000  1.0
  H  H41  1  0.63232000  0.68089000  0.38599000  1.0
  H  H42  1  0.63232000  0.81911000  0.88599000  1.0
  H  H43  1  0.36768000  0.31911000  0.61401000  1.0
  H  H44  1  0.10489000  0.14699000  0.06511000  1.0
  H  H45  1  0.89511000  0.64700000  0.43490000  1.0
  H  H46  1  0.89511000  0.85300000  0.93490000  1.0
  H  H47  1  0.10489000  0.35300000  0.56510000  1.0
  H  H48  1  0.21000000  0.09869000  0.10937000  1.0
  H  H49  1  0.79000000  0.59869000  0.39064000  1.0
  H  H50  1  0.79000000  0.90131000  0.89063000  1.0
  H  H51  1  0.21000000  0.40131000  0.60936000  1.0
  H  H52  1  0.06186000  0.01655000  0.10946000  1.0
  H  H53  1  0.93813000  0.51654000  0.39054000  1.0
  H  H54  1  0.93814000  0.98345000  0.89054000  1.0
  H  H55  1  0.06186000  0.48345000  0.60945000  1.0
  H  H56  1  0.97757000  0.88196000  0.15608000  1.0
  H  H57  1  0.02242000  0.38195000  0.34393000  1.0
  H  H58  1  0.02242000  0.11804000  0.84392000  1.0
  H  H59  1  0.97757000  0.61804000  0.65607000  1.0
  H  H60  1  0.01807000  0.74876000  0.07310000  1.0
  H  H61  1  0.98193000  0.24875000  0.42690000  1.0
  H  H62  1  0.98193000  0.25124000  0.92690000  1.0
  H  H63  1  0.01807000  0.75124000  0.57310000  1.0
  H  H64  1  0.13977000  0.75689000  0.93924000  1.0
  H  H65  1  0.86023000  0.25688000  0.56077000  1.0
  H  H66  1  0.86023000  0.24312000  0.06077000  1.0
  H  H67  1  0.13978000  0.74312000  0.43924000  1.0
  H  H68  1  0.27632000  0.76818000  0.10518000  1.0
  H  H69  1  0.72368000  0.26818000  0.39482000  1.0
  H  H70  1  0.72367000  0.23182000  0.89481000  1.0
  H  H71  1  0.27632000  0.73182000  0.60518000  1.0
  H  H72  1  0.33297000  0.89817000  0.02647000  1.0
  H  H73  1  0.66703000  0.39817000  0.47353000  1.0
  H  H74  1  0.66702000  0.10183000  0.97353000  1.0
  H  H75  1  0.33297000  0.60182000  0.52648000  1.0
  H  H76  1  0.60284000  0.90587000  0.15445000  1.0
  H  H77  1  0.39716000  0.40588000  0.34555000  1.0
  H  H78  1  0.39716000  0.09412000  0.84555000  1.0
  H  H79  1  0.60284000  0.59412000  0.65445000  1.0
  H  H80  1  0.53828000  0.76989000  0.22441000  1.0
  H  H81  1  0.46171000  0.26990000  0.27559000  1.0
  H  H82  1  0.46171000  0.23011000  0.77559000  1.0
  H  H83  1  0.53828000  0.73011000  0.72441000  1.0
  H  H84  1  0.57156000  0.02477000  0.06414000  1.0
  H  H85  1  0.42844000  0.52478000  0.43586000  1.0
  H  H86  1  0.42843000  0.97523000  0.93586000  1.0
  H  H87  1  0.57156000  0.47523000  0.56414000  1.0
  H  H88  1  0.09569000  0.47479000  0.93635000  1.0
  H  H89  1  0.90431000  0.97479000  0.56365000  1.0
  H  H90  1  0.90431000  0.52521000  0.06365000  1.0
  H  H91  1  0.09570000  0.02521000  0.43635000  1.0
  H  H92  1  0.99420000  0.58553000  0.14401000  1.0
  H  H93  1  0.00580000  0.08553000  0.35599000  1.0
  H  H94  1  0.00580000  0.41447000  0.85599000  1.0
  H  H95  1  0.99420000  0.91447000  0.64400000  1.0
  H  H96  1  0.12009000  0.64576000  0.23015000  1.0
  H  H97  1  0.87991000  0.14576000  0.26985000  1.0
  H  H98  1  0.87991000  0.35423000  0.76986000  1.0
  H  H99  1  0.12010000  0.85424000  0.73015000  1.0
  H  H100  1  0.37601000  0.56310000  0.06621000  1.0
  H  H101  1  0.62399000  0.06309000  0.43379000  1.0
  H  H102  1  0.62399000  0.43691000  0.93379000  1.0
  H  H103  1  0.37601000  0.93691000  0.56621000  1.0
  H  H104  1  0.26188000  0.50184000  0.97109000  1.0
  H  H105  1  0.73812000  0.00184000  0.52891000  1.0
  H  H106  1  0.73812000  0.49816000  0.02891000  1.0
  H  H107  1  0.26189000  0.99816000  0.47108000  1.0
  C  C108  1  0.54151000  0.57343000  0.23163000  1.0
  C  C109  1  0.45849000  0.07343000  0.26837000  1.0
  C  C110  1  0.45848000  0.42658000  0.76837000  1.0
  C  C111  1  0.54151000  0.92657000  0.73163000  1.0
  C  C112  1  0.62362000  0.50650000  0.21196000  1.0
  C  C113  1  0.37638000  0.00651000  0.28804000  1.0
  C  C114  1  0.37638000  0.49350000  0.78805000  1.0
  C  C115  1  0.62362000  0.99349000  0.71195000  1.0
  C  C116  1  0.71869000  0.51937000  0.24157000  1.0
  C  C117  1  0.28131000  0.01937000  0.25843000  1.0
  C  C118  1  0.28131000  0.48063000  0.75843000  1.0
  C  C119  1  0.71869000  0.98063000  0.74157000  1.0
  C  C120  1  0.79965000  0.46039000  0.22861000  1.0
  C  C121  1  0.20035000  0.96039000  0.27139000  1.0
  C  C122  1  0.20035000  0.53962000  0.77140000  1.0
  C  C123  1  0.79965000  0.03961000  0.72861000  1.0
  C  C124  1  0.78416000  0.38570000  0.18571000  1.0
  C  C125  1  0.21584000  0.88571000  0.31429000  1.0
  C  C126  1  0.21583000  0.61430000  0.81429000  1.0
  C  C127  1  0.78416000  0.11430000  0.68570000  1.0
  C  C128  1  0.69078000  0.37148000  0.15507000  1.0
  C  C129  1  0.30921000  0.87149000  0.34493000  1.0
  C  C130  1  0.30922000  0.62852000  0.84493000  1.0
  C  C131  1  0.69078000  0.12852000  0.65507000  1.0
  C  C132  1  0.60887000  0.43144000  0.16631000  1.0
  C  C133  1  0.39113000  0.93144000  0.33369000  1.0
  C  C134  1  0.39112000  0.56856000  0.83369000  1.0
  C  C135  1  0.60887000  0.06856000  0.66630000  1.0
  C  C136  1  0.50952000  0.30857000  0.07765000  1.0
  C  C137  1  0.49048000  0.80857000  0.42235000  1.0
  C  C138  1  0.49048000  0.69144000  0.92235000  1.0
  C  C139  1  0.50951000  0.19143000  0.57764000  1.0
  C  C140  1  0.41254000  0.29138000  0.03894000  1.0
  C  C141  1  0.58746000  0.79138000  0.46106000  1.0
  C  C142  1  0.58746000  0.70862000  0.96106000  1.0
  C  C143  1  0.41254000  0.20862000  0.53893000  1.0
  C  C144  1  0.38727000  0.34389000  0.97545000  1.0
  C  C145  1  0.61273000  0.84389000  0.52455000  1.0
  C  C146  1  0.61273000  0.65611000  0.02455000  1.0
  C  C147  1  0.38727000  0.15611000  0.47545000  1.0
  C  C148  1  0.29736000  0.32834000  0.93998000  1.0
  C  C149  1  0.70264000  0.82834000  0.56002000  1.0
  C  C150  1  0.70263000  0.67166000  0.06002000  1.0
  C  C151  1  0.29736000  0.17166000  0.43998000  1.0
  C  C152  1  0.23181000  0.26060000  0.96754000  1.0
  C  C153  1  0.76819000  0.76061000  0.53246000  1.0
  C  C154  1  0.76819000  0.73939000  0.03246000  1.0
  C  C155  1  0.23181000  0.23939000  0.46754000  1.0
  C  C156  1  0.25611000  0.20696000  0.03047000  1.0
  C  C157  1  0.74389000  0.70696000  0.46953000  1.0
  C  C158  1  0.74389000  0.79304000  0.96953000  1.0
  C  C159  1  0.25611000  0.29304000  0.53047000  1.0
  C  C160  1  0.34672000  0.22273000  0.06571000  1.0
  C  C161  1  0.65328000  0.72273000  0.43429000  1.0
  C  C162  1  0.65328000  0.77726000  0.93429000  1.0
  C  C163  1  0.34672000  0.27727000  0.56571000  1.0
  C  C164  1  0.18848000  0.13016000  0.05440000  1.0
  C  C165  1  0.81152000  0.63016000  0.44560000  1.0
  C  C166  1  0.81152000  0.86984000  0.94560000  1.0
  C  C167  1  0.18848000  0.36983000  0.55440000  1.0
  C  C168  1  0.15077000  0.96499000  0.99759000  1.0
  C  C169  1  0.84923000  0.46499000  0.50241000  1.0
  C  C170  1  0.84923000  0.03501000  0.00241000  1.0
  C  C171  1  0.15077000  0.53501000  0.49759000  1.0
  C  C172  1  0.08053000  0.95982000  0.07209000  1.0
  C  C173  1  0.91947000  0.45982000  0.42791000  1.0
  C  C174  1  0.91946000  0.04018000  0.92791000  1.0
  C  C175  1  0.08054000  0.54018000  0.57209000  1.0
  C  C176  1  0.03283000  0.88327000  0.09868000  1.0
  C  C177  1  0.96717000  0.38327000  0.40133000  1.0
  C  C178  1  0.96717000  0.11673000  0.90133000  1.0
  C  C179  1  0.03284000  0.61673000  0.59867000  1.0
  C  C180  1  0.05420000  0.80904000  0.05201000  1.0
  C  C181  1  0.94580000  0.30904000  0.44800000  1.0
  C  C182  1  0.94580000  0.19096000  0.94799000  1.0
  C  C183  1  0.05420000  0.69096000  0.55201000  1.0
  C  C184  1  0.12176000  0.81331000  0.97744000  1.0
  C  C185  1  0.87825000  0.31331000  0.52256000  1.0
  C  C186  1  0.87824000  0.18669000  0.02256000  1.0
  C  C187  1  0.12176000  0.68669000  0.47744000  1.0
  C  C188  1  0.16975000  0.88995000  0.94893000  1.0
  C  C189  1  0.83025000  0.38995000  0.55107000  1.0
  C  C190  1  0.83025000  0.11005000  0.05107000  1.0
  C  C191  1  0.16976000  0.61005000  0.44893000  1.0
  C  C192  1  0.24095000  0.89204000  0.86859000  1.0
  C  C193  1  0.75905000  0.39204000  0.63142000  1.0
  C  C194  1  0.75905000  0.10796000  0.13141000  1.0
  C  C195  1  0.24096000  0.60796000  0.36859000  1.0
  C  C196  1  0.34963000  0.79928000  0.11297000  1.0
  C  C197  1  0.65037000  0.29928000  0.38703000  1.0
  C  C198  1  0.65037000  0.20072000  0.88703000  1.0
  C  C199  1  0.34963000  0.70072000  0.61297000  1.0
  C  C200  1  0.38189000  0.87186000  0.06891000  1.0
  C  C201  1  0.61811000  0.37186000  0.43109000  1.0
  C  C202  1  0.61811000  0.12814000  0.93109000  1.0
  C  C203  1  0.38189000  0.62814000  0.56891000  1.0
  C  C204  1  0.47555000  0.91196000  0.08153000  1.0
  C  C205  1  0.52446000  0.41196000  0.41847000  1.0
  C  C206  1  0.52445000  0.08804000  0.91847000  1.0
  C  C207  1  0.47554000  0.58804000  0.58153000  1.0
  C  C208  1  0.53140000  0.87598000  0.14049000  1.0
  C  C209  1  0.46859000  0.37598000  0.35951000  1.0
  C  C210  1  0.46859000  0.12402000  0.85951000  1.0
  C  C211  1  0.53140000  0.62402000  0.64050000  1.0
  C  C212  1  0.49553000  0.80148000  0.18039000  1.0
  C  C213  1  0.50447000  0.30148000  0.31961000  1.0
  C  C214  1  0.50447000  0.19852000  0.81960000  1.0
  C  C215  1  0.49553000  0.69852000  0.68040000  1.0
  C  C216  1  0.51453000  0.98780000  0.03626000  1.0
  C  C217  1  0.48546000  0.48780000  0.46374000  1.0
  C  C218  1  0.48546000  0.01220000  0.96374000  1.0
  C  C219  1  0.51454000  0.51220000  0.53626000  1.0
  C  C220  1  0.05277000  0.50140000  0.99319000  1.0
  C  C221  1  0.94723000  0.00140000  0.50681000  1.0
  C  C222  1  0.94722000  0.49860000  0.00681000  1.0
  C  C223  1  0.05278000  0.99860000  0.49318000  1.0
  C  C224  1  0.11787000  0.53830000  0.04892000  1.0
  C  C225  1  0.88214000  0.03830000  0.45109000  1.0
  C  C226  1  0.88213000  0.46170000  0.95109000  1.0
  C  C227  1  0.11787000  0.96170000  0.54891000  1.0
  C  C228  1  0.07814000  0.57943000  0.12362000  1.0
  C  C229  1  0.92187000  0.07944000  0.37639000  1.0
  C  C230  1  0.92186000  0.42056000  0.87639000  1.0
  C  C231  1  0.07814000  0.92057000  0.62361000  1.0
  C  C232  1  0.14726000  0.61306000  0.17203000  1.0
  C  C233  1  0.85274000  0.11306000  0.32797000  1.0
  C  C234  1  0.85274000  0.38694000  0.82797000  1.0
  C  C235  1  0.14726000  0.88694000  0.67202000  1.0
  C  C236  1  0.29104000  0.56796000  0.07999000  1.0
  C  C237  1  0.70896000  0.06796000  0.42001000  1.0
  C  C238  1  0.70896000  0.43204000  0.92001000  1.0
  C  C239  1  0.29104000  0.93204000  0.57999000  1.0
  C  C240  1  0.22708000  0.53317000  0.02788000  1.0
  C  C241  1  0.77292000  0.03316000  0.47212000  1.0
  C  C242  1  0.77292000  0.46683000  0.97212000  1.0
  C  C243  1  0.22709000  0.96683000  0.52788000  1.0
  S  S244  1  0.49062000  0.41315000  0.12761000  1.0
  S  S245  1  0.50938000  0.91316000  0.37239000  1.0
  S  S246  1  0.50938000  0.58685000  0.87239000  1.0
  S  S247  1  0.49062000  0.08684000  0.62761000  1.0
  S  S248  1  0.21642000  0.05933000  0.96465000  1.0
  S  S249  1  0.78358000  0.55933000  0.53535000  1.0
  S  S250  1  0.78358000  0.94067000  0.03535000  1.0
  S  S251  1  0.21642000  0.44067000  0.46465000  1.0
  N  N252  1  0.40578000  0.76343000  0.16734000  1.0
  N  N253  1  0.59421000  0.26343000  0.33266000  1.0
  N  N254  1  0.59421000  0.23657000  0.83266000  1.0
  N  N255  1  0.40578000  0.73657000  0.66734000  1.0
  N  N256  1  0.25193000  0.60783000  0.15069000  1.0
  N  N257  1  0.74808000  0.10783000  0.34931000  1.0
  N  N258  1  0.74807000  0.39217000  0.84931000  1.0
  N  N259  1  0.25193000  0.89217000  0.65069000  1.0
  O  O260  1  0.55004000  0.63145000  0.28280000  1.0
  O  O261  1  0.44997000  0.13146000  0.21720000  1.0
  O  O262  1  0.44996000  0.36855000  0.71720000  1.0
  O  O263  1  0.55003000  0.86855000  0.78281000  1.0
  O  O264  1  0.46261000  0.56653000  0.19158000  1.0
  O  O265  1  0.53739000  0.06653000  0.30843000  1.0
  O  O266  1  0.53739000  0.43347000  0.80843000  1.0
  O  O267  1  0.46261000  0.93347000  0.69157000  1.0
  O  O268  1  0.27746000  0.96156000  0.83981000  1.0
  O  O269  1  0.72253000  0.46156000  0.66019000  1.0
  O  O270  1  0.72253000  0.03844000  0.16019000  1.0
  O  O271  1  0.27748000  0.53844000  0.33981000  1.0
  O  O272  1  0.26241000  0.81976000  0.83058000  1.0
  O  O273  1  0.73759000  0.31976000  0.66942000  1.0
  O  O274  1  0.73759000  0.18024000  0.16942000  1.0
  O  O275  1  0.26241000  0.68024000  0.33058000  1.0
