# generated using pymatgen
data_CoH8C8(O2F)4
_symmetry_space_group_name_H-M   'P 1'
_cell_length_a   5.11064000
_cell_length_b   6.49233000
_cell_length_c   9.22709000
_cell_angle_alpha   73.25600000
_cell_angle_beta   88.73000000
_cell_angle_gamma   73.93670000
_symmetry_Int_Tables_number   1
_chemical_formula_structural   CoH8C8(O2F)4
_chemical_formula_sum   'Co1 H8 C8 O8 F4'
_cell_volume   281.17596580
_cell_formula_units_Z   1
loop_
 _symmetry_equiv_pos_site_id
 _symmetry_equiv_pos_as_xyz
  1  'x, y, z'
loop_
 _atom_site_type_symbol
 _atom_site_label
 _atom_site_symmetry_multiplicity
 _atom_site_fract_x
 _atom_site_fract_y
 _atom_site_fract_z
 _atom_site_occupancy
  Co  Co0  1  0.99999000  0.00001000  0.00000000  1.0
  H  H1  1  0.32162000  0.65563000  0.92710000  1.0
  H  H2  1  0.67835000  0.34438000  0.07288000  1.0
  H  H3  1  0.18633000  0.59070000  0.08451000  1.0
  H  H4  1  0.81366000  0.40932000  0.91549000  1.0
  H  H5  1  0.84793000  0.82168000  0.79699000  1.0
  H  H6  1  0.15205000  0.17833000  0.20301000  1.0
  H  H7  1  0.58318000  0.00592000  0.82747000  1.0
  H  H8  1  0.41681000  0.99409000  0.17253000  1.0
  C  C9  1  0.18382000  0.36533000  0.76264000  1.0
  C  C10  1  0.81616000  0.63470000  0.23737000  1.0
  C  C11  1  0.34275000  0.43639000  0.62650000  1.0
  C  C12  1  0.65728000  0.56359000  0.37351000  1.0
  C  C13  1  0.46156000  0.61095000  0.60824000  1.0
  C  C14  1  0.53850000  0.38904000  0.39176000  1.0
  C  C15  1  0.61830000  0.67163000  0.48662000  1.0
  C  C16  1  0.38171000  0.32836000  0.51340000  1.0
  O  O17  1  0.23713000  0.15547000  0.82819000  1.0
  O  O18  1  0.76285000  0.84451000  0.17182000  1.0
  O  O19  1  0.00940000  0.51833000  0.80111000  1.0
  O  O20  1  0.99063000  0.48165000  0.19888000  1.0
  O  O21  1  0.29187000  0.69326000  0.02237000  1.0
  O  O22  1  0.70812000  0.30674000  0.97762000  1.0
  O  O23  1  0.78562000  0.95884000  0.82848000  1.0
  O  O24  1  0.21435000  0.04118000  0.17152000  1.0
  F  F25  1  0.43058000  0.72468000  0.71290000  1.0
  F  F26  1  0.56946000  0.27529000  0.28711000  1.0
  F  F27  1  0.74014000  0.83297000  0.48202000  1.0
  F  F28  1  0.25988000  0.16702000  0.51799000  1.0
