# generated using pymatgen
data_Co2H44C41(N4O5)2
_symmetry_space_group_name_H-M   'P 1'
_cell_length_a   16.80260000
_cell_length_b   17.82280000
_cell_length_c   18.07920000
_cell_angle_alpha   109.99400000
_cell_angle_beta   90.00000000
_cell_angle_gamma   89.99990000
_symmetry_Int_Tables_number   1
_chemical_formula_structural   Co2H44C41(N4O5)2
_chemical_formula_sum   'Co8 H176 C164 N32 O40'
_cell_volume   5087.84647876
_cell_formula_units_Z   4
loop_
 _symmetry_equiv_pos_site_id
 _symmetry_equiv_pos_as_xyz
  1  'x, y, z'
loop_
 _atom_site_type_symbol
 _atom_site_label
 _atom_site_symmetry_multiplicity
 _atom_site_fract_x
 _atom_site_fract_y
 _atom_site_fract_z
 _atom_site_occupancy
  Co  Co0  1  0.68373000  0.76913000  0.72558000  1.0
  Co  Co1  1  0.18373000  0.73088000  0.77442000  1.0
  Co  Co2  1  0.31627000  0.23087000  0.27442000  1.0
  Co  Co3  1  0.81627000  0.26913000  0.22558000  1.0
  Co  Co4  1  0.18912000  0.18737000  0.76723000  1.0
  Co  Co5  1  0.68912000  0.31263000  0.73277000  1.0
  Co  Co6  1  0.81088000  0.81263000  0.23277000  1.0
  Co  Co7  1  0.31088000  0.68737000  0.26723000  1.0
  H  H8  1  0.71513000  0.79110000  0.48879000  1.0
  H  H9  1  0.21514000  0.70890000  0.01121000  1.0
  H  H10  1  0.28487000  0.20890000  0.51122000  1.0
  H  H11  1  0.78487000  0.29110000  0.98878000  1.0
  H  H12  1  0.41170000  0.45925000  0.39255000  1.0
  H  H13  1  0.91169000  0.04075000  0.10744000  1.0
  H  H14  1  0.58831000  0.54075000  0.60745000  1.0
  H  H15  1  0.08830000  0.95925000  0.89256000  1.0
  H  H16  1  0.27239000  0.67390000  0.48522000  1.0
  H  H17  1  0.77239000  0.82610000  0.01478000  1.0
  H  H18  1  0.72761000  0.32609000  0.51478000  1.0
  H  H19  1  0.22761000  0.17390000  0.98522000  1.0
  H  H20  1  0.58147000  0.99278000  0.63573000  1.0
  H  H21  1  0.08147000  0.50722000  0.86426000  1.0
  H  H22  1  0.41853000  0.00722000  0.36426000  1.0
  H  H23  1  0.91853000  0.49278000  0.13574000  1.0
  H  H24  1  0.49868000  0.39732000  0.45860000  1.0
  H  H25  1  0.99867000  0.10268000  0.04140000  1.0
  H  H26  1  0.50132000  0.60268000  0.54140000  1.0
  H  H27  1  0.00132000  0.89732000  0.95860000  1.0
  H  H28  1  0.41487000  0.33283000  0.42114000  1.0
  H  H29  1  0.91487000  0.16717000  0.07885000  1.0
  H  H30  1  0.58513000  0.66717000  0.57885000  1.0
  H  H31  1  0.08513000  0.83283000  0.92115000  1.0
  H  H32  1  0.42183000  0.28977000  0.53936000  1.0
  H  H33  1  0.92183000  0.21024000  0.96064000  1.0
  H  H34  1  0.57817000  0.71024000  0.46064000  1.0
  H  H35  1  0.07817000  0.78976000  0.03936000  1.0
  H  H36  1  0.50761000  0.34924000  0.57193000  1.0
  H  H37  1  0.00761000  0.15076000  0.92806000  1.0
  H  H38  1  0.49239000  0.65076000  0.42807000  1.0
  H  H39  1  0.99239000  0.84924000  0.07194000  1.0
  H  H40  1  0.30893000  0.52505000  0.62515000  1.0
  H  H41  1  0.80892000  0.97495000  0.87485000  1.0
  H  H42  1  0.69107000  0.47495000  0.37485000  1.0
  H  H43  1  0.19107000  0.02505000  0.12515000  1.0
  H  H44  1  0.66680000  0.98776000  0.40864000  1.0
  H  H45  1  0.16679000  0.51224000  0.09136000  1.0
  H  H46  1  0.33321000  0.01224000  0.59136000  1.0
  H  H47  1  0.83321000  0.48776000  0.90864000  1.0
  H  H48  1  0.55307000  0.07645000  0.43250000  1.0
  H  H49  1  0.05307000  0.42355000  0.06750000  1.0
  H  H50  1  0.44693000  0.92355000  0.56750000  1.0
  H  H51  1  0.94693000  0.57645000  0.93250000  1.0
  H  H52  1  0.64700000  0.12153000  0.47002000  1.0
  H  H53  1  0.14700000  0.37847000  0.02998000  1.0
  H  H54  1  0.35300000  0.87847000  0.52998000  1.0
  H  H55  1  0.85300000  0.62153000  0.97002000  1.0
  H  H56  1  0.57873000  0.22693000  0.57720000  1.0
  H  H57  1  0.07873000  0.27307000  0.92281000  1.0
  H  H58  1  0.42127000  0.77307000  0.42281000  1.0
  H  H59  1  0.92127000  0.72693000  0.07720000  1.0
  H  H60  1  0.48636000  0.17823000  0.54856000  1.0
  H  H61  1  0.98636000  0.32177000  0.95144000  1.0
  H  H62  1  0.51364000  0.82177000  0.45144000  1.0
  H  H63  1  0.01364000  0.67823000  0.04856000  1.0
  H  H64  1  0.49671000  0.20474000  0.41896000  1.0
  H  H65  1  0.99671000  0.29526000  0.08104000  1.0
  H  H66  1  0.50329000  0.79526000  0.58104000  1.0
  H  H67  1  0.00329000  0.70474000  0.91896000  1.0
  H  H68  1  0.58341000  0.26183000  0.45493000  1.0
  H  H69  1  0.08341000  0.23816000  0.04507000  1.0
  H  H70  1  0.41659000  0.73816000  0.54507000  1.0
  H  H71  1  0.91659000  0.76184000  0.95494000  1.0
  H  H72  1  0.77894000  0.66545000  0.57263000  1.0
  H  H73  1  0.27894000  0.83455000  0.92737000  1.0
  H  H74  1  0.22106000  0.33455000  0.42737000  1.0
  H  H75  1  0.72106000  0.16545000  0.07263000  1.0
  H  H76  1  0.75394000  0.63305000  0.79168000  1.0
  H  H77  1  0.25394000  0.86695000  0.70832000  1.0
  H  H78  1  0.24606000  0.36695000  0.20832000  1.0
  H  H79  1  0.74607000  0.13305000  0.29168000  1.0
  H  H80  1  0.97206000  0.34666000  0.63576000  1.0
  H  H81  1  0.47206000  0.15333000  0.86424000  1.0
  H  H82  1  0.02794000  0.65334000  0.36424000  1.0
  H  H83  1  0.52794000  0.84667000  0.13576000  1.0
  H  H84  1  0.88166000  0.32675000  0.67646000  1.0
  H  H85  1  0.38166000  0.17325000  0.82355000  1.0
  H  H86  1  0.11834000  0.67325000  0.32354000  1.0
  H  H87  1  0.61834000  0.82675000  0.17646000  1.0
  H  H88  1  0.01302000  0.43606000  0.77397000  1.0
  H  H89  1  0.51302000  0.06393000  0.72603000  1.0
  H  H90  1  0.98698000  0.56394000  0.22603000  1.0
  H  H91  1  0.48698000  0.93607000  0.27397000  1.0
  H  H92  1  0.91642000  0.42421000  0.80701000  1.0
  H  H93  1  0.41642000  0.07579000  0.69299000  1.0
  H  H94  1  0.08358000  0.57579000  0.19299000  1.0
  H  H95  1  0.58358000  0.92421000  0.30701000  1.0
  H  H96  1  0.84849000  0.51993000  0.56309000  1.0
  H  H97  1  0.34849000  0.98007000  0.93692000  1.0
  H  H98  1  0.15151000  0.48007000  0.43691000  1.0
  H  H99  1  0.65151000  0.01993000  0.06309000  1.0
  H  H100  1  0.93208000  0.55200000  0.78053000  1.0
  H  H101  1  0.43208000  0.94800000  0.71948000  1.0
  H  H102  1  0.06792000  0.44800000  0.21947000  1.0
  H  H103  1  0.56792000  0.05201000  0.28053000  1.0
  H  H104  1  0.96074000  0.50035000  0.68285000  1.0
  H  H105  1  0.46074000  0.99965000  0.81715000  1.0
  H  H106  1  0.03926000  0.49965000  0.31715000  1.0
  H  H107  1  0.53926000  0.00035000  0.18285000  1.0
  H  H108  1  0.79659000  0.48516000  0.75304000  1.0
  H  H109  1  0.29659000  0.01484000  0.74696000  1.0
  H  H110  1  0.20341000  0.51484000  0.24696000  1.0
  H  H111  1  0.70341000  0.98516000  0.25304000  1.0
  H  H112  1  0.82472000  0.43536000  0.65464000  1.0
  H  H113  1  0.32472000  0.06465000  0.84536000  1.0
  H  H114  1  0.17528000  0.56464000  0.34535000  1.0
  H  H115  1  0.67528000  0.93536000  0.15464000  1.0
  H  H116  1  0.10516000  0.29740000  0.68260000  1.0
  H  H117  1  0.60516000  0.20260000  0.81740000  1.0
  H  H118  1  0.89484000  0.70260000  0.31740000  1.0
  H  H119  1  0.39484000  0.79740000  0.18260000  1.0
  H  H120  1  0.88433000  0.23466000  0.75849000  1.0
  H  H121  1  0.38434000  0.26534000  0.74151000  1.0
  H  H122  1  0.11566000  0.76534000  0.24151000  1.0
  H  H123  1  0.61566000  0.73466000  0.25849000  1.0
  H  H124  1  0.00679000  0.14515000  0.79272000  1.0
  H  H125  1  0.50679000  0.35485000  0.70728000  1.0
  H  H126  1  0.99321000  0.85485000  0.20728000  1.0
  H  H127  1  0.49321000  0.64515000  0.29272000  1.0
  H  H128  1  0.49728000  0.82283000  0.73523000  1.0
  H  H129  1  0.99728000  0.67717000  0.76477000  1.0
  H  H130  1  0.50272000  0.17717000  0.26477000  1.0
  H  H131  1  0.00272000  0.32283000  0.23523000  1.0
  H  H132  1  0.60849000  0.61289000  0.74242000  1.0
  H  H133  1  0.10849000  0.88711000  0.75758000  1.0
  H  H134  1  0.39151000  0.38711000  0.25758000  1.0
  H  H135  1  0.89151000  0.11289000  0.24242000  1.0
  H  H136  1  0.26726000  0.27066000  0.93916000  1.0
  H  H137  1  0.76726000  0.22934000  0.56084000  1.0
  H  H138  1  0.73274000  0.72934000  0.06084000  1.0
  H  H139  1  0.23274000  0.77065000  0.43915000  1.0
  H  H140  1  0.38045000  0.70995000  0.73469000  1.0
  H  H141  1  0.88046000  0.79006000  0.76532000  1.0
  H  H142  1  0.61955000  0.29006000  0.26531000  1.0
  H  H143  1  0.11955000  0.20995000  0.23469000  1.0
  H  H144  1  0.50281000  0.52669000  0.73851000  1.0
  H  H145  1  0.00281000  0.97331000  0.76149000  1.0
  H  H146  1  0.49719000  0.47331000  0.26149000  1.0
  H  H147  1  0.99719000  0.02670000  0.23851000  1.0
  H  H148  1  0.42286000  0.53672000  0.67911000  1.0
  H  H149  1  0.92286000  0.96328000  0.82089000  1.0
  H  H150  1  0.57714000  0.46328000  0.32089000  1.0
  H  H151  1  0.07714000  0.03672000  0.17911000  1.0
  H  H152  1  0.32350000  0.42744000  0.98467000  1.0
  H  H153  1  0.82349000  0.07256000  0.51533000  1.0
  H  H154  1  0.67651000  0.57256000  0.01533000  1.0
  H  H155  1  0.17650000  0.92743000  0.48467000  1.0
  H  H156  1  0.41988000  0.60893000  0.85953000  1.0
  H  H157  1  0.91988000  0.89107000  0.64047000  1.0
  H  H158  1  0.58012000  0.39107000  0.14047000  1.0
  H  H159  1  0.08012000  0.10893000  0.35953000  1.0
  H  H160  1  0.33886000  0.60247000  0.79483000  1.0
  H  H161  1  0.83886000  0.89753000  0.70517000  1.0
  H  H162  1  0.66114000  0.39753000  0.20517000  1.0
  H  H163  1  0.16114000  0.10247000  0.29483000  1.0
  H  H164  1  0.23904000  0.35608000  0.75022000  1.0
  H  H165  1  0.73904000  0.14392000  0.74978000  1.0
  H  H166  1  0.76096000  0.64392000  0.24979000  1.0
  H  H167  1  0.26096000  0.85608000  0.25021000  1.0
  H  H168  1  0.42696000  0.46162000  0.82061000  1.0
  H  H169  1  0.92695000  0.03838000  0.67939000  1.0
  H  H170  1  0.57304000  0.53838000  0.17939000  1.0
  H  H171  1  0.07304000  0.96162000  0.32061000  1.0
  H  H172  1  0.35564000  0.44986000  0.74567000  1.0
  H  H173  1  0.85564000  0.05014000  0.75433000  1.0
  H  H174  1  0.64436000  0.55014000  0.25433000  1.0
  H  H175  1  0.14436000  0.94986000  0.24567000  1.0
  H  H176  1  0.32239000  0.53170000  0.92261000  1.0
  H  H177  1  0.82239000  0.96829000  0.57739000  1.0
  H  H178  1  0.67761000  0.46830000  0.07739000  1.0
  H  H179  1  0.17761000  0.03170000  0.42261000  1.0
  H  H180  1  0.25313000  0.51809000  0.84591000  1.0
  H  H181  1  0.75312000  0.98191000  0.65409000  1.0
  H  H182  1  0.74688000  0.48191000  0.15409000  1.0
  H  H183  1  0.24687000  0.01809000  0.34591000  1.0
  C  C184  1  0.64701000  0.88836000  0.56876000  1.0
  C  C185  1  0.14701000  0.61164000  0.93124000  1.0
  C  C186  1  0.35299000  0.11164000  0.43124000  1.0
  C  C187  1  0.85299000  0.38836000  0.06876000  1.0
  C  C188  1  0.68729000  0.84877000  0.49835000  1.0
  C  C189  1  0.18730000  0.65123000  0.00165000  1.0
  C  C190  1  0.31271000  0.15123000  0.50165000  1.0
  C  C191  1  0.81271000  0.34877000  0.99835000  1.0
  C  C192  1  0.37708000  0.49962000  0.44057000  1.0
  C  C193  1  0.87708000  0.00039000  0.05943000  1.0
  C  C194  1  0.62292000  0.50038000  0.55943000  1.0
  C  C195  1  0.12292000  0.99962000  0.94057000  1.0
  C  C196  1  0.29796000  0.62062000  0.49191000  1.0
  C  C197  1  0.79796000  0.87938000  0.00810000  1.0
  C  C198  1  0.70204000  0.37938000  0.50809000  1.0
  C  C199  1  0.20204000  0.12062000  0.99191000  1.0
  C  C200  1  0.69285000  0.88487000  0.44098000  1.0
  C  C201  1  0.19285000  0.61513000  0.05902000  1.0
  C  C202  1  0.30715000  0.11513000  0.55902000  1.0
  C  C203  1  0.80716000  0.38487000  0.94098000  1.0
  C  C204  1  0.34155000  0.56696000  0.43070000  1.0
  C  C205  1  0.84155000  0.93304000  0.06930000  1.0
  C  C206  1  0.65845000  0.43303000  0.56930000  1.0
  C  C207  1  0.15844000  0.06697000  0.93070000  1.0
  C  C208  1  0.64424000  0.85601000  0.63538000  1.0
  C  C209  1  0.14425000  0.64399000  0.86462000  1.0
  C  C210  1  0.35576000  0.14399000  0.36462000  1.0
  C  C211  1  0.85575000  0.35601000  0.13538000  1.0
  C  C212  1  0.73691000  0.84382000  0.36638000  1.0
  C  C213  1  0.23691000  0.65618000  0.13362000  1.0
  C  C214  1  0.26309000  0.15618000  0.63362000  1.0
  C  C215  1  0.76309000  0.34382000  0.86638000  1.0
  C  C216  1  0.61821000  0.99914000  0.52349000  1.0
  C  C217  1  0.11821000  0.50086000  0.97651000  1.0
  C  C218  1  0.38179000  0.00086000  0.47651000  1.0
  C  C219  1  0.88179000  0.49915000  0.02349000  1.0
  C  C220  1  0.61196000  0.96241000  0.58046000  1.0
  C  C221  1  0.11196000  0.53758000  0.91953000  1.0
  C  C222  1  0.38804000  0.03759000  0.41953000  1.0
  C  C223  1  0.88804000  0.46241000  0.08046000  1.0
  C  C224  1  0.44843000  0.36607000  0.47466000  1.0
  C  C225  1  0.94842000  0.13393000  0.02534000  1.0
  C  C226  1  0.55157000  0.63392000  0.52534000  1.0
  C  C227  1  0.05157000  0.86608000  0.97466000  1.0
  C  C228  1  0.47557000  0.31224000  0.51885000  1.0
  C  C229  1  0.97556000  0.18776000  0.98114000  1.0
  C  C230  1  0.52443000  0.68776000  0.48115000  1.0
  C  C231  1  0.02443000  0.81224000  0.01886000  1.0
  C  C232  1  0.31947000  0.53777000  0.57124000  1.0
  C  C233  1  0.81947000  0.96223000  0.92876000  1.0
  C  C234  1  0.68052000  0.46223000  0.42876000  1.0
  C  C235  1  0.18053000  0.03777000  0.07124000  1.0
  C  C236  1  0.65911000  0.96038000  0.45347000  1.0
  C  C237  1  0.15911000  0.53961000  0.04653000  1.0
  C  C238  1  0.34089000  0.03961000  0.54653000  1.0
  C  C239  1  0.84090000  0.46039000  0.95347000  1.0
  C  C240  1  0.28731000  0.60628000  0.56257000  1.0
  C  C241  1  0.78730000  0.89372000  0.93744000  1.0
  C  C242  1  0.71269000  0.39372000  0.43743000  1.0
  C  C243  1  0.21269000  0.10628000  0.06257000  1.0
  C  C244  1  0.58510000  0.11300000  0.48602000  1.0
  C  C245  1  0.08510000  0.38700000  0.01398000  1.0
  C  C246  1  0.41490000  0.88700000  0.51398000  1.0
  C  C247  1  0.91490000  0.61301000  0.98602000  1.0
  C  C248  1  0.54342000  0.19168000  0.52577000  1.0
  C  C249  1  0.04342000  0.30832000  0.97423000  1.0
  C  C250  1  0.45658000  0.80832000  0.47423000  1.0
  C  C251  1  0.95658000  0.69169000  0.02577000  1.0
  C  C252  1  0.52733000  0.24123000  0.47316000  1.0
  C  C253  1  0.02733000  0.25877000  0.02684000  1.0
  C  C254  1  0.47267000  0.75877000  0.52684000  1.0
  C  C255  1  0.97267000  0.74123000  0.97316000  1.0
  C  C256  1  0.36590000  0.48528000  0.51132000  1.0
  C  C257  1  0.86590000  0.01472000  0.98868000  1.0
  C  C258  1  0.63410000  0.51471000  0.48868000  1.0
  C  C259  1  0.13410000  0.98528000  0.01132000  1.0
  C  C260  1  0.24418000  0.66572000  0.62977000  1.0
  C  C261  1  0.74418000  0.83428000  0.87023000  1.0
  C  C262  1  0.75582000  0.33428000  0.37023000  1.0
  C  C263  1  0.25582000  0.16572000  0.12977000  1.0
  C  C264  1  0.34922000  0.58161000  0.35382000  1.0
  C  C265  1  0.84921000  0.91839000  0.14618000  1.0
  C  C266  1  0.65079000  0.41839000  0.64618000  1.0
  C  C267  1  0.15078000  0.08161000  0.85382000  1.0
  C  C268  1  0.78535000  0.63713000  0.61666000  1.0
  C  C269  1  0.28535000  0.86288000  0.88334000  1.0
  C  C270  1  0.21465000  0.36287000  0.38334000  1.0
  C  C271  1  0.71465000  0.13713000  0.11666000  1.0
  C  C272  1  0.76995000  0.62240000  0.73081000  1.0
  C  C273  1  0.26995000  0.87761000  0.76919000  1.0
  C  C274  1  0.23005000  0.37760000  0.26919000  1.0
  C  C275  1  0.73005000  0.12240000  0.23081000  1.0
  C  C276  1  0.94388000  0.34491000  0.69013000  1.0
  C  C277  1  0.44389000  0.15508000  0.80987000  1.0
  C  C278  1  0.05612000  0.65508000  0.30987000  1.0
  C  C279  1  0.55612000  0.84491000  0.19013000  1.0
  C  C280  1  0.95038000  0.42625000  0.75571000  1.0
  C  C281  1  0.45038000  0.07375000  0.74429000  1.0
  C  C282  1  0.04962000  0.57374000  0.24429000  1.0
  C  C283  1  0.54962000  0.92625000  0.25571000  1.0
  C  C284  1  0.82008000  0.56578000  0.61148000  1.0
  C  C285  1  0.32008000  0.93422000  0.88852000  1.0
  C  C286  1  0.17992000  0.43422000  0.38852000  1.0
  C  C287  1  0.67992000  0.06578000  0.11148000  1.0
  C  C288  1  0.92289000  0.49600000  0.73099000  1.0
  C  C289  1  0.42289000  0.00400000  0.76901000  1.0
  C  C290  1  0.07711000  0.50400000  0.26901000  1.0
  C  C291  1  0.57711000  0.99600000  0.23099000  1.0
  C  C292  1  0.83558000  0.48935000  0.70581000  1.0
  C  C293  1  0.33558000  0.01066000  0.79419000  1.0
  C  C294  1  0.16442000  0.51065000  0.29419000  1.0
  C  C295  1  0.66442000  0.98935000  0.20581000  1.0
  C  C296  1  0.06242000  0.26844000  0.70885000  1.0
  C  C297  1  0.56242000  0.23156000  0.79115000  1.0
  C  C298  1  0.93758000  0.73156000  0.29115000  1.0
  C  C299  1  0.43758000  0.76844000  0.20885000  1.0
  C  C300  1  0.94793000  0.23371000  0.74837000  1.0
  C  C301  1  0.44794000  0.26629000  0.75163000  1.0
  C  C302  1  0.05206000  0.76629000  0.25163000  1.0
  C  C303  1  0.55206000  0.73372000  0.24837000  1.0
  C  C304  1  0.00863000  0.19048000  0.76528000  1.0
  C  C305  1  0.50863000  0.30952000  0.73472000  1.0
  C  C306  1  0.99137000  0.80951000  0.23472000  1.0
  C  C307  1  0.49137000  0.69049000  0.26528000  1.0
  C  C308  1  0.50241000  0.76297000  0.73728000  1.0
  C  C309  1  0.00241000  0.73703000  0.76272000  1.0
  C  C310  1  0.49759000  0.23703000  0.26272000  1.0
  C  C311  1  0.99759000  0.26297000  0.23728000  1.0
  C  C312  1  0.56400000  0.65663000  0.74131000  1.0
  C  C313  1  0.06400000  0.84337000  0.75869000  1.0
  C  C314  1  0.43599000  0.34337000  0.25869000  1.0
  C  C315  1  0.93599000  0.15663000  0.24131000  1.0
  C  C316  1  0.27034000  0.31162000  0.90667000  1.0
  C  C317  1  0.77034000  0.18837000  0.59333000  1.0
  C  C318  1  0.72966000  0.68838000  0.09333000  1.0
  C  C319  1  0.22966000  0.81162000  0.40666000  1.0
  C  C320  1  0.44485000  0.70795000  0.73669000  1.0
  C  C321  1  0.94485000  0.79205000  0.76331000  1.0
  C  C322  1  0.55515000  0.29205000  0.26331000  1.0
  C  C323  1  0.05515000  0.20796000  0.23669000  1.0
  C  C324  1  0.45189000  0.56460000  0.73648000  1.0
  C  C325  1  0.95189000  0.93540000  0.76352000  1.0
  C  C326  1  0.54811000  0.43540000  0.26352000  1.0
  C  C327  1  0.04811000  0.06460000  0.23648000  1.0
  C  C328  1  0.29822000  0.38875000  0.92979000  1.0
  C  C329  1  0.79821000  0.11124000  0.57021000  1.0
  C  C330  1  0.70179000  0.61124000  0.07021000  1.0
  C  C331  1  0.20179000  0.88875000  0.42979000  1.0
  C  C332  1  0.39348000  0.57201000  0.80301000  1.0
  C  C333  1  0.89348000  0.92799000  0.69699000  1.0
  C  C334  1  0.60652000  0.42799000  0.19699000  1.0
  C  C335  1  0.10652000  0.07201000  0.30301000  1.0
  C  C336  1  0.25303000  0.35388000  0.80795000  1.0
  C  C337  1  0.75302000  0.14612000  0.69206000  1.0
  C  C338  1  0.74698000  0.64612000  0.19206000  1.0
  C  C339  1  0.24698000  0.85388000  0.30794000  1.0
  C  C340  1  0.37377000  0.48903000  0.80494000  1.0
  C  C341  1  0.87377000  0.01097000  0.69506000  1.0
  C  C342  1  0.62623000  0.51097000  0.19506000  1.0
  C  C343  1  0.12623000  0.98903000  0.30494000  1.0
  C  C344  1  0.30680000  0.49286000  0.86280000  1.0
  C  C345  1  0.80680000  0.00714000  0.63720000  1.0
  C  C346  1  0.69320000  0.50714000  0.13720000  1.0
  C  C347  1  0.19320000  0.99286000  0.36280000  1.0
  N  N348  1  0.75404000  0.67187000  0.69144000  1.0
  N  N349  1  0.25404000  0.82813000  0.80856000  1.0
  N  N350  1  0.24596000  0.32813000  0.30856000  1.0
  N  N351  1  0.74596000  0.17187000  0.19144000  1.0
  N  N352  1  0.80946000  0.55710000  0.68392000  1.0
  N  N353  1  0.30946000  0.94290000  0.81608000  1.0
  N  N354  1  0.19054000  0.44290000  0.31608000  1.0
  N  N355  1  0.69054000  0.05710000  0.18392000  1.0
  N  N356  1  0.98301000  0.28246000  0.71236000  1.0
  N  N357  1  0.48301000  0.21754000  0.78764000  1.0
  N  N358  1  0.01699000  0.71754000  0.28764000  1.0
  N  N359  1  0.51699000  0.78246000  0.21236000  1.0
  N  N360  1  0.07988000  0.21294000  0.74059000  1.0
  N  N361  1  0.57988000  0.28707000  0.75941000  1.0
  N  N362  1  0.92012000  0.78706000  0.25941000  1.0
  N  N363  1  0.42012000  0.71294000  0.24059000  1.0
  N  N364  1  0.57661000  0.73002000  0.73970000  1.0
  N  N365  1  0.07661000  0.76998000  0.76030000  1.0
  N  N366  1  0.42339000  0.26998000  0.26030000  1.0
  N  N367  1  0.92339000  0.23003000  0.23970000  1.0
  N  N368  1  0.24233000  0.29051000  0.83028000  1.0
  N  N369  1  0.74233000  0.20949000  0.66972000  1.0
  N  N370  1  0.75767000  0.70949000  0.16973000  1.0
  N  N371  1  0.25767000  0.79050000  0.33027000  1.0
  N  N372  1  0.48507000  0.64109000  0.73913000  1.0
  N  N373  1  0.98507000  0.85891000  0.76087000  1.0
  N  N374  1  0.51493000  0.35891000  0.26087000  1.0
  N  N375  1  0.01493000  0.14109000  0.23913000  1.0
  N  N376  1  0.28660000  0.41457000  0.86683000  1.0
  N  N377  1  0.78660000  0.08543000  0.63317000  1.0
  N  N378  1  0.71340000  0.58543000  0.13318000  1.0
  N  N379  1  0.21340000  0.91457000  0.36683000  1.0
  O  O380  1  0.31542000  0.64751000  0.35394000  1.0
  O  O381  1  0.81542000  0.85249000  0.14606000  1.0
  O  O382  1  0.68459000  0.35249000  0.64605000  1.0
  O  O383  1  0.18458000  0.14751000  0.85395000  1.0
  O  O384  1  0.60287000  0.88993000  0.69522000  1.0
  O  O385  1  0.10288000  0.61007000  0.80478000  1.0
  O  O386  1  0.39713000  0.11007000  0.30478000  1.0
  O  O387  1  0.89712000  0.38993000  0.19521000  1.0
  O  O388  1  0.68826000  0.79367000  0.62731000  1.0
  O  O389  1  0.18826000  0.70633000  0.87269000  1.0
  O  O390  1  0.31174000  0.20634000  0.37269000  1.0
  O  O391  1  0.81174000  0.29367000  0.12731000  1.0
  O  O392  1  0.76671000  0.77546000  0.35209000  1.0
  O  O393  1  0.26671000  0.72454000  0.14791000  1.0
  O  O394  1  0.23329000  0.22454000  0.64791000  1.0
  O  O395  1  0.73329000  0.27547000  0.85209000  1.0
  O  O396  1  0.58442000  0.07264000  0.54278000  1.0
  O  O397  1  0.08442000  0.42736000  0.95722000  1.0
  O  O398  1  0.41558000  0.92736000  0.45722000  1.0
  O  O399  1  0.91558000  0.57264000  0.04279000  1.0
  O  O400  1  0.39681000  0.42317000  0.52940000  1.0
  O  O401  1  0.89681000  0.07683000  0.97060000  1.0
  O  O402  1  0.60319000  0.57683000  0.47060000  1.0
  O  O403  1  0.10319000  0.92317000  0.02940000  1.0
  O  O404  1  0.38436000  0.53342000  0.29604000  1.0
  O  O405  1  0.88436000  0.96658000  0.20396000  1.0
  O  O406  1  0.61564000  0.46657000  0.70396000  1.0
  O  O407  1  0.11564000  0.03342000  0.79604000  1.0
  O  O408  1  0.74357000  0.88217000  0.31691000  1.0
  O  O409  1  0.24357000  0.61783000  0.18309000  1.0
  O  O410  1  0.25643000  0.11783000  0.68310000  1.0
  O  O411  1  0.75643000  0.38217000  0.81690000  1.0
  O  O412  1  0.23764000  0.64625000  0.69274000  1.0
  O  O413  1  0.73763000  0.85375000  0.80725000  1.0
  O  O414  1  0.76236000  0.35375000  0.30725000  1.0
  O  O415  1  0.26237000  0.14625000  0.19275000  1.0
  O  O416  1  0.21839000  0.72993000  0.62508000  1.0
  O  O417  1  0.71838000  0.77007000  0.87492000  1.0
  O  O418  1  0.78162000  0.27007000  0.37492000  1.0
  O  O419  1  0.28162000  0.22993000  0.12508000  1.0
