# generated using pymatgen
data_Cd2H36C52(N4O5)3
_symmetry_space_group_name_H-M   'P 1'
_cell_length_a   12.70320000
_cell_length_b   14.16640000
_cell_length_c   17.34650000
_cell_angle_alpha   99.48390000
_cell_angle_beta   108.87600000
_cell_angle_gamma   96.44860000
_symmetry_Int_Tables_number   1
_chemical_formula_structural   Cd2H36C52(N4O5)3
_chemical_formula_sum   'Cd4 H72 C104 N24 O30'
_cell_volume   2867.16036132
_cell_formula_units_Z   2
loop_
 _symmetry_equiv_pos_site_id
 _symmetry_equiv_pos_as_xyz
  1  'x, y, z'
loop_
 _atom_site_type_symbol
 _atom_site_label
 _atom_site_symmetry_multiplicity
 _atom_site_fract_x
 _atom_site_fract_y
 _atom_site_fract_z
 _atom_site_occupancy
  Cd  Cd0  1  0.32658000  0.98209000  0.26757000  1.0
  Cd  Cd1  1  0.67343000  0.01791000  0.73243000  1.0
  Cd  Cd2  1  0.41599000  0.69043000  0.76358000  1.0
  Cd  Cd3  1  0.58401000  0.30959000  0.23642000  1.0
  H  H4  1  0.41314000  0.17401000  0.84180000  1.0
  H  H5  1  0.58686000  0.82601000  0.15821000  1.0
  H  H6  1  0.31959000  0.47686000  0.26631000  1.0
  H  H7  1  0.68042000  0.52313000  0.73368000  1.0
  H  H8  1  0.55810000  0.09523000  0.34064000  1.0
  H  H9  1  0.44190000  0.90477000  0.65936000  1.0
  H  H10  1  0.56390000  0.98272000  0.34796000  1.0
  H  H11  1  0.43611000  0.01728000  0.65204000  1.0
  H  H12  1  0.65700000  0.76671000  0.82435000  1.0
  H  H13  1  0.34300000  0.23329000  0.17565000  1.0
  H  H14  1  0.61868000  0.68802000  0.73959000  1.0
  H  H15  1  0.38131000  0.31198000  0.26041000  1.0
  H  H16  1  0.15902000  0.94333000  0.36220000  1.0
  H  H17  1  0.84099000  0.05666000  0.63780000  1.0
  H  H18  1  0.07561000  0.97072000  0.11714000  1.0
  H  H19  1  0.92441000  0.02928000  0.88286000  1.0
  H  H20  1  0.86713000  0.92127000  0.08910000  1.0
  H  H21  1  0.13289000  0.07872000  0.91089000  1.0
  H  H22  1  0.80627000  0.87866000  0.20472000  1.0
  H  H23  1  0.19375000  0.12133000  0.79527000  1.0
  H  H24  1  0.87687000  0.83160000  0.59670000  1.0
  H  H25  1  0.12312000  0.16840000  0.40329000  1.0
  H  H26  1  0.16576000  0.86082000  0.80320000  1.0
  H  H27  1  0.83422000  0.13916000  0.19679000  1.0
  H  H28  1  0.29094000  0.89966000  0.72341000  1.0
  H  H29  1  0.70904000  0.10031000  0.27658000  1.0
  H  H30  1  0.20199000  0.90566000  0.57251000  1.0
  H  H31  1  0.79800000  0.09432000  0.42748000  1.0
  H  H32  1  0.31998000  0.35281000  0.51053000  1.0
  H  H33  1  0.68001000  0.64719000  0.48946000  1.0
  H  H34  1  0.25801000  0.33925000  0.35654000  1.0
  H  H35  1  0.74198000  0.66074000  0.64345000  1.0
  H  H36  1  0.25845000  0.18092000  0.26551000  1.0
  H  H37  1  0.74156000  0.81907000  0.73449000  1.0
  H  H38  1  0.39263000  0.06070000  0.46975000  1.0
  H  H39  1  0.60736000  0.93930000  0.53025000  1.0
  H  H40  1  0.56038000  0.32213000  0.88565000  1.0
  H  H41  1  0.43960000  0.67787000  0.11434000  1.0
  H  H42  1  0.60411000  0.48124000  0.98848000  1.0
  H  H43  1  0.39585000  0.51875000  0.01152000  1.0
  H  H44  1  0.52556000  0.62414000  0.93918000  1.0
  H  H45  1  0.47443000  0.37587000  0.06082000  1.0
  H  H46  1  0.37785000  0.46649000  0.69574000  1.0
  H  H47  1  0.62215000  0.53352000  0.30426000  1.0
  H  H48  1  0.19135000  0.65539000  0.59285000  1.0
  H  H49  1  0.80865000  0.34461000  0.40715000  1.0
  H  H50  1  0.21656000  0.63399000  0.83280000  1.0
  H  H51  1  0.78345000  0.36601000  0.16720000  1.0
  H  H52  1  0.00588000  0.58097000  0.78985000  1.0
  H  H53  1  0.99412000  0.41903000  0.21016000  1.0
  H  H54  1  0.88511000  0.56828000  0.64032000  1.0
  H  H55  1  0.11489000  0.43172000  0.35968000  1.0
  H  H56  1  0.76160000  0.59513000  0.24175000  1.0
  H  H57  1  0.23839000  0.40490000  0.75825000  1.0
  H  H58  1  0.96168000  0.67818000  0.10939000  1.0
  H  H59  1  0.03833000  0.32182000  0.89061000  1.0
  H  H60  1  0.13614000  0.71663000  0.23625000  1.0
  H  H61  1  0.86386000  0.28335000  0.76375000  1.0
  H  H62  1  0.12059000  0.68889000  0.37199000  1.0
  H  H63  1  0.87941000  0.31109000  0.62801000  1.0
  H  H64  1  0.33642000  0.18968000  0.02430000  1.0
  H  H65  1  0.66358000  0.81033000  0.97571000  1.0
  H  H66  1  0.42466000  0.01385000  0.83416000  1.0
  H  H67  1  0.57535000  0.98617000  0.16584000  1.0
  H  H68  1  0.33172000  0.88303000  0.01503000  1.0
  H  H69  1  0.66829000  0.11698000  0.98497000  1.0
  H  H70  1  0.37171000  0.82130000  0.50537000  1.0
  H  H71  1  0.62829000  0.17869000  0.49463000  1.0
  H  H72  1  0.31149000  0.63960000  0.26626000  1.0
  H  H73  1  0.68852000  0.36040000  0.73374000  1.0
  H  H74  1  0.36816000  0.51371000  0.48454000  1.0
  H  H75  1  0.63185000  0.48628000  0.51545000  1.0
  C  C76  1  0.09156000  0.93815000  0.30278000  1.0
  C  C77  1  0.90846000  0.06184000  0.69722000  1.0
  C  C78  1  0.04449000  0.95266000  0.16559000  1.0
  C  C79  1  0.95553000  0.04733000  0.83441000  1.0
  C  C80  1  0.92942000  0.92491000  0.15034000  1.0
  C  C81  1  0.07060000  0.07508000  0.84966000  1.0
  C  C82  1  0.89505000  0.90230000  0.21452000  1.0
  C  C83  1  0.10496000  0.09770000  0.78547000  1.0
  C  C84  1  0.97787000  0.90947000  0.29283000  1.0
  C  C85  1  0.02214000  0.09053000  0.70717000  1.0
  C  C86  1  0.94729000  0.88633000  0.36180000  1.0
  C  C87  1  0.05272000  0.11366000  0.63820000  1.0
  C  C88  1  0.97207000  0.86833000  0.48685000  1.0
  C  C89  1  0.02793000  0.13166000  0.51315000  1.0
  C  C90  1  0.03178000  0.86874000  0.57350000  1.0
  C  C91  1  0.96821000  0.13125000  0.42649000  1.0
  C  C92  1  0.96888000  0.84705000  0.62384000  1.0
  C  C93  1  0.03111000  0.15294000  0.37615000  1.0
  C  C94  1  0.12912000  0.86346000  0.73747000  1.0
  C  C95  1  0.87086000  0.13652000  0.26252000  1.0
  C  C96  1  0.19941000  0.88636000  0.69308000  1.0
  C  C97  1  0.80058000  0.11362000  0.30692000  1.0
  C  C98  1  0.15014000  0.88891000  0.60944000  1.0
  C  C99  1  0.84985000  0.11108000  0.39056000  1.0
  C  C100  1  0.32325000  0.28694000  0.46978000  1.0
  C  C101  1  0.67675000  0.71306000  0.53021000  1.0
  C  C102  1  0.28735000  0.27923000  0.38408000  1.0
  C  C103  1  0.71264000  0.72076000  0.61591000  1.0
  C  C104  1  0.28910000  0.19292000  0.33348000  1.0
  C  C105  1  0.71089000  0.80707000  0.66652000  1.0
  C  C106  1  0.36230000  0.12388000  0.44792000  1.0
  C  C107  1  0.63770000  0.87612000  0.55208000  1.0
  C  C108  1  0.35879000  0.20701000  0.50273000  1.0
  C  C109  1  0.64120000  0.79299000  0.49727000  1.0
  C  C110  1  0.39101000  0.21451000  0.59217000  1.0
  C  C111  1  0.60898000  0.78550000  0.40783000  1.0
  C  C112  1  0.43638000  0.29415000  0.71821000  1.0
  C  C113  1  0.56361000  0.70586000  0.28179000  1.0
  C  C114  1  0.46408000  0.38166000  0.78283000  1.0
  C  C115  1  0.53591000  0.61835000  0.21717000  1.0
  C  C116  1  0.52893000  0.38606000  0.86634000  1.0
  C  C117  1  0.47105000  0.61394000  0.13366000  1.0
  C  C118  1  0.55272000  0.47410000  0.92330000  1.0
  C  C119  1  0.44726000  0.52590000  0.07671000  1.0
  C  C120  1  0.51047000  0.55426000  0.89630000  1.0
  C  C121  1  0.48951000  0.44575000  0.10370000  1.0
  C  C122  1  0.42715000  0.46633000  0.76021000  1.0
  C  C123  1  0.57284000  0.53368000  0.23979000  1.0
  C  C124  1  0.14716000  0.63886000  0.63467000  1.0
  C  C125  1  0.85284000  0.36115000  0.36533000  1.0
  C  C126  1  0.16044000  0.62500000  0.76839000  1.0
  C  C127  1  0.83956000  0.37500000  0.23161000  1.0
  C  C128  1  0.04346000  0.59727000  0.74426000  1.0
  C  C129  1  0.95654000  0.40274000  0.25574000  1.0
  C  C130  1  0.97658000  0.59051000  0.66187000  1.0
  C  C131  1  0.02342000  0.40949000  0.33813000  1.0
  C  C132  1  0.02903000  0.61283000  0.60549000  1.0
  C  C133  1  0.97097000  0.38717000  0.39451000  1.0
  C  C134  1  0.96115000  0.60847000  0.51945000  1.0
  C  C135  1  0.03885000  0.39153000  0.48055000  1.0
  C  C136  1  0.92061000  0.62112000  0.39159000  1.0
  C  C137  1  0.07939000  0.37889000  0.60841000  1.0
  C  C138  1  0.93878000  0.63999000  0.31690000  1.0
  C  C139  1  0.06122000  0.36001000  0.68310000  1.0
  C  C140  1  0.84559000  0.62170000  0.24187000  1.0
  C  C141  1  0.15441000  0.37831000  0.75812000  1.0
  C  C142  1  0.95719000  0.66728000  0.16924000  1.0
  C  C143  1  0.04282000  0.33273000  0.83076000  1.0
  C  C144  1  0.05494000  0.68824000  0.24011000  1.0
  C  C145  1  0.94507000  0.31175000  0.75989000  1.0
  C  C146  1  0.04599000  0.67396000  0.31550000  1.0
  C  C147  1  0.95401000  0.32603000  0.68450000  1.0
  C  C148  1  0.33045000  0.03710000  0.02756000  1.0
  C  C149  1  0.66956000  0.96291000  0.97245000  1.0
  C  C150  1  0.34658000  0.11910000  0.99436000  1.0
  C  C151  1  0.65343000  0.88091000  0.00565000  1.0
  C  C152  1  0.37851000  0.11032000  0.92369000  1.0
  C  C153  1  0.62150000  0.88969000  0.07632000  1.0
  C  C154  1  0.39502000  0.02045000  0.88696000  1.0
  C  C155  1  0.60499000  0.97957000  0.11304000  1.0
  C  C156  1  0.37652000  0.93835000  0.91938000  1.0
  C  C157  1  0.62349000  0.06166000  0.08063000  1.0
  C  C158  1  0.34372000  0.94651000  0.98909000  1.0
  C  C159  1  0.65628000  0.05350000  0.01091000  1.0
  C  C160  1  0.30573000  0.04412000  0.10719000  1.0
  C  C161  1  0.69427000  0.95588000  0.89282000  1.0
  C  C162  1  0.39468000  0.84234000  0.87952000  1.0
  C  C163  1  0.60532000  0.15767000  0.12048000  1.0
  C  C164  1  0.37217000  0.66863000  0.50419000  1.0
  C  C165  1  0.62783000  0.33136000  0.49581000  1.0
  C  C166  1  0.36199000  0.74940000  0.46760000  1.0
  C  C167  1  0.63801000  0.25059000  0.53240000  1.0
  C  C168  1  0.34116000  0.73856000  0.38235000  1.0
  C  C169  1  0.65883000  0.26144000  0.61765000  1.0
  C  C170  1  0.32831000  0.64645000  0.33297000  1.0
  C  C171  1  0.67170000  0.35355000  0.66703000  1.0
  C  C172  1  0.33740000  0.56559000  0.36948000  1.0
  C  C173  1  0.66262000  0.43441000  0.63052000  1.0
  C  C174  1  0.35994000  0.57615000  0.45529000  1.0
  C  C175  1  0.64007000  0.42384000  0.54471000  1.0
  C  C176  1  0.39614000  0.68338000  0.59633000  1.0
  C  C177  1  0.60386000  0.31661000  0.40367000  1.0
  C  C178  1  0.33381000  0.82622000  0.34457000  1.0
  C  C179  1  0.66619000  0.17377000  0.65543000  1.0
  N  N180  1  0.12387000  0.95852000  0.24038000  1.0
  N  N181  1  0.87615000  0.04148000  0.75962000  1.0
  N  N182  1  0.84751000  0.85417000  0.36353000  1.0
  N  N183  1  0.15249000  0.14584000  0.63646000  1.0
  N  N184  1  0.86344000  0.84252000  0.44420000  1.0
  N  N185  1  0.13656000  0.15749000  0.55580000  1.0
  N  N186  1  0.01557000  0.84360000  0.70395000  1.0
  N  N187  1  0.98441000  0.15638000  0.29604000  1.0
  N  N188  1  0.32821000  0.11810000  0.36530000  1.0
  N  N189  1  0.67179000  0.88189000  0.63470000  1.0
  N  N190  1  0.40841000  0.15090000  0.64026000  1.0
  N  N191  1  0.59159000  0.84911000  0.35974000  1.0
  N  N192  1  0.43721000  0.20263000  0.72200000  1.0
  N  N193  1  0.56278000  0.79738000  0.27800000  1.0
  N  N194  1  0.44891000  0.54993000  0.81604000  1.0
  N  N195  1  0.55108000  0.45007000  0.18396000  1.0
  N  N196  1  0.21103000  0.64422000  0.71414000  1.0
  N  N197  1  0.78897000  0.35579000  0.28586000  1.0
  N  N198  1  0.85137000  0.58142000  0.48321000  1.0
  N  N199  1  0.14863000  0.41858000  0.51679000  1.0
  N  N200  1  0.82526000  0.58975000  0.40095000  1.0
  N  N201  1  0.17474000  0.41026000  0.59905000  1.0
  N  N202  1  0.85368000  0.63414000  0.16933000  1.0
  N  N203  1  0.14633000  0.36588000  0.83067000  1.0
  O  O204  1  0.03108000  0.89717000  0.43832000  1.0
  O  O205  1  0.96892000  0.10282000  0.56169000  1.0
  O  O206  1  0.40640000  0.30633000  0.63800000  1.0
  O  O207  1  0.59359000  0.69368000  0.36200000  1.0
  O  O208  1  0.01123000  0.63476000  0.46487000  1.0
  O  O209  1  0.98877000  0.36525000  0.53512000  1.0
  O  O210  1  0.30777000  0.96611000  0.13575000  1.0
  O  O211  1  0.69223000  0.03389000  0.86425000  1.0
  O  O212  1  0.28413000  0.12188000  0.14198000  1.0
  O  O213  1  0.71586000  0.87813000  0.85802000  1.0
  O  O214  1  0.39309000  0.19156000  0.89192000  1.0
  O  O215  1  0.60692000  0.80846000  0.10809000  1.0
  O  O216  1  0.43324000  0.84486000  0.81943000  1.0
  O  O217  1  0.56676000  0.15515000  0.18058000  1.0
  O  O218  1  0.37068000  0.76519000  0.90261000  1.0
  O  O219  1  0.62931000  0.23482000  0.09739000  1.0
  O  O220  1  0.40807000  0.60967000  0.63007000  1.0
  O  O221  1  0.59195000  0.39032000  0.36994000  1.0
  O  O222  1  0.40090000  0.76823000  0.63718000  1.0
  O  O223  1  0.59909000  0.23176000  0.36282000  1.0
  O  O224  1  0.35161000  0.90905000  0.39263000  1.0
  O  O225  1  0.64840000  0.09095000  0.60738000  1.0
  O  O226  1  0.31018000  0.81380000  0.26577000  1.0
  O  O227  1  0.68983000  0.18620000  0.73423000  1.0
  O  O228  1  0.32366000  0.47354000  0.32288000  1.0
  O  O229  1  0.67636000  0.52646000  0.67711000  1.0
  O  O230  1  0.52699000  0.02632000  0.31310000  1.0
  O  O231  1  0.47301000  0.97368000  0.68690000  1.0
  O  O232  1  0.61964000  0.69678000  0.79673000  1.0
  O  O233  1  0.38036000  0.30323000  0.20328000  1.0
