# generated using pymatgen
data_CuH7C7BrN
_symmetry_space_group_name_H-M   'P 1'
_cell_length_a   8.78124000
_cell_length_b   9.42037000
_cell_length_c   9.73746000
_cell_angle_alpha   91.99270000
_cell_angle_beta   104.80400000
_cell_angle_gamma   90.35990000
_symmetry_Int_Tables_number   1
_chemical_formula_structural   CuH7C7BrN
_chemical_formula_sum   'Cu4 H28 C28 Br4 N4'
_cell_volume   778.20212394
_cell_formula_units_Z   4
loop_
 _symmetry_equiv_pos_site_id
 _symmetry_equiv_pos_as_xyz
  1  'x, y, z'
loop_
 _atom_site_type_symbol
 _atom_site_label
 _atom_site_symmetry_multiplicity
 _atom_site_fract_x
 _atom_site_fract_y
 _atom_site_fract_z
 _atom_site_occupancy
  Cu  Cu0  1  0.90998000  0.57333000  0.84925000  1.0
  Cu  Cu1  1  0.09003000  0.42667000  0.15075000  1.0
  Cu  Cu2  1  0.92202000  0.92567000  0.61307000  1.0
  Cu  Cu3  1  0.07798000  0.07433000  0.38693000  1.0
  H  H4  1  0.04956000  0.82419000  0.86140000  1.0
  H  H5  1  0.95045000  0.17581000  0.13860000  1.0
  H  H6  1  0.94249000  0.13502000  0.79658000  1.0
  H  H7  1  0.05751000  0.86498000  0.20343000  1.0
  H  H8  1  0.13797000  0.05833000  0.80749000  1.0
  H  H9  1  0.86204000  0.94167000  0.19251000  1.0
  H  H10  1  0.71646000  0.08665000  0.81651000  1.0
  H  H11  1  0.28354000  0.91334000  0.18349000  1.0
  H  H12  1  0.45087000  0.02010000  0.84389000  1.0
  H  H13  1  0.54913000  0.97990000  0.15611000  1.0
  H  H14  1  0.40376000  0.76802000  0.90816000  1.0
  H  H15  1  0.59623000  0.23198000  0.09184000  1.0
  H  H16  1  0.62203000  0.59570000  0.92917000  1.0
  H  H17  1  0.37797000  0.40430000  0.07082000  1.0
  H  H18  1  0.05330000  0.67689000  0.67346000  1.0
  H  H19  1  0.94670000  0.32311000  0.32654000  1.0
  H  H20  1  0.93190000  0.36538000  0.67420000  1.0
  H  H21  1  0.06810000  0.63462000  0.32580000  1.0
  H  H22  1  0.12680000  0.44170000  0.76792000  1.0
  H  H23  1  0.87320000  0.55830000  0.23208000  1.0
  H  H24  1  0.74289000  0.40287000  0.50136000  1.0
  H  H25  1  0.25711000  0.59713000  0.49865000  1.0
  H  H26  1  0.50087000  0.46085000  0.31791000  1.0
  H  H27  1  0.49913000  0.53915000  0.68209000  1.0
  H  H28  1  0.44192000  0.71696000  0.26421000  1.0
  H  H29  1  0.55808000  0.28304000  0.73579000  1.0
  H  H30  1  0.63351000  0.90368000  0.39921000  1.0
  H  H31  1  0.36649000  0.09632000  0.60079000  1.0
  C  C32  1  0.80708000  0.87476000  0.85017000  1.0
  C  C33  1  0.19292000  0.12523000  0.14983000  1.0
  C  C34  1  0.96308000  0.90761000  0.83031000  1.0
  C  C35  1  0.03692000  0.09239000  0.16969000  1.0
  C  C36  1  0.01311000  0.03999000  0.79852000  1.0
  C  C37  1  0.98689000  0.96001000  0.20148000  1.0
  C  C38  1  0.68989000  0.97808000  0.83874000  1.0
  C  C39  1  0.31011000  0.02192000  0.16126000  1.0
  C  C40  1  0.54298000  0.94126000  0.85562000  1.0
  C  C41  1  0.45702000  0.05873000  0.14438000  1.0
  C  C42  1  0.51573000  0.80218000  0.89032000  1.0
  C  C43  1  0.48427000  0.19781000  0.10968000  1.0
  C  C44  1  0.63625000  0.70551000  0.90182000  1.0
  C  C45  1  0.36375000  0.29449000  0.09818000  1.0
  C  C46  1  0.81800000  0.62219000  0.54766000  1.0
  C  C47  1  0.18200000  0.37781000  0.45233000  1.0
  C  C48  1  0.96386000  0.59233000  0.65498000  1.0
  C  C49  1  0.03614000  0.40767000  0.34502000  1.0
  C  C50  1  0.00514000  0.46002000  0.71070000  1.0
  C  C51  1  0.99486000  0.53998000  0.28930000  1.0
  C  C52  1  0.71495000  0.51311000  0.47670000  1.0
  C  C53  1  0.28504000  0.48689000  0.52329000  1.0
  C  C54  1  0.58026000  0.54552000  0.37350000  1.0
  C  C55  1  0.41973000  0.45448000  0.62650000  1.0
  C  C56  1  0.54780000  0.68761000  0.34336000  1.0
  C  C57  1  0.45220000  0.31240000  0.65664000  1.0
  C  C58  1  0.65327000  0.79092000  0.41755000  1.0
  C  C59  1  0.34674000  0.20908000  0.58245000  1.0
  Br  Br60  1  0.81141000  0.37208000  0.95594000  1.0
  Br  Br61  1  0.18859000  0.62792000  0.04405000  1.0
  Br  Br62  1  0.81422000  0.12614000  0.46571000  1.0
  Br  Br63  1  0.18579000  0.87387000  0.53430000  1.0
  N  N64  1  0.77773000  0.73799000  0.87885000  1.0
  N  N65  1  0.22227000  0.26201000  0.12115000  1.0
  N  N66  1  0.78651000  0.76076000  0.51639000  1.0
  N  N67  1  0.21349000  0.23924000  0.48361000  1.0
