# generated using pymatgen
data_Zn4H6C9(SN3)4
_symmetry_space_group_name_H-M   'P 1'
_cell_length_a   8.31299000
_cell_length_b   8.54885000
_cell_length_c   8.54885000
_cell_angle_alpha   110.02300000
_cell_angle_beta   108.91300000
_cell_angle_gamma   108.91400000
_symmetry_Int_Tables_number   1
_chemical_formula_structural   Zn4H6C9(SN3)4
_chemical_formula_sum   'Zn4 H6 C9 S4 N12'
_cell_volume   470.86298939
_cell_formula_units_Z   1
loop_
 _symmetry_equiv_pos_site_id
 _symmetry_equiv_pos_as_xyz
  1  'x, y, z'
loop_
 _atom_site_type_symbol
 _atom_site_label
 _atom_site_symmetry_multiplicity
 _atom_site_fract_x
 _atom_site_fract_y
 _atom_site_fract_z
 _atom_site_occupancy
  Zn  Zn0  1  0.37735000  0.75595000  0.00000000  1.0
  Zn  Zn1  1  0.62139000  0.24404000  0.24404000  1.0
  Zn  Zn2  1  0.37735000  0.00000000  0.75595000  1.0
  Zn  Zn3  1  0.88743000  0.00001000  0.00000000  1.0
  H  H4  1  0.55353000  0.62191000  0.30083000  1.0
  H  H5  1  0.93161000  0.67891000  0.37808000  1.0
  H  H6  1  0.25269000  0.69916000  0.32109000  1.0
  H  H7  1  0.93161000  0.37808000  0.67891000  1.0
  H  H8  1  0.55353000  0.30083000  0.62191000  1.0
  H  H9  1  0.25269000  0.32109000  0.69916000  1.0
  C  C10  1  0.87664000  0.63130000  0.00001000  1.0
  C  C11  1  0.24536000  0.36872000  0.36871000  1.0
  C  C12  1  0.87665000  0.00000000  0.63128000  1.0
  C  C13  1  0.48607000  0.51316000  0.15280000  1.0
  C  C14  1  0.97290000  0.63963000  0.48683000  1.0
  C  C15  1  0.33327000  0.84720000  0.36037000  1.0
  C  C16  1  0.97290000  0.48683000  0.63963000  1.0
  C  C17  1  0.48607000  0.15280000  0.51316000  1.0
  C  C18  1  0.33327000  0.36037000  0.84720000  1.0
  S  S19  1  0.87916000  0.44314000  0.00000000  1.0
  S  S20  1  0.43605000  0.55688000  0.55688000  1.0
  S  S21  1  0.87917000  0.99999000  0.44313000  1.0
  S  S22  1  0.60186000  0.00000000  0.00000000  1.0
  N  N23  1  0.87811000  0.77040000  0.00001000  1.0
  N  N24  1  0.10773000  0.22963000  0.22962000  1.0
  N  N25  1  0.87812000  0.00001000  0.77040000  1.0
  N  N26  1  0.39606000  0.52896000  0.00000000  1.0
  N  N27  1  0.86710000  0.47103000  0.47103000  1.0
  N  N28  1  0.39606000  0.00000000  0.52896000  1.0
  N  N29  1  0.47965000  0.34492000  0.09808000  1.0
  N  N30  1  0.13473000  0.75316000  0.65507000  1.0
  N  N31  1  0.38157000  0.90191000  0.24684000  1.0
  N  N32  1  0.13473000  0.65507000  0.75316000  1.0
  N  N33  1  0.47965000  0.09808000  0.34492000  1.0
  N  N34  1  0.38156000  0.24684000  0.90191000  1.0
