# generated using pymatgen
data_KH7(CO)3
_symmetry_space_group_name_H-M   'P 1'
_cell_length_a   5.23971000
_cell_length_b   5.23970000
_cell_length_c   8.94853000
_cell_angle_alpha   92.67290000
_cell_angle_beta   92.67330000
_cell_angle_gamma   90.12030000
_symmetry_Int_Tables_number   1
_chemical_formula_structural   KH7(CO)3
_chemical_formula_sum   'K2 H14 C6 O6'
_cell_volume   245.14088151
_cell_formula_units_Z   2
loop_
 _symmetry_equiv_pos_site_id
 _symmetry_equiv_pos_as_xyz
  1  'x, y, z'
loop_
 _atom_site_type_symbol
 _atom_site_label
 _atom_site_symmetry_multiplicity
 _atom_site_fract_x
 _atom_site_fract_y
 _atom_site_fract_z
 _atom_site_occupancy
  K  K0  1  0.28976000  0.28976000  0.06045000  1.0
  K  K1  1  0.71024000  0.71024000  0.93955000  1.0
  H  H2  1  0.81278000  0.16050000  0.81204000  1.0
  H  H3  1  0.83950000  0.18722000  0.18796000  1.0
  H  H4  1  0.18722000  0.83949000  0.18796000  1.0
  H  H5  1  0.16051000  0.81278000  0.81204000  1.0
  H  H6  1  0.50973000  0.93611000  0.65528000  1.0
  H  H7  1  0.06389000  0.49027000  0.34472000  1.0
  H  H8  1  0.49027000  0.06389000  0.34471000  1.0
  H  H9  1  0.93610000  0.50973000  0.65529000  1.0
  H  H10  1  0.56980000  0.24573000  0.59345000  1.0
  H  H11  1  0.75427000  0.43020000  0.40655000  1.0
  H  H12  1  0.43020000  0.75427000  0.40655000  1.0
  H  H13  1  0.24573000  0.56980000  0.59345000  1.0
  H  H14  1  0.12649000  0.12649000  0.57223000  1.0
  H  H15  1  0.87351000  0.87351000  0.42777000  1.0
  C  C16  1  0.48730000  0.14229000  0.68527000  1.0
  C  C17  1  0.85771000  0.51270000  0.31473000  1.0
  C  C18  1  0.51270000  0.85771000  0.31473000  1.0
  C  C19  1  0.14229000  0.48730000  0.68527000  1.0
  C  C20  1  0.20076000  0.20076000  0.68505000  1.0
  C  C21  1  0.79924000  0.79924000  0.31495000  1.0
  O  O22  1  0.61880000  0.20689000  0.82478000  1.0
  O  O23  1  0.79311000  0.38120000  0.17522000  1.0
  O  O24  1  0.38119000  0.79310000  0.17521000  1.0
  O  O25  1  0.20689000  0.61881000  0.82479000  1.0
  O  O26  1  0.07922000  0.07922000  0.79989000  1.0
  O  O27  1  0.92078000  0.92078000  0.20011000  1.0
