# generated using pymatgen
data_ZnH18C27(N2O3)2
_symmetry_space_group_name_H-M   'P 1'
_cell_length_a   9.50554000
_cell_length_b   11.03180000
_cell_length_c   27.93240000
_cell_angle_alpha   90.39130000
_cell_angle_beta   90.83670000
_cell_angle_gamma   91.07070000
_symmetry_Int_Tables_number   1
_chemical_formula_structural   ZnH18C27(N2O3)2
_chemical_formula_sum   'Zn2 H36 C54 N8 O12'
_cell_volume   2928.18372396
_cell_formula_units_Z   2
loop_
 _symmetry_equiv_pos_site_id
 _symmetry_equiv_pos_as_xyz
  1  'x, y, z'
loop_
 _atom_site_type_symbol
 _atom_site_label
 _atom_site_symmetry_multiplicity
 _atom_site_fract_x
 _atom_site_fract_y
 _atom_site_fract_z
 _atom_site_occupancy
  Zn  Zn0  1  0.64009000  0.50260000  0.49696000  1.0
  Zn  Zn1  1  0.36020000  0.49762000  0.50305000  1.0
  H  H2  1  0.25285000  0.54783000  0.35690000  1.0
  H  H3  1  0.74666000  0.45180000  0.64307000  1.0
  H  H4  1  0.45429000  0.79836000  0.12490000  1.0
  H  H5  1  0.54541000  0.20138000  0.87506000  1.0
  H  H6  1  0.36161000  0.54162000  0.75311000  1.0
  H  H7  1  0.63822000  0.45856000  0.24693000  1.0
  H  H8  1  0.50130000  0.80482000  0.96509000  1.0
  H  H9  1  0.49860000  0.19488000  0.03489000  1.0
  H  H10  1  0.27570000  0.88219000  0.49179000  1.0
  H  H11  1  0.72503000  0.11801000  0.50841000  1.0
  H  H12  1  0.27647000  0.11052000  0.48940000  1.0
  H  H13  1  0.72430000  0.88966000  0.51061000  1.0
  H  H14  1  0.12684000  0.36896000  0.55505000  1.0
  H  H15  1  0.87349000  0.63156000  0.44498000  1.0
  H  H16  1  0.14416000  0.62899000  0.44882000  1.0
  H  H17  1  0.85617000  0.37131000  0.55112000  1.0
  H  H18  1  0.17844000  0.61198000  0.23512000  1.0
  H  H19  1  0.10956000  0.58874000  0.28928000  1.0
  H  H20  1  0.88987000  0.41044000  0.71066000  1.0
  H  H21  1  0.82082000  0.38694000  0.76476000  1.0
  H  H22  1  0.26494000  0.62024000  0.63637000  1.0
  H  H23  1  0.21896000  0.46701000  0.64482000  1.0
  H  H24  1  0.20382000  0.57156000  0.69341000  1.0
  H  H25  1  0.73539000  0.37966000  0.36332000  1.0
  H  H26  1  0.79629000  0.43007000  0.30648000  1.0
  H  H27  1  0.78031000  0.53327000  0.35547000  1.0
  H  H28  1  0.47784000  0.85659000  0.84756000  1.0
  H  H29  1  0.54282000  0.91788000  0.90359000  1.0
  H  H30  1  0.65872000  0.86470000  0.85857000  1.0
  H  H31  1  0.52223000  0.14309000  0.15238000  1.0
  H  H32  1  0.34132000  0.13484000  0.14142000  1.0
  H  H33  1  0.45719000  0.08187000  0.09636000  1.0
  H  H34  1  0.57380000  0.89204000  0.06775000  1.0
  H  H35  1  0.62216000  0.83631000  0.01412000  1.0
  H  H36  1  0.37770000  0.16337000  0.98586000  1.0
  H  H37  1  0.42604000  0.10765000  0.93223000  1.0
  C  C38  1  0.50050000  0.73802000  0.50196000  1.0
  C  C39  1  0.50061000  0.26222000  0.49810000  1.0
  C  C40  1  0.48366000  0.50544000  0.40520000  1.0
  C  C41  1  0.51584000  0.49478000  0.59482000  1.0
  C  C42  1  0.39759000  0.61132000  0.17708000  1.0
  C  C43  1  0.60218000  0.38839000  0.82291000  1.0
  C  C44  1  0.41181000  0.38622000  0.17830000  1.0
  C  C45  1  0.58811000  0.61351000  0.82169000  1.0
  C  C46  1  0.55440000  0.47927000  0.27181000  1.0
  C  C47  1  0.44535000  0.52078000  0.72821000  1.0
  C  C48  1  0.58380000  0.47923000  0.32094000  1.0
  C  C49  1  0.41590000  0.52092000  0.67908000  1.0
  C  C50  1  0.33723000  0.52884000  0.33206000  1.0
  C  C51  1  0.66234000  0.47094000  0.66792000  1.0
  C  C52  1  0.30962000  0.53229000  0.28268000  1.0
  C  C53  1  0.69000000  0.46734000  0.71729000  1.0
  C  C54  1  0.42209000  0.50448000  0.25272000  1.0
  C  C55  1  0.57762000  0.49530000  0.74728000  1.0
  C  C56  1  0.44244000  0.49592000  0.10043000  1.0
  C  C57  1  0.55733000  0.50379000  0.89955000  1.0
  C  C58  1  0.42911000  0.60715000  0.12554000  1.0
  C  C59  1  0.57066000  0.39256000  0.87444000  1.0
  C  C60  1  0.45885000  0.71551000  0.10337000  1.0
  C  C61  1  0.54091000  0.28420000  0.89661000  1.0
  C  C62  1  0.43047000  0.38495000  0.12583000  1.0
  C  C63  1  0.56936000  0.61476000  0.87416000  1.0
  C  C64  1  0.46988000  0.50349000  0.35153000  1.0
  C  C65  1  0.52973000  0.49657000  0.64848000  1.0
  C  C66  1  0.51957000  0.61246000  0.97514000  1.0
  C  C67  1  0.48024000  0.38721000  0.02485000  1.0
  C  C68  1  0.50418000  0.38586000  0.97335000  1.0
  C  C69  1  0.49562000  0.61383000  0.02663000  1.0
  C  C70  1  0.52966000  0.49938000  0.94981000  1.0
  C  C71  1  0.47013000  0.50030000  0.05018000  1.0
  C  C72  1  0.52580000  0.71920000  0.94807000  1.0
  C  C73  1  0.47410000  0.28048000  0.05191000  1.0
  C  C74  1  0.55163000  0.72462000  0.89882000  1.0
  C  C75  1  0.44827000  0.27509000  0.10117000  1.0
  C  C76  1  0.50262000  0.72093000  0.05552000  1.0
  C  C77  1  0.49719000  0.27876000  0.94447000  1.0
  C  C78  1  0.37337000  0.93491000  0.49537000  1.0
  C  C79  1  0.62738000  0.06529000  0.50478000  1.0
  C  C80  1  0.37362000  0.06088000  0.49418000  1.0
  C  C81  1  0.62716000  0.93933000  0.50590000  1.0
  C  C82  1  0.50061000  0.12675000  0.49892000  1.0
  C  C83  1  0.50018000  0.87346000  0.50118000  1.0
  C  C84  1  0.06852000  0.42702000  0.53070000  1.0
  C  C85  1  0.93182000  0.57343000  0.46930000  1.0
  C  C86  1  0.07801000  0.57235000  0.47143000  1.0
  C  C87  1  0.92232000  0.42806000  0.52855000  1.0
  C  C88  1  0.26797000  0.54668000  0.66259000  1.0
  C  C89  1  0.73188000  0.45383000  0.33737000  1.0
  C  C90  1  0.55767000  0.84771000  0.87607000  1.0
  C  C91  1  0.44233000  0.15199000  0.12390000  1.0
  N  N92  1  0.40754000  0.50141000  0.20120000  1.0
  N  N93  1  0.59221000  0.49831000  0.79879000  1.0
  N  N94  1  0.85609000  0.50124000  0.49786000  1.0
  N  N95  1  0.14424000  0.49917000  0.50212000  1.0
  N  N96  1  0.17626000  0.55698000  0.26424000  1.0
  N  N97  1  0.82328000  0.44222000  0.73573000  1.0
  N  N98  1  0.54905000  0.83438000  0.04026000  1.0
  N  N99  1  0.45082000  0.16529000  0.95973000  1.0
  O  O100  1  0.61953000  0.68704000  0.49965000  1.0
  O  O101  1  0.38149000  0.31340000  0.49925000  1.0
  O  O102  1  0.61979000  0.31681000  0.49646000  1.0
  O  O103  1  0.38161000  0.68328000  0.50470000  1.0
  O  O104  1  0.60695000  0.50585000  0.42394000  1.0
  O  O105  1  0.39247000  0.49110000  0.57612000  1.0
  O  O106  1  0.62957000  0.49662000  0.57109000  1.0
  O  O107  1  0.36996000  0.50695000  0.42893000  1.0
  O  O108  1  0.36948000  0.70600000  0.19850000  1.0
  O  O109  1  0.63033000  0.29370000  0.80149000  1.0
  O  O110  1  0.59666000  0.70562000  0.79724000  1.0
  O  O111  1  0.40348000  0.29410000  0.20276000  1.0
