# generated using pymatgen
data_HgH16C18N2(ClO)2
_symmetry_space_group_name_H-M   'P 1'
_cell_length_a   9.08005000
_cell_length_b   10.33540000
_cell_length_c   10.89330000
_cell_angle_alpha   86.07720000
_cell_angle_beta   67.40020000
_cell_angle_gamma   73.27810000
_symmetry_Int_Tables_number   1
_chemical_formula_structural   HgH16C18N2(ClO)2
_chemical_formula_sum   'Hg2 H32 C36 N4 Cl4 O4'
_cell_volume   902.85325296
_cell_formula_units_Z   2
loop_
 _symmetry_equiv_pos_site_id
 _symmetry_equiv_pos_as_xyz
  1  'x, y, z'
loop_
 _atom_site_type_symbol
 _atom_site_label
 _atom_site_symmetry_multiplicity
 _atom_site_fract_x
 _atom_site_fract_y
 _atom_site_fract_z
 _atom_site_occupancy
  Hg  Hg0  1  0.13973000  0.31715000  0.31683000  1.0
  Hg  Hg1  1  0.86027000  0.68285000  0.68318000  1.0
  H  H2  1  0.38397000  0.42738000  0.08188000  1.0
  H  H3  1  0.61602000  0.57262000  0.91812000  1.0
  H  H4  1  0.59182000  0.38185000  0.84459000  1.0
  H  H5  1  0.40818000  0.61815000  0.15542000  1.0
  H  H6  1  0.61159000  0.18014000  0.71655000  1.0
  H  H7  1  0.38841000  0.81986000  0.28345000  1.0
  H  H8  1  0.42414000  0.03494000  0.82821000  1.0
  H  H9  1  0.57586000  0.96505000  0.17179000  1.0
  H  H10  1  0.21024000  0.04086000  0.18015000  1.0
  H  H11  1  0.78976000  0.95913000  0.81985000  1.0
  H  H12  1  0.06259000  0.13360000  0.11118000  1.0
  H  H13  1  0.93741000  0.86640000  0.88882000  1.0
  H  H14  1  0.98402000  0.96201000  0.25209000  1.0
  H  H15  1  0.01598000  0.03800000  0.74791000  1.0
  H  H16  1  0.85012000  0.78351000  0.33333333  1.0
  H  H17  1  0.14988000  0.21649000  0.66666667  1.0
  H  H18  1  0.13868000  0.55941000  0.95649000  1.0
  H  H19  1  0.86132000  0.44059000  0.04351000  1.0
  H  H20  1  0.27942000  0.74221000  0.87477000  1.0
  H  H21  1  0.72057000  0.25780000  0.12523000  1.0
  H  H22  1  0.68471000  0.64135000  0.32585000  1.0
  H  H23  1  0.31529000  0.35865000  0.67415000  1.0
  H  H24  1  0.84287000  0.57705000  0.39262000  1.0
  H  H25  1  0.15713000  0.42294000  0.60738000  1.0
  H  H26  1  0.50700000  0.50484000  0.34160000  1.0
  H  H27  1  0.49300000  0.49516000  0.65839000  1.0
  H  H28  1  0.43789000  0.28631000  0.40034000  1.0
  H  H29  1  0.56211000  0.71370000  0.59965000  1.0
  H  H30  1  0.65012000  0.08830000  0.44122000  1.0
  H  H31  1  0.34987000  0.91170000  0.55878000  1.0
  H  H32  1  0.92578000  0.11781000  0.41227000  1.0
  H  H33  1  0.07422000  0.88219000  0.58773000  1.0
  C  C34  1  0.39765000  0.34212000  0.02069000  1.0
  C  C35  1  0.60235000  0.65788000  0.97931000  1.0
  C  C36  1  0.51110000  0.31710000  0.88966000  1.0
  C  C37  1  0.48890000  0.68290000  0.11034000  1.0
  C  C38  1  0.52184000  0.20528000  0.81868000  1.0
  C  C39  1  0.47816000  0.79472000  0.18132000  1.0
  C  C40  1  0.41865000  0.12335000  0.88034000  1.0
  C  C41  1  0.58135000  0.87665000  0.11966000  1.0
  C  C42  1  0.30795000  0.15475000  0.01241000  1.0
  C  C43  1  0.69206000  0.84525000  0.98759000  1.0
  C  C44  1  0.19274000  0.07148000  0.08622000  1.0
  C  C45  1  0.80726000  0.92852000  0.91378000  1.0
  C  C46  1  0.14163000  0.86375000  0.05748000  1.0
  C  C47  1  0.85837000  0.13625000  0.94252000  1.0
  C  C48  1  0.01962000  0.87506000  0.18548000  1.0
  C  C49  1  0.98038000  0.12495000  0.81452000  1.0
  C  C50  1  0.94154000  0.77257000  0.23165000  1.0
  C  C51  1  0.05846000  0.22743000  0.76835000  1.0
  C  C52  1  0.98661000  0.65867000  0.14943000  1.0
  C  C53  1  0.01339000  0.34133000  0.85057000  1.0
  C  C54  1  0.10728000  0.64807000  0.02002000  1.0
  C  C55  1  0.89271000  0.35193000  0.97998000  1.0
  C  C56  1  0.18414000  0.74987000  0.97454000  1.0
  C  C57  1  0.81586000  0.25013000  0.02546000  1.0
  C  C58  1  0.79654000  0.55828000  0.31740000  1.0
  C  C59  1  0.20347000  0.44172000  0.68260000  1.0
  C  C60  1  0.75343000  0.42634000  0.34342000  1.0
  C  C61  1  0.24657000  0.57366000  0.65658000  1.0
  C  C62  1  0.59777000  0.41714000  0.35706000  1.0
  C  C63  1  0.40224000  0.58286000  0.64294000  1.0
  C  C64  1  0.55854000  0.29509000  0.39089000  1.0
  C  C65  1  0.44146000  0.70491000  0.60911000  1.0
  C  C66  1  0.67565000  0.18502000  0.41220000  1.0
  C  C67  1  0.32434000  0.81498000  0.58780000  1.0
  C  C68  1  0.82975000  0.20017000  0.39540000  1.0
  C  C69  1  0.17025000  0.79983000  0.60460000  1.0
  N  N70  1  0.29898000  0.26257000  0.08084000  1.0
  N  N71  1  0.70102000  0.73743000  0.91916000  1.0
  N  N72  1  0.86777000  0.31716000  0.35999000  1.0
  N  N73  1  0.13223000  0.68284000  0.64001000  1.0
  Cl  Cl74  1  0.20258000  0.52323000  0.35107000  1.0
  Cl  Cl75  1  0.79742000  0.47677000  0.64893000  1.0
  Cl  Cl76  1  0.24423000  0.09974000  0.41283000  1.0
  Cl  Cl77  1  0.75577000  0.90026000  0.58718000  1.0
  O  O78  1  0.22865000  0.95655000  0.00396000  1.0
  O  O79  1  0.77135000  0.04345000  0.99604000  1.0
  O  O80  1  0.92219000  0.54953000  0.18653000  1.0
  O  O81  1  0.07781000  0.45047000  0.81347000  1.0
