# generated using pymatgen
data_CdH12C17NO5
_symmetry_space_group_name_H-M   'P 1'
_cell_length_a   9.98180000
_cell_length_b   10.96834984
_cell_length_c   15.44590000
_cell_angle_alpha   84.54264390
_cell_angle_beta   90.01610000
_cell_angle_gamma   62.93040145
_symmetry_Int_Tables_number   1
_chemical_formula_structural   CdH12C17NO5
_chemical_formula_sum   'Cd4 H48 C68 N4 O20'
_cell_volume   1497.19028812
_cell_formula_units_Z   4
loop_
 _symmetry_equiv_pos_site_id
 _symmetry_equiv_pos_as_xyz
  1  'x, y, z'
loop_
 _atom_site_type_symbol
 _atom_site_label
 _atom_site_symmetry_multiplicity
 _atom_site_fract_x
 _atom_site_fract_y
 _atom_site_fract_z
 _atom_site_occupancy
  Cd  Cd0  1  0.08004000  0.95699000  0.37876000  1.0
  Cd  Cd1  1  0.03712000  0.04303000  0.12117000  1.0
  Cd  Cd2  1  0.91996000  0.04301000  0.62124000  1.0
  Cd  Cd3  1  0.96288000  0.95697000  0.87883000  1.0
  H  H4  1  0.50994000  0.39441000  0.48201000  1.0
  H  H5  1  0.90452000  0.60537000  0.01801000  1.0
  H  H6  1  0.49006000  0.60559000  0.51798000  1.0
  H  H7  1  0.09549000  0.39462000  0.98199000  1.0
  H  H8  1  0.31446000  0.57399000  0.37920000  1.0
  H  H9  1  0.88848000  0.42590000  0.12080000  1.0
  H  H10  1  0.68554000  0.42601000  0.62080000  1.0
  H  H11  1  0.11152000  0.57410000  0.87920000  1.0
  H  H12  1  0.35797000  0.57871000  0.21879000  1.0
  H  H13  1  0.93654000  0.42134000  0.28125000  1.0
  H  H14  1  0.64203000  0.42129000  0.78121000  1.0
  H  H15  1  0.06346000  0.57866000  0.71875000  1.0
  H  H16  1  0.59743000  0.40401000  0.16646000  1.0
  H  H17  1  0.00137000  0.59599000  0.33359000  1.0
  H  H18  1  0.40257000  0.59599000  0.83354000  1.0
  H  H19  1  0.99864000  0.40400000  0.66641000  1.0
  H  H20  1  0.14687000  0.20007000  0.30345000  1.0
  H  H21  1  0.34711000  0.80003000  0.19646000  1.0
  H  H22  1  0.85313000  0.79993000  0.69655000  1.0
  H  H23  1  0.65290000  0.19996000  0.80354000  1.0
  H  H24  1  0.35605000  0.26702000  0.29069000  1.0
  H  H25  1  0.62328000  0.73292000  0.20923000  1.0
  H  H26  1  0.64395000  0.73298000  0.70931000  1.0
  H  H27  1  0.37673000  0.26707000  0.79077000  1.0
  H  H28  1  0.61567000  0.09366000  0.34918000  1.0
  H  H29  1  0.70963000  0.90624000  0.15085000  1.0
  H  H30  1  0.38433000  0.90634000  0.65082000  1.0
  H  H31  1  0.29037000  0.09376000  0.84915000  1.0
  H  H32  1  0.43426000  0.81356000  0.42605000  1.0
  H  H33  1  0.24809000  0.18647000  0.07381000  1.0
  H  H34  1  0.56574000  0.18644000  0.57395000  1.0
  H  H35  1  0.75191000  0.81353000  0.92619000  1.0
  H  H36  1  0.78348000  0.84286000  0.38529000  1.0
  H  H37  1  0.62652000  0.15718000  0.11481000  1.0
  H  H38  1  0.21652000  0.15714000  0.61471000  1.0
  H  H39  1  0.37349000  0.84281000  0.88519000  1.0
  H  H40  1  0.71886000  0.88190000  0.49087000  1.0
  H  H41  1  0.60085000  0.11823000  0.00920000  1.0
  H  H42  1  0.28115000  0.11810000  0.50913000  1.0
  H  H43  1  0.39915000  0.88176000  0.99080000  1.0
  H  H44  1  0.79128000  0.45049000  0.45778000  1.0
  H  H45  1  0.24182000  0.54959000  0.04228000  1.0
  H  H46  1  0.20871000  0.54952000  0.54222000  1.0
  H  H47  1  0.75818000  0.45041000  0.95772000  1.0
  H  H48  1  0.95880000  0.74122000  0.49984000  1.0
  H  H49  1  0.70001000  0.25877000  0.00019000  1.0
  H  H50  1  0.04120000  0.25878000  0.50016000  1.0
  H  H51  1  0.29999000  0.74123000  0.99981000  1.0
  C  C52  1  0.77261000  0.19180000  0.45250000  1.0
  C  C53  1  0.96436000  0.80810000  0.04754000  1.0
  C  C54  1  0.22739000  0.80820000  0.54751000  1.0
  C  C55  1  0.03564000  0.19190000  0.95246000  1.0
  C  C56  1  0.66515000  0.29920000  0.38401000  1.0
  C  C57  1  0.96442000  0.70065000  0.11603000  1.0
  C  C58  1  0.33486000  0.70080000  0.61599000  1.0
  C  C59  1  0.03558000  0.29935000  0.88397000  1.0
  C  C60  1  0.52912000  0.39814000  0.41266000  1.0
  C  C61  1  0.92740000  0.60165000  0.08738000  1.0
  C  C62  1  0.47088000  0.60186000  0.58734000  1.0
  C  C63  1  0.07260000  0.39835000  0.91262000  1.0
  C  C64  1  0.41839000  0.49848000  0.35438000  1.0
  C  C65  1  0.91695000  0.50138000  0.14565000  1.0
  C  C66  1  0.58161000  0.50152000  0.64562000  1.0
  C  C67  1  0.08305000  0.49862000  0.85435000  1.0
  C  C68  1  0.44299000  0.50102000  0.26541000  1.0
  C  C69  1  0.94394000  0.49895000  0.23464000  1.0
  C  C70  1  0.55701000  0.49898000  0.73459000  1.0
  C  C71  1  0.05606000  0.50105000  0.76536000  1.0
  C  C72  1  0.57700000  0.40260000  0.23574000  1.0
  C  C73  1  0.97959000  0.59736000  0.26431000  1.0
  C  C74  1  0.42300000  0.59740000  0.76426000  1.0
  C  C75  1  0.02041000  0.40264000  0.73569000  1.0
  C  C76  1  0.68860000  0.30113000  0.29380000  1.0
  C  C77  1  0.98977000  0.69878000  0.20625000  1.0
  C  C78  1  0.31141000  0.69887000  0.70620000  1.0
  C  C79  1  0.01023000  0.30122000  0.79375000  1.0
  C  C80  1  0.83090000  0.20320000  0.25569000  1.0
  C  C81  1  0.03393000  0.79685000  0.24443000  1.0
  C  C82  1  0.16909000  0.79680000  0.74431000  1.0
  C  C83  1  0.96607000  0.20315000  0.75557000  1.0
  C  C84  1  0.26093000  0.12979000  0.32819000  1.0
  C  C85  1  0.39092000  0.87027000  0.17169000  1.0
  C  C86  1  0.73907000  0.87021000  0.67181000  1.0
  C  C87  1  0.60908000  0.12973000  0.82831000  1.0
  C  C88  1  0.37774000  0.16578000  0.32146000  1.0
  C  C89  1  0.54376000  0.83418000  0.17846000  1.0
  C  C90  1  0.62226000  0.83422000  0.67854000  1.0
  C  C91  1  0.45625000  0.16581000  0.82155000  1.0
  C  C92  1  0.52080000  0.07023000  0.35400000  1.0
  C  C93  1  0.59133000  0.92970000  0.14598000  1.0
  C  C94  1  0.47920000  0.92977000  0.64600000  1.0
  C  C95  1  0.40867000  0.07030000  0.85402000  1.0
  C  C96  1  0.54403000  0.94153000  0.39361000  1.0
  C  C97  1  0.48584000  0.05844000  0.10639000  1.0
  C  C98  1  0.45597000  0.05847000  0.60639000  1.0
  C  C99  1  0.51416000  0.94156000  0.89361000  1.0
  C  C100  1  0.42155000  0.91295000  0.39730000  1.0
  C  C101  1  0.33476000  0.08707000  0.10258000  1.0
  C  C102  1  0.57844000  0.08705000  0.60270000  1.0
  C  C103  1  0.66524000  0.91293000  0.89742000  1.0
  C  C104  1  0.69840000  0.84391000  0.43113000  1.0
  C  C105  1  0.54248000  0.15612000  0.06896000  1.0
  C  C106  1  0.30160000  0.15609000  0.56887000  1.0
  C  C107  1  0.45752000  0.84388000  0.93104000  1.0
  C  C108  1  0.85660000  0.60842000  0.47617000  1.0
  C  C109  1  0.46504000  0.39159000  0.02387000  1.0
  C  C110  1  0.14340000  0.39158000  0.52383000  1.0
  C  C111  1  0.53496000  0.60841000  0.97613000  1.0
  C  C112  1  0.88301000  0.47195000  0.47629000  1.0
  C  C113  1  0.35501000  0.52808000  0.02374000  1.0
  C  C114  1  0.11698000  0.52806000  0.52371000  1.0
  C  C115  1  0.64500000  0.47192000  0.97626000  1.0
  C  C116  1  0.97460000  0.63638000  0.50025000  1.0
  C  C117  1  0.61096000  0.36362000  0.99976000  1.0
  C  C118  1  0.02539000  0.36363000  0.49975000  1.0
  C  C119  1  0.38904000  0.63638000  0.00024000  1.0
  N  N120  1  0.28265000  0.00542000  0.36498000  1.0
  N  N121  1  0.28828000  0.99463000  0.13487000  1.0
  N  N122  1  0.71735000  0.99458000  0.63502000  1.0
  N  N123  1  0.71171000  0.00537000  0.86513000  1.0
  O  O124  1  0.77900000  0.23306000  0.52622000  1.0
  O  O125  1  0.01194000  0.76688000  0.97381000  1.0
  O  O126  1  0.22100000  0.76694000  0.47378000  1.0
  O  O127  1  0.98806000  0.23312000  0.02619000  1.0
  O  O128  1  0.84388000  0.06581000  0.43807000  1.0
  O  O129  1  0.90967000  0.93408000  0.06200000  1.0
  O  O130  1  0.15612000  0.93419000  0.56193000  1.0
  O  O131  1  0.09033000  0.06592000  0.93800000  1.0
  O  O132  1  0.95752000  0.16879000  0.29451000  1.0
  O  O133  1  0.12602000  0.83149000  0.20569000  1.0
  O  O134  1  0.04247000  0.83121000  0.70549000  1.0
  O  O135  1  0.87398000  0.16851000  0.79431000  1.0
  O  O136  1  0.81698000  0.16347000  0.18280000  1.0
  O  O137  1  0.98027000  0.83645000  0.31732000  1.0
  O  O138  1  0.18301000  0.83653000  0.81720000  1.0
  O  O139  1  0.01973000  0.16355000  0.68268000  1.0
  O  O140  1  0.71307000  0.70828000  0.45013000  1.0
  O  O141  1  0.42141000  0.29174000  0.04997000  1.0
  O  O142  1  0.28693000  0.29173000  0.54987000  1.0
  O  O143  1  0.57859000  0.70826000  0.95003000  1.0
