# generated using pymatgen
data_CoH14C20(NO2)2
_symmetry_space_group_name_H-M   'P 1'
_cell_length_a   9.14251000
_cell_length_b   9.98331000
_cell_length_c   9.98461000
_cell_angle_alpha   83.00090000
_cell_angle_beta   80.62460000
_cell_angle_gamma   80.60120000
_symmetry_Int_Tables_number   1
_chemical_formula_structural   CoH14C20(NO2)2
_chemical_formula_sum   'Co2 H28 C40 N4 O8'
_cell_volume   882.81937561
_cell_formula_units_Z   2
loop_
 _symmetry_equiv_pos_site_id
 _symmetry_equiv_pos_as_xyz
  1  'x, y, z'
loop_
 _atom_site_type_symbol
 _atom_site_label
 _atom_site_symmetry_multiplicity
 _atom_site_fract_x
 _atom_site_fract_y
 _atom_site_fract_z
 _atom_site_occupancy
  Co  Co0  1  0.74992000  0.11025000  0.88992000  1.0
  Co  Co1  1  0.24997000  0.88993000  0.11035000  1.0
  H  H2  1  0.96348000  0.24736000  0.69927000  1.0
  H  H3  1  0.46372000  0.69946000  0.24737000  1.0
  H  H4  1  0.03558000  0.75298000  0.30002000  1.0
  H  H5  1  0.53566000  0.30018000  0.75295000  1.0
  H  H6  1  0.65488000  0.33975000  0.04050000  1.0
  H  H7  1  0.15449000  0.04040000  0.33985000  1.0
  H  H8  1  0.34456000  0.66100000  0.95892000  1.0
  H  H9  1  0.84405000  0.95855000  0.66111000  1.0
  H  H10  1  0.72103000  0.57450000  0.02989000  1.0
  H  H11  1  0.22034000  0.02956000  0.57477000  1.0
  H  H12  1  0.27916000  0.42590000  0.96968000  1.0
  H  H13  1  0.77859000  0.96947000  0.42605000  1.0
  H  H14  1  0.12207000  0.41611000  0.57492000  1.0
  H  H15  1  0.62246000  0.57516000  0.41607000  1.0
  H  H16  1  0.87690000  0.58415000  0.42403000  1.0
  H  H17  1  0.37702000  0.42445000  0.58417000  1.0
  H  H18  1  0.20348000  0.64542000  0.55581000  1.0
  H  H19  1  0.70392000  0.55605000  0.64537000  1.0
  H  H20  1  0.79689000  0.35418000  0.44379000  1.0
  H  H21  1  0.29697000  0.44452000  0.35419000  1.0
  H  H22  1  0.08448000  0.81104000  0.72363000  1.0
  H  H23  1  0.58442000  0.72356000  0.81114000  1.0
  H  H24  1  0.91721000  0.18828000  0.27669000  1.0
  H  H25  1  0.41707000  0.27733000  0.18827000  1.0
  H  H26  1  0.88269000  0.75197000  0.90757000  1.0
  H  H27  1  0.38213000  0.90720000  0.75226000  1.0
  H  H28  1  0.11883000  0.24768000  0.09276000  1.0
  H  H29  1  0.61841000  0.09303000  0.24769000  1.0
  C  C30  1  0.95261000  0.01593000  0.06958000  1.0
  C  C31  1  0.45260000  0.06957000  0.01599000  1.0
  C  C32  1  0.04755000  0.98445000  0.93068000  1.0
  C  C33  1  0.54755000  0.93062000  0.98456000  1.0
  C  C34  1  0.91236000  0.32330000  0.76928000  1.0
  C  C35  1  0.41243000  0.76938000  0.32336000  1.0
  C  C36  1  0.08701000  0.67701000  0.23012000  1.0
  C  C37  1  0.58695000  0.23022000  0.67701000  1.0
  C  C38  1  0.73984000  0.37688000  0.96176000  1.0
  C  C39  1  0.23953000  0.96170000  0.37701000  1.0
  C  C40  1  0.25986000  0.62360000  0.03777000  1.0
  C  C41  1  0.75949000  0.03759000  0.62367000  1.0
  C  C42  1  0.77812000  0.50509000  0.95519000  1.0
  C  C43  1  0.27763000  0.95500000  0.50530000  1.0
  C  C44  1  0.22195000  0.49525000  0.04439000  1.0
  C  C45  1  0.72151000  0.04429000  0.49533000  1.0
  C  C46  1  0.89103000  0.54785000  0.85102000  1.0
  C  C47  1  0.39073000  0.85090000  0.54802000  1.0
  C  C48  1  0.10926000  0.45224000  0.14866000  1.0
  C  C49  1  0.60896000  0.14878000  0.45228000  1.0
  C  C50  1  0.95974000  0.45250000  0.75488000  1.0
  C  C51  1  0.45973000  0.75491000  0.45260000  1.0
  C  C52  1  0.03995000  0.54768000  0.24453000  1.0
  C  C53  1  0.53982000  0.24472000  0.54769000  1.0
  C  C54  1  0.07238000  0.48952000  0.64788000  1.0
  C  C55  1  0.57259000  0.64803000  0.48954000  1.0
  C  C56  1  0.92724000  0.51056000  0.35141000  1.0
  C  C57  1  0.42724000  0.35181000  0.51057000  1.0
  C  C58  1  0.11626000  0.61659000  0.63751000  1.0
  C  C59  1  0.61650000  0.63763000  0.61660000  1.0
  C  C60  1  0.88408000  0.38317000  0.36213000  1.0
  C  C61  1  0.38406000  0.36270000  0.38317000  1.0
  C  C62  1  0.04885000  0.71094000  0.73250000  1.0
  C  C63  1  0.54879000  0.73246000  0.71104000  1.0
  C  C64  1  0.95225000  0.28865000  0.26754000  1.0
  C  C65  1  0.45211000  0.26807000  0.28865000  1.0
  C  C66  1  0.93776000  0.67777000  0.83700000  1.0
  C  C67  1  0.43741000  0.83680000  0.67796000  1.0
  C  C68  1  0.06325000  0.32200000  0.16302000  1.0
  C  C69  1  0.56294000  0.16332000  0.32203000  1.0
  N  N70  1  0.80652000  0.28598000  0.86898000  1.0
  N  N71  1  0.30646000  0.86902000  0.28606000  1.0
  N  N72  1  0.19305000  0.71437000  0.13065000  1.0
  N  N73  1  0.69288000  0.13058000  0.71440000  1.0
  O  O74  1  0.81806000  0.07564000  0.06768000  1.0
  O  O75  1  0.31810000  0.06770000  0.07577000  1.0
  O  O76  1  0.18217000  0.92485000  0.93255000  1.0
  O  O77  1  0.68213000  0.93244000  0.92494000  1.0
  O  O78  1  0.01308000  0.98199000  0.17572000  1.0
  O  O79  1  0.51300000  0.17573000  0.98195000  1.0
  O  O80  1  0.98710000  0.01833000  0.82453000  1.0
  O  O81  1  0.48713000  0.82447000  0.01851000  1.0
