# generated using pymatgen
data_CdH10C7SN2(ClO)2
_symmetry_space_group_name_H-M   'P 1'
_cell_length_a   7.19348000
_cell_length_b   9.25087000
_cell_length_c   17.24800000
_cell_angle_alpha   89.99990000
_cell_angle_beta   95.89520000
_cell_angle_gamma   89.99980000
_symmetry_Int_Tables_number   1
_chemical_formula_structural   CdH10C7SN2(ClO)2
_chemical_formula_sum   'Cd4 H40 C28 S4 N8 Cl8 O8'
_cell_volume   1141.71437242
_cell_formula_units_Z   4
loop_
 _symmetry_equiv_pos_site_id
 _symmetry_equiv_pos_as_xyz
  1  'x, y, z'
loop_
 _atom_site_type_symbol
 _atom_site_label
 _atom_site_symmetry_multiplicity
 _atom_site_fract_x
 _atom_site_fract_y
 _atom_site_fract_z
 _atom_site_occupancy
  Cd  Cd0  1  0.90088000  0.67204000  0.28107000  1.0
  Cd  Cd1  1  0.59912000  0.17204000  0.71893000  1.0
  Cd  Cd2  1  0.09912000  0.32796000  0.71893000  1.0
  Cd  Cd3  1  0.40088000  0.82796000  0.28107000  1.0
  H  H4  1  0.76969000  0.60260000  0.43643000  1.0
  H  H5  1  0.73031000  0.10260000  0.56357000  1.0
  H  H6  1  0.23031000  0.39740000  0.56357000  1.0
  H  H7  1  0.26969000  0.89740000  0.43643000  1.0
  H  H8  1  0.78657000  0.46399000  0.50680000  1.0
  H  H9  1  0.71343000  0.96399000  0.49320000  1.0
  H  H10  1  0.21343000  0.53601000  0.49320000  1.0
  H  H11  1  0.28657000  0.03601000  0.50679000  1.0
  H  H12  1  0.93101000  0.07943000  0.30040000  1.0
  H  H13  1  0.56899000  0.57943000  0.69960000  1.0
  H  H14  1  0.06899000  0.92057000  0.69960000  1.0
  H  H15  1  0.43101000  0.42056000  0.30039000  1.0
  H  H16  1  0.75505000  0.35726000  0.16770000  1.0
  H  H17  1  0.74495000  0.85726000  0.83230000  1.0
  H  H18  1  0.24496000  0.64273000  0.83230000  1.0
  H  H19  1  0.25504000  0.14273000  0.16769000  1.0
  H  H20  1  0.91357000  0.21072000  0.17129000  1.0
  H  H21  1  0.58643000  0.71073000  0.82871000  1.0
  H  H22  1  0.08644000  0.78927000  0.82871000  1.0
  H  H23  1  0.41357000  0.28927000  0.17128000  1.0
  H  H24  1  0.36044000  0.45614000  0.95411000  1.0
  H  H25  1  0.13956000  0.95613000  0.04589000  1.0
  H  H26  1  0.63956000  0.54388000  0.04589000  1.0
  H  H27  1  0.86044000  0.04388000  0.95411000  1.0
  H  H28  1  0.15930000  0.34530000  0.94745000  1.0
  H  H29  1  0.34070000  0.84530000  0.05255000  1.0
  H  H30  1  0.84070000  0.65471000  0.05255000  1.0
  H  H31  1  0.65930000  0.15471000  0.94745000  1.0
  H  H32  1  0.36432000  0.29244000  0.00732000  1.0
  H  H33  1  0.13567000  0.79243000  0.99268000  1.0
  H  H34  1  0.63568000  0.70759000  0.99268000  1.0
  H  H35  1  0.86432000  0.20758000  0.00732000  1.0
  H  H36  1  0.32786000  0.49957000  0.09872000  1.0
  H  H37  1  0.17214000  0.99957000  0.90129000  1.0
  H  H38  1  0.67213000  0.50044000  0.90129000  1.0
  H  H39  1  0.82787000  0.00043000  0.09871000  1.0
  H  H40  1  0.13329000  0.56452000  0.03786000  1.0
  H  H41  1  0.36670000  0.06452000  0.96215000  1.0
  H  H42  1  0.86670000  0.43549000  0.96215000  1.0
  H  H43  1  0.63331000  0.93548000  0.03785000  1.0
  C  C44  1  0.89552000  0.31403000  0.28033000  1.0
  C  C45  1  0.60448000  0.81403000  0.71967000  1.0
  C  C46  1  0.10447000  0.68597000  0.71967000  1.0
  C  C47  1  0.39552000  0.18596000  0.28033000  1.0
  C  C48  1  0.84239000  0.40275000  0.39728000  1.0
  C  C49  1  0.65760000  0.90276000  0.60272000  1.0
  C  C50  1  0.15761000  0.59725000  0.60272000  1.0
  C  C51  1  0.34240000  0.09724000  0.39728000  1.0
  C  C52  1  0.90743000  0.18792000  0.32140000  1.0
  C  C53  1  0.59257000  0.68792000  0.67860000  1.0
  C  C54  1  0.09257000  0.81208000  0.67860000  1.0
  C  C55  1  0.40743000  0.31207000  0.32139000  1.0
  C  C56  1  0.89385000  0.31987000  0.19353000  1.0
  C  C57  1  0.60615000  0.81988000  0.80647000  1.0
  C  C58  1  0.10616000  0.68012000  0.80647000  1.0
  C  C59  1  0.39384000  0.18011000  0.19352000  1.0
  C  C60  1  0.27653000  0.38494000  0.98761000  1.0
  C  C61  1  0.22347000  0.88494000  0.01239000  1.0
  C  C62  1  0.72347000  0.61507000  0.01239000  1.0
  C  C63  1  0.77653000  0.11507000  0.98761000  1.0
  C  C64  1  0.21238000  0.46656000  0.05571000  1.0
  C  C65  1  0.28762000  0.96657000  0.94430000  1.0
  C  C66  1  0.78762000  0.53344000  0.94430000  1.0
  C  C67  1  0.71239000  0.03344000  0.05570000  1.0
  C  C68  1  0.03027000  0.42095000  0.16115000  1.0
  C  C69  1  0.46973000  0.92096000  0.83885000  1.0
  C  C70  1  0.96973000  0.57903000  0.83885000  1.0
  C  C71  1  0.53027000  0.07903000  0.16115000  1.0
  S  S72  1  0.87322000  0.21912000  0.41753000  1.0
  S  S73  1  0.62678000  0.71912000  0.58248000  1.0
  S  S74  1  0.12678000  0.78088000  0.58248000  1.0
  S  S75  1  0.37322000  0.28088000  0.41752000  1.0
  N  N76  1  0.86282000  0.43641000  0.32356000  1.0
  N  N77  1  0.63718000  0.93641000  0.67645000  1.0
  N  N78  1  0.13718000  0.56359000  0.67644000  1.0
  N  N79  1  0.36281000  0.06359000  0.32355000  1.0
  N  N80  1  0.79808000  0.49735000  0.45129000  1.0
  N  N81  1  0.70191000  0.99735000  0.54871000  1.0
  N  N82  1  0.20191000  0.50265000  0.54871000  1.0
  N  N83  1  0.29809000  0.00265000  0.45129000  1.0
  Cl  Cl84  1  0.05852000  0.87129000  0.20537000  1.0
  Cl  Cl85  1  0.44148000  0.37130000  0.79463000  1.0
  Cl  Cl86  1  0.94148000  0.12869000  0.79463000  1.0
  Cl  Cl87  1  0.55852000  0.62869000  0.20537000  1.0
  Cl  Cl88  1  0.72824000  0.82567000  0.37946000  1.0
  Cl  Cl89  1  0.77176000  0.32568000  0.62054000  1.0
  Cl  Cl90  1  0.27176000  0.17432000  0.62053000  1.0
  Cl  Cl91  1  0.22824000  0.67432000  0.37946000  1.0
  O  O92  1  0.08010000  0.53866000  0.18893000  1.0
  O  O93  1  0.41990000  0.03867000  0.81107000  1.0
  O  O94  1  0.91992000  0.46133000  0.81108000  1.0
  O  O95  1  0.58009000  0.96133000  0.18892000  1.0
  O  O96  1  0.08772000  0.37079000  0.09446000  1.0
  O  O97  1  0.41227000  0.87079000  0.90555000  1.0
  O  O98  1  0.91228000  0.62921000  0.90555000  1.0
  O  O99  1  0.58773000  0.12921000  0.09445000  1.0
