# generated using pymatgen
data_AlH18C27(NO2)3
_symmetry_space_group_name_H-M   'P 1'
_cell_length_a   3.94888000
_cell_length_b   14.98762976
_cell_length_c   15.68908275
_cell_angle_alpha   62.12875055
_cell_angle_beta   86.64753337
_cell_angle_gamma   88.95618888
_symmetry_Int_Tables_number   1
_chemical_formula_structural   AlH18C27(NO2)3
_chemical_formula_sum   'Al1 H18 C27 N3 O6'
_cell_volume   819.38841963
_cell_formula_units_Z   1
loop_
 _symmetry_equiv_pos_site_id
 _symmetry_equiv_pos_as_xyz
  1  'x, y, z'
loop_
 _atom_site_type_symbol
 _atom_site_label
 _atom_site_symmetry_multiplicity
 _atom_site_fract_x
 _atom_site_fract_y
 _atom_site_fract_z
 _atom_site_occupancy
  Al  Al0  1  0.96422000  0.49177000  0.50395000  1.0
  H  H1  1  0.51312000  0.14116000  0.95820000  1.0
  H  H2  1  0.08137000  0.95885000  0.39721000  1.0
  H  H3  1  0.79026000  0.40996000  0.13182000  1.0
  H  H4  1  0.66543000  0.22664000  0.48908000  1.0
  H  H5  1  0.88144000  0.13683000  0.39685000  1.0
  H  H6  1  0.71181000  0.76931000  0.25300000  1.0
  H  H7  1  0.60811000  0.95460000  0.15239000  1.0
  H  H8  1  0.17774000  0.49831000  0.76572000  1.0
  H  H9  1  0.08486000  0.41188000  0.94583000  1.0
  H  H10  1  0.44353000  0.19074000  0.72679000  1.0
  H  H11  1  0.83838000  0.25242000  0.70981000  1.0
  H  H12  1  0.74763000  0.13686000  0.81648000  1.0
  H  H13  1  0.25089000  0.54005000  0.20593000  1.0
  H  H14  1  0.62870000  0.57459000  0.23800000  1.0
  H  H15  1  0.62745000  0.56279000  0.13007000  1.0
  H  H16  1  0.88399000  0.72265000  0.53513000  1.0
  H  H17  1  0.29539000  0.70886000  0.57601000  1.0
  H  H18  1  0.06806000  0.82235000  0.54849000  1.0
  C  C19  1  0.43140000  0.41876000  0.65382000  1.0
  C  C20  1  0.50214000  0.41651000  0.42306000  1.0
  C  C21  1  0.46558000  0.64784000  0.43108000  1.0
  C  C22  1  0.39407000  0.36706000  0.76177000  1.0
  C  C23  1  0.43510000  0.75949000  0.37917000  1.0
  C  C24  1  0.59165000  0.36712000  0.36172000  1.0
  C  C25  1  0.48956000  0.26543000  0.81459000  1.0
  C  C26  1  0.43932000  0.21942000  0.91490000  1.0
  C  C27  1  0.25979000  0.81232000  0.42285000  1.0
  C  C28  1  0.21674000  0.91581000  0.36628000  1.0
  C  C29  1  0.61860000  0.42075000  0.25993000  1.0
  C  C30  1  0.75298000  0.36990000  0.21031000  1.0
  C  C31  1  0.68470000  0.26533000  0.41041000  1.0
  C  C32  1  0.80634000  0.21553000  0.35981000  1.0
  C  C33  1  0.56855000  0.81169000  0.28330000  1.0
  C  C34  1  0.51301000  0.91433000  0.22753000  1.0
  C  C35  1  0.25303000  0.42005000  0.80853000  1.0
  C  C36  1  0.20083000  0.37240000  0.90849000  1.0
  C  C37  1  0.29318000  0.27117000  0.96254000  1.0
  C  C38  1  0.22930000  0.21837000  0.06836000  1.0
  C  C39  1  0.33080000  0.96707000  0.26887000  1.0
  C  C40  1  0.24794000  0.07510000  0.21181000  1.0
  C  C41  1  0.84966000  0.26855000  0.25875000  1.0
  C  C42  1  0.00998000  0.21714000  0.20633000  1.0
  C  C43  1  0.63837000  0.20814000  0.76441000  1.0
  C  C44  1  0.52746000  0.53048000  0.20541000  1.0
  C  C45  1  0.12121000  0.76392000  0.52622000  1.0
  N  N46  1  0.32888000  0.12153000  0.11645000  1.0
  N  N47  1  0.08852000  0.11952000  0.25976000  1.0
  N  N48  1  0.07076000  0.26953000  0.11022000  1.0
  O  O49  1  0.71704000  0.60556000  0.40997000  1.0
  O  O50  1  0.67627000  0.48116000  0.61279000  1.0
  O  O51  1  0.69997000  0.39614000  0.49172000  1.0
  O  O52  1  0.22863000  0.59912000  0.49447000  1.0
  O  O53  1  0.24730000  0.47422000  0.40669000  1.0
  O  O54  1  0.21091000  0.39660000  0.61021000  1.0
