# generated using pymatgen
data_MnH28C26(N2Cl)2
_symmetry_space_group_name_H-M   'P 1'
_cell_length_a   17.24050000
_cell_length_b   17.24100000
_cell_length_c   24.55052811
_cell_angle_alpha   110.55807549
_cell_angle_beta   110.55468559
_cell_angle_gamma   89.99900000
_symmetry_Int_Tables_number   1
_chemical_formula_structural   MnH28C26(N2Cl)2
_chemical_formula_sum   'Mn8 H224 C208 N32 Cl16'
_cell_volume   6334.20455038
_cell_formula_units_Z   8
loop_
 _symmetry_equiv_pos_site_id
 _symmetry_equiv_pos_as_xyz
  1  'x, y, z'
loop_
 _atom_site_type_symbol
 _atom_site_label
 _atom_site_symmetry_multiplicity
 _atom_site_fract_x
 _atom_site_fract_y
 _atom_site_fract_z
 _atom_site_occupancy
  Mn  Mn0  1  0.03090000  0.78092000  0.06183000  1.0
  Mn  Mn1  1  0.78094000  0.03093000  0.56185000  1.0
  Mn  Mn2  1  0.96911000  0.21907000  0.93817000  1.0
  Mn  Mn3  1  0.21906000  0.96907000  0.43815000  1.0
  Mn  Mn4  1  0.59075000  0.84070000  0.18134000  1.0
  Mn  Mn5  1  0.84068000  0.59059000  0.68136000  1.0
  Mn  Mn6  1  0.40926000  0.15930000  0.81867000  1.0
  Mn  Mn7  1  0.15932000  0.40940000  0.31864000  1.0
  H  H8  1  0.12183000  0.73930000  0.18146000  1.0
  H  H9  1  0.05966000  0.94203000  0.18148000  1.0
  H  H10  1  0.94216000  0.12186000  0.68154000  1.0
  H  H11  1  0.73940000  0.05983000  0.68150000  1.0
  H  H12  1  0.87817000  0.26071000  0.81854000  1.0
  H  H13  1  0.94034000  0.05796000  0.81852000  1.0
  H  H14  1  0.05784000  0.87814000  0.31846000  1.0
  H  H15  1  0.26060000  0.94017000  0.31850000  1.0
  H  H16  1  0.09019000  0.70013000  0.26112000  1.0
  H  H17  1  0.17094000  0.06087000  0.26113000  1.0
  H  H18  1  0.06098000  0.09013000  0.76118000  1.0
  H  H19  1  0.70026000  0.17114000  0.76112000  1.0
  H  H20  1  0.90981000  0.29987000  0.73888000  1.0
  H  H21  1  0.82906000  0.93912000  0.73887000  1.0
  H  H22  1  0.93902000  0.90987000  0.23882000  1.0
  H  H23  1  0.29974000  0.82886000  0.23888000  1.0
  H  H24  1  0.83194000  0.72689000  0.17131000  1.0
  H  H25  1  0.33929000  0.94445000  0.17119000  1.0
  H  H26  1  0.94443000  0.83191000  0.67121000  1.0
  H  H27  1  0.72669000  0.33941000  0.67109000  1.0
  H  H28  1  0.16806000  0.27311000  0.82869000  1.0
  H  H29  1  0.66071000  0.05555000  0.82881000  1.0
  H  H30  1  0.05557000  0.16809000  0.32879000  1.0
  H  H31  1  0.27331000  0.66060000  0.32891000  1.0
  H  H32  1  0.87569000  0.76637000  0.09621000  1.0
  H  H33  1  0.22050000  0.82981000  0.09613000  1.0
  H  H34  1  0.82982000  0.87571000  0.59617000  1.0
  H  H35  1  0.76623000  0.22053000  0.59603000  1.0
  H  H36  1  0.12431000  0.23363000  0.90379000  1.0
  H  H37  1  0.77950000  0.17019000  0.90387000  1.0
  H  H38  1  0.17018000  0.12429000  0.40383000  1.0
  H  H39  1  0.23377000  0.77947000  0.40397000  1.0
  H  H40  1  0.98760000  0.66375000  0.29714000  1.0
  H  H41  1  0.30956000  0.13341000  0.29705000  1.0
  H  H42  1  0.13334000  0.98749000  0.79710000  1.0
  H  H43  1  0.66366000  0.30961000  0.79702000  1.0
  H  H44  1  0.01240000  0.33625000  0.70286000  1.0
  H  H45  1  0.69044000  0.86659000  0.70295000  1.0
  H  H46  1  0.86665000  0.01251000  0.20290000  1.0
  H  H47  1  0.33634000  0.69039000  0.20298000  1.0
  H  H48  1  0.88278000  0.63396000  0.24272000  1.0
  H  H49  1  0.36001000  0.10868000  0.24266000  1.0
  H  H50  1  0.10869000  0.88266000  0.74268000  1.0
  H  H51  1  0.63388000  0.36013000  0.74268000  1.0
  H  H52  1  0.11723000  0.36604000  0.75729000  1.0
  H  H53  1  0.63999000  0.89132000  0.75734000  1.0
  H  H54  1  0.89131000  0.11734000  0.25732000  1.0
  H  H55  1  0.36612000  0.63988000  0.25732000  1.0
  H  H56  1  0.95808000  0.81016000  0.34087000  1.0
  H  H57  1  0.38270000  0.03073000  0.34086000  1.0
  H  H58  1  0.03069000  0.95803000  0.84086000  1.0
  H  H59  1  0.81011000  0.38275000  0.84079000  1.0
  H  H60  1  0.04192000  0.18984000  0.65913000  1.0
  H  H61  1  0.61730000  0.96927000  0.65914000  1.0
  H  H62  1  0.96930000  0.04197000  0.15914000  1.0
  H  H63  1  0.18989000  0.61725000  0.15921000  1.0
  H  H64  1  0.85384000  0.78103000  0.28355000  1.0
  H  H65  1  0.42966000  0.00246000  0.28356000  1.0
  H  H66  1  0.00241000  0.85380000  0.78352000  1.0
  H  H67  1  0.78102000  0.42974000  0.78351000  1.0
  H  H68  1  0.14616000  0.21897000  0.71645000  1.0
  H  H69  1  0.57033000  0.99754000  0.71644000  1.0
  H  H70  1  0.99759000  0.14620000  0.21648000  1.0
  H  H71  1  0.21898000  0.57026000  0.21649000  1.0
  H  H72  1  0.82479000  0.67836000  0.32655000  1.0
  H  H73  1  0.50178000  0.14816000  0.32660000  1.0
  H  H74  1  0.14810000  0.82467000  0.82652000  1.0
  H  H75  1  0.67845000  0.50187000  0.82660000  1.0
  H  H76  1  0.17521000  0.32164000  0.67345000  1.0
  H  H77  1  0.49821000  0.85184000  0.67340000  1.0
  H  H78  1  0.85190000  0.17533000  0.17348000  1.0
  H  H79  1  0.32154000  0.49813000  0.17339000  1.0
  H  H80  1  0.92976000  0.70227000  0.38130000  1.0
  H  H81  1  0.45154000  0.17898000  0.38133000  1.0
  H  H82  1  0.17896000  0.92965000  0.88124000  1.0
  H  H83  1  0.70239000  0.45162000  0.88135000  1.0
  H  H84  1  0.07024000  0.29773000  0.61870000  1.0
  H  H85  1  0.54846000  0.82102000  0.61867000  1.0
  H  H86  1  0.82104000  0.07035000  0.11876000  1.0
  H  H87  1  0.29761000  0.54838000  0.11865000  1.0
  H  H88  1  0.72115000  0.75356000  0.35959000  1.0
  H  H89  1  0.63841000  0.10605000  0.35965000  1.0
  H  H90  1  0.10600000  0.72111000  0.85955000  1.0
  H  H91  1  0.75354000  0.63845000  0.85960000  1.0
  H  H92  1  0.27884000  0.24644000  0.64041000  1.0
  H  H93  1  0.36160000  0.89395000  0.64036000  1.0
  H  H94  1  0.89400000  0.27889000  0.14045000  1.0
  H  H95  1  0.24647000  0.36155000  0.14040000  1.0
  H  H96  1  0.68903000  0.87200000  0.43937000  1.0
  H  H97  1  0.75038000  0.06741000  0.43942000  1.0
  H  H98  1  0.06739000  0.68893000  0.93933000  1.0
  H  H99  1  0.87193000  0.75042000  0.93939000  1.0
  H  H100  1  0.31097000  0.12800000  0.56063000  1.0
  H  H101  1  0.24962000  0.93259000  0.56058000  1.0
  H  H102  1  0.93261000  0.31107000  0.06067000  1.0
  H  H103  1  0.12807000  0.24958000  0.06061000  1.0
  H  H104  1  0.93642000  0.98024000  0.52910000  1.0
  H  H105  1  0.59275000  0.04888000  0.52918000  1.0
  H  H106  1  0.04883000  0.93629000  0.02911000  1.0
  H  H107  1  0.98029000  0.59285000  0.02915000  1.0
  H  H108  1  0.06358000  0.01976000  0.47090000  1.0
  H  H109  1  0.40725000  0.95112000  0.47082000  1.0
  H  H110  1  0.95116000  0.06371000  0.97088000  1.0
  H  H111  1  0.01971000  0.40715000  0.97085000  1.0
  H  H112  1  0.98075000  0.86540000  0.45458000  1.0
  H  H113  1  0.47389000  0.08922000  0.45469000  1.0
  H  H114  1  0.08917000  0.98067000  0.95463000  1.0
  H  H115  1  0.86548000  0.47392000  0.95462000  1.0
  H  H116  1  0.01925000  0.13460000  0.54542000  1.0
  H  H117  1  0.52611000  0.91078000  0.54531000  1.0
  H  H118  1  0.91083000  0.01932000  0.04537000  1.0
  H  H119  1  0.13452000  0.52608000  0.04538000  1.0
  H  H120  1  0.54888000  0.93339000  0.30142000  1.0
  H  H121  1  0.75251000  0.86809000  0.30135000  1.0
  H  H122  1  0.86806000  0.54873000  0.80145000  1.0
  H  H123  1  0.93337000  0.75246000  0.80137000  1.0
  H  H124  1  0.45112000  0.06661000  0.69858000  1.0
  H  H125  1  0.24749000  0.13191000  0.69865000  1.0
  H  H126  1  0.13194000  0.45127000  0.19855000  1.0
  H  H127  1  0.06663000  0.24754000  0.19863000  1.0
  H  H128  1  0.51199000  0.90403000  0.38286000  1.0
  H  H129  1  0.87094000  0.97884000  0.38281000  1.0
  H  H130  1  0.97881000  0.51172000  0.88285000  1.0
  H  H131  1  0.90406000  0.87089000  0.88279000  1.0
  H  H132  1  0.48801000  0.09597000  0.61714000  1.0
  H  H133  1  0.12907000  0.02116000  0.61720000  1.0
  H  H134  1  0.02120000  0.48828000  0.11715000  1.0
  H  H135  1  0.09594000  0.12911000  0.11721000  1.0
  H  H136  1  0.53282000  0.64465000  0.29205000  1.0
  H  H137  1  0.75934000  0.14761000  0.29219000  1.0
  H  H138  1  0.14748000  0.53282000  0.79216000  1.0
  H  H139  1  0.64467000  0.75930000  0.79211000  1.0
  H  H140  1  0.46718000  0.35534000  0.70795000  1.0
  H  H141  1  0.24066000  0.85240000  0.70781000  1.0
  H  H142  1  0.85252000  0.46718000  0.20784000  1.0
  H  H143  1  0.35532000  0.24070000  0.20789000  1.0
  H  H144  1  0.57313000  0.68636000  0.21660000  1.0
  H  H145  1  0.64344000  0.03051000  0.21673000  1.0
  H  H146  1  0.03037000  0.57321000  0.71677000  1.0
  H  H147  1  0.68632000  0.64339000  0.71670000  1.0
  H  H148  1  0.42687000  0.31364000  0.78340000  1.0
  H  H149  1  0.35656000  0.96949000  0.78327000  1.0
  H  H150  1  0.96963000  0.42679000  0.28323000  1.0
  H  H151  1  0.31367000  0.35661000  0.28330000  1.0
  H  H152  1  0.47629000  0.80411000  0.42054000  1.0
  H  H153  1  0.94423000  0.11647000  0.42058000  1.0
  H  H154  1  0.11649000  0.47630000  0.92064000  1.0
  H  H155  1  0.80412000  0.94431000  0.92054000  1.0
  H  H156  1  0.52371000  0.19589000  0.57946000  1.0
  H  H157  1  0.05577000  0.88353000  0.57942000  1.0
  H  H158  1  0.88351000  0.52370000  0.07936000  1.0
  H  H159  1  0.19588000  0.05569000  0.07946000  1.0
  H  H160  1  0.44081000  0.70014000  0.36607000  1.0
  H  H161  1  0.92534000  0.16595000  0.36611000  1.0
  H  H162  1  0.16599000  0.44071000  0.86618000  1.0
  H  H163  1  0.70016000  0.92534000  0.86609000  1.0
  H  H164  1  0.55918000  0.29986000  0.63393000  1.0
  H  H165  1  0.07467000  0.83405000  0.63389000  1.0
  H  H166  1  0.83402000  0.55929000  0.13382000  1.0
  H  H167  1  0.29983000  0.07466000  0.13390000  1.0
  H  H168  1  0.58686000  0.66401000  0.40508000  1.0
  H  H169  1  0.81827000  0.24119000  0.40508000  1.0
  H  H170  1  0.24112000  0.58682000  0.90511000  1.0
  H  H171  1  0.66399000  0.81831000  0.90510000  1.0
  H  H172  1  0.41314000  0.33599000  0.59492000  1.0
  H  H173  1  0.18173000  0.75881000  0.59492000  1.0
  H  H174  1  0.75888000  0.41318000  0.09489000  1.0
  H  H175  1  0.33601000  0.18169000  0.09491000  1.0
  H  H176  1  0.62065000  0.76814000  0.46081000  1.0
  H  H177  1  0.84003000  0.19268000  0.46074000  1.0
  H  H178  1  0.19263000  0.62066000  0.96079000  1.0
  H  H179  1  0.76815000  0.84008000  0.96075000  1.0
  H  H180  1  0.37935000  0.23186000  0.53919000  1.0
  H  H181  1  0.15997000  0.80732000  0.53926000  1.0
  H  H182  1  0.80737000  0.37934000  0.03921000  1.0
  H  H183  1  0.23185000  0.15992000  0.03925000  1.0
  H  H184  1  0.48449000  0.64466000  0.45277000  1.0
  H  H185  1  0.96839000  0.30810000  0.45292000  1.0
  H  H186  1  0.30811000  0.48455000  0.95291000  1.0
  H  H187  1  0.64484000  0.96837000  0.95287000  1.0
  H  H188  1  0.51551000  0.35534000  0.54723000  1.0
  H  H189  1  0.03162000  0.69190000  0.54708000  1.0
  H  H190  1  0.69189000  0.51545000  0.04709000  1.0
  H  H191  1  0.35516000  0.03163000  0.04713000  1.0
  H  H192  1  0.51638000  0.74983000  0.50647000  1.0
  H  H193  1  0.99002000  0.25648000  0.50651000  1.0
  H  H194  1  0.25655000  0.51648000  0.00654000  1.0
  H  H195  1  0.75004000  0.99011000  0.00649000  1.0
  H  H196  1  0.48362000  0.25017000  0.49353000  1.0
  H  H197  1  0.00999000  0.74352000  0.49349000  1.0
  H  H198  1  0.74345000  0.48352000  0.99346000  1.0
  H  H199  1  0.24996000  0.00989000  0.99351000  1.0
  H  H200  1  0.68059000  0.79270000  0.57475000  1.0
  H  H201  1  0.89407000  0.28198000  0.57482000  1.0
  H  H202  1  0.28201000  0.68075000  0.07483000  1.0
  H  H203  1  0.79289000  0.89420000  0.07481000  1.0
  H  H204  1  0.31941000  0.20729000  0.42525000  1.0
  H  H205  1  0.10593000  0.71802000  0.42518000  1.0
  H  H206  1  0.71799000  0.31925000  0.92517000  1.0
  H  H207  1  0.20711000  0.10580000  0.92519000  1.0
  H  H208  1  0.79614000  0.74431000  0.64607000  1.0
  H  H209  1  0.84972000  0.40165000  0.64606000  1.0
  H  H210  1  0.40175000  0.79633000  0.14608000  1.0
  H  H211  1  0.74445000  0.84979000  0.14604000  1.0
  H  H212  1  0.20387000  0.25569000  0.35394000  1.0
  H  H213  1  0.15028000  0.59835000  0.35394000  1.0
  H  H214  1  0.59825000  0.20367000  0.85392000  1.0
  H  H215  1  0.25555000  0.15021000  0.85396000  1.0
  H  H216  1  0.67463000  0.50177000  0.56264000  1.0
  H  H217  1  0.88793000  0.56078000  0.56269000  1.0
  H  H218  1  0.56084000  0.67466000  0.06267000  1.0
  H  H219  1  0.50193000  0.88798000  0.06269000  1.0
  H  H220  1  0.32536000  0.49823000  0.43735000  1.0
  H  H221  1  0.11208000  0.43922000  0.43731000  1.0
  H  H222  1  0.43917000  0.32534000  0.93734000  1.0
  H  H223  1  0.49807000  0.11202000  0.93731000  1.0
  H  H224  1  0.55557000  0.53781000  0.48515000  1.0
  H  H225  1  0.92956000  0.44726000  0.48522000  1.0
  H  H226  1  0.44725000  0.55559000  0.98522000  1.0
  H  H227  1  0.53797000  0.92957000  0.98520000  1.0
  H  H228  1  0.44443000  0.46219000  0.51485000  1.0
  H  H229  1  0.07045000  0.55274000  0.51478000  1.0
  H  H230  1  0.55275000  0.44441000  0.01478000  1.0
  H  H231  1  0.46203000  0.07043000  0.01480000  1.0
  C  C232  1  0.05859000  0.73629000  0.18136000  1.0
  C  C233  1  0.12277000  0.94501000  0.18134000  1.0
  C  C234  1  0.94509000  0.05861000  0.68139000  1.0
  C  C235  1  0.73636000  0.12294000  0.68135000  1.0
  C  C236  1  0.94141000  0.26371000  0.81864000  1.0
  C  C237  1  0.87723000  0.05498000  0.81866000  1.0
  C  C238  1  0.05492000  0.94139000  0.31862000  1.0
  C  C239  1  0.26364000  0.87706000  0.31865000  1.0
  C  C240  1  0.04029000  0.71421000  0.22534000  1.0
  C  C241  1  0.18505000  0.01109000  0.22531000  1.0
  C  C242  1  0.01115000  0.04026000  0.72534000  1.0
  C  C243  1  0.71427000  0.18524000  0.72531000  1.0
  C  C244  1  0.95971000  0.28579000  0.77466000  1.0
  C  C245  1  0.81495000  0.98891000  0.77469000  1.0
  C  C246  1  0.98885000  0.95974000  0.27466000  1.0
  C  C247  1  0.28573000  0.81476000  0.27469000  1.0
  C  C248  1  0.95801000  0.70992000  0.22288000  1.0
  C  C249  1  0.26485000  0.01295000  0.22282000  1.0
  C  C250  1  0.01295000  0.95796000  0.72284000  1.0
  C  C251  1  0.70988000  0.26502000  0.72279000  1.0
  C  C252  1  0.04199000  0.29008000  0.77712000  1.0
  C  C253  1  0.73515000  0.98705000  0.77718000  1.0
  C  C254  1  0.98705000  0.04204000  0.27716000  1.0
  C  C255  1  0.29012000  0.73498000  0.27721000  1.0
  C  C256  1  0.89731000  0.72904000  0.17549000  1.0
  C  C257  1  0.27813000  0.94646000  0.17540000  1.0
  C  C258  1  0.94645000  0.89728000  0.67541000  1.0
  C  C259  1  0.72894000  0.27827000  0.67535000  1.0
  C  C260  1  0.10269000  0.27097000  0.82451000  1.0
  C  C261  1  0.72187000  0.05354000  0.82460000  1.0
  C  C262  1  0.05355000  0.10272000  0.32459000  1.0
  C  C263  1  0.27105000  0.72173000  0.32464000  1.0
  C  C264  1  0.92079000  0.75054000  0.13347000  1.0
  C  C265  1  0.21265000  0.88292000  0.13340000  1.0
  C  C266  1  0.88293000  0.92080000  0.63342000  1.0
  C  C267  1  0.75047000  0.21274000  0.63335000  1.0
  C  C268  1  0.07921000  0.24946000  0.86653000  1.0
  C  C269  1  0.78736000  0.11708000  0.86660000  1.0
  C  C270  1  0.11707000  0.07920000  0.36658000  1.0
  C  C271  1  0.24953000  0.78726000  0.36665000  1.0
  C  C272  1  0.93461000  0.68626000  0.26889000  1.0
  C  C273  1  0.33429000  0.08259000  0.26883000  1.0
  C  C274  1  0.08257000  0.93451000  0.76885000  1.0
  C  C275  1  0.68620000  0.33439000  0.76880000  1.0
  C  C276  1  0.06539000  0.31374000  0.73111000  1.0
  C  C277  1  0.66571000  0.91741000  0.73117000  1.0
  C  C278  1  0.91743000  0.06549000  0.23115000  1.0
  C  C279  1  0.31380000  0.66561000  0.23120000  1.0
  C  C280  1  0.90622000  0.75831000  0.31218000  1.0
  C  C281  1  0.40592000  0.05384000  0.31217000  1.0
  C  C282  1  0.05379000  0.90615000  0.81214000  1.0
  C  C283  1  0.75830000  0.40601000  0.81214000  1.0
  C  C284  1  0.09378000  0.24169000  0.68782000  1.0
  C  C285  1  0.59408000  0.94616000  0.68783000  1.0
  C  C286  1  0.94620000  0.09385000  0.18786000  1.0
  C  C287  1  0.24170000  0.59399000  0.18786000  1.0
  C  C288  1  0.87805000  0.72879000  0.35530000  1.0
  C  C289  1  0.47726000  0.12648000  0.35535000  1.0
  C  C290  1  0.12645000  0.87796000  0.85528000  1.0
  C  C291  1  0.72886000  0.47730000  0.85532000  1.0
  C  C292  1  0.12195000  0.27121000  0.64470000  1.0
  C  C293  1  0.52274000  0.87352000  0.64465000  1.0
  C  C294  1  0.87355000  0.12203000  0.14472000  1.0
  C  C295  1  0.27114000  0.52270000  0.14468000  1.0
  C  C296  1  0.85432000  0.79836000  0.40117000  1.0
  C  C297  1  0.54686000  0.10280000  0.40123000  1.0
  C  C298  1  0.10281000  0.85426000  0.90118000  1.0
  C  C299  1  0.79844000  0.54690000  0.90118000  1.0
  C  C300  1  0.14569000  0.20164000  0.59883000  1.0
  C  C301  1  0.45314000  0.89720000  0.59877000  1.0
  C  C302  1  0.89719000  0.14574000  0.09882000  1.0
  C  C303  1  0.20156000  0.45310000  0.09882000  1.0
  C  C304  1  0.77136000  0.80192000  0.39688000  1.0
  C  C305  1  0.62553000  0.09498000  0.39695000  1.0
  C  C306  1  0.09498000  0.77131000  0.89689000  1.0
  C  C307  1  0.80195000  0.62557000  0.89689000  1.0
  C  C308  1  0.22864000  0.19808000  0.60312000  1.0
  C  C309  1  0.37447000  0.90502000  0.60305000  1.0
  C  C310  1  0.90502000  0.22869000  0.10311000  1.0
  C  C311  1  0.19805000  0.37443000  0.10311000  1.0
  C  C312  1  0.75276000  0.86798000  0.44069000  1.0
  C  C313  1  0.68797000  0.07275000  0.44076000  1.0
  C  C314  1  0.07275000  0.75267000  0.94069000  1.0
  C  C315  1  0.86797000  0.68801000  0.94071000  1.0
  C  C316  1  0.24724000  0.13202000  0.55931000  1.0
  C  C317  1  0.31203000  0.92725000  0.55924000  1.0
  C  C318  1  0.92725000  0.24733000  0.05931000  1.0
  C  C319  1  0.13203000  0.31198000  0.05929000  1.0
  C  C320  1  0.89126000  0.92763000  0.49123000  1.0
  C  C321  1  0.60002000  0.06363000  0.49131000  1.0
  C  C322  1  0.06362000  0.89116000  0.99125000  1.0
  C  C323  1  0.92766000  0.60008000  0.99127000  1.0
  C  C324  1  0.10874000  0.07237000  0.50877000  1.0
  C  C325  1  0.39998000  0.93637000  0.50869000  1.0
  C  C326  1  0.93638000  0.10884000  0.00875000  1.0
  C  C327  1  0.07234000  0.39992000  0.00873000  1.0
  C  C328  1  0.91516000  0.86378000  0.44972000  1.0
  C  C329  1  0.53459000  0.08597000  0.44980000  1.0
  C  C330  1  0.08596000  0.91509000  0.94975000  1.0
  C  C331  1  0.86384000  0.53464000  0.94976000  1.0
  C  C332  1  0.08484000  0.13622000  0.55028000  1.0
  C  C333  1  0.46541000  0.91403000  0.55020000  1.0
  C  C334  1  0.91404000  0.08491000  0.05025000  1.0
  C  C335  1  0.13616000  0.46536000  0.05024000  1.0
  C  C336  1  0.54560000  0.87044000  0.30183000  1.0
  C  C337  1  0.75625000  0.93147000  0.30179000  1.0
  C  C338  1  0.93142000  0.54541000  0.80186000  1.0
  C  C339  1  0.87041000  0.75621000  0.80180000  1.0
  C  C340  1  0.45440000  0.12956000  0.69817000  1.0
  C  C341  1  0.24374000  0.06853000  0.69821000  1.0
  C  C342  1  0.06858000  0.45459000  0.19814000  1.0
  C  C343  1  0.12959000  0.24379000  0.19820000  1.0
  C  C344  1  0.52452000  0.85333000  0.34667000  1.0
  C  C345  1  0.82223000  0.99337000  0.34663000  1.0
  C  C346  1  0.99334000  0.52426000  0.84667000  1.0
  C  C347  1  0.85333000  0.82220000  0.84661000  1.0
  C  C348  1  0.47546000  0.14667000  0.65332000  1.0
  C  C349  1  0.17777000  0.00663000  0.65337000  1.0
  C  C350  1  0.00666000  0.47574000  0.15333000  1.0
  C  C351  1  0.14666000  0.17780000  0.15338000  1.0
  C  C352  1  0.51899000  0.77125000  0.34457000  1.0
  C  C353  1  0.82566000  0.07336000  0.34457000  1.0
  C  C354  1  0.07335000  0.51881000  0.84461000  1.0
  C  C355  1  0.77126000  0.82566000  0.84453000  1.0
  C  C356  1  0.48101000  0.22874000  0.65543000  1.0
  C  C357  1  0.17434000  0.92664000  0.65543000  1.0
  C  C358  1  0.92665000  0.48119000  0.15539000  1.0
  C  C359  1  0.22873000  0.17435000  0.15546000  1.0
  C  C360  1  0.53644000  0.70994000  0.29659000  1.0
  C  C361  1  0.76022000  0.08678000  0.29663000  1.0
  C  C362  1  0.08670000  0.53635000  0.79666000  1.0
  C  C363  1  0.70995000  0.76021000  0.79659000  1.0
  C  C364  1  0.46356000  0.29006000  0.70341000  1.0
  C  C365  1  0.23978000  0.91322000  0.70337000  1.0
  C  C366  1  0.91330000  0.46365000  0.20334000  1.0
  C  C367  1  0.29005000  0.23979000  0.20341000  1.0
  C  C368  1  0.55773000  0.73204000  0.25388000  1.0
  C  C369  1  0.69617000  0.02203000  0.25394000  1.0
  C  C370  1  0.02191000  0.55770000  0.75398000  1.0
  C  C371  1  0.73201000  0.69613000  0.75391000  1.0
  C  C372  1  0.44227000  0.26796000  0.74612000  1.0
  C  C373  1  0.30384000  0.97797000  0.74607000  1.0
  C  C374  1  0.97809000  0.44230000  0.24602000  1.0
  C  C375  1  0.26799000  0.30387000  0.24609000  1.0
  C  C376  1  0.49559000  0.74932000  0.39132000  1.0
  C  C377  1  0.89577000  0.14204000  0.39135000  1.0
  C  C378  1  0.14206000  0.49552000  0.89140000  1.0
  C  C379  1  0.74935000  0.89577000  0.89131000  1.0
  C  C380  1  0.50441000  0.25068000  0.60868000  1.0
  C  C381  1  0.10423000  0.85796000  0.60865000  1.0
  C  C382  1  0.85794000  0.50448000  0.10860000  1.0
  C  C383  1  0.25064000  0.10423000  0.10869000  1.0
  C  C384  1  0.56646000  0.71857000  0.43379000  1.0
  C  C385  1  0.86730000  0.21523000  0.43377000  1.0
  C  C386  1  0.21519000  0.56644000  0.93379000  1.0
  C  C387  1  0.71863000  0.86733000  0.93377000  1.0
  C  C388  1  0.43353000  0.28143000  0.56621000  1.0
  C  C389  1  0.13270000  0.78477000  0.56623000  1.0
  C  C390  1  0.78480000  0.43356000  0.06621000  1.0
  C  C391  1  0.28137000  0.13267000  0.06623000  1.0
  C  C392  1  0.53818000  0.69489000  0.47935000  1.0
  C  C393  1  0.94117000  0.28442000  0.47944000  1.0
  C  C394  1  0.28446000  0.53827000  0.97946000  1.0
  C  C395  1  0.69505000  0.94122000  0.97943000  1.0
  C  C396  1  0.46182000  0.30511000  0.52065000  1.0
  C  C397  1  0.05884000  0.71558000  0.52056000  1.0
  C  C398  1  0.71554000  0.46173000  0.02054000  1.0
  C  C399  1  0.30495000  0.05878000  0.02057000  1.0
  C  C400  1  0.60760000  0.66882000  0.52388000  1.0
  C  C401  1  0.91621000  0.35498000  0.52394000  1.0
  C  C402  1  0.35500000  0.60771000  0.02395000  1.0
  C  C403  1  0.66900000  0.91632000  0.02394000  1.0
  C  C404  1  0.39240000  0.33118000  0.47612000  1.0
  C  C405  1  0.08379000  0.64502000  0.47606000  1.0
  C  C406  1  0.64500000  0.39229000  0.97605000  1.0
  C  C407  1  0.33100000  0.08368000  0.97606000  1.0
  C  C408  1  0.67660000  0.72727000  0.57024000  1.0
  C  C409  1  0.89350000  0.34288000  0.57027000  1.0
  C  C410  1  0.34292000  0.67674000  0.07030000  1.0
  C  C411  1  0.72745000  0.89364000  0.07029000  1.0
  C  C412  1  0.32340000  0.27273000  0.42976000  1.0
  C  C413  1  0.10650000  0.65712000  0.42973000  1.0
  C  C414  1  0.65709000  0.32326000  0.92971000  1.0
  C  C415  1  0.27255000  0.10636000  0.92971000  1.0
  C  C416  1  0.74062000  0.70121000  0.61011000  1.0
  C  C417  1  0.86931000  0.40879000  0.61011000  1.0
  C  C418  1  0.40885000  0.74077000  0.11013000  1.0
  C  C419  1  0.70137000  0.86941000  0.11011000  1.0
  C  C420  1  0.25938000  0.29879000  0.38989000  1.0
  C  C421  1  0.13069000  0.59121000  0.38989000  1.0
  C  C422  1  0.59115000  0.25923000  0.88987000  1.0
  C  C423  1  0.29863000  0.13059000  0.88989000  1.0
  C  C424  1  0.67369000  0.56517000  0.56277000  1.0
  C  C425  1  0.88895000  0.49750000  0.56279000  1.0
  C  C426  1  0.49754000  0.67376000  0.06279000  1.0
  C  C427  1  0.56534000  0.88904000  0.06280000  1.0
  C  C428  1  0.32631000  0.43483000  0.43723000  1.0
  C  C429  1  0.11105000  0.50250000  0.43721000  1.0
  C  C430  1  0.50246000  0.32624000  0.93721000  1.0
  C  C431  1  0.43466000  0.11096000  0.93720000  1.0
  C  C432  1  0.60745000  0.58601000  0.52045000  1.0
  C  C433  1  0.91291000  0.43435000  0.52050000  1.0
  C  C434  1  0.43437000  0.60753000  0.02051000  1.0
  C  C435  1  0.58619000  0.91300000  0.02050000  1.0
  C  C436  1  0.39255000  0.41399000  0.47955000  1.0
  C  C437  1  0.08709000  0.56565000  0.47950000  1.0
  C  C438  1  0.56563000  0.39247000  0.97949000  1.0
  C  C439  1  0.41381000  0.08700000  0.97950000  1.0
  N  N440  1  0.00010000  0.75415000  0.13591000  1.0
  N  N441  1  0.13578000  0.88173000  0.13586000  1.0
  N  N442  1  0.88178000  0.00014000  0.63591000  1.0
  N  N443  1  0.75416000  0.13590000  0.63585000  1.0
  N  N444  1  0.99990000  0.24585000  0.86409000  1.0
  N  N445  1  0.86422000  0.11827000  0.86414000  1.0
  N  N446  1  0.11821000  0.99986000  0.36409000  1.0
  N  N447  1  0.24584000  0.86410000  0.36415000  1.0
  N  N448  1  0.81146000  0.93000000  0.48740000  1.0
  N  N449  1  0.67598000  0.05742000  0.48746000  1.0
  N  N450  1  0.05743000  0.81136000  0.98741000  1.0
  N  N451  1  0.92998000  0.67603000  0.98742000  1.0
  N  N452  1  0.18854000  0.07000000  0.51260000  1.0
  N  N453  1  0.32402000  0.94258000  0.51254000  1.0
  N  N454  1  0.94257000  0.18864000  0.01259000  1.0
  N  N455  1  0.07002000  0.32397000  0.01258000  1.0
  N  N456  1  0.56205000  0.81114000  0.25602000  1.0
  N  N457  1  0.69398000  0.94505000  0.25604000  1.0
  N  N458  1  0.94495000  0.56200000  0.75611000  1.0
  N  N459  1  0.81110000  0.69391000  0.75603000  1.0
  N  N460  1  0.43795000  0.18886000  0.74398000  1.0
  N  N461  1  0.30602000  0.05495000  0.74396000  1.0
  N  N462  1  0.05505000  0.43800000  0.24389000  1.0
  N  N463  1  0.18890000  0.30609000  0.24397000  1.0
  N  N464  1  0.73957000  0.62163000  0.60707000  1.0
  N  N465  1  0.86734000  0.48534000  0.60708000  1.0
  N  N466  1  0.48541000  0.73967000  0.10709000  1.0
  N  N467  1  0.62178000  0.86740000  0.10706000  1.0
  N  N468  1  0.26043000  0.37837000  0.39293000  1.0
  N  N469  1  0.13266000  0.51466000  0.39292000  1.0
  N  N470  1  0.51459000  0.26033000  0.89291000  1.0
  N  N471  1  0.37823000  0.13260000  0.89294000  1.0
  Cl  Cl472  1  0.13249000  0.67696000  0.06055000  1.0
  Cl  Cl473  1  0.92812000  0.88362000  0.06057000  1.0
  Cl  Cl474  1  0.88359000  0.13246000  0.56056000  1.0
  Cl  Cl475  1  0.67706000  0.92808000  0.56060000  1.0
  Cl  Cl476  1  0.86752000  0.32303000  0.93945000  1.0
  Cl  Cl477  1  0.07189000  0.11638000  0.93943000  1.0
  Cl  Cl478  1  0.11641000  0.86755000  0.43944000  1.0
  Cl  Cl479  1  0.32295000  0.07192000  0.43941000  1.0
  Cl  Cl480  1  0.69095000  0.73433000  0.18239000  1.0
  Cl  Cl481  1  0.49149000  0.94814000  0.18233000  1.0
  Cl  Cl482  1  0.94806000  0.69085000  0.68236000  1.0
  Cl  Cl483  1  0.73418000  0.49149000  0.68238000  1.0
  Cl  Cl484  1  0.30905000  0.26567000  0.81761000  1.0
  Cl  Cl485  1  0.50851000  0.05186000  0.81767000  1.0
  Cl  Cl486  1  0.05194000  0.30915000  0.31764000  1.0
  Cl  Cl487  1  0.26582000  0.50851000  0.31762000  1.0
