# generated using pymatgen
data_CdH30C36N4(ClO2)2
_symmetry_space_group_name_H-M   'P 1'
_cell_length_a   12.66270000
_cell_length_b   12.66270000
_cell_length_c   28.29520000
_cell_angle_alpha   88.90970000
_cell_angle_beta   88.90980000
_cell_angle_gamma   86.20300000
_symmetry_Int_Tables_number   1
_chemical_formula_structural   CdH30C36N4(ClO2)2
_chemical_formula_sum   'Cd4 H120 C144 N16 Cl8 O16'
_cell_volume   4525.46839562
_cell_formula_units_Z   4
loop_
 _symmetry_equiv_pos_site_id
 _symmetry_equiv_pos_as_xyz
  1  'x, y, z'
loop_
 _atom_site_type_symbol
 _atom_site_label
 _atom_site_symmetry_multiplicity
 _atom_site_fract_x
 _atom_site_fract_y
 _atom_site_fract_z
 _atom_site_occupancy
  Cd  Cd0  1  0.29058000  0.82333000  0.52403000  1.0
  Cd  Cd1  1  0.82334000  0.29058000  0.02402000  1.0
  Cd  Cd2  1  0.17667000  0.70942000  0.97597000  1.0
  Cd  Cd3  1  0.70942000  0.17667000  0.47597000  1.0
  H  H4  1  0.74443000  0.42164000  0.12118000  1.0
  H  H5  1  0.59413000  0.43068000  0.18007000  1.0
  H  H6  1  0.62985000  0.16671000  0.05447000  1.0
  H  H7  1  0.46420000  0.17528000  0.10535000  1.0
  H  H8  1  0.41855000  0.60427000  0.50348000  1.0
  H  H9  1  0.42429000  0.44312000  0.45194000  1.0
  H  H10  1  0.17157000  0.60137000  0.37174000  1.0
  H  H11  1  0.16838000  0.74904000  0.43039000  1.0
  H  H12  1  0.29267000  0.31269000  0.43742000  1.0
  H  H13  1  0.42239000  0.58151000  0.34605000  1.0
  H  H14  1  0.38815000  0.65265000  0.29259000  1.0
  H  H15  1  0.46950000  0.53183000  0.29000000  1.0
  H  H16  1  0.17192000  0.07326000  0.32504000  1.0
  H  H17  1  0.22405000  0.02563000  0.26936000  1.0
  H  H18  1  0.15164000  0.15260000  0.27221000  1.0
  H  H19  1  0.14275000  0.18260000  0.43956000  1.0
  H  H20  1  0.13999000  0.02113000  0.49134000  1.0
  H  H21  1  0.40903000  0.88438000  0.42633000  1.0
  H  H22  1  0.42176000  0.03789000  0.36961000  1.0
  H  H23  1  0.32415000  0.31320000  0.11165000  1.0
  H  H24  1  0.50887000  0.16194000  0.27522000  1.0
  H  H25  1  0.62906000  0.23010000  0.27450000  1.0
  H  H26  1  0.57860000  0.18448000  0.22027000  1.0
  H  H27  1  0.13650000  0.51388000  0.26133000  1.0
  H  H28  1  0.00800000  0.46309000  0.26908000  1.0
  H  H29  1  0.05822000  0.48975000  0.21062000  1.0
  H  H30  1  0.03258000  0.23812000  0.19107000  1.0
  H  H31  1  0.88883000  0.22116000  0.13261000  1.0
  H  H32  1  0.03960000  0.40641000  0.03308000  1.0
  H  H33  1  0.19208000  0.42209000  0.08411000  1.0
  H  H34  1  0.42164000  0.74443000  0.62118000  1.0
  H  H35  1  0.43068000  0.59413000  0.68007000  1.0
  H  H36  1  0.16671000  0.62985000  0.55447000  1.0
  H  H37  1  0.17528000  0.46420000  0.60535000  1.0
  H  H38  1  0.60427000  0.41855000  0.00348000  1.0
  H  H39  1  0.44312000  0.42429000  0.95194000  1.0
  H  H40  1  0.60137000  0.17157000  0.87174000  1.0
  H  H41  1  0.74903000  0.16838000  0.93040000  1.0
  H  H42  1  0.31269000  0.29268000  0.93742000  1.0
  H  H43  1  0.58151000  0.42239000  0.84605000  1.0
  H  H44  1  0.65265000  0.38815000  0.79259000  1.0
  H  H45  1  0.53183000  0.46950000  0.79000000  1.0
  H  H46  1  0.07327000  0.17192000  0.82504000  1.0
  H  H47  1  0.02564000  0.22405000  0.76936000  1.0
  H  H48  1  0.15259000  0.15163000  0.77221000  1.0
  H  H49  1  0.18261000  0.14275000  0.93956000  1.0
  H  H50  1  0.02113000  0.14000000  0.99134000  1.0
  H  H51  1  0.88438000  0.40904000  0.92632000  1.0
  H  H52  1  0.03789000  0.42177000  0.86961000  1.0
  H  H53  1  0.31320000  0.32415000  0.61165000  1.0
  H  H54  1  0.16194000  0.50886000  0.77522000  1.0
  H  H55  1  0.23010000  0.62905000  0.77450000  1.0
  H  H56  1  0.18448000  0.57860000  0.72027000  1.0
  H  H57  1  0.51388000  0.13651000  0.76133000  1.0
  H  H58  1  0.46309000  0.00800000  0.76908000  1.0
  H  H59  1  0.48976000  0.05822000  0.71062000  1.0
  H  H60  1  0.23812000  0.03258000  0.69107000  1.0
  H  H61  1  0.22116000  0.88883000  0.63261000  1.0
  H  H62  1  0.40641000  0.03960000  0.53308000  1.0
  H  H63  1  0.42209000  0.19208000  0.58411000  1.0
  H  H64  1  0.57836000  0.25557000  0.37882000  1.0
  H  H65  1  0.56932000  0.40587000  0.31993000  1.0
  H  H66  1  0.83329000  0.37015000  0.44553000  1.0
  H  H67  1  0.82472000  0.53580000  0.39465000  1.0
  H  H68  1  0.39573000  0.58145000  0.99651000  1.0
  H  H69  1  0.55688000  0.57571000  0.04806000  1.0
  H  H70  1  0.39863000  0.82843000  0.12826000  1.0
  H  H71  1  0.25096000  0.83162000  0.06960000  1.0
  H  H72  1  0.68731000  0.70732000  0.06258000  1.0
  H  H73  1  0.41849000  0.57761000  0.15395000  1.0
  H  H74  1  0.34735000  0.61186000  0.20741000  1.0
  H  H75  1  0.46817000  0.53050000  0.21000000  1.0
  H  H76  1  0.92673000  0.82808000  0.17496000  1.0
  H  H77  1  0.97436000  0.77595000  0.23064000  1.0
  H  H78  1  0.84740000  0.84836000  0.22779000  1.0
  H  H79  1  0.81739000  0.85725000  0.06044000  1.0
  H  H80  1  0.97887000  0.86001000  0.00866000  1.0
  H  H81  1  0.11562000  0.59096000  0.07367000  1.0
  H  H82  1  0.96211000  0.57824000  0.13039000  1.0
  H  H83  1  0.68679000  0.67585000  0.38835000  1.0
  H  H84  1  0.83806000  0.49113000  0.22478000  1.0
  H  H85  1  0.76990000  0.37094000  0.22550000  1.0
  H  H86  1  0.81552000  0.42140000  0.27972000  1.0
  H  H87  1  0.48613000  0.86350000  0.23867000  1.0
  H  H88  1  0.53691000  0.99200000  0.23092000  1.0
  H  H89  1  0.51025000  0.94179000  0.28938000  1.0
  H  H90  1  0.76187000  0.96742000  0.30894000  1.0
  H  H91  1  0.77884000  0.11117000  0.36739000  1.0
  H  H92  1  0.59359000  0.96040000  0.46692000  1.0
  H  H93  1  0.57791000  0.80792000  0.41589000  1.0
  H  H94  1  0.25557000  0.57836000  0.87882000  1.0
  H  H95  1  0.40587000  0.56932000  0.81993000  1.0
  H  H96  1  0.37015000  0.83329000  0.94553000  1.0
  H  H97  1  0.53580000  0.82472000  0.89465000  1.0
  H  H98  1  0.58145000  0.39573000  0.49651000  1.0
  H  H99  1  0.57571000  0.55688000  0.54806000  1.0
  H  H100  1  0.82843000  0.39863000  0.62826000  1.0
  H  H101  1  0.83162000  0.25096000  0.56960000  1.0
  H  H102  1  0.70733000  0.68731000  0.56258000  1.0
  H  H103  1  0.57761000  0.41849000  0.65395000  1.0
  H  H104  1  0.61185000  0.34734000  0.70741000  1.0
  H  H105  1  0.53050000  0.46817000  0.71000000  1.0
  H  H106  1  0.82807000  0.92673000  0.67496000  1.0
  H  H107  1  0.77595000  0.97436000  0.73064000  1.0
  H  H108  1  0.84836000  0.84740000  0.72779000  1.0
  H  H109  1  0.85725000  0.81739000  0.56044000  1.0
  H  H110  1  0.86001000  0.97887000  0.50866000  1.0
  H  H111  1  0.59096000  0.11562000  0.57367000  1.0
  H  H112  1  0.57824000  0.96211000  0.63039000  1.0
  H  H113  1  0.67585000  0.68679000  0.88835000  1.0
  H  H114  1  0.49114000  0.83806000  0.72478000  1.0
  H  H115  1  0.37094000  0.76990000  0.72550000  1.0
  H  H116  1  0.42140000  0.81552000  0.77973000  1.0
  H  H117  1  0.86349000  0.48612000  0.73867000  1.0
  H  H118  1  0.99200000  0.53691000  0.73092000  1.0
  H  H119  1  0.94178000  0.51024000  0.78938000  1.0
  H  H120  1  0.96742000  0.76188000  0.80894000  1.0
  H  H121  1  0.11117000  0.77884000  0.86739000  1.0
  H  H122  1  0.96040000  0.59359000  0.96692000  1.0
  H  H123  1  0.80792000  0.57791000  0.91589000  1.0
  C  C124  1  0.68207000  0.36612000  0.12032000  1.0
  C  C125  1  0.59710000  0.37230000  0.15228000  1.0
  C  C126  1  0.51475000  0.30490000  0.14672000  1.0
  C  C127  1  0.61569000  0.22593000  0.08184000  1.0
  C  C128  1  0.52561000  0.23006000  0.11069000  1.0
  C  C129  1  0.36378000  0.59802000  0.47450000  1.0
  C  C130  1  0.36807000  0.51071000  0.44540000  1.0
  C  C131  1  0.29899000  0.51062000  0.40721000  1.0
  C  C132  1  0.22708000  0.59861000  0.40074000  1.0
  C  C133  1  0.22584000  0.68097000  0.43265000  1.0
  C  C134  1  0.30043000  0.41710000  0.37687000  1.0
  C  C135  1  0.29523000  0.31798000  0.39894000  1.0
  C  C136  1  0.29426000  0.22453000  0.37357000  1.0
  C  C137  1  0.30151000  0.23174000  0.32403000  1.0
  C  C138  1  0.30595000  0.42279000  0.32715000  1.0
  C  C139  1  0.30650000  0.33033000  0.30060000  1.0
  C  C140  1  0.40296000  0.57382000  0.30864000  1.0
  C  C141  1  0.20699000  0.09615000  0.29078000  1.0
  C  C142  1  0.28476000  0.12476000  0.40073000  1.0
  C  C143  1  0.20421000  0.11886000  0.43525000  1.0
  C  C144  1  0.20201000  0.02944000  0.46441000  1.0
  C  C145  1  0.35093000  0.95186000  0.42702000  1.0
  C  C146  1  0.35772000  0.03728000  0.39583000  1.0
  C  C147  1  0.31158000  0.33325000  0.24808000  1.0
  C  C148  1  0.21801000  0.34085000  0.22198000  1.0
  C  C149  1  0.22086000  0.33223000  0.17237000  1.0
  C  C150  1  0.32025000  0.31967000  0.15002000  1.0
  C  C151  1  0.41508000  0.31539000  0.17464000  1.0
  C  C152  1  0.40970000  0.32149000  0.22424000  1.0
  C  C153  1  0.55699000  0.21714000  0.25518000  1.0
  C  C154  1  0.07935000  0.46220000  0.24660000  1.0
  C  C155  1  0.12611000  0.33116000  0.14275000  1.0
  C  C156  1  0.03714000  0.27628000  0.15637000  1.0
  C  C157  1  0.95659000  0.26766000  0.12419000  1.0
  C  C158  1  0.04065000  0.36860000  0.06808000  1.0
  C  C159  1  0.12613000  0.37824000  0.09744000  1.0
  C  C160  1  0.36612000  0.68207000  0.62032000  1.0
  C  C161  1  0.37230000  0.59710000  0.65228000  1.0
  C  C162  1  0.30490000  0.51475000  0.64672000  1.0
  C  C163  1  0.22593000  0.61569000  0.58184000  1.0
  C  C164  1  0.23006000  0.52561000  0.61069000  1.0
  C  C165  1  0.59803000  0.36379000  0.97449000  1.0
  C  C166  1  0.51070000  0.36808000  0.94540000  1.0
  C  C167  1  0.51062000  0.29900000  0.90721000  1.0
  C  C168  1  0.59861000  0.22708000  0.90074000  1.0
  C  C169  1  0.68098000  0.22584000  0.93265000  1.0
  C  C170  1  0.41710000  0.30043000  0.87687000  1.0
  C  C171  1  0.31798000  0.29523000  0.89894000  1.0
  C  C172  1  0.22453000  0.29426000  0.87357000  1.0
  C  C173  1  0.23174000  0.30151000  0.82403000  1.0
  C  C174  1  0.42279000  0.30595000  0.82715000  1.0
  C  C175  1  0.33033000  0.30650000  0.80060000  1.0
  C  C176  1  0.57382000  0.40296000  0.80864000  1.0
  C  C177  1  0.09615000  0.20698000  0.79078000  1.0
  C  C178  1  0.12476000  0.28477000  0.90073000  1.0
  C  C179  1  0.11886000  0.20421000  0.93524000  1.0
  C  C180  1  0.02944000  0.20201000  0.96441000  1.0
  C  C181  1  0.95186000  0.35094000  0.92702000  1.0
  C  C182  1  0.03728000  0.35772000  0.89582000  1.0
  C  C183  1  0.33325000  0.31158000  0.74807000  1.0
  C  C184  1  0.34086000  0.21801000  0.72198000  1.0
  C  C185  1  0.33223000  0.22086000  0.67237000  1.0
  C  C186  1  0.31967000  0.32025000  0.65002000  1.0
  C  C187  1  0.31539000  0.41508000  0.67464000  1.0
  C  C188  1  0.32149000  0.40970000  0.72424000  1.0
  C  C189  1  0.21714000  0.55699000  0.75518000  1.0
  C  C190  1  0.46220000  0.07935000  0.74660000  1.0
  C  C191  1  0.33116000  0.12611000  0.64275000  1.0
  C  C192  1  0.27629000  0.03714000  0.65637000  1.0
  C  C193  1  0.26766000  0.95660000  0.62419000  1.0
  C  C194  1  0.36860000  0.04066000  0.56808000  1.0
  C  C195  1  0.37824000  0.12613000  0.59744000  1.0
  C  C196  1  0.63388000  0.31793000  0.37968000  1.0
  C  C197  1  0.62770000  0.40290000  0.34772000  1.0
  C  C198  1  0.69510000  0.48526000  0.35328000  1.0
  C  C199  1  0.77407000  0.38431000  0.41816000  1.0
  C  C200  1  0.76994000  0.47440000  0.38931000  1.0
  C  C201  1  0.40197000  0.63622000  0.02550000  1.0
  C  C202  1  0.48929000  0.63193000  0.05460000  1.0
  C  C203  1  0.48938000  0.70100000  0.09279000  1.0
  C  C204  1  0.40139000  0.77292000  0.09926000  1.0
  C  C205  1  0.31902000  0.77416000  0.06735000  1.0
  C  C206  1  0.58290000  0.69957000  0.12313000  1.0
  C  C207  1  0.68202000  0.70477000  0.10106000  1.0
  C  C208  1  0.77547000  0.70574000  0.12643000  1.0
  C  C209  1  0.76826000  0.69849000  0.17597000  1.0
  C  C210  1  0.57721000  0.69405000  0.17285000  1.0
  C  C211  1  0.66967000  0.69350000  0.19940000  1.0
  C  C212  1  0.42618000  0.59704000  0.19136000  1.0
  C  C213  1  0.90385000  0.79301000  0.20922000  1.0
  C  C214  1  0.87524000  0.71523000  0.09927000  1.0
  C  C215  1  0.88114000  0.79579000  0.06475000  1.0
  C  C216  1  0.97056000  0.79799000  0.03559000  1.0
  C  C217  1  0.04814000  0.64906000  0.07298000  1.0
  C  C218  1  0.96271000  0.64228000  0.10418000  1.0
  C  C219  1  0.66675000  0.68842000  0.25193000  1.0
  C  C220  1  0.65915000  0.78199000  0.27802000  1.0
  C  C221  1  0.66776000  0.77914000  0.32763000  1.0
  C  C222  1  0.68033000  0.67975000  0.34998000  1.0
  C  C223  1  0.68461000  0.58492000  0.32536000  1.0
  C  C224  1  0.67851000  0.59030000  0.27576000  1.0
  C  C225  1  0.78286000  0.44302000  0.24482000  1.0
  C  C226  1  0.53780000  0.92065000  0.25340000  1.0
  C  C227  1  0.66884000  0.87389000  0.35725000  1.0
  C  C228  1  0.72371000  0.96286000  0.34363000  1.0
  C  C229  1  0.73233000  0.04340000  0.37581000  1.0
  C  C230  1  0.63140000  0.95935000  0.43193000  1.0
  C  C231  1  0.62176000  0.87387000  0.40256000  1.0
  C  C232  1  0.31793000  0.63388000  0.87968000  1.0
  C  C233  1  0.40290000  0.62770000  0.84772000  1.0
  C  C234  1  0.48526000  0.69511000  0.85328000  1.0
  C  C235  1  0.38431000  0.77407000  0.91816000  1.0
  C  C236  1  0.47440000  0.76994000  0.88931000  1.0
  C  C237  1  0.63622000  0.40197000  0.52550000  1.0
  C  C238  1  0.63193000  0.48929000  0.55460000  1.0
  C  C239  1  0.70101000  0.48938000  0.59279000  1.0
  C  C240  1  0.77292000  0.40139000  0.59926000  1.0
  C  C241  1  0.77416000  0.31903000  0.56735000  1.0
  C  C242  1  0.69957000  0.58290000  0.62313000  1.0
  C  C243  1  0.70478000  0.68202000  0.60106000  1.0
  C  C244  1  0.70574000  0.77547000  0.62643000  1.0
  C  C245  1  0.69849000  0.76826000  0.67597000  1.0
  C  C246  1  0.69405000  0.57721000  0.67285000  1.0
  C  C247  1  0.69350000  0.66967000  0.69940000  1.0
  C  C248  1  0.59704000  0.42618000  0.69136000  1.0
  C  C249  1  0.79301000  0.90385000  0.70923000  1.0
  C  C250  1  0.71524000  0.87525000  0.59927000  1.0
  C  C251  1  0.79579000  0.88114000  0.56476000  1.0
  C  C252  1  0.79799000  0.97056000  0.53559000  1.0
  C  C253  1  0.64906000  0.04814000  0.57298000  1.0
  C  C254  1  0.64229000  0.96272000  0.60418000  1.0
  C  C255  1  0.68842000  0.66675000  0.75193000  1.0
  C  C256  1  0.78199000  0.65915000  0.77802000  1.0
  C  C257  1  0.77914000  0.66776000  0.82763000  1.0
  C  C258  1  0.67975000  0.68033000  0.84998000  1.0
  C  C259  1  0.58492000  0.68461000  0.82536000  1.0
  C  C260  1  0.59030000  0.67851000  0.77576000  1.0
  C  C261  1  0.44302000  0.78285000  0.74482000  1.0
  C  C262  1  0.92065000  0.53780000  0.75340000  1.0
  C  C263  1  0.87389000  0.66884000  0.85725000  1.0
  C  C264  1  0.96287000  0.72372000  0.84363000  1.0
  C  C265  1  0.04341000  0.73234000  0.87581000  1.0
  C  C266  1  0.95935000  0.63140000  0.93192000  1.0
  C  C267  1  0.87388000  0.62176000  0.90256000  1.0
  N  N268  1  0.29364000  0.68117000  0.46852000  1.0
  N  N269  1  0.27569000  0.94839000  0.46103000  1.0
  N  N270  1  0.95773000  0.31301000  0.08087000  1.0
  N  N271  1  0.69145000  0.29427000  0.08599000  1.0
  N  N272  1  0.68117000  0.29364000  0.96852000  1.0
  N  N273  1  0.94839000  0.27570000  0.96103000  1.0
  N  N274  1  0.31301000  0.95773000  0.58087000  1.0
  N  N275  1  0.29428000  0.69144000  0.58599000  1.0
  N  N276  1  0.31883000  0.70637000  0.03148000  1.0
  N  N277  1  0.05161000  0.72430000  0.03897000  1.0
  N  N278  1  0.68699000  0.04227000  0.41913000  1.0
  N  N279  1  0.70573000  0.30855000  0.41401000  1.0
  N  N280  1  0.70636000  0.31883000  0.53148000  1.0
  N  N281  1  0.72430000  0.05160000  0.53897000  1.0
  N  N282  1  0.04227000  0.68699000  0.91913000  1.0
  N  N283  1  0.30856000  0.70573000  0.91401000  1.0
  Cl  Cl284  1  0.08654000  0.82797000  0.53229000  1.0
  Cl  Cl285  1  0.49920000  0.79786000  0.51798000  1.0
  Cl  Cl286  1  0.82796000  0.08654000  0.03229000  1.0
  Cl  Cl287  1  0.79785000  0.49921000  0.01799000  1.0
  Cl  Cl288  1  0.17204000  0.91347000  0.96771000  1.0
  Cl  Cl289  1  0.20215000  0.50080000  0.98201000  1.0
  Cl  Cl290  1  0.91346000  0.17204000  0.46771000  1.0
  Cl  Cl291  1  0.50080000  0.20214000  0.48201000  1.0
  O  O292  1  0.30792000  0.51895000  0.30317000  1.0
  O  O293  1  0.30700000  0.14162000  0.29692000  1.0
  O  O294  1  0.12267000  0.35394000  0.24641000  1.0
  O  O295  1  0.50033000  0.31913000  0.25069000  1.0
  O  O296  1  0.51896000  0.30792000  0.80316000  1.0
  O  O297  1  0.14162000  0.30700000  0.79692000  1.0
  O  O298  1  0.35394000  0.12267000  0.74641000  1.0
  O  O299  1  0.31914000  0.50033000  0.75069000  1.0
  O  O300  1  0.48105000  0.69208000  0.19684000  1.0
  O  O301  1  0.85838000  0.69300000  0.20308000  1.0
  O  O302  1  0.64606000  0.87733000  0.25359000  1.0
  O  O303  1  0.68087000  0.49967000  0.24931000  1.0
  O  O304  1  0.69208000  0.48104000  0.69683000  1.0
  O  O305  1  0.69300000  0.85838000  0.70308000  1.0
  O  O306  1  0.87733000  0.64606000  0.75359000  1.0
  O  O307  1  0.49967000  0.68087000  0.74931000  1.0
