# generated using pymatgen
data_CoH4C4O5
_symmetry_space_group_name_H-M   'P 1'
_cell_length_a   5.82441000
_cell_length_b   8.06694000
_cell_length_c   11.20020000
_cell_angle_alpha   90.01260000
_cell_angle_beta   90.00760000
_cell_angle_gamma   89.97620000
_symmetry_Int_Tables_number   1
_chemical_formula_structural   CoH4C4O5
_chemical_formula_sum   'Co4 H16 C16 O20'
_cell_volume   526.24319354
_cell_formula_units_Z   4
loop_
 _symmetry_equiv_pos_site_id
 _symmetry_equiv_pos_as_xyz
  1  'x, y, z'
loop_
 _atom_site_type_symbol
 _atom_site_label
 _atom_site_symmetry_multiplicity
 _atom_site_fract_x
 _atom_site_fract_y
 _atom_site_fract_z
 _atom_site_occupancy
  Co  Co0  1  0.20890000  0.11460000  0.01832000  1.0
  Co  Co1  1  0.29108000  0.88539000  0.51830000  1.0
  Co  Co2  1  0.79113000  0.61459000  0.48176000  1.0
  Co  Co3  1  0.70894000  0.38544000  0.98171000  1.0
  H  H4  1  0.26179000  0.75099000  0.22285000  1.0
  H  H5  1  0.23811000  0.24894000  0.72296000  1.0
  H  H6  1  0.73810000  0.25118000  0.27709000  1.0
  H  H7  1  0.76152000  0.74895000  0.77734000  1.0
  H  H8  1  0.01182000  0.85003000  0.28165000  1.0
  H  H9  1  0.48819000  0.15002000  0.78173000  1.0
  H  H10  1  0.98820000  0.34980000  0.21830000  1.0
  H  H11  1  0.51171000  0.65011000  0.71832000  1.0
  H  H12  1  0.74863000  0.83452000  0.15870000  1.0
  H  H13  1  0.75136000  0.16571000  0.65876000  1.0
  H  H14  1  0.25155000  0.33410000  0.34127000  1.0
  H  H15  1  0.24821000  0.66556000  0.84126000  1.0
  H  H16  1  0.82069000  0.76767000  0.01288000  1.0
  H  H17  1  0.67918000  0.23238000  0.51293000  1.0
  H  H18  1  0.17967000  0.26772000  0.48714000  1.0
  H  H19  1  0.32028000  0.73226000  0.98710000  1.0
  C  C20  1  0.30210000  0.01032000  0.26158000  1.0
  C  C21  1  0.19802000  0.98956000  0.76157000  1.0
  C  C22  1  0.69810000  0.51057000  0.23842000  1.0
  C  C23  1  0.80208000  0.48960000  0.73847000  1.0
  C  C24  1  0.15741000  0.86486000  0.22015000  1.0
  C  C25  1  0.34260000  0.13512000  0.72021000  1.0
  C  C26  1  0.84266000  0.36490000  0.27982000  1.0
  C  C27  1  0.65725000  0.63510000  0.77987000  1.0
  C  C28  1  0.84051000  0.86966000  0.07655000  1.0
  C  C29  1  0.65947000  0.13043000  0.57662000  1.0
  C  C30  1  0.15969000  0.36951000  0.42337000  1.0
  C  C31  1  0.34023000  0.63034000  0.92338000  1.0
  C  C32  1  0.72926000  0.02425000  0.02712000  1.0
  C  C33  1  0.77077000  0.97580000  0.52719000  1.0
  C  C34  1  0.27099000  0.52412000  0.47269000  1.0
  C  C35  1  0.22901000  0.47581000  0.97279000  1.0
  O  O36  1  0.32661000  0.13386000  0.19174000  1.0
  O  O37  1  0.17354000  0.86610000  0.69168000  1.0
  O  O38  1  0.67367000  0.63408000  0.30832000  1.0
  O  O39  1  0.82653000  0.36603000  0.80828000  1.0
  O  O40  1  0.39414000  0.00209000  0.36395000  1.0
  O  O41  1  0.10601000  0.99782000  0.86394000  1.0
  O  O42  1  0.60600000  0.50234000  0.13607000  1.0
  O  O43  1  0.89428000  0.49793000  0.63616000  1.0
  O  O44  1  0.84208000  0.16231000  0.03410000  1.0
  O  O45  1  0.65805000  0.83773000  0.53430000  1.0
  O  O46  1  0.15818000  0.66220000  0.46575000  1.0
  O  O47  1  0.34192000  0.33775000  0.96587000  1.0
  O  O48  1  0.53198000  0.00749000  0.98418000  1.0
  O  O49  1  0.96795000  0.99257000  0.48409000  1.0
  O  O50  1  0.46829000  0.50736000  0.51567000  1.0
  O  O51  1  0.03170000  0.49261000  0.01574000  1.0
  O  O52  1  0.07962000  0.89435000  0.10062000  1.0
  O  O53  1  0.42034000  0.10571000  0.60066000  1.0
  O  O54  1  0.92056000  0.39420000  0.39937000  1.0
  O  O55  1  0.57936000  0.60555000  0.89936000  1.0
