# generated using pymatgen
data_Cu5H26(C8O13)2
_symmetry_space_group_name_H-M   'P 1'
_cell_length_a   8.62439000
_cell_length_b   8.91011000
_cell_length_c   12.64350000
_cell_angle_alpha   106.95600000
_cell_angle_beta   90.57320000
_cell_angle_gamma   109.48800000
_symmetry_Int_Tables_number   1
_chemical_formula_structural   Cu5H26(C8O13)2
_chemical_formula_sum   'Cu5 H26 C16 O26'
_cell_volume   869.87966228
_cell_formula_units_Z   1
loop_
 _symmetry_equiv_pos_site_id
 _symmetry_equiv_pos_as_xyz
  1  'x, y, z'
loop_
 _atom_site_type_symbol
 _atom_site_label
 _atom_site_symmetry_multiplicity
 _atom_site_fract_x
 _atom_site_fract_y
 _atom_site_fract_z
 _atom_site_occupancy
  Cu  Cu0  1  0.00011000  0.00024000  0.99989000  1.0
  Cu  Cu1  1  0.00553000  0.05537000  0.32683000  1.0
  Cu  Cu2  1  0.99496000  0.94459000  0.67323000  1.0
  Cu  Cu3  1  0.64581000  0.06694000  0.33980000  1.0
  Cu  Cu4  1  0.35340000  0.93265000  0.65980000  1.0
  H  H5  1  0.87543000  0.52450000  0.24325000  1.0
  H  H6  1  0.12432000  0.47555000  0.75680000  1.0
  H  H7  1  0.11205000  0.57868000  0.13994000  1.0
  H  H8  1  0.88818000  0.42190000  0.86049000  1.0
  H  H9  1  0.31647000  0.55366000  0.32810000  1.0
  H  H10  1  0.68339000  0.44609000  0.67211000  1.0
  H  H11  1  0.11296000  0.60282000  0.44579000  1.0
  H  H12  1  0.88642000  0.39673000  0.55432000  1.0
  H  H13  1  0.23702000  0.07166000  0.88314000  1.0
  H  H14  1  0.76378000  0.92925000  0.11717000  1.0
  H  H15  1  0.28468000  0.18204000  0.01556000  1.0
  H  H16  1  0.71543000  0.81864000  0.98478000  1.0
  H  H17  1  0.22969000  0.95939000  0.18593000  1.0
  H  H18  1  0.76994000  0.04045000  0.81355000  1.0
  H  H19  1  0.23998000  0.13936000  0.18181000  1.0
  H  H20  1  0.76019000  0.86062000  0.81787000  1.0
  H  H21  1  0.20224000  0.08562000  0.47875000  1.0
  H  H22  1  0.79838000  0.91450000  0.52119000  1.0
  H  H23  1  0.20522000  0.27798000  0.49879000  1.0
  H  H24  1  0.79512000  0.72194000  0.50078000  1.0
  H  H25  1  0.52479000  0.17924000  0.51603000  1.0
  H  H26  1  0.47553000  0.81991000  0.48411000  1.0
  H  H27  1  0.43200000  0.20544000  0.41916000  1.0
  H  H28  1  0.56788000  0.79396000  0.58126000  1.0
  H  H29  1  0.74012000  0.83378000  0.26017000  1.0
  H  H30  1  0.25960000  0.16594000  0.73886000  1.0
  C  C31  1  0.97835000  0.49379000  0.27078000  1.0
  C  C32  1  0.02138000  0.50619000  0.72931000  1.0
  C  C33  1  0.91261000  0.33069000  0.29725000  1.0
  C  C34  1  0.08716000  0.66930000  0.70283000  1.0
  C  C35  1  0.12280000  0.50858000  0.19660000  1.0
  C  C36  1  0.87700000  0.49153000  0.80359000  1.0
  C  C37  1  0.14830000  0.34851000  0.13025000  1.0
  C  C38  1  0.85171000  0.65190000  0.86966000  1.0
  C  C39  1  0.25050000  0.62214000  0.29828000  1.0
  C  C40  1  0.74928000  0.37762000  0.70200000  1.0
  C  C41  1  0.37251000  0.78476000  0.29002000  1.0
  C  C42  1  0.62706000  0.21503000  0.71007000  1.0
  C  C43  1  0.10232000  0.63452000  0.36916000  1.0
  C  C44  1  0.89742000  0.36527000  0.63102000  1.0
  C  C45  1  0.08859000  0.80576000  0.39919000  1.0
  C  C46  1  0.91172000  0.19423000  0.60094000  1.0
  O  O47  1  0.75694000  0.26348000  0.29304000  1.0
  O  O48  1  0.24272000  0.73633000  0.70694000  1.0
  O  O49  1  0.02256000  0.27914000  0.32744000  1.0
  O  O50  1  0.97712000  0.72088000  0.67283000  1.0
  O  O51  1  0.01655000  0.23381000  0.07209000  1.0
  O  O52  1  0.98354000  0.76660000  0.92775000  1.0
  O  O53  1  0.29083000  0.33848000  0.13676000  1.0
  O  O54  1  0.70929000  0.66211000  0.86300000  1.0
  O  O55  1  0.34981000  0.84751000  0.21790000  1.0
  O  O56  1  0.64926000  0.15211000  0.78222000  1.0
  O  O57  1  0.50291000  0.85600000  0.36510000  1.0
  O  O58  1  0.49693000  0.14386000  0.63474000  1.0
  O  O59  1  0.77718000  0.94604000  0.25265000  1.0
  O  O60  1  0.22319000  0.05455000  0.74780000  1.0
  O  O61  1  0.99400000  0.83235000  0.33373000  1.0
  O  O62  1  0.00691000  0.16784000  0.66613000  1.0
  O  O63  1  0.17807000  0.91562000  0.48674000  1.0
  O  O64  1  0.82221000  0.08437000  0.51341000  1.0
  O  O65  1  0.54237000  0.20996000  0.44511000  1.0
  O  O66  1  0.45760000  0.78921000  0.55495000  1.0
  O  O67  1  0.21518000  0.18051000  0.44350000  1.0
  O  O68  1  0.78532000  0.81935000  0.55624000  1.0
  O  O69  1  0.16449000  0.03269000  0.18858000  1.0
  O  O70  1  0.83535000  0.96728000  0.81081000  1.0
  O  O71  1  0.23189000  0.06722000  0.96133000  1.0
  O  O72  1  0.76853000  0.93345000  0.03890000  1.0
