# generated using pymatgen
data_NiH18C20(NO4)2
_symmetry_space_group_name_H-M   'P 1'
_cell_length_a   6.74248000
_cell_length_b   11.41762367
_cell_length_c   12.58820000
_cell_angle_alpha   93.41497050
_cell_angle_beta   90.01740000
_cell_angle_gamma   107.11234086
_symmetry_Int_Tables_number   1
_chemical_formula_structural   NiH18C20(NO4)2
_chemical_formula_sum   'Ni2 H36 C40 N4 O16'
_cell_volume   924.37109808
_cell_formula_units_Z   2
loop_
 _symmetry_equiv_pos_site_id
 _symmetry_equiv_pos_as_xyz
  1  'x, y, z'
loop_
 _atom_site_type_symbol
 _atom_site_label
 _atom_site_symmetry_multiplicity
 _atom_site_fract_x
 _atom_site_fract_y
 _atom_site_fract_z
 _atom_site_occupancy
  Ni  Ni0  1  0.56622000  0.00010000  0.24992000  1.0
  Ni  Ni1  1  0.43768000  0.99992000  0.75004000  1.0
  H  H2  1  0.60038000  0.29816000  0.04323000  1.0
  H  H3  1  0.30165000  0.70201000  0.45689000  1.0
  H  H4  1  0.40975000  0.71440000  0.95556000  1.0
  H  H5  1  0.69505000  0.28558000  0.54416000  1.0
  H  H6  1  0.67086000  0.48954000  0.94633000  1.0
  H  H7  1  0.18073000  0.51063000  0.55373000  1.0
  H  H8  1  0.33929000  0.52365000  0.05091000  1.0
  H  H9  1  0.81504000  0.47638000  0.44896000  1.0
  H  H10  1  0.06985000  0.69100000  0.20466000  1.0
  H  H11  1  0.37856000  0.30889000  0.29559000  1.0
  H  H12  1  0.93620000  0.32381000  0.79304000  1.0
  H  H13  1  0.61291000  0.67643000  0.70719000  1.0
  H  H14  1  0.99782000  0.49638000  0.30132000  1.0
  H  H15  1  0.50120000  0.50351000  0.19896000  1.0
  H  H16  1  0.00600000  0.51898000  0.69794000  1.0
  H  H17  1  0.48783000  0.48122000  0.80215000  1.0
  H  H18  1  0.82278000  0.70216000  0.93558000  1.0
  H  H19  1  0.11992000  0.29793000  0.56444000  1.0
  H  H20  1  0.18276000  0.30783000  0.06079000  1.0
  H  H21  1  0.87433000  0.69219000  0.43920000  1.0
  H  H22  1  0.92055000  0.08432000  0.10583000  1.0
  H  H23  1  0.83647000  0.91535000  0.39355000  1.0
  H  H24  1  0.08603000  0.92494000  0.89912000  1.0
  H  H25  1  0.16048000  0.07518000  0.60121000  1.0
  H  H26  1  0.29587000  0.08574000  0.10620000  1.0
  H  H27  1  0.21064000  0.91431000  0.39340000  1.0
  H  H28  1  0.71444000  0.92471000  0.89832000  1.0
  H  H29  1  0.78895000  0.07503000  0.60199000  1.0
  H  H30  1  0.49745000  0.08138000  0.44750000  1.0
  H  H31  1  0.41668000  0.91873000  0.05230000  1.0
  H  H32  1  0.48841000  0.89196000  0.51695000  1.0
  H  H33  1  0.59565000  0.10751000  0.98323000  1.0
  H  H34  1  0.69882000  0.16502000  0.38879000  1.0
  H  H35  1  0.53419000  0.83500000  0.11128000  1.0
  H  H36  1  0.29335000  0.84346000  0.58870000  1.0
  H  H37  1  0.44993000  0.15645000  0.91114000  1.0
  C  C38  1  0.74922000  0.27258000  0.23899000  1.0
  C  C39  1  0.47662000  0.72748000  0.26123000  1.0
  C  C40  1  0.25355000  0.74147000  0.75871000  1.0
  C  C41  1  0.51243000  0.25853000  0.74112000  1.0
  C  C42  1  0.79624000  0.38649000  0.17778000  1.0
  C  C43  1  0.40949000  0.61354000  0.32243000  1.0
  C  C44  1  0.21276000  0.62799000  0.82036000  1.0
  C  C45  1  0.58480000  0.37203000  0.67950000  1.0
  C  C46  1  0.70300000  0.38421000  0.07794000  1.0
  C  C47  1  0.31842000  0.61592000  0.42220000  1.0
  C  C48  1  0.30742000  0.62896000  0.91962000  1.0
  C  C49  1  0.67816000  0.37103000  0.58018000  1.0
  C  C50  1  0.74171000  0.49169000  0.02454000  1.0
  C  C51  1  0.24959000  0.50845000  0.47561000  1.0
  C  C52  1  0.26799000  0.52098000  0.97274000  1.0
  C  C53  1  0.74655000  0.47905000  0.52714000  1.0
  C  C54  1  0.87402000  0.60201000  0.07022000  1.0
  C  C55  1  0.27159000  0.39802000  0.42993000  1.0
  C  C56  1  0.13453000  0.41106000  0.92695000  1.0
  C  C57  1  0.72320000  0.58906000  0.57302000  1.0
  C  C58  1  0.96768000  0.60434000  0.17039000  1.0
  C  C59  1  0.36299000  0.39561000  0.32984000  1.0
  C  C60  1  0.03975000  0.41003000  0.82737000  1.0
  C  C61  1  0.62992000  0.59014000  0.67269000  1.0
  C  C62  1  0.92814000  0.49719000  0.22357000  1.0
  C  C63  1  0.43069000  0.50277000  0.27669000  1.0
  C  C64  1  0.07855000  0.51757000  0.77484000  1.0
  C  C65  1  0.56135000  0.48256000  0.72515000  1.0
  C  C66  1  0.91687000  0.71290000  0.01063000  1.0
  C  C67  1  0.20282000  0.28701000  0.48931000  1.0
  C  C68  1  0.09050000  0.29878000  0.98548000  1.0
  C  C69  1  0.79131000  0.70135000  0.51454000  1.0
  C  C70  1  0.98670000  0.04755000  0.17041000  1.0
  C  C71  1  0.93932000  0.95218000  0.32904000  1.0
  C  C72  1  0.02065000  0.95782000  0.83174000  1.0
  C  C73  1  0.06251000  0.04225000  0.66860000  1.0
  C  C74  1  0.19280000  0.04849000  0.17080000  1.0
  C  C75  1  0.14456000  0.95149000  0.32876000  1.0
  C  C76  1  0.81369000  0.95754000  0.83144000  1.0
  C  C77  1  0.85579000  0.04237000  0.66890000  1.0
  N  N78  1  0.86142000  0.99984000  0.24972000  1.0
  N  N79  1  0.14621000  0.00009000  0.75017000  1.0
  N  N80  1  0.27059000  0.00008000  0.24983000  1.0
  N  N81  1  0.72988000  0.99991000  0.75015000  1.0
  O  O82  1  0.80741000  0.28449000  0.33597000  1.0
  O  O83  1  0.52306000  0.71544000  0.16430000  1.0
  O  O84  1  0.18015000  0.73202000  0.66596000  1.0
  O  O85  1  0.44952000  0.26818000  0.83405000  1.0
  O  O86  1  0.64980000  0.17206000  0.18806000  1.0
  O  O87  1  0.47777000  0.82807000  0.31206000  1.0
  O  O88  1  0.36590000  0.84212000  0.80854000  1.0
  O  O89  1  0.52335000  0.15772000  0.69117000  1.0
  O  O90  1  0.04661000  0.81142000  0.03667000  1.0
  O  O91  1  0.23304000  0.18818000  0.46297000  1.0
  O  O92  1  0.96119000  0.20086000  0.95738000  1.0
  O  O93  1  0.76013000  0.79939000  0.54266000  1.0
  O  O94  1  0.62359000  0.07806000  0.41075000  1.0
  O  O95  1  0.54602000  0.92194000  0.08910000  1.0
  O  O96  1  0.36766000  0.91306000  0.54504000  1.0
  O  O97  1  0.45404000  0.08677000  0.95493000  1.0
