# generated using pymatgen
data_CdH5C4N9
_symmetry_space_group_name_H-M   'P 1'
_cell_length_a   8.42551000
_cell_length_b   9.87881000
_cell_length_c   12.05560940
_cell_angle_alpha   114.16177237
_cell_angle_beta   104.02221515
_cell_angle_gamma   90.00180000
_symmetry_Int_Tables_number   1
_chemical_formula_structural   CdH5C4N9
_chemical_formula_sum   'Cd4 H20 C16 N36'
_cell_volume   882.65203949
_cell_formula_units_Z   4
loop_
 _symmetry_equiv_pos_site_id
 _symmetry_equiv_pos_as_xyz
  1  'x, y, z'
loop_
 _atom_site_type_symbol
 _atom_site_label
 _atom_site_symmetry_multiplicity
 _atom_site_fract_x
 _atom_site_fract_y
 _atom_site_fract_z
 _atom_site_occupancy
  Cd  Cd0  1  0.00000000  0.00000000  0.50000000  1.0
  Cd  Cd1  1  0.50000000  0.50000000  0.50000000  1.0
  Cd  Cd2  1  0.74994000  0.09869000  0.00001000  1.0
  Cd  Cd3  1  0.25006000  0.90131000  0.99999000  1.0
  H  H4  1  0.82695000  0.42640000  0.14805000  1.0
  H  H5  1  0.67314000  0.27825000  0.85191000  1.0
  H  H6  1  0.17305000  0.57360000  0.85195000  1.0
  H  H7  1  0.32686000  0.72176000  0.14810000  1.0
  H  H8  1  0.86815000  0.30871000  0.33767000  1.0
  H  H9  1  0.63174000  0.97097000  0.66251000  1.0
  H  H10  1  0.13185000  0.69129000  0.66233000  1.0
  H  H11  1  0.36826000  0.02903000  0.33749000  1.0
  H  H12  1  0.80150000  0.48282000  0.34861000  1.0
  H  H13  1  0.69824000  0.13400000  0.65125000  1.0
  H  H14  1  0.19850000  0.51718000  0.65139000  1.0
  H  H15  1  0.30176000  0.86600000  0.34875000  1.0
  H  H16  1  0.09664000  0.35417000  0.13966000  1.0
  H  H17  1  0.40348000  0.21474000  0.86049000  1.0
  H  H18  1  0.90336000  0.64583000  0.86034000  1.0
  H  H19  1  0.59652000  0.78526000  0.13951000  1.0
  H  H20  1  0.09799000  0.29407000  0.25862000  1.0
  H  H21  1  0.40186000  0.03569000  0.74159000  1.0
  H  H22  1  0.90201000  0.70593000  0.74138000  1.0
  H  H23  1  0.59814000  0.96431000  0.25841000  1.0
  C  C24  1  0.62325000  0.29224000  0.23643000  1.0
  C  C25  1  0.87666000  0.05573000  0.76356000  1.0
  C  C26  1  0.37675000  0.70776000  0.76357000  1.0
  C  C27  1  0.12334000  0.94428000  0.23644000  1.0
  C  C28  1  0.79553000  0.36500000  0.28362000  1.0
  C  C29  1  0.70433000  0.08126000  0.71637000  1.0
  C  C30  1  0.20447000  0.63501000  0.71638000  1.0
  C  C31  1  0.29568000  0.91874000  0.28363000  1.0
  C  C32  1  0.10644000  0.53099000  0.32161000  1.0
  C  C33  1  0.39359000  0.20952000  0.67844000  1.0
  C  C34  1  0.89356000  0.46901000  0.67839000  1.0
  C  C35  1  0.60641000  0.79048000  0.32156000  1.0
  C  C36  1  0.04941000  0.37502000  0.22201000  1.0
  C  C37  1  0.45059000  0.15317000  0.77811000  1.0
  C  C38  1  0.95059000  0.62498000  0.77799000  1.0
  C  C39  1  0.54941000  0.84683000  0.22189000  1.0
  N  N40  1  0.56589000  0.17696000  0.12386000  1.0
  N  N41  1  0.93414000  0.05310000  0.87619000  1.0
  N  N42  1  0.43411000  0.82304000  0.87614000  1.0
  N  N43  1  0.06586000  0.94690000  0.12381000  1.0
  N  N44  1  0.41319000  0.13234000  0.12080000  1.0
  N  N45  1  0.08687000  0.01162000  0.87925000  1.0
  N  N46  1  0.58681000  0.86766000  0.87920000  1.0
  N  N47  1  0.91313000  0.98838000  0.12075000  1.0
  N  N48  1  0.37870000  0.21716000  0.22689000  1.0
  N  N49  1  0.12128000  0.99031000  0.77311000  1.0
  N  N50  1  0.62130000  0.78284000  0.77311000  1.0
  N  N51  1  0.87872000  0.00969000  0.22689000  1.0
  N  N52  1  0.50814000  0.31915000  0.30065000  1.0
  N  N53  1  0.99173000  0.01843000  0.69930000  1.0
  N  N54  1  0.49185000  0.68084000  0.69934000  1.0
  N  N55  1  0.00827000  0.98157000  0.30070000  1.0
  N  N56  1  0.02260000  0.64635000  0.32180000  1.0
  N  N57  1  0.47731000  0.32476000  0.67826000  1.0
  N  N58  1  0.97740000  0.35365000  0.67820000  1.0
  N  N59  1  0.52269000  0.67524000  0.32174000  1.0
  N  N60  1  0.10527000  0.76310000  0.42808000  1.0
  N  N61  1  0.39470000  0.33518000  0.57190000  1.0
  N  N62  1  0.89473000  0.23690000  0.57192000  1.0
  N  N63  1  0.60530000  0.66482000  0.42810000  1.0
  N  N64  1  0.23383000  0.72230000  0.48917000  1.0
  N  N65  1  0.26626000  0.23319000  0.51076000  1.0
  N  N66  1  0.76617000  0.27770000  0.51083000  1.0
  N  N67  1  0.73374000  0.76681000  0.48924000  1.0
  N  N68  1  0.23700000  0.57475000  0.42391000  1.0
  N  N69  1  0.26313000  0.15091000  0.57607000  1.0
  N  N70  1  0.76300000  0.42525000  0.57609000  1.0
  N  N71  1  0.73687000  0.84909000  0.42393000  1.0
  N  N72  1  0.86723000  0.34602000  0.17800000  1.0
  N  N73  1  0.63276000  0.16799000  0.82202000  1.0
  N  N74  1  0.13278000  0.65398000  0.82200000  1.0
  N  N75  1  0.36724000  0.83201000  0.17798000  1.0
