# generated using pymatgen
data_CdH8C12S(NO2)2
_symmetry_space_group_name_H-M   'P 1'
_cell_length_a   6.94758000
_cell_length_b   6.94757000
_cell_length_c   14.37120000
_cell_angle_alpha   90.00000000
_cell_angle_beta   90.00010000
_cell_angle_gamma   89.99940000
_symmetry_Int_Tables_number   1
_chemical_formula_structural   CdH8C12S(NO2)2
_chemical_formula_sum   'Cd2 H16 C24 S2 N4 O8'
_cell_volume   693.68055525
_cell_formula_units_Z   2
loop_
 _symmetry_equiv_pos_site_id
 _symmetry_equiv_pos_as_xyz
  1  'x, y, z'
loop_
 _atom_site_type_symbol
 _atom_site_label
 _atom_site_symmetry_multiplicity
 _atom_site_fract_x
 _atom_site_fract_y
 _atom_site_fract_z
 _atom_site_occupancy
  Cd  Cd0  1  0.00000000  0.50000000  0.03380000  1.0
  Cd  Cd1  1  0.50000000  1.00000000  0.96620000  1.0
  H  H2  1  0.20983000  0.29017000  0.20593000  1.0
  H  H3  1  0.79017000  0.70983000  0.20593000  1.0
  H  H4  1  0.29017000  0.79017000  0.79407000  1.0
  H  H5  1  0.70983000  0.20983000  0.79407000  1.0
  H  H6  1  0.22025000  0.27975000  0.38147000  1.0
  H  H7  1  0.77975000  0.72025000  0.38147000  1.0
  H  H8  1  0.27975000  0.77975000  0.61853000  1.0
  H  H9  1  0.72025000  0.22025000  0.61853000  1.0
  H  H10  1  0.22044000  0.27956000  0.69246000  1.0
  H  H11  1  0.77955000  0.72044000  0.69246000  1.0
  H  H12  1  0.27956000  0.77956000  0.30754000  1.0
  H  H13  1  0.72044000  0.22044000  0.30755000  1.0
  H  H14  1  0.21117000  0.28883000  0.86592000  1.0
  H  H15  1  0.78883000  0.71117000  0.86592000  1.0
  H  H16  1  0.28883000  0.78883000  0.13408000  1.0
  H  H17  1  0.71117000  0.21117000  0.13408000  1.0
  C  C18  1  0.11795000  0.38205000  0.24840000  1.0
  C  C19  1  0.88205000  0.61795000  0.24839000  1.0
  C  C20  1  0.38205000  0.88205000  0.75160000  1.0
  C  C21  1  0.61795000  0.11795000  0.75160000  1.0
  C  C22  1  0.12303000  0.37697000  0.34513000  1.0
  C  C23  1  0.87697000  0.62303000  0.34513000  1.0
  C  C24  1  0.37697000  0.87698000  0.65487000  1.0
  C  C25  1  0.62302000  0.12303000  0.65487000  1.0
  C  C26  1  0.00000000  0.50000000  0.39566000  1.0
  C  C27  1  0.50000000  1.00000000  0.60434000  1.0
  C  C28  1  0.00000000  0.50000000  0.49421000  1.0
  C  C29  1  0.50000000  1.00000000  0.50579000  1.0
  C  C30  1  0.00000000  0.50000000  0.57914000  1.0
  C  C31  1  0.50000000  1.00000000  0.42086000  1.0
  C  C32  1  0.00000000  0.50000000  0.67775000  1.0
  C  C33  1  0.50000000  1.00000000  0.32225000  1.0
  C  C34  1  0.12284000  0.37716000  0.72828000  1.0
  C  C35  1  0.87716000  0.62284000  0.72828000  1.0
  C  C36  1  0.37716000  0.87716000  0.27172000  1.0
  C  C37  1  0.62284000  0.12284000  0.27172000  1.0
  C  C38  1  0.11822000  0.38178000  0.82488000  1.0
  C  C39  1  0.88178000  0.61822000  0.82488000  1.0
  C  C40  1  0.38178000  0.88178000  0.17512000  1.0
  C  C41  1  0.61822000  0.11822000  0.17512000  1.0
  S  S42  1  0.50000000  0.50000000  0.00000000  1.0
  S  S43  1  0.00000000  0.00000000  0.00000000  1.0
  N  N44  1  0.00000000  0.50000000  0.20103000  1.0
  N  N45  1  0.50000000  1.00000000  0.79898000  1.0
  N  N46  1  0.00000000  0.50000000  0.87236000  1.0
  N  N47  1  0.50000000  1.00000000  0.12764000  1.0
  O  O48  1  0.32796000  0.48791000  0.06173000  1.0
  O  O49  1  0.67205000  0.51209000  0.06173000  1.0
  O  O50  1  0.17205000  0.98791000  0.93827000  1.0
  O  O51  1  0.82796000  0.01209000  0.93827000  1.0
  O  O52  1  0.01209000  0.17204000  0.06173000  1.0
  O  O53  1  0.98791000  0.82795000  0.06173000  1.0
  O  O54  1  0.51209000  0.32795000  0.93827000  1.0
  O  O55  1  0.48791000  0.67204000  0.93827000  1.0
