# generated using pymatgen
data_ZnH17C25S(NO)4
_symmetry_space_group_name_H-M   'P 1'
_cell_length_a   10.38890000
_cell_length_b   10.81710000
_cell_length_c   22.30040000
_cell_angle_alpha   97.00520000
_cell_angle_beta   92.31940000
_cell_angle_gamma   97.59890000
_symmetry_Int_Tables_number   1
_chemical_formula_structural   ZnH17C25S(NO)4
_chemical_formula_sum   'Zn4 H68 C100 S4 N16 O16'
_cell_volume   2461.43458038
_cell_formula_units_Z   4
loop_
 _symmetry_equiv_pos_site_id
 _symmetry_equiv_pos_as_xyz
  1  'x, y, z'
loop_
 _atom_site_type_symbol
 _atom_site_label
 _atom_site_symmetry_multiplicity
 _atom_site_fract_x
 _atom_site_fract_y
 _atom_site_fract_z
 _atom_site_occupancy
  Zn  Zn0  1  0.00094000  0.34398000  0.35603000  1.0
  Zn  Zn1  1  0.99905000  0.65602000  0.64397000  1.0
  Zn  Zn2  1  0.60128000  0.76863000  0.05607000  1.0
  Zn  Zn3  1  0.39873000  0.23137000  0.94393000  1.0
  H  H4  1  0.59650000  0.99176000  0.26958000  1.0
  H  H5  1  0.40351000  0.00825000  0.73043000  1.0
  H  H6  1  0.00359000  0.12338000  0.14058000  1.0
  H  H7  1  0.99641000  0.87661000  0.85942000  1.0
  H  H8  1  0.67953000  0.25089000  0.25883000  1.0
  H  H9  1  0.32047000  0.74911000  0.74117000  1.0
  H  H10  1  0.73474000  0.38993000  0.17851000  1.0
  H  H11  1  0.26526000  0.61008000  0.82149000  1.0
  H  H12  1  0.73498000  0.29732000  0.07071000  1.0
  H  H13  1  0.26501000  0.70268000  0.92930000  1.0
  H  H14  1  0.68825000  0.06901000  0.04014000  1.0
  H  H15  1  0.31174000  0.93099000  0.95986000  1.0
  H  H16  1  0.64282000  0.81232000  0.30004000  1.0
  H  H17  1  0.35719000  0.18767000  0.69996000  1.0
  H  H18  1  0.46870000  0.80905000  0.29989000  1.0
  H  H19  1  0.53131000  0.19095000  0.70011000  1.0
  H  H20  1  0.74168000  0.61482000  0.30653000  1.0
  H  H21  1  0.25832000  0.38517000  0.69347000  1.0
  H  H22  1  0.50600000  0.31391000  0.37597000  1.0
  H  H23  1  0.49399000  0.68609000  0.62403000  1.0
  H  H24  1  0.32760000  0.61681000  0.31582000  1.0
  H  H25  1  0.67240000  0.38319000  0.68418000  1.0
  H  H26  1  0.92726000  0.86313000  0.15302000  1.0
  H  H27  1  0.07274000  0.13686000  0.84698000  1.0
  H  H28  1  0.86663000  0.72721000  0.23359000  1.0
  H  H29  1  0.13337000  0.27278000  0.76641000  1.0
  H  H30  1  0.86138000  0.82134000  0.34066000  1.0
  H  H31  1  0.13863000  0.17866000  0.65934000  1.0
  H  H32  1  0.91513000  0.05283000  0.37063000  1.0
  H  H33  1  0.08487000  0.94718000  0.62937000  1.0
  H  H34  1  0.12788000  0.30350000  0.10697000  1.0
  H  H35  1  0.87212000  0.69649000  0.89303000  1.0
  H  H36  1  0.95457000  0.30446000  0.10997000  1.0
  H  H37  1  0.04542000  0.69553000  0.89003000  1.0
  H  H38  1  0.85792000  0.49781000  0.09678000  1.0
  H  H39  1  0.14208000  0.50218000  0.90321000  1.0
  H  H40  1  0.10201000  0.80898000  0.04037000  1.0
  H  H41  1  0.89799000  0.19101000  0.95964000  1.0
  H  H42  1  0.27392000  0.50038000  0.09864000  1.0
  H  H43  1  0.72608000  0.49962000  0.90136000  1.0
  H  H44  1  0.82181000  0.19169000  0.45178000  1.0
  H  H45  1  0.17820000  0.80831000  0.54822000  1.0
  H  H46  1  0.17402000  0.43973000  0.47408000  1.0
  H  H47  1  0.82597000  0.56028000  0.52592000  1.0
  H  H48  1  0.10531000  0.37766000  0.58694000  1.0
  H  H49  1  0.89469000  0.62235000  0.41306000  1.0
  H  H50  1  0.84695000  0.01717000  0.52612000  1.0
  H  H51  1  0.15305000  0.98284000  0.47388000  1.0
  H  H52  1  0.75432000  0.91263000  0.60912000  1.0
  H  H53  1  0.24568000  0.08737000  0.39088000  1.0
  H  H54  1  0.81663000  0.26848000  0.72545000  1.0
  H  H55  1  0.18338000  0.73152000  0.27455000  1.0
  H  H56  1  0.90654000  0.37193000  0.64203000  1.0
  H  H57  1  0.09347000  0.62808000  0.35797000  1.0
  H  H58  1  0.65429000  0.84129000  0.67146000  1.0
  H  H59  1  0.34572000  0.15871000  0.32854000  1.0
  H  H60  1  0.59357000  0.72812000  0.75541000  1.0
  H  H61  1  0.40643000  0.27188000  0.24459000  1.0
  H  H62  1  0.72936000  0.06167000  0.88066000  1.0
  H  H63  1  0.27064000  0.93833000  0.11934000  1.0
  H  H64  1  0.79168000  0.17488000  0.79666000  1.0
  H  H65  1  0.20832000  0.82512000  0.20334000  1.0
  H  H66  1  0.64623000  0.96682000  0.94846000  1.0
  H  H67  1  0.35377000  0.03318000  0.05154000  1.0
  H  H68  1  0.55283000  0.57260000  0.94476000  1.0
  H  H69  1  0.44717000  0.42740000  0.05525000  1.0
  H  H70  1  0.59302000  0.62532000  0.82825000  1.0
  H  H71  1  0.40699000  0.37469000  0.17175000  1.0
  C  C72  1  0.59137000  0.87659000  0.18484000  1.0
  C  C73  1  0.40864000  0.12341000  0.81516000  1.0
  C  C74  1  0.65153000  0.08420000  0.19316000  1.0
  C  C75  1  0.34847000  0.91580000  0.80684000  1.0
  C  C76  1  0.68172000  0.21286000  0.21154000  1.0
  C  C77  1  0.31828000  0.78714000  0.78846000  1.0
  C  C78  1  0.71282000  0.28833000  0.16634000  1.0
  C  C79  1  0.28718000  0.71167000  0.83366000  1.0
  C  C80  1  0.71458000  0.23582000  0.10542000  1.0
  C  C81  1  0.28542000  0.76418000  0.89458000  1.0
  C  C82  1  0.68697000  0.10656000  0.08754000  1.0
  C  C83  1  0.31302000  0.89344000  0.91247000  1.0
  C  C84  1  0.65407000  0.03026000  0.13233000  1.0
  C  C85  1  0.34593000  0.96974000  0.86768000  1.0
  C  C86  1  0.54813000  0.75667000  0.28532000  1.0
  C  C87  1  0.45187000  0.24333000  0.71468000  1.0
  C  C88  1  0.53612000  0.63183000  0.30937000  1.0
  C  C89  1  0.46387000  0.36816000  0.69063000  1.0
  C  C90  1  0.64623000  0.57270000  0.31815000  1.0
  C  C91  1  0.35377000  0.42730000  0.68184000  1.0
  C  C92  1  0.63565000  0.45792000  0.34184000  1.0
  C  C93  1  0.36435000  0.54208000  0.65815000  1.0
  C  C94  1  0.51380000  0.40231000  0.35679000  1.0
  C  C95  1  0.48621000  0.59769000  0.64321000  1.0
  C  C96  1  0.40261000  0.45882000  0.34704000  1.0
  C  C97  1  0.59739000  0.54117000  0.65296000  1.0
  C  C98  1  0.41455000  0.57319000  0.32296000  1.0
  C  C99  1  0.58544000  0.42680000  0.67704000  1.0
  C  C100  1  0.75276000  0.39225000  0.35039000  1.0
  C  C101  1  0.24723000  0.60774000  0.64961000  1.0
  C  C102  1  0.27189000  0.39523000  0.36188000  1.0
  C  C103  1  0.72811000  0.60477000  0.63812000  1.0
  C  C104  1  0.01546000  0.23898000  0.22543000  1.0
  C  C105  1  0.98454000  0.76102000  0.77457000  1.0
  C  C106  1  0.95528000  0.03131000  0.21801000  1.0
  C  C107  1  0.04472000  0.96868000  0.78199000  1.0
  C  C108  1  0.92436000  0.90264000  0.20012000  1.0
  C  C109  1  0.07564000  0.09736000  0.79988000  1.0
  C  C110  1  0.89006000  0.82870000  0.24558000  1.0
  C  C111  1  0.10994000  0.17130000  0.75442000  1.0
  C  C112  1  0.88570000  0.88249000  0.30616000  1.0
  C  C113  1  0.11431000  0.11751000  0.69384000  1.0
  C  C114  1  0.91642000  0.01165000  0.32366000  1.0
  C  C115  1  0.08358000  0.98836000  0.67634000  1.0
  C  C116  1  0.95275000  0.08641000  0.27865000  1.0
  C  C117  1  0.04725000  0.91359000  0.72135000  1.0
  C  C118  1  0.05105000  0.35764000  0.12329000  1.0
  C  C119  1  0.94894000  0.64236000  0.87671000  1.0
  C  C120  1  0.06471000  0.48327000  0.10005000  1.0
  C  C121  1  0.93529000  0.51673000  0.89995000  1.0
  C  C122  1  0.95533000  0.54169000  0.08900000  1.0
  C  C123  1  0.04467000  0.45831000  0.91100000  1.0
  C  C124  1  0.96851000  0.65882000  0.06760000  1.0
  C  C125  1  0.03149000  0.34117000  0.93240000  1.0
  C  C126  1  0.09230000  0.71782000  0.05711000  1.0
  C  C127  1  0.90770000  0.28217000  0.94289000  1.0
  C  C128  1  0.20250000  0.66058000  0.06826000  1.0
  C  C129  1  0.79750000  0.33942000  0.93174000  1.0
  C  C130  1  0.18770000  0.54387000  0.09004000  1.0
  C  C131  1  0.81230000  0.45613000  0.90996000  1.0
  C  C132  1  0.85080000  0.72369000  0.05826000  1.0
  C  C133  1  0.14920000  0.27631000  0.94175000  1.0
  C  C134  1  0.33611000  0.72416000  0.05820000  1.0
  C  C135  1  0.66389000  0.27584000  0.94180000  1.0
  C  C136  1  0.91116000  0.24631000  0.47223000  1.0
  C  C137  1  0.08884000  0.75369000  0.52777000  1.0
  C  C138  1  0.09154000  0.37782000  0.48633000  1.0
  C  C139  1  0.90845000  0.62218000  0.51367000  1.0
  C  C140  1  0.06044000  0.34615000  0.54199000  1.0
  C  C141  1  0.93955000  0.65386000  0.45801000  1.0
  C  C142  1  0.88328000  0.20129000  0.57881000  1.0
  C  C143  1  0.11672000  0.79872000  0.42119000  1.0
  C  C144  1  0.83678000  0.07269000  0.56949000  1.0
  C  C145  1  0.16323000  0.92731000  0.43051000  1.0
  C  C146  1  0.78335000  0.01415000  0.61682000  1.0
  C  C147  1  0.21665000  0.98585000  0.38318000  1.0
  C  C148  1  0.77535000  0.08218000  0.67444000  1.0
  C  C149  1  0.22466000  0.91782000  0.32556000  1.0
  C  C150  1  0.82095000  0.21169000  0.68189000  1.0
  C  C151  1  0.17905000  0.78831000  0.31812000  1.0
  C  C152  1  0.87440000  0.27112000  0.63500000  1.0
  C  C153  1  0.12561000  0.72888000  0.36500000  1.0
  C  C154  1  0.72880000  0.01820000  0.72608000  1.0
  C  C155  1  0.27121000  0.98180000  0.27392000  1.0
  C  C156  1  0.67070000  0.89189000  0.71693000  1.0
  C  C157  1  0.32931000  0.10811000  0.28307000  1.0
  C  C158  1  0.63771000  0.82586000  0.76498000  1.0
  C  C159  1  0.36230000  0.17414000  0.23502000  1.0
  C  C160  1  0.66040000  0.88543000  0.82435000  1.0
  C  C161  1  0.33960000  0.11457000  0.17565000  1.0
  C  C162  1  0.71371000  0.01239000  0.83481000  1.0
  C  C163  1  0.28629000  0.98761000  0.16519000  1.0
  C  C164  1  0.74700000  0.07727000  0.78628000  1.0
  C  C165  1  0.25300000  0.92273000  0.21372000  1.0
  C  C166  1  0.62833000  0.86658000  0.93295000  1.0
  C  C167  1  0.37167000  0.13343000  0.06705000  1.0
  C  C168  1  0.57835000  0.66257000  0.92828000  1.0
  C  C169  1  0.42165000  0.33743000  0.07172000  1.0
  C  C170  1  0.59793000  0.68732000  0.87039000  1.0
  C  C171  1  0.40207000  0.31269000  0.12961000  1.0
  S  S172  1  0.53922000  0.72729000  0.20252000  1.0
  S  S173  1  0.46078000  0.27271000  0.79748000  1.0
  S  S174  1  0.06719000  0.38716000  0.20636000  1.0
  S  S175  1  0.93281000  0.61284000  0.79364000  1.0
  N  N176  1  0.61677000  0.90088000  0.12870000  1.0
  N  N177  1  0.38323000  0.09912000  0.87130000  1.0
  N  N178  1  0.61182000  0.98450000  0.22482000  1.0
  N  N179  1  0.38818000  0.01550000  0.77518000  1.0
  N  N180  1  0.99058000  0.21549000  0.28188000  1.0
  N  N181  1  0.00942000  0.78450000  0.71812000  1.0
  N  N182  1  0.99538000  0.13028000  0.18595000  1.0
  N  N183  1  0.00462000  0.86972000  0.81404000  1.0
  N  N184  1  0.99818000  0.31533000  0.44334000  1.0
  N  N185  1  0.00182000  0.68467000  0.55666000  1.0
  N  N186  1  0.94634000  0.26180000  0.53248000  1.0
  N  N187  1  0.05366000  0.73820000  0.46752000  1.0
  N  N188  1  0.62991000  0.81702000  0.87360000  1.0
  N  N189  1  0.37009000  0.18298000  0.12640000  1.0
  N  N190  1  0.59821000  0.77495000  0.96658000  1.0
  N  N191  1  0.40179000  0.22506000  0.03343000  1.0
  O  O192  1  0.86462000  0.45556000  0.34217000  1.0
  O  O193  1  0.13537000  0.54444000  0.65783000  1.0
  O  O194  1  0.73844000  0.28180000  0.36347000  1.0
  O  O195  1  0.26156000  0.71820000  0.63653000  1.0
  O  O196  1  0.26513000  0.29736000  0.38681000  1.0
  O  O197  1  0.73487000  0.70264000  0.61319000  1.0
  O  O198  1  0.17201000  0.44831000  0.34685000  1.0
  O  O199  1  0.82798000  0.55168000  0.65315000  1.0
  O  O200  1  0.73994000  0.66023000  0.06769000  1.0
  O  O201  1  0.26006000  0.33977000  0.93231000  1.0
  O  O202  1  0.86485000  0.83341000  0.04426000  1.0
  O  O203  1  0.13514000  0.16659000  0.95574000  1.0
  O  O204  1  0.35003000  0.83413000  0.04429000  1.0
  O  O205  1  0.64997000  0.16588000  0.95571000  1.0
  O  O206  1  0.43146000  0.66028000  0.06564000  1.0
  O  O207  1  0.56854000  0.33972000  0.93436000  1.0
