# generated using pymatgen
data_CdH26C22(NO)4
_symmetry_space_group_name_H-M   'P 1'
_cell_length_a   7.60613000
_cell_length_b   9.99876000
_cell_length_c   15.01280000
_cell_angle_alpha   90.00010000
_cell_angle_beta   90.00030000
_cell_angle_gamma   77.03100000
_symmetry_Int_Tables_number   1
_chemical_formula_structural   CdH26C22(NO)4
_chemical_formula_sum   'Cd2 H52 C44 N8 O8'
_cell_volume   1112.62727316
_cell_formula_units_Z   2
loop_
 _symmetry_equiv_pos_site_id
 _symmetry_equiv_pos_as_xyz
  1  'x, y, z'
loop_
 _atom_site_type_symbol
 _atom_site_label
 _atom_site_symmetry_multiplicity
 _atom_site_fract_x
 _atom_site_fract_y
 _atom_site_fract_z
 _atom_site_occupancy
  Cd  Cd0  1  0.74015000  0.85893000  0.44439000  1.0
  Cd  Cd1  1  0.25984000  0.14107000  0.94439000  1.0
  H  H2  1  0.75143000  0.66479000  0.61736000  1.0
  H  H3  1  0.24857000  0.33521000  0.11736000  1.0
  H  H4  1  0.99163000  0.63590000  0.75964000  1.0
  H  H5  1  0.00838000  0.36410000  0.25964000  1.0
  H  H6  1  0.24863000  0.91144000  0.53072000  1.0
  H  H7  1  0.75137000  0.08857000  0.03072000  1.0
  H  H8  1  0.16880000  0.02549000  0.61988000  1.0
  H  H9  1  0.83119000  0.97451000  0.11989000  1.0
  H  H10  1  0.03301000  0.02816000  0.52330000  1.0
  H  H11  1  0.96698000  0.97185000  0.02330000  1.0
  H  H12  1  0.26161000  0.90464000  0.73820000  1.0
  H  H13  1  0.73839000  0.09536000  0.23820000  1.0
  H  H14  1  0.21359000  0.77631000  0.80858000  1.0
  H  H15  1  0.78642000  0.22369000  0.30858000  1.0
  H  H16  1  0.52765000  0.71449000  0.75004000  1.0
  H  H17  1  0.47235000  0.28551000  0.25004000  1.0
  H  H18  1  0.44648000  0.72750000  0.63908000  1.0
  H  H19  1  0.55352000  0.27250000  0.13908000  1.0
  H  H20  1  0.35833000  0.52525000  0.77718000  1.0
  H  H21  1  0.64166000  0.47474000  0.27718000  1.0
  H  H22  1  0.29947000  0.53228000  0.66299000  1.0
  H  H23  1  0.70052000  0.46772000  0.16299000  1.0
  H  H24  1  0.62637000  0.47250000  0.62149000  1.0
  H  H25  1  0.37363000  0.52750000  0.12149000  1.0
  H  H26  1  0.68568000  0.46518000  0.73559000  1.0
  H  H27  1  0.31431000  0.53482000  0.23559000  1.0
  H  H28  1  0.45398000  0.28533000  0.64862000  1.0
  H  H29  1  0.54602000  0.71467000  0.14862000  1.0
  H  H30  1  0.53649000  0.27086000  0.75914000  1.0
  H  H31  1  0.46351000  0.72914000  0.25913000  1.0
  H  H32  1  0.71860000  0.09214000  0.66202000  1.0
  H  H33  1  0.28139000  0.90786000  0.16202000  1.0
  H  H34  1  0.76320000  0.21646000  0.58768000  1.0
  H  H35  1  0.23679000  0.78353000  0.08768000  1.0
  H  H36  1  0.98740000  0.36032000  0.63112000  1.0
  H  H37  1  0.01260000  0.63968000  0.13112000  1.0
  H  H38  1  0.22996000  0.33983000  0.77204000  1.0
  H  H39  1  0.77004000  0.66017000  0.27204000  1.0
  H  H40  1  0.96178000  0.97405000  0.87386000  1.0
  H  H41  1  0.03823000  0.02595000  0.37387000  1.0
  H  H42  1  0.81410000  0.97655000  0.78170000  1.0
  H  H43  1  0.18591000  0.02344000  0.28170000  1.0
  H  H44  1  0.74675000  0.09040000  0.87167000  1.0
  H  H45  1  0.25326000  0.90959000  0.37167000  1.0
  H  H46  1  0.20168000  0.66118000  0.45829000  1.0
  H  H47  1  0.79832000  0.33882000  0.95829000  1.0
  H  H48  1  0.03725000  0.47307000  0.44807000  1.0
  H  H49  1  0.96275000  0.52692000  0.94807000  1.0
  H  H50  1  0.21333000  0.22774000  0.43694000  1.0
  H  H51  1  0.78668000  0.77226000  0.93694000  1.0
  H  H52  1  0.70784000  0.36679000  0.44472000  1.0
  H  H53  1  0.29216000  0.63322000  0.94472000  1.0
  C  C54  1  0.85897000  0.71655000  0.63089000  1.0
  C  C55  1  0.14104000  0.28345000  0.13088000  1.0
  C  C56  1  0.97665000  0.70084000  0.70107000  1.0
  C  C57  1  0.02336000  0.29916000  0.20107000  1.0
  C  C58  1  0.03689000  0.85828000  0.60765000  1.0
  C  C59  1  0.96311000  0.14172000  0.10765000  1.0
  C  C60  1  0.12713000  0.96129000  0.56820000  1.0
  C  C61  1  0.87287000  0.03871000  0.06820000  1.0
  C  C62  1  0.24512000  0.79835000  0.73956000  1.0
  C  C63  1  0.75488000  0.20165000  0.23956000  1.0
  C  C64  1  0.41620000  0.69910000  0.70732000  1.0
  C  C65  1  0.58380000  0.30089000  0.20732000  1.0
  C  C66  1  0.40330000  0.54882000  0.71031000  1.0
  C  C67  1  0.59669000  0.45118000  0.21031000  1.0
  C  C68  1  0.58141000  0.44918000  0.68839000  1.0
  C  C69  1  0.41859000  0.55082000  0.18839000  1.0
  C  C70  1  0.56699000  0.29913000  0.69084000  1.0
  C  C71  1  0.43301000  0.70086000  0.19084000  1.0
  C  C72  1  0.73576000  0.19810000  0.65784000  1.0
  C  C73  1  0.26424000  0.80190000  0.15784000  1.0
  C  C74  1  0.00521000  0.29731000  0.69056000  1.0
  C  C75  1  0.99479000  0.70269000  0.19057000  1.0
  C  C76  1  0.12549000  0.28481000  0.75949000  1.0
  C  C77  1  0.87451000  0.71519000  0.25950000  1.0
  C  C78  1  0.95057000  0.14258000  0.78755000  1.0
  C  C79  1  0.04943000  0.85742000  0.28755000  1.0
  C  C80  1  0.86331000  0.04088000  0.83076000  1.0
  C  C81  1  0.13669000  0.95912000  0.33076000  1.0
  C  C82  1  0.56972000  0.63633000  0.45234000  1.0
  C  C83  1  0.43027000  0.36368000  0.95234000  1.0
  C  C84  1  0.46530000  0.52565000  0.45092000  1.0
  C  C85  1  0.53470000  0.47436000  0.95092000  1.0
  C  C86  1  0.27627000  0.55490000  0.45317000  1.0
  C  C87  1  0.72373000  0.44510000  0.95317000  1.0
  C  C88  1  0.18462000  0.44843000  0.44789000  1.0
  C  C89  1  0.81538000  0.55157000  0.94789000  1.0
  C  C90  1  0.28179000  0.31240000  0.44166000  1.0
  C  C91  1  0.71822000  0.68760000  0.94166000  1.0
  C  C92  1  0.47139000  0.28199000  0.44160000  1.0
  C  C93  1  0.52862000  0.71801000  0.94160000  1.0
  C  C94  1  0.56106000  0.38919000  0.44580000  1.0
  C  C95  1  0.43894000  0.61082000  0.94580000  1.0
  C  C96  1  0.58001000  0.13715000  0.43692000  1.0
  C  C97  1  0.42001000  0.86285000  0.93692000  1.0
  N  N98  1  0.89629000  0.81474000  0.57351000  1.0
  N  N99  1  0.10370000  0.18526000  0.07352000  1.0
  N  N100  1  0.08804000  0.79042000  0.68557000  1.0
  N  N101  1  0.91196000  0.20958000  0.18557000  1.0
  N  N102  1  0.89553000  0.20753000  0.70911000  1.0
  N  N103  1  0.10447000  0.79247000  0.20911000  1.0
  N  N104  1  0.09175000  0.18806000  0.81898000  1.0
  N  N105  1  0.90826000  0.81194000  0.31898000  1.0
  O  O106  1  0.73665000  0.60452000  0.43278000  1.0
  O  O107  1  0.26334000  0.39549000  0.93278000  1.0
  O  O108  1  0.48743000  0.75895000  0.47238000  1.0
  O  O109  1  0.51255000  0.24106000  0.97239000  1.0
  O  O110  1  0.49768000  0.04212000  0.41910000  1.0
  O  O111  1  0.50233000  0.95788000  0.91910000  1.0
  O  O112  1  0.74937000  0.11375000  0.45158000  1.0
  O  O113  1  0.25064000  0.88626000  0.95158000  1.0
