# generated using pymatgen
data_CuH8C12IN2
_symmetry_space_group_name_H-M   'P 1'
_cell_length_a   8.90168000
_cell_length_b   9.60519539
_cell_length_c   14.05570000
_cell_angle_alpha   90.00009268
_cell_angle_beta   90.00010000
_cell_angle_gamma   62.41163309
_symmetry_Int_Tables_number   1
_chemical_formula_structural   CuH8C12IN2
_chemical_formula_sum   'Cu4 H32 C48 I4 N8'
_cell_volume   1065.14871406
_cell_formula_units_Z   4
loop_
 _symmetry_equiv_pos_site_id
 _symmetry_equiv_pos_as_xyz
  1  'x, y, z'
loop_
 _atom_site_type_symbol
 _atom_site_label
 _atom_site_symmetry_multiplicity
 _atom_site_fract_x
 _atom_site_fract_y
 _atom_site_fract_z
 _atom_site_occupancy
  Cu  Cu0  1  0.17486000  0.65038000  0.25000000  1.0
  Cu  Cu1  1  0.67485000  0.65039000  0.75000000  1.0
  Cu  Cu2  1  0.82514000  0.34962000  0.75000000  1.0
  Cu  Cu3  1  0.32515000  0.34961000  0.25000000  1.0
  H  H4  1  0.29982000  0.61212000  0.05057000  1.0
  H  H5  1  0.79981000  0.61212000  0.94943000  1.0
  H  H6  1  0.91145000  0.38840000  0.55058000  1.0
  H  H7  1  0.58855000  0.61160000  0.55058000  1.0
  H  H8  1  0.70018000  0.38788000  0.94943000  1.0
  H  H9  1  0.20018000  0.38788000  0.05058000  1.0
  H  H10  1  0.08855000  0.61160000  0.44942000  1.0
  H  H11  1  0.41144000  0.38841000  0.44942000  1.0
  H  H12  1  0.16820000  0.68993000  0.88868000  1.0
  H  H13  1  0.66820000  0.68993000  0.11132000  1.0
  H  H14  1  0.85771000  0.31056000  0.38860000  1.0
  H  H15  1  0.64229000  0.68944000  0.38860000  1.0
  H  H16  1  0.83181000  0.31007000  0.11132000  1.0
  H  H17  1  0.33180000  0.31007000  0.88868000  1.0
  H  H18  1  0.14229000  0.68944000  0.61140000  1.0
  H  H19  1  0.35771000  0.31056000  0.61140000  1.0
  H  H20  1  0.62917000  0.10176000  0.87502000  1.0
  H  H21  1  0.12918000  0.10176000  0.12498000  1.0
  H  H22  1  0.73113000  0.89792000  0.37493000  1.0
  H  H23  1  0.76886000  0.10208000  0.37493000  1.0
  H  H24  1  0.37082000  0.89824000  0.12498000  1.0
  H  H25  1  0.87083000  0.89823000  0.87501000  1.0
  H  H26  1  0.26887000  0.10208000  0.62507000  1.0
  H  H27  1  0.23113000  0.89792000  0.62507000  1.0
  H  H28  1  0.90225000  0.89442000  0.26899000  1.0
  H  H29  1  0.40224000  0.89442000  0.73101000  1.0
  H  H30  1  0.79656000  0.10569000  0.76892000  1.0
  H  H31  1  0.70345000  0.89431000  0.76892000  1.0
  H  H32  1  0.09776000  0.10558000  0.73101000  1.0
  H  H33  1  0.59777000  0.10558000  0.26899000  1.0
  H  H34  1  0.20345000  0.89431000  0.23108000  1.0
  H  H35  1  0.29656000  0.10569000  0.23108000  1.0
  C  C36  1  0.16861000  0.70231000  0.04203000  1.0
  C  C37  1  0.66861000  0.70231000  0.95797000  1.0
  C  C38  1  0.87052000  0.29813000  0.54198000  1.0
  C  C39  1  0.62948000  0.70187000  0.54198000  1.0
  C  C40  1  0.83139000  0.29769000  0.95797000  1.0
  C  C41  1  0.33139000  0.29769000  0.04203000  1.0
  C  C42  1  0.12947000  0.70188000  0.45802000  1.0
  C  C43  1  0.37052000  0.29813000  0.45802000  1.0
  C  C44  1  0.09459000  0.74748000  0.95193000  1.0
  C  C45  1  0.59459000  0.74748000  0.04807000  1.0
  C  C46  1  0.84169000  0.25298000  0.45187000  1.0
  C  C47  1  0.65831000  0.74702000  0.45188000  1.0
  C  C48  1  0.90541000  0.25252000  0.04807000  1.0
  C  C49  1  0.40540000  0.25252000  0.95193000  1.0
  C  C50  1  0.15831000  0.74702000  0.54812000  1.0
  C  C51  1  0.34168000  0.25299000  0.54813000  1.0
  C  C52  1  0.83671000  0.93722000  0.02788000  1.0
  C  C53  1  0.33671000  0.93722000  0.97212000  1.0
  C  C54  1  0.77384000  0.06289000  0.52777000  1.0
  C  C55  1  0.72616000  0.93711000  0.52777000  1.0
  C  C56  1  0.16328000  0.06278000  0.97212000  1.0
  C  C57  1  0.66329000  0.06277000  0.02788000  1.0
  C  C58  1  0.22616000  0.93711000  0.47223000  1.0
  C  C59  1  0.27384000  0.06289000  0.47223000  1.0
  C  C60  1  0.57959000  0.11951000  0.11652000  1.0
  C  C61  1  0.07959000  0.11951000  0.88348000  1.0
  C  C62  1  0.69923000  0.88037000  0.61643000  1.0
  C  C63  1  0.80076000  0.11964000  0.61643000  1.0
  C  C64  1  0.42042000  0.88048000  0.88348000  1.0
  C  C65  1  0.92042000  0.88048000  0.11652000  1.0
  C  C66  1  0.30076000  0.11964000  0.38357000  1.0
  C  C67  1  0.19924000  0.88036000  0.38357000  1.0
  C  C68  1  0.92874000  0.86478000  0.94494000  1.0
  C  C69  1  0.42874000  0.86478000  0.05506000  1.0
  C  C70  1  0.79325000  0.13556000  0.44486000  1.0
  C  C71  1  0.70673000  0.86445000  0.44486000  1.0
  C  C72  1  0.07126000  0.13522000  0.05506000  1.0
  C  C73  1  0.57126000  0.13521000  0.94494000  1.0
  C  C74  1  0.20674000  0.86445000  0.55514000  1.0
  C  C75  1  0.29326000  0.13556000  0.55514000  1.0
  C  C76  1  0.66776000  0.05677000  0.20331000  1.0
  C  C77  1  0.16774000  0.05678000  0.79669000  1.0
  C  C78  1  0.72457000  0.94319000  0.70323000  1.0
  C  C79  1  0.77544000  0.05681000  0.70323000  1.0
  C  C80  1  0.33226000  0.94322000  0.79669000  1.0
  C  C81  1  0.83225000  0.94323000  0.20331000  1.0
  C  C82  1  0.27544000  0.05681000  0.29677000  1.0
  C  C83  1  0.22457000  0.94319000  0.29677000  1.0
  I  I84  1  0.51196000  0.50000000  0.24991000  1.0
  I  I85  1  0.01196000  0.50000000  0.75009000  1.0
  I  I86  1  0.48804000  0.50000000  0.75009000  1.0
  I  I87  1  0.98804000  0.50000000  0.24991000  1.0
  N  N88  1  0.08456000  0.76406000  0.12277000  1.0
  N  N89  1  0.58455000  0.76406000  0.87723000  1.0
  N  N90  1  0.84836000  0.23618000  0.62269000  1.0
  N  N91  1  0.65164000  0.76382000  0.62270000  1.0
  N  N92  1  0.91545000  0.23594000  0.87723000  1.0
  N  N93  1  0.41545000  0.23594000  0.12277000  1.0
  N  N94  1  0.15164000  0.76382000  0.37731000  1.0
  N  N95  1  0.34835000  0.23619000  0.37731000  1.0
