# generated using pymatgen
data_CdH14C18N2(ClO3)2
_symmetry_space_group_name_H-M   'P 1'
_cell_length_a   7.64034000
_cell_length_b   10.81220000
_cell_length_c   11.73820000
_cell_angle_alpha   90.00090000
_cell_angle_beta   90.00050000
_cell_angle_gamma   87.85450000
_symmetry_Int_Tables_number   1
_chemical_formula_structural   CdH14C18N2(ClO3)2
_chemical_formula_sum   'Cd2 H28 C36 N4 Cl4 O12'
_cell_volume   968.99983799
_cell_formula_units_Z   2
loop_
 _symmetry_equiv_pos_site_id
 _symmetry_equiv_pos_as_xyz
  1  'x, y, z'
loop_
 _atom_site_type_symbol
 _atom_site_label
 _atom_site_symmetry_multiplicity
 _atom_site_fract_x
 _atom_site_fract_y
 _atom_site_fract_z
 _atom_site_occupancy
  Cd  Cd0  1  0.25001000  0.75000000  0.77974000  1.0
  Cd  Cd1  1  0.74999000  0.25000000  0.22025000  1.0
  H  H2  1  0.12569000  0.98577000  0.83322000  1.0
  H  H3  1  0.37430000  0.51424000  0.83321000  1.0
  H  H4  1  0.87430000  0.01423000  0.16678000  1.0
  H  H5  1  0.62569000  0.48577000  0.16678000  1.0
  H  H6  1  0.94249000  0.91914000  0.81421000  1.0
  H  H7  1  0.55752000  0.58085000  0.81420000  1.0
  H  H8  1  0.05751000  0.08085000  0.18579000  1.0
  H  H9  1  0.44248000  0.41915000  0.18579000  1.0
  H  H10  1  0.91604000  0.54869000  0.57977000  1.0
  H  H11  1  0.58397000  0.95131000  0.57978000  1.0
  H  H12  1  0.08397000  0.45131000  0.42024000  1.0
  H  H13  1  0.41603000  0.04869000  0.42024000  1.0
  H  H14  1  0.08611000  0.91713000  0.36033000  1.0
  H  H15  1  0.41390000  0.58285000  0.36033000  1.0
  H  H16  1  0.91388000  0.08287000  0.63967000  1.0
  H  H17  1  0.58610000  0.41715000  0.63967000  1.0
  H  H18  1  0.09409000  0.91001000  0.57468000  1.0
  H  H19  1  0.40592000  0.58999000  0.57468000  1.0
  H  H20  1  0.90592000  0.09000000  0.42531000  1.0
  H  H21  1  0.59408000  0.41001000  0.42531000  1.0
  H  H22  1  0.51691000  0.70697000  0.98720000  1.0
  H  H23  1  0.98310000  0.79302000  0.98719000  1.0
  H  H24  1  0.48308000  0.29303000  0.01280000  1.0
  H  H25  1  0.01688000  0.20697000  0.01280000  1.0
  H  H26  1  0.52649000  0.70203000  0.19982000  1.0
  H  H27  1  0.97353000  0.79796000  0.19982000  1.0
  H  H28  1  0.47351000  0.29798000  0.80018000  1.0
  H  H29  1  0.02646000  0.20203000  0.80017000  1.0
  C  C30  1  0.85744000  0.62983000  0.79316000  1.0
  C  C31  1  0.64258000  0.87017000  0.79317000  1.0
  C  C32  1  0.14257000  0.37017000  0.20684000  1.0
  C  C33  1  0.35743000  0.12983000  0.20684000  1.0
  C  C34  1  0.25001000  0.74999000  0.34309000  1.0
  C  C35  1  0.74999000  0.25001000  0.65691000  1.0
  C  C36  1  0.84222000  0.63680000  0.58003000  1.0
  C  C37  1  0.65780000  0.86320000  0.58003000  1.0
  C  C38  1  0.15780000  0.36320000  0.41998000  1.0
  C  C39  1  0.34221000  0.13680000  0.41998000  1.0
  C  C40  1  0.79361000  0.69175000  0.47674000  1.0
  C  C41  1  0.70640000  0.80825000  0.47674000  1.0
  C  C42  1  0.20640000  0.30825000  0.52327000  1.0
  C  C43  1  0.29360000  0.19175000  0.52326000  1.0
  C  C44  1  0.79918000  0.69366000  0.68380000  1.0
  C  C45  1  0.70084000  0.80634000  0.68380000  1.0
  C  C46  1  0.20083000  0.30634000  0.31620000  1.0
  C  C47  1  0.29917000  0.19366000  0.31621000  1.0
  C  C48  1  0.15817000  0.84266000  0.40474000  1.0
  C  C49  1  0.34184000  0.65733000  0.40474000  1.0
  C  C50  1  0.84183000  0.15734000  0.59525000  1.0
  C  C51  1  0.65816000  0.34267000  0.59525000  1.0
  C  C52  1  0.16258000  0.83974000  0.52310000  1.0
  C  C53  1  0.33743000  0.66026000  0.52310000  1.0
  C  C54  1  0.83741000  0.16027000  0.47690000  1.0
  C  C55  1  0.66257000  0.33975000  0.47690000  1.0
  C  C56  1  0.39854000  0.72503000  0.03744000  1.0
  C  C57  1  0.10149000  0.77496000  0.03745000  1.0
  C  C58  1  0.60146000  0.27496000  0.96255000  1.0
  C  C59  1  0.89851000  0.22504000  0.96255000  1.0
  C  C60  1  0.40340000  0.72229000  0.15575000  1.0
  C  C61  1  0.09662000  0.77770000  0.15575000  1.0
  C  C62  1  0.59659000  0.27772000  0.84424000  1.0
  C  C63  1  0.90337000  0.22229000  0.84425000  1.0
  C  C64  1  0.25000000  0.74999000  0.21739000  1.0
  C  C65  1  0.74998000  0.25001000  0.78260000  1.0
  N  N66  1  0.25001000  0.75000000  0.97925000  1.0
  N  N67  1  0.74998000  0.25000000  0.02075000  1.0
  N  N68  1  0.25001000  0.75000000  0.58164000  1.0
  N  N69  1  0.74999000  0.25001000  0.41835000  1.0
  Cl  Cl70  1  0.84183000  0.61506000  0.35115000  1.0
  Cl  Cl71  1  0.65817000  0.88494000  0.35116000  1.0
  Cl  Cl72  1  0.15816000  0.38494000  0.64885000  1.0
  Cl  Cl73  1  0.34183000  0.11506000  0.64885000  1.0
  O  O74  1  0.02101000  0.61422000  0.80943000  1.0
  O  O75  1  0.47900000  0.88578000  0.80943000  1.0
  O  O76  1  0.97900000  0.38577000  0.19057000  1.0
  O  O77  1  0.52100000  0.11422000  0.19057000  1.0
  O  O78  1  0.73968000  0.59363000  0.86035000  1.0
  O  O79  1  0.76033000  0.90635000  0.86036000  1.0
  O  O80  1  0.26032000  0.40636000  0.13965000  1.0
  O  O81  1  0.23967000  0.09364000  0.13965000  1.0
  O  O82  1  0.06695000  0.93086000  0.78118000  1.0
  O  O83  1  0.43305000  0.56914000  0.78118000  1.0
  O  O84  1  0.93304000  0.06914000  0.21881000  1.0
  O  O85  1  0.56695000  0.43086000  0.21882000  1.0
