# generated using pymatgen
data_Zn4H55C78N19
_symmetry_space_group_name_H-M   'P 1'
_cell_length_a   19.74990000
_cell_length_b   19.85820000
_cell_length_c   20.66360000
_cell_angle_alpha   108.06600000
_cell_angle_beta   106.12700000
_cell_angle_gamma   112.41000000
_symmetry_Int_Tables_number   1
_chemical_formula_structural   Zn4H55C78N19
_chemical_formula_sum   'Zn4 H55 C78 N19'
_cell_volume   6358.88932556
_cell_formula_units_Z   1
loop_
 _symmetry_equiv_pos_site_id
 _symmetry_equiv_pos_as_xyz
  1  'x, y, z'
loop_
 _atom_site_type_symbol
 _atom_site_label
 _atom_site_symmetry_multiplicity
 _atom_site_fract_x
 _atom_site_fract_y
 _atom_site_fract_z
 _atom_site_occupancy
  Zn  Zn0  1  0.60424000  0.60252000  0.50167000  1.0
  Zn  Zn1  1  0.39612000  0.39698000  0.50107000  1.0
  Zn  Zn2  1  0.50489000  0.59932000  0.60389000  1.0
  Zn  Zn3  1  0.49705000  0.40270000  0.39789000  1.0
  H  H4  1  0.76145000  0.60921000  0.61333000  1.0
  H  H5  1  0.09474000  0.65310000  0.39339000  1.0
  H  H6  1  0.50079000  0.35932000  0.62410000  1.0
  H  H7  1  0.93151000  0.52709000  0.28518000  1.0
  H  H8  1  0.97711000  0.40716000  0.28115000  1.0
  H  H9  1  0.93296000  0.39720000  0.39889000  1.0
  H  H10  1  0.69613000  0.22117000  0.73710000  1.0
  H  H11  1  0.55060000  0.06660000  0.67210000  1.0
  H  H12  1  0.76847000  0.13917000  0.67123000  1.0
  H  H13  1  0.71053000  0.15853000  0.54028000  1.0
  H  H14  1  0.56386000  0.00398000  0.47320000  1.0
  H  H15  1  0.24321000  0.38062000  0.37378000  1.0
  H  H16  1  0.32248000  0.40021000  0.14130000  1.0
  H  H17  1  0.43649000  0.61889000  0.73515000  1.0
  H  H18  1  0.32804000  0.60089000  0.77923000  1.0
  H  H19  1  0.29013000  0.35777000  0.72514000  1.0
  H  H20  1  0.23751000  0.43136000  0.93835000  1.0
  H  H21  1  0.39462000  0.67573000  0.16065000  1.0
  H  H22  1  0.29221000  0.60446000  0.88441000  1.0
  H  H23  1  0.43685000  0.66290000  0.27718000  1.0
  H  H24  1  0.28462000  0.41372000  0.02560000  1.0
  H  H25  1  0.25514000  0.36163000  0.83094000  1.0
  H  H26  1  0.53560000  0.79333000  0.66197000  1.0
  H  H27  1  0.74481000  0.61176000  0.84466000  1.0
  H  H28  1  0.63860000  0.37515000  0.34513000  1.0
  H  H29  1  0.29863000  0.05170000  0.20624000  1.0
  H  H30  1  0.11978000  0.08598000  0.27033000  1.0
  H  H31  1  0.96425000  0.82245000  0.06073000  1.0
  H  H32  1  0.01170000  0.77745000  0.85262000  1.0
  H  H33  1  0.19024000  0.91275000  0.10322000  1.0
  H  H34  1  0.88542000  0.69872000  0.73171000  1.0
  H  H35  1  0.08085000  0.83372000  0.98700000  1.0
  H  H36  1  0.87078000  0.69256000  0.96591000  1.0
  H  H37  1  0.37252000  0.20715000  0.25646000  1.0
  H  H38  1  0.01169000  0.94587000  0.16872000  1.0
  H  H39  1  0.29761000  0.35292000  0.60477000  1.0
  H  H40  1  0.77896000  0.63961000  0.48841000  1.0
  H  H41  1  0.63357000  0.37462000  0.48860000  1.0
  H  H42  1  0.63212000  0.60846000  0.75203000  1.0
  H  H43  1  0.50974000  0.65223000  0.38433000  1.0
  H  H44  1  0.14516000  0.50002000  0.50867000  1.0
  H  H45  1  0.13676000  0.52245000  0.62499000  1.0
  H  H46  1  0.03299000  0.45407000  0.55254000  1.0
  H  H47  1  0.07147000  0.56180000  0.60213000  1.0
  H  H48  1  0.23968000  0.20153000  0.39145000  1.0
  H  H49  1  0.47288000  0.13736000  0.55175000  1.0
  H  H50  1  0.34905000  0.00846000  0.46791000  1.0
  H  H51  1  0.39622000  0.99747000  0.54849000  1.0
  H  H52  1  0.40605000  0.95785000  0.46374000  1.0
  H  H53  1  0.38315000  0.63869000  0.97953000  1.0
  H  H54  1  0.43269000  0.66774000  0.07328000  1.0
  H  H55  1  0.66089000  0.79179000  0.52022000  1.0
  H  H56  1  0.36563000  0.38596000  0.24850000  1.0
  H  H57  1  0.39282000  0.64694000  0.50695000  1.0
  H  H58  1  0.05327000  0.64500000  0.51299000  1.0
  C  C59  1  0.71910000  0.60714000  0.63780000  1.0
  C  C60  1  0.62793000  0.77854000  0.55307000  1.0
  C  C61  1  0.40764000  0.45001000  0.29136000  1.0
  C  C62  1  0.52615000  0.36864000  0.58513000  1.0
  C  C63  1  0.36772000  0.58076000  0.48052000  1.0
  C  C64  1  0.41996000  0.52284000  0.28699000  1.0
  C  C65  1  0.28729000  0.51676000  0.42599000  1.0
  C  C66  1  0.60236000  0.82659000  0.59405000  1.0
  C  C67  1  0.27957000  0.16636000  0.30027000  1.0
  C  C68  1  0.06127000  0.52572000  0.45968000  1.0
  C  C69  1  0.03646000  0.59209000  0.46124000  1.0
  C  C70  1  0.58390000  0.34978000  0.56995000  1.0
  C  C71  1  0.81083000  0.51185000  0.40878000  1.0
  C  C72  1  0.21680000  0.52308000  0.40271000  1.0
  C  C73  1  0.96998000  0.45410000  0.39819000  1.0
  C  C74  1  0.40783000  0.55449000  0.69445000  1.0
  C  C75  1  0.94516000  0.52158000  0.40109000  1.0
  C  C76  1  0.99287000  0.45951000  0.33274000  1.0
  C  C77  1  0.08419000  0.52945000  0.39255000  1.0
  C  C78  1  0.96917000  0.52649000  0.33481000  1.0
  C  C79  1  0.05891000  0.59656000  0.39513000  1.0
  C  C80  1  0.87333000  0.51690000  0.40564000  1.0
  C  C81  1  0.34976000  0.48395000  0.69187000  1.0
  C  C82  1  0.15574000  0.52893000  0.39265000  1.0
  C  C83  1  0.58547000  0.08752000  0.64242000  1.0
  C  C84  1  0.66632000  0.17204000  0.67861000  1.0
  C  C85  1  0.61335000  0.30239000  0.59267000  1.0
  C  C86  1  0.66093000  0.43937000  0.38162000  1.0
  C  C87  1  0.61155000  0.90243000  0.60000000  1.0
  C  C88  1  0.55256000  0.09694000  0.56796000  1.0
  C  C89  1  0.63427000  0.18352000  0.60597000  1.0
  C  C90  1  0.59352000  0.05275000  0.53194000  1.0
  C  C91  1  0.62539000  0.04159000  0.60493000  1.0
  C  C92  1  0.74025000  0.50840000  0.41432000  1.0
  C  C93  1  0.67457000  0.13750000  0.56908000  1.0
  C  C94  1  0.70691000  0.12797000  0.64195000  1.0
  C  C95  1  0.63055000  0.25244000  0.60306000  1.0
  C  C96  1  0.61895000  0.96744000  0.60311000  1.0
  C  C97  1  0.38557000  0.53074000  0.21922000  1.0
  C  C98  1  0.33795000  0.41894000  0.62883000  1.0
  C  C99  1  0.33856000  0.46123000  0.14644000  1.0
  C  C100  1  0.31628000  0.46878000  0.08041000  1.0
  C  C101  1  0.33835000  0.54621000  0.08294000  1.0
  C  C102  1  0.37995000  0.61499000  0.15573000  1.0
  C  C103  1  0.48100000  0.58574000  0.36075000  1.0
  C  C104  1  0.40316000  0.60755000  0.22214000  1.0
  C  C105  1  0.29609000  0.55188000  0.85262000  1.0
  C  C106  1  0.31471000  0.54913000  0.79187000  1.0
  C  C107  1  0.29098000  0.41237000  0.76012000  1.0
  C  C108  1  0.27146000  0.41460000  0.81995000  1.0
  C  C109  1  0.27880000  0.48648000  0.87133000  1.0
  C  C110  1  0.73267000  0.57449000  0.45491000  1.0
  C  C111  1  0.32731000  0.55585000  0.01324000  1.0
  C  C112  1  0.27558000  0.49017000  0.94168000  1.0
  C  C113  1  0.31693000  0.48125000  0.74682000  1.0
  C  C114  1  0.29113000  0.44447000  0.41245000  1.0
  C  C115  1  0.80449000  0.65221000  0.77929000  1.0
  C  C116  1  0.80311000  0.64934000  0.84631000  1.0
  C  C117  1  0.87427000  0.69491000  0.91480000  1.0
  C  C118  1  0.95064000  0.74532000  0.91965000  1.0
  C  C119  1  0.95304000  0.74078000  0.85096000  1.0
  C  C120  1  0.88172000  0.69608000  0.78264000  1.0
  C  C121  1  0.17410000  0.95082000  0.13905000  1.0
  C  C122  1  0.59406000  0.37647000  0.51578000  1.0
  C  C123  1  0.23525000  0.02941000  0.19697000  1.0
  C  C124  1  0.13585000  0.04788000  0.23437000  1.0
  C  C125  1  0.56414000  0.77950000  0.62571000  1.0
  C  C126  1  0.07483000  0.96892000  0.17693000  1.0
  C  C127  1  0.09159000  0.91966000  0.12565000  1.0
  C  C128  1  0.02346000  0.80793000  0.99136000  1.0
  C  C129  1  0.02303000  0.84443000  0.05847000  1.0
  C  C130  1  0.21714000  0.08092000  0.24439000  1.0
  C  C131  1  0.65257000  0.60528000  0.70809000  1.0
  C  C132  1  0.72917000  0.61906000  0.71145000  1.0
  C  C133  1  0.08770000  0.51599000  0.57792000  1.0
  C  C134  1  0.40370000  0.00929000  0.50120000  1.0
  C  C135  1  0.34999000  0.21937000  0.29856000  1.0
  C  C136  1  0.28163000  0.21684000  0.36669000  1.0
  N  N137  1  0.64326000  0.58943000  0.59534000  1.0
  N  N138  1  0.42879000  0.53316000  0.63794000  1.0
  N  N139  1  0.61103000  0.46286000  0.40131000  1.0
  N  N140  1  0.38505000  0.44861000  0.59676000  1.0
  N  N141  1  0.65575000  0.54689000  0.44688000  1.0
  N  N142  1  0.54466000  0.40652000  0.49927000  1.0
  N  N143  1  0.60247000  0.58837000  0.63861000  1.0
  N  N144  1  0.50337000  0.55234000  0.40413000  1.0
  N  N145  1  0.11735000  0.53194000  0.52402000  1.0
  N  N146  1  0.47664000  0.08691000  0.52597000  1.0
  N  N147  1  0.37773000  0.63507000  0.02608000  1.0
  N  N148  1  0.36723000  0.46476000  0.45723000  1.0
  N  N149  1  0.56685000  0.70972000  0.60501000  1.0
  N  N150  1  0.39017000  0.29492000  0.35877000  1.0
  N  N151  1  0.34766000  0.29314000  0.40142000  1.0
  N  N152  1  0.60651000  0.70913000  0.55982000  1.0
  N  N153  1  0.45815000  0.46892000  0.36148000  1.0
  N  N154  1  0.41412000  0.54826000  0.49893000  1.0
  N  N155  1  0.50304000  0.40178000  0.54180000  1.0
