# generated using pymatgen
data_SrH4C5N2O5
_symmetry_space_group_name_H-M   'P 1'
_cell_length_a   6.17937000
_cell_length_b   9.27659000
_cell_length_c   12.04040000
_cell_angle_alpha   90.00000000
_cell_angle_beta   90.00000000
_cell_angle_gamma   99.52230000
_symmetry_Int_Tables_number   1
_chemical_formula_structural   SrH4C5N2O5
_chemical_formula_sum   'Sr4 H16 C20 N8 O20'
_cell_volume   680.68761801
_cell_formula_units_Z   4
loop_
 _symmetry_equiv_pos_site_id
 _symmetry_equiv_pos_as_xyz
  1  'x, y, z'
loop_
 _atom_site_type_symbol
 _atom_site_label
 _atom_site_symmetry_multiplicity
 _atom_site_fract_x
 _atom_site_fract_y
 _atom_site_fract_z
 _atom_site_occupancy
  Sr  Sr0  1  0.23569000  0.00730000  0.37831000  1.0
  Sr  Sr1  1  0.73569000  0.00730000  0.12169000  1.0
  Sr  Sr2  1  0.76431000  0.99270000  0.62169000  1.0
  Sr  Sr3  1  0.26431000  0.99270000  0.87831000  1.0
  H  H4  1  0.97854000  0.74839000  0.23680000  1.0
  H  H5  1  0.47854000  0.74839000  0.26320000  1.0
  H  H6  1  0.02146000  0.25161000  0.76320000  1.0
  H  H7  1  0.52146000  0.25161000  0.73680000  1.0
  H  H8  1  0.15048000  0.84695000  0.15522000  1.0
  H  H9  1  0.65048000  0.84694000  0.34478000  1.0
  H  H10  1  0.84953000  0.15305000  0.84478000  1.0
  H  H11  1  0.34952000  0.15306000  0.65522000  1.0
  H  H12  1  0.13326000  0.59259000  0.79586000  1.0
  H  H13  1  0.63326000  0.59259000  0.70414000  1.0
  H  H14  1  0.86673000  0.40741000  0.20414000  1.0
  H  H15  1  0.36673000  0.40741000  0.29586000  1.0
  H  H16  1  0.31328000  0.59867000  0.45801000  1.0
  H  H17  1  0.81328000  0.59867000  0.04199000  1.0
  H  H18  1  0.68672000  0.40133000  0.54199000  1.0
  H  H19  1  0.18671000  0.40133000  0.95801000  1.0
  C  C20  1  0.19653000  0.28468000  0.51328000  1.0
  C  C21  1  0.69653000  0.28468000  0.98672000  1.0
  C  C22  1  0.80347000  0.71532000  0.48672000  1.0
  C  C23  1  0.30347000  0.71532000  0.01328000  1.0
  C  C24  1  0.19907000  0.41954000  0.57929000  1.0
  C  C25  1  0.69907000  0.41954000  0.92071000  1.0
  C  C26  1  0.80094000  0.58046000  0.42072000  1.0
  C  C27  1  0.30093000  0.58046000  0.07929000  1.0
  C  C28  1  0.25730000  0.56342000  0.54022000  1.0
  C  C29  1  0.75730000  0.56342000  0.95978000  1.0
  C  C30  1  0.74270000  0.43658000  0.45978000  1.0
  C  C31  1  0.24270000  0.43658000  0.04022000  1.0
  C  C32  1  0.21911000  0.65176000  0.62852000  1.0
  C  C33  1  0.71911000  0.65176000  0.87148000  1.0
  C  C34  1  0.78089000  0.34824000  0.37148000  1.0
  C  C35  1  0.28089000  0.34824000  0.12852000  1.0
  C  C36  1  0.23238000  0.81282000  0.63050000  1.0
  C  C37  1  0.73239000  0.81282000  0.86950000  1.0
  C  C38  1  0.76761000  0.18718000  0.36950000  1.0
  C  C39  1  0.26762000  0.18718000  0.13050000  1.0
  N  N40  1  0.13395000  0.41897000  0.68711000  1.0
  N  N41  1  0.63395000  0.41897000  0.81289000  1.0
  N  N42  1  0.86605000  0.58103000  0.31289000  1.0
  N  N43  1  0.36605000  0.58103000  0.18711000  1.0
  N  N44  1  0.14498000  0.56003000  0.71412000  1.0
  N  N45  1  0.64498000  0.56003000  0.78588000  1.0
  N  N46  1  0.85502000  0.43997000  0.28588000  1.0
  N  N47  1  0.35501000  0.43997000  0.21412000  1.0
  O  O48  1  0.26965000  0.29594000  0.41530000  1.0
  O  O49  1  0.76965000  0.29594000  0.08470000  1.0
  O  O50  1  0.73035000  0.70406000  0.58470000  1.0
  O  O51  1  0.23035000  0.70406000  0.91530000  1.0
  O  O52  1  0.12168000  0.15978000  0.55785000  1.0
  O  O53  1  0.62168000  0.15978000  0.94215000  1.0
  O  O54  1  0.87832000  0.84023000  0.44214000  1.0
  O  O55  1  0.37832000  0.84022000  0.05785000  1.0
  O  O56  1  0.35376000  0.88390000  0.55667000  1.0
  O  O57  1  0.85377000  0.88390000  0.94333000  1.0
  O  O58  1  0.64623000  0.11610000  0.44333000  1.0
  O  O59  1  0.14624000  0.11610000  0.05667000  1.0
  O  O60  1  0.11793000  0.86864000  0.70144000  1.0
  O  O61  1  0.61793000  0.86864000  0.79856000  1.0
  O  O62  1  0.88207000  0.13135000  0.29856000  1.0
  O  O63  1  0.38207000  0.13136000  0.20144000  1.0
  O  O64  1  0.02685000  0.84922000  0.20704000  1.0
  O  O65  1  0.52685000  0.84922000  0.29296000  1.0
  O  O66  1  0.97315000  0.15078000  0.79296000  1.0
  O  O67  1  0.47314000  0.15078000  0.70704000  1.0
