# generated using pymatgen
data_ZnH9C15S2(NO2)2
_symmetry_space_group_name_H-M   'P 1'
_cell_length_a   8.86226000
_cell_length_b   10.78560000
_cell_length_c   11.04000000
_cell_angle_alpha   90.76710000
_cell_angle_beta   104.88000000
_cell_angle_gamma   105.43600000
_symmetry_Int_Tables_number   1
_chemical_formula_structural   ZnH9C15S2(NO2)2
_chemical_formula_sum   'Zn2 H18 C30 S4 N4 O8'
_cell_volume   979.28938372
_cell_formula_units_Z   2
loop_
 _symmetry_equiv_pos_site_id
 _symmetry_equiv_pos_as_xyz
  1  'x, y, z'
loop_
 _atom_site_type_symbol
 _atom_site_label
 _atom_site_symmetry_multiplicity
 _atom_site_fract_x
 _atom_site_fract_y
 _atom_site_fract_z
 _atom_site_occupancy
  Zn  Zn0  1  0.33240000  0.90106000  0.33103000  1.0
  Zn  Zn1  1  0.66759000  0.09894000  0.66896000  1.0
  H  H2  1  0.82223000  0.64890000  0.44988000  1.0
  H  H3  1  0.17779000  0.35110000  0.55012000  1.0
  H  H4  1  0.98334000  0.77389000  0.31500000  1.0
  H  H5  1  0.01667000  0.22612000  0.68500000  1.0
  H  H6  1  0.42137000  0.78998000  0.57581000  1.0
  H  H7  1  0.57863000  0.21001000  0.42418000  1.0
  H  H8  1  0.31906000  0.51589000  0.05386000  1.0
  H  H9  1  0.68094000  0.48411000  0.94614000  1.0
  H  H10  1  0.91349000  0.02897000  0.27314000  1.0
  H  H11  1  0.08650000  0.97103000  0.72686000  1.0
  H  H12  1  0.27909000  0.66390000  0.72050000  1.0
  H  H13  1  0.72092000  0.33610000  0.27950000  1.0
  H  H14  1  0.09305000  0.88304000  0.07450000  1.0
  H  H15  1  0.90693000  0.11695000  0.92551000  1.0
  H  H16  1  0.99042000  0.73544000  0.87558000  1.0
  H  H17  1  0.00958000  0.26456000  0.12443000  1.0
  H  H18  1  0.40863000  0.67391000  0.24224000  1.0
  H  H19  1  0.59137000  0.32609000  0.75776000  1.0
  C  C20  1  0.83568000  0.95756000  0.43284000  1.0
  C  C21  1  0.16431000  0.04245000  0.56716000  1.0
  C  C22  1  0.95451000  0.67598000  0.47962000  1.0
  C  C23  1  0.04550000  0.32402000  0.52038000  1.0
  C  C24  1  0.14648000  0.61337000  0.94937000  1.0
  C  C25  1  0.85351000  0.38664000  0.05063000  1.0
  C  C26  1  0.88101000  0.93973000  0.56191000  1.0
  C  C27  1  0.11898000  0.06027000  0.43808000  1.0
  C  C28  1  0.04423000  0.74651000  0.40519000  1.0
  C  C29  1  0.95578000  0.25350000  0.59481000  1.0
  C  C30  1  0.03861000  0.64483000  0.59583000  1.0
  C  C31  1  0.96140000  0.35517000  0.40417000  1.0
  C  C32  1  0.66188000  0.92005000  0.35547000  1.0
  C  C33  1  0.33811000  0.07994000  0.64454000  1.0
  C  C34  1  0.28888000  0.75621000  0.55094000  1.0
  C  C35  1  0.71113000  0.24378000  0.44906000  1.0
  C  C36  1  0.26568000  0.59599000  0.05411000  1.0
  C  C37  1  0.73432000  0.40401000  0.94589000  1.0
  C  C38  1  0.76310000  0.86931000  0.63304000  1.0
  C  C39  1  0.23690000  0.13069000  0.36695000  1.0
  C  C40  1  0.95437000  0.01678000  0.37315000  1.0
  C  C41  1  0.04563000  0.98322000  0.62684000  1.0
  C  C42  1  0.20850000  0.68575000  0.63135000  1.0
  C  C43  1  0.79150000  0.31424000  0.36865000  1.0
  C  C44  1  0.13932000  0.80023000  0.06516000  1.0
  C  C45  1  0.86067000  0.19977000  0.93485000  1.0
  C  C46  1  0.08314000  0.71846000  0.95492000  1.0
  C  C47  1  0.91686000  0.28154000  0.04509000  1.0
  C  C48  1  0.31519000  0.68305000  0.15956000  1.0
  C  C49  1  0.68480000  0.31695000  0.84044000  1.0
  S  S50  1  0.08338000  0.49522000  0.82081000  1.0
  S  S51  1  0.91663000  0.50479000  0.17919000  1.0
  S  S52  1  0.91922000  0.55594000  0.68818000  1.0
  S  S53  1  0.08078000  0.44406000  0.31182000  1.0
  N  N54  1  0.20803000  0.78674000  0.43965000  1.0
  N  N55  1  0.79197000  0.21326000  0.56034000  1.0
  N  N56  1  0.25253000  0.78318000  0.16599000  1.0
  N  N57  1  0.74746000  0.21681000  0.83402000  1.0
  O  O58  1  0.72274000  0.93945000  0.71006000  1.0
  O  O59  1  0.27725000  0.06055000  0.28993000  1.0
  O  O60  1  0.72043000  0.74930000  0.62286000  1.0
  O  O61  1  0.27958000  0.25070000  0.37715000  1.0
  O  O62  1  0.55794000  0.91881000  0.42112000  1.0
  O  O63  1  0.44206000  0.08121000  0.57889000  1.0
  O  O64  1  0.62715000  0.89690000  0.23941000  1.0
  O  O65  1  0.37284000  0.10307000  0.76060000  1.0
