# generated using pymatgen
data_CuH20C18N4O5
_symmetry_space_group_name_H-M   'P 1'
_cell_length_a   9.02510000
_cell_length_b   15.31090000
_cell_length_c   16.83990000
_cell_angle_alpha   89.99970000
_cell_angle_beta   90.00080000
_cell_angle_gamma   89.99930000
_symmetry_Int_Tables_number   1
_chemical_formula_structural   CuH20C18N4O5
_chemical_formula_sum   'Cu4 H80 C72 N16 O20'
_cell_volume   2326.97785778
_cell_formula_units_Z   4
loop_
 _symmetry_equiv_pos_site_id
 _symmetry_equiv_pos_as_xyz
  1  'x, y, z'
loop_
 _atom_site_type_symbol
 _atom_site_label
 _atom_site_symmetry_multiplicity
 _atom_site_fract_x
 _atom_site_fract_y
 _atom_site_fract_z
 _atom_site_occupancy
  Cu  Cu0  1  0.43323000  0.72316000  0.21540000  1.0
  Cu  Cu1  1  0.93325000  0.27685000  0.78459000  1.0
  Cu  Cu2  1  0.93324000  0.77684000  0.71540000  1.0
  Cu  Cu3  1  0.43322000  0.22316000  0.28460000  1.0
  H  H4  1  0.73751000  0.31435000  0.34219000  1.0
  H  H5  1  0.23752000  0.68565000  0.65781000  1.0
  H  H6  1  0.23752000  0.18566000  0.84218000  1.0
  H  H7  1  0.73753000  0.81435000  0.15781000  1.0
  H  H8  1  0.60199000  0.22145000  0.11817000  1.0
  H  H9  1  0.10201000  0.77853000  0.88183000  1.0
  H  H10  1  0.10201000  0.27855000  0.61815000  1.0
  H  H11  1  0.60199000  0.72146000  0.38182000  1.0
  H  H12  1  0.89086000  0.28408000  0.10519000  1.0
  H  H13  1  0.39089000  0.71593000  0.89481000  1.0
  H  H14  1  0.39088000  0.21593000  0.60518000  1.0
  H  H15  1  0.89087000  0.78406000  0.39481000  1.0
  H  H16  1  0.03866000  0.32606000  0.30463000  1.0
  H  H17  1  0.53867000  0.67393000  0.69536000  1.0
  H  H18  1  0.53865000  0.17393000  0.80463000  1.0
  H  H19  1  0.03866000  0.82606000  0.19537000  1.0
  H  H20  1  0.06993000  0.34218000  0.20210000  1.0
  H  H21  1  0.56996000  0.65783000  0.79789000  1.0
  H  H22  1  0.56995000  0.15783000  0.70211000  1.0
  H  H23  1  0.06994000  0.84217000  0.29790000  1.0
  H  H24  1  0.92147000  0.46805000  0.31949000  1.0
  H  H25  1  0.42149000  0.53195000  0.68051000  1.0
  H  H26  1  0.42147000  0.03195000  0.81948000  1.0
  H  H27  1  0.92148000  0.96805000  0.18052000  1.0
  H  H28  1  0.08724000  0.48206000  0.26506000  1.0
  H  H29  1  0.58725000  0.51794000  0.73494000  1.0
  H  H30  1  0.58724000  0.01794000  0.76506000  1.0
  H  H31  1  0.08725000  0.98206000  0.23495000  1.0
  H  H32  1  0.93029000  0.48078000  0.13705000  1.0
  H  H33  1  0.43030000  0.51922000  0.86295000  1.0
  H  H34  1  0.43029000  0.01922000  0.63704000  1.0
  H  H35  1  0.93029000  0.98078000  0.36296000  1.0
  H  H36  1  0.77075000  0.47173000  0.19716000  1.0
  H  H37  1  0.27077000  0.52828000  0.80284000  1.0
  H  H38  1  0.27076000  0.02827000  0.69715000  1.0
  H  H39  1  0.77076000  0.97171000  0.30285000  1.0
  H  H40  1  0.85244000  0.61612000  0.26484000  1.0
  H  H41  1  0.35244000  0.38389000  0.73516000  1.0
  H  H42  1  0.35245000  0.88388000  0.76483000  1.0
  H  H43  1  0.85243000  0.11611000  0.23517000  1.0
  H  H44  1  0.77952000  0.62095000  0.16777000  1.0
  H  H45  1  0.27953000  0.37905000  0.83223000  1.0
  H  H46  1  0.27953000  0.87905000  0.66777000  1.0
  H  H47  1  0.77952000  0.12094000  0.33223000  1.0
  H  H48  1  0.15050000  0.63335000  0.27823000  1.0
  H  H49  1  0.65051000  0.36665000  0.72176000  1.0
  H  H50  1  0.65052000  0.86664000  0.77823000  1.0
  H  H51  1  0.15050000  0.13335000  0.22178000  1.0
  H  H52  1  0.94105000  0.67516000  0.05614000  1.0
  H  H53  1  0.44106000  0.32484000  0.94385000  1.0
  H  H54  1  0.44105000  0.82484000  0.55614000  1.0
  H  H55  1  0.94104000  0.17515000  0.44386000  1.0
  H  H56  1  0.23028000  0.74465000  0.05393000  1.0
  H  H57  1  0.73029000  0.25535000  0.94607000  1.0
  H  H58  1  0.73027000  0.75534000  0.55392000  1.0
  H  H59  1  0.23025000  0.24465000  0.44608000  1.0
  H  H60  1  0.17981000  0.77886000  0.42082000  1.0
  H  H61  1  0.67976000  0.22115000  0.57919000  1.0
  H  H62  1  0.67984000  0.72114000  0.92083000  1.0
  H  H63  1  0.17981000  0.27886000  0.07918000  1.0
  H  H64  1  0.12089000  0.98901000  0.58658000  1.0
  H  H65  1  0.62091000  0.01100000  0.41342000  1.0
  H  H66  1  0.62095000  0.51099000  0.08659000  1.0
  H  H67  1  0.12095000  0.48902000  0.91341000  1.0
  H  H68  1  0.27396000  0.08596000  0.50088000  1.0
  H  H69  1  0.77396000  0.91405000  0.49912000  1.0
  H  H70  1  0.77399000  0.41404000  0.00089000  1.0
  H  H71  1  0.27399000  0.58596000  0.99912000  1.0
  H  H72  1  0.37675000  0.02998000  0.37362000  1.0
  H  H73  1  0.87673000  0.97003000  0.62639000  1.0
  H  H74  1  0.87676000  0.47001000  0.87362000  1.0
  H  H75  1  0.37674000  0.52998000  0.12640000  1.0
  H  H76  1  0.46075000  0.56877000  0.34324000  1.0
  H  H77  1  0.96078000  0.43123000  0.65675000  1.0
  H  H78  1  0.96073000  0.93122000  0.84324000  1.0
  H  H79  1  0.46074000  0.06876000  0.15675000  1.0
  H  H80  1  0.41398000  0.51942000  0.26626000  1.0
  H  H81  1  0.91399000  0.48057000  0.73374000  1.0
  H  H82  1  0.91399000  0.98059000  0.76625000  1.0
  H  H83  1  0.41400000  0.01943000  0.23375000  1.0
  C  C84  1  0.73838000  0.29721000  0.27972000  1.0
  C  C85  1  0.23840000  0.70278000  0.72028000  1.0
  C  C86  1  0.23839000  0.20280000  0.77971000  1.0
  C  C87  1  0.73839000  0.79722000  0.22027000  1.0
  C  C88  1  0.67378000  0.24965000  0.16289000  1.0
  C  C89  1  0.17381000  0.75034000  0.83711000  1.0
  C  C90  1  0.17381000  0.25036000  0.66288000  1.0
  C  C91  1  0.67379000  0.74965000  0.33710000  1.0
  C  C92  1  0.81565000  0.28171000  0.15565000  1.0
  C  C93  1  0.31567000  0.71829000  0.84435000  1.0
  C  C94  1  0.31567000  0.21830000  0.65564000  1.0
  C  C95  1  0.81565000  0.78170000  0.34435000  1.0
  C  C96  1  0.99307000  0.35598000  0.25070000  1.0
  C  C97  1  0.49310000  0.64401000  0.74930000  1.0
  C  C98  1  0.49308000  0.14402000  0.75069000  1.0
  C  C99  1  0.99308000  0.85598000  0.24931000  1.0
  C  C100  1  0.97466000  0.45454000  0.26182000  1.0
  C  C101  1  0.47468000  0.54546000  0.73818000  1.0
  C  C102  1  0.47467000  0.04546000  0.76181000  1.0
  C  C103  1  0.97468000  0.95454000  0.23819000  1.0
  C  C104  1  0.88459000  0.49748000  0.19577000  1.0
  C  C105  1  0.38460000  0.50252000  0.80423000  1.0
  C  C106  1  0.38460000  0.00252000  0.69576000  1.0
  C  C107  1  0.88460000  0.99747000  0.30424000  1.0
  C  C108  1  0.87305000  0.59666000  0.20294000  1.0
  C  C109  1  0.37306000  0.40334000  0.79706000  1.0
  C  C110  1  0.37306000  0.90334000  0.70293000  1.0
  C  C111  1  0.87305000  0.09665000  0.29707000  1.0
  C  C112  1  0.13304000  0.65434000  0.21752000  1.0
  C  C113  1  0.63305000  0.34566000  0.78248000  1.0
  C  C114  1  0.63305000  0.84566000  0.71751000  1.0
  C  C115  1  0.13303000  0.15434000  0.28249000  1.0
  C  C116  1  0.02676000  0.67841000  0.10119000  1.0
  C  C117  1  0.52678000  0.32159000  0.89880000  1.0
  C  C118  1  0.52677000  0.82159000  0.60119000  1.0
  C  C119  1  0.02675000  0.17840000  0.39881000  1.0
  C  C120  1  0.16835000  0.71199000  0.10044000  1.0
  C  C121  1  0.66836000  0.28801000  0.89955000  1.0
  C  C122  1  0.66835000  0.78800000  0.60044000  1.0
  C  C123  1  0.16834000  0.21199000  0.39957000  1.0
  C  C124  1  0.28631000  0.90045000  0.38941000  1.0
  C  C125  1  0.78629000  0.09956000  0.61060000  1.0
  C  C126  1  0.78634000  0.59955000  0.88942000  1.0
  C  C127  1  0.28632000  0.40045000  0.11059000  1.0
  C  C128  1  0.19940000  0.84651000  0.43784000  1.0
  C  C129  1  0.69937000  0.15350000  0.56218000  1.0
  C  C130  1  0.69944000  0.65349000  0.93784000  1.0
  C  C131  1  0.19941000  0.34652000  0.06216000  1.0
  C  C132  1  0.13804000  0.87833000  0.50816000  1.0
  C  C133  1  0.63802000  0.12167000  0.49185000  1.0
  C  C134  1  0.63808000  0.62167000  0.00817000  1.0
  C  C135  1  0.13806000  0.37834000  0.99184000  1.0
  C  C136  1  0.16691000  0.96478000  0.53105000  1.0
  C  C137  1  0.66691000  0.03523000  0.46895000  1.0
  C  C138  1  0.66696000  0.53522000  0.03106000  1.0
  C  C139  1  0.16695000  0.46478000  0.96894000  1.0
  C  C140  1  0.25254000  0.01884000  0.48282000  1.0
  C  C141  1  0.75253000  0.98116000  0.51719000  1.0
  C  C142  1  0.75258000  0.48116000  0.98283000  1.0
  C  C143  1  0.25256000  0.51885000  0.01719000  1.0
  C  C144  1  0.31076000  0.98742000  0.41151000  1.0
  C  C145  1  0.81074000  0.01259000  0.58850000  1.0
  C  C146  1  0.81079000  0.51257000  0.91152000  1.0
  C  C147  1  0.31077000  0.48742000  0.08850000  1.0
  C  C148  1  0.35148000  0.86424000  0.31412000  1.0
  C  C149  1  0.85149000  0.13577000  0.68588000  1.0
  C  C150  1  0.85151000  0.63575000  0.81412000  1.0
  C  C151  1  0.35149000  0.36424000  0.18589000  1.0
  C  C152  1  0.04449000  0.81837000  0.55840000  1.0
  C  C153  1  0.54448000  0.18162000  0.44160000  1.0
  C  C154  1  0.54451000  0.68162000  0.05841000  1.0
  C  C155  1  0.04451000  0.31839000  0.94159000  1.0
  N  N156  1  0.62787000  0.25937000  0.24044000  1.0
  N  N157  1  0.12788000  0.74062000  0.75956000  1.0
  N  N158  1  0.12788000  0.24064000  0.74043000  1.0
  N  N159  1  0.62787000  0.75938000  0.25955000  1.0
  N  N160  1  0.85459000  0.31159000  0.23031000  1.0
  N  N161  1  0.35461000  0.68841000  0.76969000  1.0
  N  N162  1  0.35460000  0.18841000  0.73030000  1.0
  N  N163  1  0.85460000  0.81159000  0.26969000  1.0
  N  N164  1  0.00637000  0.64227000  0.17569000  1.0
  N  N165  1  0.50638000  0.35773000  0.82431000  1.0
  N  N166  1  0.50638000  0.85773000  0.67568000  1.0
  N  N167  1  0.00637000  0.14226000  0.32432000  1.0
  N  N168  1  0.23307000  0.69603000  0.17326000  1.0
  N  N169  1  0.73309000  0.30398000  0.82674000  1.0
  N  N170  1  0.73308000  0.80397000  0.67326000  1.0
  N  N171  1  0.23307000  0.19603000  0.32675000  1.0
  O  O172  1  0.33985000  0.78031000  0.30781000  1.0
  O  O173  1  0.83984000  0.21970000  0.69220000  1.0
  O  O174  1  0.83986000  0.71969000  0.80781000  1.0
  O  O175  1  0.33983000  0.28031000  0.19220000  1.0
  O  O176  1  0.40997000  0.91336000  0.26327000  1.0
  O  O177  1  0.91001000  0.08665000  0.73673000  1.0
  O  O178  1  0.90997000  0.58664000  0.76328000  1.0
  O  O179  1  0.40999000  0.41334000  0.23673000  1.0
  O  O180  1  0.03755000  0.84254000  0.63221000  1.0
  O  O181  1  0.53755000  0.15747000  0.36780000  1.0
  O  O182  1  0.53756000  0.65746000  0.13221000  1.0
  O  O183  1  0.03758000  0.34254000  0.86778000  1.0
  O  O184  1  0.98439000  0.75268000  0.52826000  1.0
  O  O185  1  0.48438000  0.24733000  0.47174000  1.0
  O  O186  1  0.48439000  0.74732000  0.02825000  1.0
  O  O187  1  0.98439000  0.25269000  0.97174000  1.0
  O  O188  1  0.41440000  0.57824000  0.29197000  1.0
  O  O189  1  0.91441000  0.42176000  0.70802000  1.0
  O  O190  1  0.91440000  0.92176000  0.79196000  1.0
  O  O191  1  0.41443000  0.07824000  0.20803000  1.0
