# generated using pymatgen
data_CuH8C6(SN2)2
_symmetry_space_group_name_H-M   'P 1'
_cell_length_a   9.33447000
_cell_length_b   9.59988000
_cell_length_c   11.85850000
_cell_angle_alpha   96.78990000
_cell_angle_beta   96.18410000
_cell_angle_gamma   107.35600000
_symmetry_Int_Tables_number   1
_chemical_formula_structural   CuH8C6(SN2)2
_chemical_formula_sum   'Cu4 H32 C24 S8 N16'
_cell_volume   995.61354374
_cell_formula_units_Z   4
loop_
 _symmetry_equiv_pos_site_id
 _symmetry_equiv_pos_as_xyz
  1  'x, y, z'
loop_
 _atom_site_type_symbol
 _atom_site_label
 _atom_site_symmetry_multiplicity
 _atom_site_fract_x
 _atom_site_fract_y
 _atom_site_fract_z
 _atom_site_occupancy
  Cu  Cu0  1  0.22898000  0.87067000  0.87149000  1.0
  Cu  Cu1  1  0.77103000  0.12932000  0.12851000  1.0
  Cu  Cu2  1  0.00000000  0.00000000  0.50000000  1.0
  Cu  Cu3  1  0.50000000  0.50000000  0.00000000  1.0
  H  H4  1  0.18381000  0.84778000  0.48703000  1.0
  H  H5  1  0.81618000  0.15222000  0.51297000  1.0
  H  H6  1  0.15620000  0.88123000  0.62236000  1.0
  H  H7  1  0.84380000  0.11877000  0.37764000  1.0
  H  H8  1  0.77484000  0.83262000  0.34651000  1.0
  H  H9  1  0.22516000  0.16737000  0.65349000  1.0
  H  H10  1  0.73862000  0.80312000  0.47704000  1.0
  H  H11  1  0.26137000  0.19688000  0.52296000  1.0
  H  H12  1  0.48872000  0.75596000  0.07282000  1.0
  H  H13  1  0.51128000  0.24404000  0.92718000  1.0
  H  H14  1  0.34454000  0.67851000  0.96790000  1.0
  H  H15  1  0.65545000  0.32149000  0.03210000  1.0
  H  H16  1  0.51082000  0.39885000  0.18910000  1.0
  H  H17  1  0.48918000  0.60115000  0.81091000  1.0
  H  H18  1  0.33458000  0.32975000  0.12121000  1.0
  H  H19  1  0.66542000  0.67025000  0.87880000  1.0
  H  H20  1  0.03687000  0.61503000  0.52042000  1.0
  H  H21  1  0.96312000  0.38496000  0.47959000  1.0
  H  H22  1  0.92655000  0.70106000  0.60016000  1.0
  H  H23  1  0.07344000  0.29894000  0.39985000  1.0
  H  H24  1  0.93067000  0.68473000  0.33991000  1.0
  H  H25  1  0.06933000  0.31526000  0.66010000  1.0
  H  H26  1  0.77904000  0.58477000  0.40622000  1.0
  H  H27  1  0.22095000  0.41523000  0.59379000  1.0
  H  H28  1  0.19566000  0.53803000  0.08402000  1.0
  H  H29  1  0.80434000  0.46197000  0.91599000  1.0
  H  H30  1  0.28266000  0.71252000  0.17223000  1.0
  H  H31  1  0.71733000  0.28748000  0.82777000  1.0
  H  H32  1  0.30966000  0.49968000  0.27364000  1.0
  H  H33  1  0.69033000  0.50032000  0.72636000  1.0
  H  H34  1  0.48793000  0.62381000  0.25840000  1.0
  H  H35  1  0.51206000  0.37619000  0.74161000  1.0
  C  C36  1  0.56583000  0.06192000  0.64762000  1.0
  C  C37  1  0.43418000  0.93808000  0.35238000  1.0
  C  C38  1  0.45519000  0.96991000  0.70169000  1.0
  C  C39  1  0.54481000  0.03009000  0.29831000  1.0
  C  C40  1  0.42681000  0.81805000  0.68671000  1.0
  C  C41  1  0.57320000  0.18196000  0.31328000  1.0
  C  C42  1  0.50918000  0.75099000  0.61685000  1.0
  C  C43  1  0.49082000  0.24901000  0.38315000  1.0
  C  C44  1  0.87152000  0.72333000  0.08887000  1.0
  C  C45  1  0.12850000  0.27668000  0.91113000  1.0
  C  C46  1  0.00072000  0.79509000  0.04096000  1.0
  C  C47  1  0.99930000  0.20492000  0.95903000  1.0
  C  C48  1  0.11313000  0.91968000  0.10226000  1.0
  C  C49  1  0.88688000  0.08033000  0.89773000  1.0
  C  C50  1  0.09750000  0.97981000  0.21306000  1.0
  C  C51  1  0.90251000  0.02020000  0.78693000  1.0
  C  C52  1  0.98547000  0.70439000  0.52467000  1.0
  C  C53  1  0.01452000  0.29560000  0.47533000  1.0
  C  C54  1  0.87453000  0.68786000  0.41651000  1.0
  C  C55  1  0.12546000  0.31214000  0.58349000  1.0
  C  C56  1  0.30486000  0.61613000  0.12713000  1.0
  C  C57  1  0.69513000  0.38387000  0.87287000  1.0
  C  C58  1  0.38268000  0.54319000  0.21076000  1.0
  C  C59  1  0.61732000  0.45681000  0.78924000  1.0
  S  S60  1  0.35562000  0.05632000  0.78558000  1.0
  S  S61  1  0.64439000  0.94368000  0.21442000  1.0
  S  S62  1  0.29271000  0.70159000  0.75219000  1.0
  S  S63  1  0.70730000  0.29840000  0.24780000  1.0
  S  S64  1  0.00798000  0.71991000  0.90281000  1.0
  S  S65  1  0.99203000  0.28009000  0.09718000  1.0
  S  S66  1  0.27615000  0.00586000  0.04875000  1.0
  S  S67  1  0.72386000  0.99414000  0.95124000  1.0
  N  N68  1  0.65708000  0.14317000  0.60540000  1.0
  N  N69  1  0.34292000  0.85684000  0.39459000  1.0
  N  N70  1  0.57788000  0.69288000  0.56134000  1.0
  N  N71  1  0.42212000  0.30711000  0.43866000  1.0
  N  N72  1  0.76126000  0.65911000  0.12351000  1.0
  N  N73  1  0.23875000  0.34091000  0.87649000  1.0
  N  N74  1  0.08739000  0.03113000  0.30542000  1.0
  N  N75  1  0.91261000  0.96887000  0.69457000  1.0
  N  N76  1  0.10247000  0.85049000  0.53902000  1.0
  N  N77  1  0.89752000  0.14951000  0.46099000  1.0
  N  N78  1  0.82194000  0.81894000  0.42521000  1.0
  N  N79  1  0.17805000  0.18105000  0.57479000  1.0
  N  N80  1  0.40364000  0.65850000  0.03903000  1.0
  N  N81  1  0.59635000  0.34150000  0.96097000  1.0
  N  N82  1  0.42488000  0.42517000  0.14352000  1.0
  N  N83  1  0.57513000  0.57484000  0.85649000  1.0
