# generated using pymatgen
data_Zr3H17C45O16
_symmetry_space_group_name_H-M   'P 1'
_cell_length_a   17.45730000
_cell_length_b   17.46180000
_cell_length_c   17.46780000
_cell_angle_alpha   93.58180000
_cell_angle_beta   93.52560000
_cell_angle_gamma   93.58730000
_symmetry_Int_Tables_number   1
_chemical_formula_structural   Zr3H17C45O16
_chemical_formula_sum   'Zr6 H34 C90 O32'
_cell_volume   5292.55212853
_cell_formula_units_Z   2
loop_
 _symmetry_equiv_pos_site_id
 _symmetry_equiv_pos_as_xyz
  1  'x, y, z'
loop_
 _atom_site_type_symbol
 _atom_site_label
 _atom_site_symmetry_multiplicity
 _atom_site_fract_x
 _atom_site_fract_y
 _atom_site_fract_z
 _atom_site_occupancy
  Zr  Zr0  1  0.01754000  0.19592000  0.14452000  1.0
  Zr  Zr1  1  0.13205000  0.23661000  0.98957000  1.0
  Zr  Zr2  1  0.98038000  0.00391000  0.06666000  1.0
  Zr  Zr3  1  0.17248000  0.08146000  0.10356000  1.0
  Zr  Zr4  1  0.93985000  0.15919000  0.95265000  1.0
  Zr  Zr5  1  0.09462000  0.04474000  0.91164000  1.0
  H  H6  1  0.71134000  0.07961000  0.38920000  1.0
  H  H7  1  0.74064000  0.08583000  0.63655000  1.0
  H  H8  1  0.93277000  0.04336000  0.49978000  1.0
  H  H9  1  0.17953000  0.18678000  0.56040000  1.0
  H  H10  1  0.36613000  0.13963000  0.41767000  1.0
  H  H11  1  0.40403000  0.15204000  0.66466000  1.0
  H  H12  1  0.41715000  0.77497000  0.98697000  1.0
  H  H13  1  0.66465000  0.80517000  0.99314000  1.0
  H  H14  1  0.52727000  0.99674000  0.95083000  1.0
  H  H15  1  0.58891000  0.24414000  0.09509000  1.0
  H  H16  1  0.44598000  0.43018000  0.04713000  1.0
  H  H17  1  0.69312000  0.46864000  0.05981000  1.0
  H  H18  1  0.01976000  0.48217000  0.68291000  1.0
  H  H19  1  0.03030000  0.72962000  0.71503000  1.0
  H  H20  1  0.98027000  0.59142000  0.90410000  1.0
  H  H21  1  0.09755000  0.75807000  0.37730000  1.0
  H  H22  1  0.08115000  0.51091000  0.34034000  1.0
  H  H23  1  0.12435000  0.65202000  0.15163000  1.0
  H  H24  1  0.17715000  0.24069000  0.14889000  1.0
  H  H25  1  0.87522000  0.11799000  0.09203000  1.0
  H  H26  1  0.11965000  0.93934000  0.02536000  1.0
  H  H27  1  0.05377000  0.18426000  0.84736000  1.0
  H  H28  1  0.97408000  0.71081000  0.59230000  1.0
  H  H29  1  0.11565000  0.51753000  0.60144000  1.0
  H  H30  1  0.14208000  0.52919000  0.46547000  1.0
  H  H31  1  0.00068000  0.72259000  0.45656000  1.0
  H  H32  1  0.65931000  0.58403000  0.11259000  1.0
  H  H33  1  0.46069000  0.51975000  0.95750000  1.0
  H  H34  1  0.44901000  0.65577000  0.93197000  1.0
  H  H35  1  0.64774000  0.71990000  0.08677000  1.0
  H  H36  1  0.59188000  0.02461000  0.42079000  1.0
  H  H37  1  0.65546000  0.17940000  0.61968000  1.0
  H  H38  1  0.51949000  0.20505000  0.63104000  1.0
  H  H39  1  0.45575000  0.05001000  0.43229000  1.0
  C  C40  1  0.82481000  0.05929000  0.43635000  1.0
  C  C41  1  0.74682000  0.07380000  0.44179000  1.0
  C  C42  1  0.71556000  0.08387000  0.51350000  1.0
  C  C43  1  0.76351000  0.07906000  0.58005000  1.0
  C  C44  1  0.84152000  0.06408000  0.57564000  1.0
  C  C45  1  0.87226000  0.05392000  0.50355000  1.0
  C  C46  1  0.28934000  0.17172000  0.62077000  1.0
  C  C47  1  0.23963000  0.17551000  0.55485000  1.0
  C  C48  1  0.26774000  0.16332000  0.48175000  1.0
  C  C49  1  0.34541000  0.14792000  0.47499000  1.0
  C  C50  1  0.39562000  0.14481000  0.54025000  1.0
  C  C51  1  0.36682000  0.15658000  0.61296000  1.0
  C  C52  1  0.46408000  0.88859000  0.96676000  1.0
  C  C53  1  0.46970000  0.81064000  0.98118000  1.0
  C  C54  1  0.54155000  0.77964000  0.99120000  1.0
  C  C55  1  0.60804000  0.82782000  0.98639000  1.0
  C  C56  1  0.60342000  0.90580000  0.97148000  1.0
  C  C57  1  0.53121000  0.93628000  0.96140000  1.0
  C  C58  1  0.64929000  0.35395000  0.07971000  1.0
  C  C59  1  0.58335000  0.30417000  0.08362000  1.0
  C  C60  1  0.51017000  0.33204000  0.07121000  1.0
  C  C61  1  0.50335000  0.40961000  0.05550000  1.0
  C  C62  1  0.56861000  0.45994000  0.05239000  1.0
  C  C63  1  0.64140000  0.43135000  0.06442000  1.0
  C  C64  1  0.99976000  0.52875000  0.79671000  1.0
  C  C65  1  0.01591000  0.53466000  0.71922000  1.0
  C  C66  1  0.02607000  0.60661000  0.68845000  1.0
  C  C67  1  0.02017000  0.67289000  0.73657000  1.0
  C  C68  1  0.00314000  0.66793000  0.81396000  1.0
  C  C69  1  0.99266000  0.59564000  0.84412000  1.0
  C  C70  1  0.11158000  0.71331000  0.26151000  1.0
  C  C71  1  0.09890000  0.70612000  0.33960000  1.0
  C  C72  1  0.08853000  0.63365000  0.36918000  1.0
  C  C73  1  0.09135000  0.56793000  0.31948000  1.0
  C  C74  1  0.10478000  0.57407000  0.24127000  1.0
  C  C75  1  0.11504000  0.64698000  0.21223000  1.0
  C  C76  1  0.91931000  0.06830000  0.23016000  1.0
  C  C77  1  0.09595000  0.36477000  0.12520000  1.0
  C  C78  1  0.15258000  0.15893000  0.27261000  1.0
  C  C79  1  0.85802000  0.26429000  0.07780000  1.0
  C  C80  1  0.19988000  0.16970000  0.82964000  1.0
  C  C81  1  0.00809000  0.87818000  0.92695000  1.0
  C  C82  1  0.30102000  0.21650000  0.06682000  1.0
  C  C83  1  0.00512000  0.32261000  0.89145000  1.0
  C  C84  1  0.81384000  0.01943000  0.98016000  1.0
  C  C85  1  0.10573000  0.92172000  0.17130000  1.0
  C  C86  1  0.25799000  0.98329000  0.97594000  1.0
  C  C87  1  0.95482000  0.07269000  0.78602000  1.0
  C  C88  1  0.11766000  0.78744000  0.23254000  1.0
  C  C89  1  0.11826000  0.85112000  0.20771000  1.0
  C  C90  1  0.10340000  0.44270000  0.15826000  1.0
  C  C91  1  0.10546000  0.50530000  0.19360000  1.0
  C  C92  1  0.99897000  0.80060000  0.89330000  1.0
  C  C93  1  0.99917000  0.73736000  0.85969000  1.0
  C  C94  1  0.99233000  0.39314000  0.85513000  1.0
  C  C95  1  0.99339000  0.45556000  0.82760000  1.0
  C  C96  1  0.01201000  0.67153000  0.56508000  1.0
  C  C97  1  0.04272000  0.61321000  0.60705000  1.0
  C  C98  1  0.08927000  0.56192000  0.56955000  1.0
  C  C99  1  0.10429000  0.56856000  0.49283000  1.0
  C  C100  1  0.07337000  0.62678000  0.45088000  1.0
  C  C101  1  0.02706000  0.67822000  0.48846000  1.0
  C  C102  1  0.72369000  0.32579000  0.08741000  1.0
  C  C103  1  0.78749000  0.30114000  0.08968000  1.0
  C  C104  1  0.44165000  0.28430000  0.07349000  1.0
  C  C105  1  0.37913000  0.24901000  0.07288000  1.0
  C  C106  1  0.67306000  0.95166000  0.96886000  1.0
  C  C107  1  0.73633000  0.98553000  0.97010000  1.0
  C  C108  1  0.32855000  0.94733000  0.96227000  1.0
  C  C109  1  0.39095000  0.91984000  0.96192000  1.0
  C  C110  1  0.61377000  0.59929000  0.07185000  1.0
  C  C111  1  0.56112000  0.54149000  0.03679000  1.0
  C  C112  1  0.50131000  0.56354000  0.98694000  1.0
  C  C113  1  0.49465000  0.64040000  0.97252000  1.0
  C  C114  1  0.54761000  0.69806000  0.00722000  1.0
  C  C115  1  0.60716000  0.67607000  0.05735000  1.0
  C  C116  1  0.26101000  0.17931000  0.69512000  1.0
  C  C117  1  0.23650000  0.18153000  0.75897000  1.0
  C  C118  1  0.18504000  0.16499000  0.35068000  1.0
  C  C119  1  0.22014000  0.16559000  0.41323000  1.0
  C  C120  1  0.92082000  0.06267000  0.70862000  1.0
  C  C121  1  0.88716000  0.06141000  0.64532000  1.0
  C  C122  1  0.85615000  0.05438000  0.36329000  1.0
  C  C123  1  0.88353000  0.05466000  0.30083000  1.0
  C  C124  1  0.57637000  0.06517000  0.46641000  1.0
  C  C125  1  0.63392000  0.09991000  0.51943000  1.0
  C  C126  1  0.61175000  0.14998000  0.57901000  1.0
  C  C127  1  0.53492000  0.16440000  0.58549000  1.0
  C  C128  1  0.47723000  0.12931000  0.53278000  1.0
  C  C129  1  0.49944000  0.07952000  0.47295000  1.0
  O  O130  1  0.92124000  0.01309000  0.17934000  1.0
  O  O131  1  0.12958000  0.34796000  0.06430000  1.0
  O  O132  1  0.09188000  0.19287000  0.25587000  1.0
  O  O133  1  0.90751000  0.26080000  0.13380000  1.0
  O  O134  1  0.86225000  0.23609000  0.00884000  1.0
  O  O135  1  0.19061000  0.11895000  0.22587000  1.0
  O  O136  1  0.05534000  0.31820000  0.16283000  1.0
  O  O137  1  0.94590000  0.13780000  0.22595000  1.0
  O  O138  1  0.02344000  0.21592000  0.02929000  1.0
  O  O139  1  0.05711000  0.08731000  0.12362000  1.0
  O  O140  1  0.14276000  0.20658000  0.11459000  1.0
  O  O141  1  0.92635000  0.11912000  0.07318000  1.0
  O  O142  1  0.19675000  0.22574000  0.87921000  1.0
  O  O143  1  0.97625000  0.89473000  0.98903000  1.0
  O  O144  1  0.28413000  0.15584000  0.10077000  1.0
  O  O145  1  0.94965000  0.27210000  0.89345000  1.0
  O  O146  1  0.83053000  0.08163000  0.94859000  1.0
  O  O147  1  0.16165000  0.97148000  0.16807000  1.0
  O  O148  1  0.20718000  0.98530000  0.92079000  1.0
  O  O149  1  0.01693000  0.04092000  0.80254000  1.0
  O  O150  1  0.25383000  0.00994000  0.04541000  1.0
  O  O151  1  0.91829000  0.11526000  0.83178000  1.0
  O  O152  1  0.25429000  0.25449000  0.02683000  1.0
  O  O153  1  0.03669000  0.92583000  0.14329000  1.0
  O  O154  1  0.85952000  0.98274000  0.02259000  1.0
  O  O155  1  0.07446000  0.31824000  0.91848000  1.0
  O  O156  1  0.17151000  0.10078000  0.83384000  1.0
  O  O157  1  0.05018000  0.92413000  0.89015000  1.0
  O  O158  1  0.99277000  0.05722000  0.96493000  1.0
  O  O159  1  0.15173000  0.12122000  0.99513000  1.0
  O  O160  1  0.10089000  0.99048000  0.02661000  1.0
  O  O161  1  0.05493000  0.16542000  0.89845000  1.0
