# generated using pymatgen
data_CuH12C15(NO)4
_symmetry_space_group_name_H-M   'P 1'
_cell_length_a   4.87603000
_cell_length_b   11.15254706
_cell_length_c   15.68850000
_cell_angle_alpha   102.67392227
_cell_angle_beta   90.03070000
_cell_angle_gamma   102.60968019
_symmetry_Int_Tables_number   1
_chemical_formula_structural   CuH12C15(NO)4
_chemical_formula_sum   'Cu2 H24 C30 N8 O8'
_cell_volume   811.22762532
_cell_formula_units_Z   2
loop_
 _symmetry_equiv_pos_site_id
 _symmetry_equiv_pos_as_xyz
  1  'x, y, z'
loop_
 _atom_site_type_symbol
 _atom_site_label
 _atom_site_symmetry_multiplicity
 _atom_site_fract_x
 _atom_site_fract_y
 _atom_site_fract_z
 _atom_site_occupancy
  Cu  Cu0  1  0.50000000  0.00000000  0.50000000  1.0
  Cu  Cu1  1  0.50000000  0.00000000  0.00000000  1.0
  H  H2  1  0.27803000  0.74828000  0.34476000  1.0
  H  H3  1  0.52921000  0.25129000  0.15531000  1.0
  H  H4  1  0.72198000  0.25172000  0.65524000  1.0
  H  H5  1  0.47078000  0.74871000  0.84470000  1.0
  H  H6  1  0.88382000  0.75781000  0.21745000  1.0
  H  H7  1  0.12528000  0.24165000  0.28240000  1.0
  H  H8  1  0.11619000  0.24219000  0.78255000  1.0
  H  H9  1  0.87471000  0.75835000  0.71761000  1.0
  H  H10  1  0.03079000  0.09622000  0.41315000  1.0
  H  H11  1  0.93438000  0.90337000  0.08655000  1.0
  H  H12  1  0.96920000  0.90377000  0.58685000  1.0
  H  H13  1  0.06561000  0.09663000  0.91345000  1.0
  H  H14  1  0.66555000  0.07133000  0.29324000  1.0
  H  H15  1  0.59394000  0.92823000  0.20645000  1.0
  H  H16  1  0.33444000  0.92866000  0.70676000  1.0
  H  H17  1  0.40605000  0.07176000  0.79355000  1.0
  H  H18  1  0.82224000  0.42310000  0.38888000  1.0
  H  H19  1  0.39944000  0.57702000  0.11109000  1.0
  H  H20  1  0.17774000  0.57689000  0.61112000  1.0
  H  H21  1  0.60055000  0.42297000  0.88891000  1.0
  H  H22  1  0.23493000  0.35279000  0.58530000  1.0
  H  H23  1  0.88155000  0.64696000  0.91449000  1.0
  H  H24  1  0.76508000  0.64721000  0.41470000  1.0
  H  H25  1  0.11845000  0.35304000  0.08551000  1.0
  C  C26  1  0.16767000  0.82107000  0.33990000  1.0
  C  C27  1  0.34613000  0.17848000  0.16009000  1.0
  C  C28  1  0.83233000  0.17893000  0.66010000  1.0
  C  C29  1  0.65386000  0.82152000  0.83991000  1.0
  C  C30  1  0.97334000  0.82404000  0.27746000  1.0
  C  C31  1  0.14870000  0.17546000  0.22241000  1.0
  C  C32  1  0.02666000  0.17596000  0.72254000  1.0
  C  C33  1  0.85128000  0.82454000  0.77760000  1.0
  C  C34  1  0.04986000  0.00298000  0.37901000  1.0
  C  C35  1  0.04654000  0.99661000  0.12076000  1.0
  C  C36  1  0.95014000  0.99702000  0.62099000  1.0
  C  C37  1  0.95346000  0.00340000  0.87924000  1.0
  C  C38  1  0.75406000  0.99976000  0.24986000  1.0
  C  C39  1  0.24593000  0.00024000  0.75014000  1.0
  C  C40  1  0.68017000  0.45792000  0.43687000  1.0
  C  C41  1  0.22247000  0.54217000  0.06309000  1.0
  C  C42  1  0.31983000  0.54208000  0.56313000  1.0
  C  C43  1  0.77753000  0.45783000  0.93690000  1.0
  C  C44  1  0.53153000  0.37542000  0.48535000  1.0
  C  C45  1  0.15619000  0.62457000  0.01449000  1.0
  C  C46  1  0.46849000  0.62459000  0.51465000  1.0
  C  C47  1  0.84381000  0.37543000  0.98551000  1.0
  C  C48  1  0.35101000  0.41827000  0.54868000  1.0
  C  C49  1  0.93254000  0.58163000  0.95120000  1.0
  C  C50  1  0.64900000  0.58174000  0.45132000  1.0
  C  C51  1  0.06746000  0.41837000  0.04880000  1.0
  C  C52  1  0.57010000  0.24253000  0.46860000  1.0
  C  C53  1  0.32751000  0.75745000  0.03115000  1.0
  C  C54  1  0.42991000  0.75747000  0.53140000  1.0
  C  C55  1  0.67250000  0.24255000  0.96885000  1.0
  N  N56  1  0.21408000  0.93373000  0.40242000  1.0
  N  N57  1  0.28001000  0.06591000  0.09749000  1.0
  N  N58  1  0.78593000  0.06627000  0.59758000  1.0
  N  N59  1  0.71997000  0.93409000  0.90251000  1.0
  N  N60  1  0.89938000  0.93933000  0.30376000  1.0
  N  N61  1  0.95957000  0.06019000  0.19598000  1.0
  N  N62  1  0.10063000  0.06067000  0.69624000  1.0
  N  N63  1  0.04042000  0.93981000  0.80402000  1.0
  O  O64  1  0.42919000  0.17252000  0.51702000  1.0
  O  O65  1  0.25648000  0.82740000  0.98266000  1.0
  O  O66  1  0.57082000  0.82748000  0.48297000  1.0
  O  O67  1  0.74351000  0.17260000  0.01735000  1.0
  O  O68  1  0.72996000  0.20633000  0.41068000  1.0
  O  O69  1  0.52363000  0.79376000  0.08910000  1.0
  O  O70  1  0.27005000  0.79367000  0.58932000  1.0
  O  O71  1  0.47638000  0.20624000  0.91090000  1.0
