# generated using pymatgen
data_CoH14(C5O2)2
_symmetry_space_group_name_H-M   'P 1'
_cell_length_a   6.78229000
_cell_length_b   12.41010000
_cell_length_c   12.59320000
_cell_angle_alpha   89.93690000
_cell_angle_beta   76.17200000
_cell_angle_gamma   89.95110000
_symmetry_Int_Tables_number   1
_chemical_formula_structural   CoH14(C5O2)2
_chemical_formula_sum   'Co4 H56 C40 O16'
_cell_volume   1029.23487351
_cell_formula_units_Z   4
loop_
 _symmetry_equiv_pos_site_id
 _symmetry_equiv_pos_as_xyz
  1  'x, y, z'
loop_
 _atom_site_type_symbol
 _atom_site_label
 _atom_site_symmetry_multiplicity
 _atom_site_fract_x
 _atom_site_fract_y
 _atom_site_fract_z
 _atom_site_occupancy
  Co  Co0  1  0.69819000  0.92931000  0.24163000  1.0
  Co  Co1  1  0.30173000  0.42849000  0.75931000  1.0
  Co  Co2  1  0.19346000  0.02372000  0.24195000  1.0
  Co  Co3  1  0.80667000  0.52274000  0.75764000  1.0
  H  H4  1  0.71160000  0.25107000  0.78342000  1.0
  H  H5  1  0.28959000  0.75071000  0.21615000  1.0
  H  H6  1  0.06728000  0.10280000  0.76256000  1.0
  H  H7  1  0.93242000  0.60367000  0.23609000  1.0
  H  H8  1  0.85614000  0.09103000  0.70477000  1.0
  H  H9  1  0.14124000  0.59156000  0.29569000  1.0
  H  H10  1  0.91289000  0.00058000  0.91782000  1.0
  H  H11  1  0.08855000  0.49988000  0.08284000  1.0
  H  H12  1  0.74274000  0.95592000  0.84135000  1.0
  H  H13  1  0.25857000  0.45635000  0.16003000  1.0
  H  H14  1  0.38768000  0.00956000  0.89784000  1.0
  H  H15  1  0.61306000  0.50903000  0.10238000  1.0
  H  H16  1  0.47069000  0.12811000  0.82196000  1.0
  H  H17  1  0.53147000  0.62818000  0.17740000  1.0
  H  H18  1  0.31677000  0.13786000  0.95689000  1.0
  H  H19  1  0.68456000  0.63683000  0.04212000  1.0
  H  H20  1  0.45646000  0.30300000  0.93743000  1.0
  H  H21  1  0.54492000  0.80242000  0.06214000  1.0
  H  H22  1  0.64283000  0.37510000  0.98557000  1.0
  H  H23  1  0.35943000  0.87469000  0.01319000  1.0
  H  H24  1  0.48263000  0.28103000  0.07256000  1.0
  H  H25  1  0.51948000  0.78000000  0.92698000  1.0
  H  H26  1  0.81119000  0.20396000  0.10398000  1.0
  H  H27  1  0.19062000  0.70369000  0.89557000  1.0
  H  H28  1  0.96090000  0.29210000  0.00749000  1.0
  H  H29  1  0.04072000  0.79213000  0.99159000  1.0
  H  H30  1  0.99918000  0.15040000  0.99514000  1.0
  H  H31  1  0.00223000  0.65045000  0.00441000  1.0
  H  H32  1  0.48232000  0.38363000  0.51562000  1.0
  H  H33  1  0.51666000  0.88238000  0.48453000  1.0
  H  H34  1  0.88152000  0.48352000  0.40240000  1.0
  H  H35  1  0.11849000  0.98334000  0.59773000  1.0
  H  H36  1  0.64506000  0.49462000  0.36924000  1.0
  H  H37  1  0.35518000  0.99324000  0.63083000  1.0
  H  H38  1  0.76973000  0.36581000  0.22920000  1.0
  H  H39  1  0.22821000  0.86475000  0.77110000  1.0
  H  H40  1  0.97874000  0.33564000  0.28402000  1.0
  H  H41  1  0.01994000  0.83488000  0.71568000  1.0
  H  H42  1  0.49060000  0.23240000  0.25733000  1.0
  H  H43  1  0.50833000  0.73152000  0.74300000  1.0
  H  H44  1  0.40899000  0.31781000  0.37180000  1.0
  H  H45  1  0.58988000  0.81678000  0.62827000  1.0
  H  H46  1  0.39956000  0.17539000  0.38876000  1.0
  H  H47  1  0.59934000  0.67435000  0.61175000  1.0
  H  H48  1  0.61299000  0.09904000  0.54101000  1.0
  H  H49  1  0.38552000  0.59824000  0.45942000  1.0
  H  H50  1  0.41055000  0.19384000  0.55868000  1.0
  H  H51  1  0.58812000  0.69283000  0.44172000  1.0
  H  H52  1  0.57810000  0.19803000  0.64612000  1.0
  H  H53  1  0.42058000  0.69738000  0.35424000  1.0
  H  H54  1  0.93451000  0.26113000  0.58313000  1.0
  H  H55  1  0.06415000  0.76024000  0.41717000  1.0
  H  H56  1  0.03955000  0.29656000  0.44498000  1.0
  H  H57  1  0.95912000  0.79603000  0.55517000  1.0
  H  H58  1  0.98142000  0.16003000  0.48123000  1.0
  H  H59  1  0.01725000  0.65943000  0.51951000  1.0
  C  C60  1  0.63158000  0.09211000  0.94931000  1.0
  C  C61  1  0.36924000  0.59179000  0.05080000  1.0
  C  C62  1  0.72516000  0.20934000  0.94816000  1.0
  C  C63  1  0.27602000  0.70919000  0.05150000  1.0
  C  C64  1  0.82912000  0.22121000  0.82296000  1.0
  C  C65  1  0.17185000  0.72135000  0.17660000  1.0
  C  C66  1  0.90130000  0.10768000  0.78122000  1.0
  C  C67  1  0.09834000  0.60811000  0.21857000  1.0
  C  C68  1  0.80272000  0.02830000  0.87272000  1.0
  C  C69  1  0.19817000  0.52829000  0.12787000  1.0
  C  C70  1  0.57883000  0.04906000  0.06657000  1.0
  C  C71  1  0.42107000  0.54850000  0.93368000  1.0
  C  C72  1  0.99178000  0.30574000  0.80117000  1.0
  C  C73  1  0.00991000  0.80648000  0.19834000  1.0
  C  C74  1  0.44033000  0.09249000  0.90409000  1.0
  C  C75  1  0.56097000  0.59203000  0.09559000  1.0
  C  C76  1  0.56683000  0.29682000  0.98802000  1.0
  C  C77  1  0.43494000  0.79627000  0.01134000  1.0
  C  C78  1  0.88370000  0.21359000  0.01692000  1.0
  C  C79  1  0.11777000  0.71354000  0.98254000  1.0
  C  C80  1  0.70674000  0.24462000  0.35924000  1.0
  C  C81  1  0.29210000  0.74374000  0.64106000  1.0
  C  C82  1  0.71277000  0.25871000  0.48358000  1.0
  C  C83  1  0.28596000  0.75793000  0.51671000  1.0
  C  C84  1  0.64903000  0.38033000  0.50041000  1.0
  C  C85  1  0.34993000  0.87946000  0.49971000  1.0
  C  C86  1  0.75027000  0.43696000  0.39212000  1.0
  C  C87  1  0.24923000  0.93616000  0.60795000  1.0
  C  C88  1  0.81385000  0.34735000  0.30565000  1.0
  C  C89  1  0.18484000  0.84649000  0.69445000  1.0
  C  C90  1  0.81531000  0.14035000  0.31396000  1.0
  C  C91  1  0.18355000  0.63947000  0.68638000  1.0
  C  C92  1  0.69932000  0.42776000  0.60028000  1.0
  C  C93  1  0.30017000  0.92711000  0.39963000  1.0
  C  C94  1  0.48832000  0.24196000  0.34428000  1.0
  C  C95  1  0.51051000  0.74099000  0.65602000  1.0
  C  C96  1  0.56975000  0.18314000  0.56146000  1.0
  C  C97  1  0.42891000  0.68232000  0.43890000  1.0
  C  C98  1  0.92968000  0.24342000  0.49834000  1.0
  C  C99  1  0.06903000  0.74275000  0.50203000  1.0
  O  O100  1  0.70657000  0.98791000  0.09626000  1.0
  O  O101  1  0.29218000  0.48800000  0.90440000  1.0
  O  O102  1  0.41127000  0.08151000  0.12879000  1.0
  O  O103  1  0.58900000  0.58017000  0.87132000  1.0
  O  O104  1  0.17972000  0.28141000  0.76918000  1.0
  O  O105  1  0.82194000  0.78248000  0.23110000  1.0
  O  O106  1  0.94941000  0.40684000  0.81651000  1.0
  O  O107  1  0.05346000  0.90729000  0.18232000  1.0
  O  O108  1  0.71145000  0.05299000  0.33496000  1.0
  O  O109  1  0.28713000  0.55202000  0.66530000  1.0
  O  O110  1  0.99950000  0.14467000  0.26038000  1.0
  O  O111  1  0.99931000  0.64408000  0.73995000  1.0
  O  O112  1  0.59540000  0.40124000  0.69726000  1.0
  O  O113  1  0.40440000  0.90024000  0.30289000  1.0
  O  O114  1  0.84634000  0.49258000  0.59498000  1.0
  O  O115  1  0.15372000  0.99235000  0.40475000  1.0
