# generated using pymatgen
data_CoH8C10(NO2)2
_symmetry_space_group_name_H-M   'P 1'
_cell_length_a   4.86954000
_cell_length_b   10.70250000
_cell_length_c   19.42320000
_cell_angle_alpha   95.15050000
_cell_angle_beta   89.99990000
_cell_angle_gamma   89.99990000
_symmetry_Int_Tables_number   1
_chemical_formula_structural   CoH8C10(NO2)2
_chemical_formula_sum   'Co4 H32 C40 N8 O16'
_cell_volume   1008.17719125
_cell_formula_units_Z   4
loop_
 _symmetry_equiv_pos_site_id
 _symmetry_equiv_pos_as_xyz
  1  'x, y, z'
loop_
 _atom_site_type_symbol
 _atom_site_label
 _atom_site_symmetry_multiplicity
 _atom_site_fract_x
 _atom_site_fract_y
 _atom_site_fract_z
 _atom_site_occupancy
  Co  Co0  1  0.36905000  0.65241000  0.71790000  1.0
  Co  Co1  1  0.86906000  0.34759000  0.78210000  1.0
  Co  Co2  1  0.63095000  0.34759000  0.28210000  1.0
  Co  Co3  1  0.13094000  0.65241000  0.21790000  1.0
  H  H4  1  0.74504000  0.82643000  0.81955000  1.0
  H  H5  1  0.24506000  0.17357000  0.68045000  1.0
  H  H6  1  0.25495000  0.17357000  0.18045000  1.0
  H  H7  1  0.75495000  0.82643000  0.31955000  1.0
  H  H8  1  0.01077000  0.92376000  0.92033000  1.0
  H  H9  1  0.51080000  0.07624000  0.57968000  1.0
  H  H10  1  0.98921000  0.07625000  0.07968000  1.0
  H  H11  1  0.48922000  0.92376000  0.42033000  1.0
  H  H12  1  0.54724000  0.70523000  0.05623000  1.0
  H  H13  1  0.04726000  0.29476000  0.44376000  1.0
  H  H14  1  0.45274000  0.29476000  0.94376000  1.0
  H  H15  1  0.95276000  0.70524000  0.55624000  1.0
  H  H16  1  0.91203000  0.86317000  0.03902000  1.0
  H  H17  1  0.41205000  0.13683000  0.46098000  1.0
  H  H18  1  0.08796000  0.13683000  0.96098000  1.0
  H  H19  1  0.58797000  0.86317000  0.53902000  1.0
  H  H20  1  0.07066000  0.95662000  0.72893000  1.0
  H  H21  1  0.57066000  0.04339000  0.77107000  1.0
  H  H22  1  0.92934000  0.04339000  0.27107000  1.0
  H  H23  1  0.42934000  0.95661000  0.22893000  1.0
  H  H24  1  0.85017000  0.98532000  0.65922000  1.0
  H  H25  1  0.35017000  0.01469000  0.84078000  1.0
  H  H26  1  0.14983000  0.01469000  0.34078000  1.0
  H  H27  1  0.64983000  0.98532000  0.15922000  1.0
  H  H28  1  0.17157000  0.90480000  0.64376000  1.0
  H  H29  1  0.67158000  0.09520000  0.85624000  1.0
  H  H30  1  0.82843000  0.09520000  0.35624000  1.0
  H  H31  1  0.32842000  0.90480000  0.14376000  1.0
  H  H32  1  0.80991000  0.42720000  0.99157000  1.0
  H  H33  1  0.30992000  0.57280000  0.50843000  1.0
  H  H34  1  0.19008000  0.57280000  0.00843000  1.0
  H  H35  1  0.69009000  0.42720000  0.49157000  1.0
  C  C36  1  0.49684000  0.71268000  0.88045000  1.0
  C  C37  1  0.99685000  0.28732000  0.61955000  1.0
  C  C38  1  0.50315000  0.28732000  0.11955000  1.0
  C  C39  1  0.00316000  0.71268000  0.38045000  1.0
  C  C40  1  0.44404000  0.67923000  0.94833000  1.0
  C  C41  1  0.94405000  0.32076000  0.55167000  1.0
  C  C42  1  0.55595000  0.32076000  0.05167000  1.0
  C  C43  1  0.05596000  0.67923000  0.44833000  1.0
  C  C44  1  0.10791000  0.52848000  0.90475000  1.0
  C  C45  1  0.60791000  0.47151000  0.59525000  1.0
  C  C46  1  0.89209000  0.47151000  0.09525000  1.0
  C  C47  1  0.39209000  0.52848000  0.40475000  1.0
  C  C48  1  0.17298000  0.56606000  0.83521000  1.0
  C  C49  1  0.67298000  0.43395000  0.66479000  1.0
  C  C50  1  0.82702000  0.43395000  0.16479000  1.0
  C  C51  1  0.32702000  0.56605000  0.33521000  1.0
  C  C52  1  0.85496000  0.79417000  0.68614000  1.0
  C  C53  1  0.35497000  0.20583000  0.81386000  1.0
  C  C54  1  0.14503000  0.20584000  0.31387000  1.0
  C  C55  1  0.64503000  0.79417000  0.18613000  1.0
  C  C56  1  0.70300000  0.80190000  0.87169000  1.0
  C  C57  1  0.20301000  0.19810000  0.62831000  1.0
  C  C58  1  0.29699000  0.19810000  0.12831000  1.0
  C  C59  1  0.79700000  0.80190000  0.37169000  1.0
  C  C60  1  0.84890000  0.85619000  0.92821000  1.0
  C  C61  1  0.34892000  0.14381000  0.57179000  1.0
  C  C62  1  0.15108000  0.14381000  0.07180000  1.0
  C  C63  1  0.65110000  0.85619000  0.42821000  1.0
  C  C64  1  0.59111000  0.73457000  0.00508000  1.0
  C  C65  1  0.09112000  0.26543000  0.49492000  1.0
  C  C66  1  0.40888000  0.26543000  0.99492000  1.0
  C  C67  1  0.90889000  0.73457000  0.50508000  1.0
  C  C68  1  0.79324000  0.82271000  0.99500000  1.0
  C  C69  1  0.29326000  0.17729000  0.50500000  1.0
  C  C70  1  0.20674000  0.17729000  0.00500000  1.0
  C  C71  1  0.70675000  0.82271000  0.49500000  1.0
  C  C72  1  0.99387000  0.91770000  0.67818000  1.0
  C  C73  1  0.49388000  0.08230000  0.82182000  1.0
  C  C74  1  0.00613000  0.08230000  0.32182000  1.0
  C  C75  1  0.50613000  0.91770000  0.17818000  1.0
  N  N76  1  0.35164000  0.65657000  0.82471000  1.0
  N  N77  1  0.85164000  0.34344000  0.67529000  1.0
  N  N78  1  0.64837000  0.34343000  0.17528000  1.0
  N  N79  1  0.14836000  0.65657000  0.32471000  1.0
  N  N80  1  0.24648000  0.58921000  0.95772000  1.0
  N  N81  1  0.74648000  0.41078000  0.54227000  1.0
  N  N82  1  0.75352000  0.41078000  0.04227000  1.0
  N  N83  1  0.25353000  0.58921000  0.45772000  1.0
  O  O84  1  0.04723000  0.51012000  0.78358000  1.0
  O  O85  1  0.54723000  0.48989000  0.71642000  1.0
  O  O86  1  0.95277000  0.48988000  0.21642000  1.0
  O  O87  1  0.45277000  0.51011000  0.28357000  1.0
  O  O88  1  0.92921000  0.44511000  0.91142000  1.0
  O  O89  1  0.42921000  0.55488000  0.58857000  1.0
  O  O90  1  0.07079000  0.55488000  0.08857000  1.0
  O  O91  1  0.57079000  0.44511000  0.41142000  1.0
  O  O92  1  0.59236000  0.79452000  0.69106000  1.0
  O  O93  1  0.09237000  0.20548000  0.80894000  1.0
  O  O94  1  0.40763000  0.20548000  0.30894000  1.0
  O  O95  1  0.90763000  0.79452000  0.19106000  1.0
  O  O96  1  0.99438000  0.69415000  0.68852000  1.0
  O  O97  1  0.49439000  0.30585000  0.81148000  1.0
  O  O98  1  0.00561000  0.30585000  0.31148000  1.0
  O  O99  1  0.50561000  0.69415000  0.18852000  1.0
