# generated using pymatgen
data_NdH14C14N3O9F4
_symmetry_space_group_name_H-M   'P 1'
_cell_length_a   11.52080000
_cell_length_b   12.44850000
_cell_length_c   20.36630000
_cell_angle_alpha   91.52570000
_cell_angle_beta   106.44100000
_cell_angle_gamma   117.56600000
_symmetry_Int_Tables_number   1
_chemical_formula_structural   NdH14C14N3O9F4
_chemical_formula_sum   'Nd4 H56 C56 N12 O36 F16'
_cell_volume   2440.37630656
_cell_formula_units_Z   4
loop_
 _symmetry_equiv_pos_site_id
 _symmetry_equiv_pos_as_xyz
  1  'x, y, z'
loop_
 _atom_site_type_symbol
 _atom_site_label
 _atom_site_symmetry_multiplicity
 _atom_site_fract_x
 _atom_site_fract_y
 _atom_site_fract_z
 _atom_site_occupancy
  Nd  Nd0  1  0.75297000  0.89282000  0.69481000  1.0
  Nd  Nd1  1  0.66539000  0.60727000  0.80521000  1.0
  Nd  Nd2  1  0.24703000  0.10718000  0.30519000  1.0
  Nd  Nd3  1  0.33461000  0.39273000  0.19479000  1.0
  H  H4  1  0.01407000  0.97868000  0.61075000  1.0
  H  H5  1  0.92449000  0.52131000  0.88925000  1.0
  H  H6  1  0.98593000  0.02132000  0.38925000  1.0
  H  H7  1  0.07550000  0.47869000  0.11074000  1.0
  H  H8  1  0.01955000  0.26330000  0.65481000  1.0
  H  H9  1  0.60129000  0.23661000  0.84509000  1.0
  H  H10  1  0.98045000  0.73670000  0.34519000  1.0
  H  H11  1  0.39871000  0.76339000  0.15492000  1.0
  H  H12  1  0.07105000  0.31951000  0.58181000  1.0
  H  H13  1  0.66956000  0.18037000  0.91808000  1.0
  H  H14  1  0.92895000  0.68049000  0.41819000  1.0
  H  H15  1  0.33044000  0.81962000  0.08192000  1.0
  H  H16  1  0.19992000  0.34464000  0.66248000  1.0
  H  H17  1  0.69269000  0.15532000  0.83744000  1.0
  H  H18  1  0.80008000  0.65536000  0.33752000  1.0
  H  H19  1  0.30731000  0.84468000  0.16256000  1.0
  H  H20  1  0.14575000  0.06923000  0.54769000  1.0
  H  H21  1  0.02875000  0.43082000  0.95230000  1.0
  H  H22  1  0.85425000  0.93077000  0.45231000  1.0
  H  H23  1  0.97125000  0.56918000  0.04770000  1.0
  H  H24  1  0.26370000  0.23023000  0.57675000  1.0
  H  H25  1  0.95675000  0.26983000  0.92327000  1.0
  H  H26  1  0.73630000  0.76977000  0.42325000  1.0
  H  H27  1  0.04325000  0.73017000  0.07673000  1.0
  H  H28  1  0.10627000  0.17935000  0.50704000  1.0
  H  H29  1  0.91983000  0.32067000  0.99294000  1.0
  H  H30  1  0.89373000  0.82065000  0.49296000  1.0
  H  H31  1  0.08017000  0.67933000  0.00706000  1.0
  H  H32  1  0.51061000  0.99467000  0.68296000  1.0
  H  H33  1  0.33289000  0.50534000  0.81704000  1.0
  H  H34  1  0.48939000  0.00532000  0.31704000  1.0
  H  H35  1  0.66711000  0.49466000  0.18296000  1.0
  H  H36  1  0.39573000  0.09083000  0.68264000  1.0
  H  H37  1  0.12222000  0.40907000  0.81733000  1.0
  H  H38  1  0.60427000  0.90917000  0.31736000  1.0
  H  H39  1  0.87778000  0.59093000  0.18267000  1.0
  H  H40  1  0.43680000  0.21462000  0.63466000  1.0
  H  H41  1  0.08752000  0.28526000  0.86529000  1.0
  H  H42  1  0.56320000  0.78538000  0.36534000  1.0
  H  H43  1  0.91248000  0.71474000  0.13471000  1.0
  H  H44  1  0.49907000  0.24869000  0.72723000  1.0
  H  H45  1  0.02311000  0.25124000  0.77271000  1.0
  H  H46  1  0.50093000  0.75131000  0.27277000  1.0
  H  H47  1  0.97690000  0.74876000  0.22728000  1.0
  H  H48  1  0.80753000  0.28327000  0.68875000  1.0
  H  H49  1  0.33554000  0.21672000  0.81124000  1.0
  H  H50  1  0.19247000  0.71673000  0.31125000  1.0
  H  H51  1  0.66446000  0.78328000  0.18876000  1.0
  H  H52  1  0.73644000  0.36932000  0.71832000  1.0
  H  H53  1  0.14880000  0.13069000  0.78163000  1.0
  H  H54  1  0.26356000  0.63068000  0.28168000  1.0
  H  H55  1  0.85120000  0.86932000  0.21837000  1.0
  H  H56  1  0.69125000  0.31996000  0.62732000  1.0
  H  H57  1  0.24400000  0.18001000  0.87265000  1.0
  H  H58  1  0.30875000  0.68004000  0.37268000  1.0
  H  H59  1  0.75600000  0.81999000  0.12735000  1.0
  C  C60  1  0.46608000  0.74996000  0.74998000  1.0
  C  C61  1  0.53392000  0.25004000  0.25002000  1.0
  C  C62  1  0.33487000  0.74997000  0.75002000  1.0
  C  C63  1  0.66513000  0.25002000  0.24998000  1.0
  C  C64  1  0.33752000  0.85552000  0.77727000  1.0
  C  C65  1  0.20468000  0.64443000  0.72283000  1.0
  C  C66  1  0.66248000  0.14448000  0.22273000  1.0
  C  C67  1  0.79532000  0.35557000  0.27717000  1.0
  C  C68  1  0.21658000  0.85582000  0.77682000  1.0
  C  C69  1  0.08390000  0.64411000  0.72333000  1.0
  C  C70  1  0.78342000  0.14418000  0.22318000  1.0
  C  C71  1  0.91610000  0.35589000  0.27667000  1.0
  C  C72  1  0.08661000  0.74996000  0.75011000  1.0
  C  C73  1  0.91339000  0.25004000  0.24989000  1.0
  C  C74  1  0.95499000  0.74998000  0.75004000  1.0
  C  C75  1  0.04501000  0.25002000  0.24996000  1.0
  C  C76  1  0.57301000  0.55572000  0.65092000  1.0
  C  C77  1  0.86645000  0.94447000  0.84910000  1.0
  C  C78  1  0.42699000  0.44428000  0.34908000  1.0
  C  C79  1  0.13355000  0.05553000  0.15090000  1.0
  C  C80  1  0.53571000  0.52791000  0.57302000  1.0
  C  C81  1  0.93485000  0.97229000  0.92700000  1.0
  C  C82  1  0.46429000  0.47209000  0.42699000  1.0
  C  C83  1  0.06515000  0.02771000  0.07300000  1.0
  C  C84  1  0.63531000  0.54212000  0.54283000  1.0
  C  C85  1  0.05032000  0.95794000  0.95715000  1.0
  C  C86  1  0.36469000  0.45788000  0.45717000  1.0
  C  C87  1  0.94968000  0.04206000  0.04285000  1.0
  C  C88  1  0.59977000  0.51416000  0.47091000  1.0
  C  C89  1  0.11463000  0.98570000  0.02908000  1.0
  C  C90  1  0.40023000  0.48584000  0.52910000  1.0
  C  C91  1  0.88537000  0.01430000  0.97092000  1.0
  C  C92  1  0.01510000  0.06249000  0.63088000  1.0
  C  C93  1  0.82159000  0.43748000  0.86912000  1.0
  C  C94  1  0.98490000  0.93751000  0.36912000  1.0
  C  C95  1  0.17841000  0.56252000  0.13088000  1.0
  C  C96  1  0.09428000  0.27957000  0.62785000  1.0
  C  C97  1  0.68672000  0.22035000  0.87207000  1.0
  C  C98  1  0.90572000  0.72043000  0.37215000  1.0
  C  C99  1  0.31328000  0.77965000  0.12793000  1.0
  C  C100  1  0.15355000  0.15985000  0.55684000  1.0
  C  C101  1  0.93682000  0.34017000  0.94315000  1.0
  C  C102  1  0.84645000  0.84015000  0.44316000  1.0
  C  C103  1  0.06318000  0.65983000  0.05685000  1.0
  C  C104  1  0.60569000  0.07615000  0.68203000  1.0
  C  C105  1  0.34752000  0.42391000  0.81799000  1.0
  C  C106  1  0.39431000  0.92385000  0.31797000  1.0
  C  C107  1  0.65248000  0.57609000  0.18201000  1.0
  C  C108  1  0.47521000  0.18349000  0.68162000  1.0
  C  C109  1  0.11007000  0.31641000  0.81833000  1.0
  C  C110  1  0.52479000  0.81651000  0.31838000  1.0
  C  C111  1  0.88993000  0.68359000  0.18167000  1.0
  C  C112  1  0.71642000  0.29554000  0.67892000  1.0
  C  C113  1  0.24195000  0.20444000  0.82104000  1.0
  C  C114  1  0.28358000  0.70445000  0.32107000  1.0
  C  C115  1  0.75805000  0.79556000  0.17896000  1.0
  N  N116  1  0.08484000  0.16245000  0.60630000  1.0
  N  N117  1  0.81598000  0.33750000  0.89365000  1.0
  N  N118  1  0.91516000  0.83755000  0.39370000  1.0
  N  N119  1  0.18402000  0.66250000  0.10635000  1.0
  N  N120  1  0.59997000  0.18046000  0.68157000  1.0
  N  N121  1  0.23795000  0.31953000  0.81840000  1.0
  N  N122  1  0.40002000  0.81954000  0.31843000  1.0
  N  N123  1  0.76205000  0.68047000  0.18160000  1.0
  N  N124  1  0.60671000  0.80857000  0.54156000  1.0
  N  N125  1  0.75671000  0.69152000  0.95847000  1.0
  N  N126  1  0.39329000  0.19143000  0.45844000  1.0
  N  N127  1  0.24329000  0.30848000  0.04153000  1.0
  O  O128  1  0.54758000  0.83818000  0.72802000  1.0
  O  O129  1  0.48133000  0.66173000  0.77192000  1.0
  O  O130  1  0.45242000  0.16182000  0.27198000  1.0
  O  O131  1  0.51867000  0.33827000  0.22808000  1.0
  O  O132  1  0.93489000  0.83248000  0.72249000  1.0
  O  O133  1  0.87980000  0.66745000  0.77753000  1.0
  O  O134  1  0.06511000  0.16752000  0.27751000  1.0
  O  O135  1  0.12020000  0.33255000  0.22247000  1.0
  O  O136  1  0.63950000  0.66875000  0.68101000  1.0
  O  O137  1  0.78974000  0.83142000  0.81903000  1.0
  O  O138  1  0.36051000  0.33125000  0.31899000  1.0
  O  O139  1  0.21027000  0.16858000  0.18097000  1.0
  O  O140  1  0.53944000  0.46822000  0.68386000  1.0
  O  O141  1  0.88757000  0.03195000  0.81614000  1.0
  O  O142  1  0.46056000  0.53179000  0.31614000  1.0
  O  O143  1  0.11243000  0.96805000  0.18386000  1.0
  O  O144  1  0.95463000  0.06138000  0.67356000  1.0
  O  O145  1  0.71952000  0.43859000  0.82643000  1.0
  O  O146  1  0.04537000  0.93862000  0.32644000  1.0
  O  O147  1  0.28047000  0.56140000  0.17357000  1.0
  O  O148  1  0.71090000  0.06794000  0.68252000  1.0
  O  O149  1  0.46054000  0.43225000  0.81757000  1.0
  O  O150  1  0.28909000  0.93206000  0.31748000  1.0
  O  O151  1  0.53946000  0.56775000  0.18243000  1.0
  O  O152  1  0.54524000  0.81855000  0.58289000  1.0
  O  O153  1  0.64396000  0.68159000  0.91709000  1.0
  O  O154  1  0.45476000  0.18145000  0.41711000  1.0
  O  O155  1  0.35604000  0.31841000  0.08291000  1.0
  O  O156  1  0.54693000  0.77205000  0.47810000  1.0
  O  O157  1  0.79683000  0.72798000  0.02193000  1.0
  O  O158  1  0.45307000  0.22796000  0.52190000  1.0
  O  O159  1  0.20317000  0.27203000  0.97807000  1.0
  O  O160  1  0.73594000  0.83822000  0.56996000  1.0
  O  O161  1  0.82794000  0.66188000  0.93012000  1.0
  O  O162  1  0.26406000  0.16178000  0.43004000  1.0
  O  O163  1  0.17206000  0.33812000  0.06988000  1.0
  F  F164  1  0.46005000  0.96111000  0.80650000  1.0
  F  F165  1  0.19230000  0.53890000  0.69348000  1.0
  F  F166  1  0.53995000  0.03889000  0.19350000  1.0
  F  F167  1  0.80770000  0.46110000  0.30652000  1.0
  F  F168  1  0.22865000  0.96193000  0.80468000  1.0
  F  F169  1  0.96198000  0.53803000  0.69539000  1.0
  F  F170  1  0.77135000  0.03807000  0.19532000  1.0
  F  F171  1  0.03802000  0.46197000  0.30461000  1.0
  F  F172  1  0.76812000  0.58214000  0.58374000  1.0
  F  F173  1  0.10220000  0.91801000  0.91620000  1.0
  F  F174  1  0.23188000  0.41786000  0.41626000  1.0
  F  F175  1  0.89780000  0.08199000  0.08380000  1.0
  F  F176  1  0.69881000  0.52709000  0.44332000  1.0
  F  F177  1  0.22827000  0.97271000  0.05667000  1.0
  F  F178  1  0.30119000  0.47291000  0.55669000  1.0
  F  F179  1  0.77173000  0.02730000  0.94333000  1.0
