# generated using pymatgen
data_CuH15C11(NO)3
_symmetry_space_group_name_H-M   'P 1'
_cell_length_a   9.90866000
_cell_length_b   11.73550000
_cell_length_c   26.01580000
_cell_angle_alpha   89.99990000
_cell_angle_beta   90.01320000
_cell_angle_gamma   89.99990000
_symmetry_Int_Tables_number   1
_chemical_formula_structural   CuH15C11(NO)3
_chemical_formula_sum   'Cu8 H120 C88 N24 O24'
_cell_volume   3025.19725754
_cell_formula_units_Z   8
loop_
 _symmetry_equiv_pos_site_id
 _symmetry_equiv_pos_as_xyz
  1  'x, y, z'
loop_
 _atom_site_type_symbol
 _atom_site_label
 _atom_site_symmetry_multiplicity
 _atom_site_fract_x
 _atom_site_fract_y
 _atom_site_fract_z
 _atom_site_occupancy
  Cu  Cu0  1  0.79928000  0.37497000  0.83385000  1.0
  Cu  Cu1  1  0.79780000  0.62536000  0.16623000  1.0
  Cu  Cu2  1  0.20072000  0.87498000  0.66615000  1.0
  Cu  Cu3  1  0.20220000  0.12536000  0.33377000  1.0
  Cu  Cu4  1  0.69185000  0.61785000  0.66801000  1.0
  Cu  Cu5  1  0.69255000  0.38286000  0.33203000  1.0
  Cu  Cu6  1  0.30815000  0.11786000  0.83199000  1.0
  Cu  Cu7  1  0.30745000  0.88286000  0.16797000  1.0
  H  H8  1  0.21633000  0.53305000  0.67418000  1.0
  H  H9  1  0.21658000  0.46735000  0.32571000  1.0
  H  H10  1  0.78367000  0.03306000  0.82582000  1.0
  H  H11  1  0.78343000  0.96735000  0.17428000  1.0
  H  H12  1  0.04300000  0.49981000  0.66606000  1.0
  H  H13  1  0.04286000  0.49979000  0.33361000  1.0
  H  H14  1  0.95700000  0.99982000  0.83394000  1.0
  H  H15  1  0.95715000  0.99979000  0.16638000  1.0
  H  H16  1  0.16483000  0.38828000  0.66806000  1.0
  H  H17  1  0.16387000  0.61182000  0.33172000  1.0
  H  H18  1  0.83516000  0.88828000  0.83194000  1.0
  H  H19  1  0.83614000  0.11182000  0.16828000  1.0
  H  H20  1  0.21872000  0.42977000  0.75761000  1.0
  H  H21  1  0.21860000  0.57002000  0.24212000  1.0
  H  H22  1  0.78128000  0.92978000  0.74239000  1.0
  H  H23  1  0.78140000  0.07001000  0.25788000  1.0
  H  H24  1  0.09383000  0.56929000  0.81083000  1.0
  H  H25  1  0.09383000  0.42929000  0.18917000  1.0
  H  H26  1  0.90617000  0.06930000  0.68917000  1.0
  H  H27  1  0.90617000  0.92929000  0.31083000  1.0
  H  H28  1  0.99986000  0.61460000  0.75619000  1.0
  H  H29  1  0.00045000  0.38449000  0.24391000  1.0
  H  H30  1  0.00014000  0.11460000  0.74381000  1.0
  H  H31  1  0.99955000  0.88448000  0.25609000  1.0
  H  H32  1  0.17562000  0.63919000  0.75847000  1.0
  H  H33  1  0.17649000  0.36052000  0.24175000  1.0
  H  H34  1  0.82438000  0.13920000  0.74153000  1.0
  H  H35  1  0.82351000  0.86052000  0.25825000  1.0
  H  H36  1  0.01577000  0.30450000  0.73021000  1.0
  H  H37  1  0.01392000  0.69401000  0.26963000  1.0
  H  H38  1  0.98423000  0.80451000  0.76979000  1.0
  H  H39  1  0.98607000  0.19401000  0.23037000  1.0
  H  H40  1  0.40381000  0.55664000  0.75109000  1.0
  H  H41  1  0.40531000  0.44289000  0.24860000  1.0
  H  H42  1  0.59618000  0.05664000  0.74892000  1.0
  H  H43  1  0.59469000  0.94289000  0.25139000  1.0
  H  H44  1  0.36031000  0.75797000  0.77777000  1.0
  H  H45  1  0.36015000  0.24146000  0.22213000  1.0
  H  H46  1  0.63969000  0.25797000  0.72224000  1.0
  H  H47  1  0.63985000  0.74146000  0.27786000  1.0
  H  H48  1  0.56974000  0.84893000  0.74419000  1.0
  H  H49  1  0.56959000  0.14997000  0.25558000  1.0
  H  H50  1  0.43026000  0.34893000  0.75582000  1.0
  H  H51  1  0.43041000  0.64996000  0.24442000  1.0
  H  H52  1  0.66844000  0.77176000  0.78901000  1.0
  H  H53  1  0.66814000  0.22715000  0.21075000  1.0
  H  H54  1  0.33156000  0.27176000  0.71100000  1.0
  H  H55  1  0.33186000  0.72715000  0.28925000  1.0
  H  H56  1  0.55134000  0.87551000  0.81119000  1.0
  H  H57  1  0.55077000  0.12357000  0.18855000  1.0
  H  H58  1  0.44867000  0.37551000  0.68882000  1.0
  H  H59  1  0.44924000  0.62358000  0.31145000  1.0
  H  H60  1  0.42577000  0.73361000  0.86760000  1.0
  H  H61  1  0.42606000  0.26625000  0.13221000  1.0
  H  H62  1  0.57423000  0.23362000  0.63241000  1.0
  H  H63  1  0.57394000  0.76625000  0.36779000  1.0
  H  H64  1  0.54600000  0.62621000  0.85133000  1.0
  H  H65  1  0.54609000  0.37361000  0.14882000  1.0
  H  H66  1  0.45400000  0.12621000  0.64868000  1.0
  H  H67  1  0.45391000  0.87361000  0.35117000  1.0
  H  H68  1  0.37141000  0.60051000  0.84212000  1.0
  H  H69  1  0.37147000  0.39911000  0.15790000  1.0
  H  H70  1  0.62859000  0.10051000  0.65788000  1.0
  H  H71  1  0.62852000  0.89911000  0.34210000  1.0
  H  H72  1  0.38714000  0.26911000  0.96469000  1.0
  H  H73  1  0.38711000  0.73087000  0.03533000  1.0
  H  H74  1  0.61285000  0.76911000  0.53531000  1.0
  H  H75  1  0.61289000  0.23088000  0.46467000  1.0
  H  H76  1  0.35903000  0.40635000  0.99134000  1.0
  H  H77  1  0.35917000  0.59352000  0.00872000  1.0
  H  H78  1  0.64097000  0.90635000  0.50866000  1.0
  H  H79  1  0.64084000  0.09352000  0.49128000  1.0
  H  H80  1  0.45548000  0.30570000  0.02604000  1.0
  H  H81  1  0.45526000  0.69433000  0.97397000  1.0
  H  H82  1  0.54452000  0.80570000  0.47396000  1.0
  H  H83  1  0.54474000  0.19433000  0.52602000  1.0
  H  H84  1  0.92632000  0.51893000  0.89649000  1.0
  H  H85  1  0.92661000  0.48116000  0.10360000  1.0
  H  H86  1  0.07367000  0.01893000  0.60351000  1.0
  H  H87  1  0.07340000  0.98116000  0.39640000  1.0
  H  H88  1  0.94263000  0.53516000  0.96413000  1.0
  H  H89  1  0.94269000  0.46497000  0.03593000  1.0
  H  H90  1  0.05737000  0.03517000  0.53587000  1.0
  H  H91  1  0.05731000  0.96496000  0.46407000  1.0
  H  H92  1  0.83894000  0.63030000  0.92911000  1.0
  H  H93  1  0.83894000  0.36997000  0.07092000  1.0
  H  H94  1  0.16106000  0.13031000  0.57089000  1.0
  H  H95  1  0.16107000  0.86997000  0.42908000  1.0
  H  H96  1  0.56706000  0.47512000  0.60477000  1.0
  H  H97  1  0.56691000  0.52444000  0.39516000  1.0
  H  H98  1  0.43294000  0.97512000  0.89523000  1.0
  H  H99  1  0.43309000  0.02444000  0.10483000  1.0
  H  H100  1  0.64414000  0.37035000  0.56474000  1.0
  H  H101  1  0.64436000  0.62908000  0.43518000  1.0
  H  H102  1  0.35586000  0.87036000  0.93526000  1.0
  H  H103  1  0.35564000  0.12908000  0.06482000  1.0
  H  H104  1  0.53980000  0.47675000  0.53739000  1.0
  H  H105  1  0.53952000  0.52308000  0.46256000  1.0
  H  H106  1  0.46020000  0.97676000  0.96261000  1.0
  H  H107  1  0.46047000  0.02307000  0.03744000  1.0
  H  H108  1  0.10233000  0.72977000  0.53657000  1.0
  H  H109  1  0.10263000  0.27034000  0.46350000  1.0
  H  H110  1  0.89766000  0.22977000  0.96343000  1.0
  H  H111  1  0.89736000  0.77034000  0.03649000  1.0
  H  H112  1  0.04277000  0.68337000  0.47520000  1.0
  H  H113  1  0.04325000  0.31670000  0.52485000  1.0
  H  H114  1  0.95722000  0.18338000  0.02480000  1.0
  H  H115  1  0.95675000  0.81670000  0.97515000  1.0
  H  H116  1  0.13721000  0.58978000  0.51465000  1.0
  H  H117  1  0.13710000  0.41046000  0.48535000  1.0
  H  H118  1  0.86278000  0.08978000  0.98535000  1.0
  H  H119  1  0.86290000  0.91047000  0.01464000  1.0
  H  H120  1  0.56079000  0.27558000  0.89328000  1.0
  H  H121  1  0.56127000  0.72528000  0.10652000  1.0
  H  H122  1  0.43921000  0.77559000  0.60672000  1.0
  H  H123  1  0.43873000  0.22528000  0.39347000  1.0
  H  H124  1  0.93413000  0.71829000  0.60852000  1.0
  H  H125  1  0.93409000  0.28122000  0.39166000  1.0
  H  H126  1  0.06587000  0.21830000  0.89148000  1.0
  H  H127  1  0.06591000  0.78122000  0.10833000  1.0
  C  C128  1  0.13709000  0.47176000  0.68414000  1.0
  C  C129  1  0.13690000  0.52816000  0.31561000  1.0
  C  C130  1  0.86290000  0.97176000  0.81586000  1.0
  C  C131  1  0.86310000  0.02816000  0.18438000  1.0
  C  C132  1  0.12286000  0.46347000  0.74261000  1.0
  C  C133  1  0.12277000  0.53619000  0.25708000  1.0
  C  C134  1  0.87714000  0.96348000  0.75739000  1.0
  C  C135  1  0.87723000  0.03618000  0.24291000  1.0
  C  C136  1  0.09644000  0.57807000  0.76870000  1.0
  C  C137  1  0.09689000  0.42113000  0.23132000  1.0
  C  C138  1  0.90356000  0.07808000  0.73131000  1.0
  C  C139  1  0.90312000  0.92113000  0.26868000  1.0
  C  C140  1  0.01785000  0.37221000  0.75975000  1.0
  C  C141  1  0.01698000  0.62682000  0.23989000  1.0
  C  C142  1  0.98216000  0.87221000  0.74025000  1.0
  C  C143  1  0.98302000  0.12682000  0.26011000  1.0
  C  C144  1  0.06679000  0.31378000  0.80937000  1.0
  C  C145  1  0.06545000  0.68643000  0.19055000  1.0
  C  C146  1  0.93321000  0.81378000  0.69064000  1.0
  C  C147  1  0.93455000  0.18643000  0.30945000  1.0
  C  C148  1  0.80777000  0.47525000  0.73866000  1.0
  C  C149  1  0.80592000  0.52696000  0.26175000  1.0
  C  C150  1  0.19222000  0.97526000  0.76135000  1.0
  C  C151  1  0.19409000  0.02697000  0.23825000  1.0
  C  C152  1  0.67500000  0.51167000  0.76230000  1.0
  C  C153  1  0.67336000  0.48960000  0.23798000  1.0
  C  C154  1  0.32500000  0.01167000  0.73770000  1.0
  C  C155  1  0.32664000  0.98960000  0.26202000  1.0
  C  C156  1  0.47361000  0.62741000  0.74237000  1.0
  C  C157  1  0.47453000  0.37180000  0.25749000  1.0
  C  C158  1  0.52639000  0.12741000  0.75763000  1.0
  C  C159  1  0.52547000  0.87181000  0.24251000  1.0
  C  C160  1  0.42558000  0.68059000  0.69150000  1.0
  C  C161  1  0.42614000  0.31979000  0.30851000  1.0
  C  C162  1  0.57441000  0.18059000  0.80851000  1.0
  C  C163  1  0.57386000  0.81979000  0.19148000  1.0
  C  C164  1  0.45855000  0.71772000  0.78594000  1.0
  C  C165  1  0.45854000  0.28143000  0.21400000  1.0
  C  C166  1  0.54145000  0.21772000  0.71407000  1.0
  C  C167  1  0.54147000  0.78143000  0.28600000  1.0
  C  C168  1  0.56808000  0.80867000  0.78231000  1.0
  C  C169  1  0.56782000  0.19028000  0.21748000  1.0
  C  C170  1  0.43192000  0.30866000  0.71770000  1.0
  C  C171  1  0.43218000  0.69028000  0.28252000  1.0
  C  C172  1  0.45050000  0.66601000  0.83984000  1.0
  C  C173  1  0.45059000  0.33358000  0.16014000  1.0
  C  C174  1  0.54950000  0.16601000  0.66016000  1.0
  C  C175  1  0.54941000  0.83359000  0.33985000  1.0
  C  C176  1  0.43378000  0.33778000  0.98719000  1.0
  C  C177  1  0.43377000  0.66223000  0.01284000  1.0
  C  C178  1  0.56622000  0.83779000  0.51281000  1.0
  C  C179  1  0.56623000  0.16223000  0.48716000  1.0
  C  C180  1  0.55937000  0.38009000  0.96207000  1.0
  C  C181  1  0.55957000  0.62020000  0.03791000  1.0
  C  C182  1  0.44063000  0.88009000  0.53793000  1.0
  C  C183  1  0.44043000  0.12020000  0.46209000  1.0
  C  C184  1  0.65214000  0.46428000  0.97706000  1.0
  C  C185  1  0.65219000  0.53581000  0.02300000  1.0
  C  C186  1  0.34787000  0.96429000  0.52294000  1.0
  C  C187  1  0.34781000  0.03581000  0.47699000  1.0
  C  C188  1  0.75285000  0.46423000  0.93840000  1.0
  C  C189  1  0.75300000  0.53599000  0.06163000  1.0
  C  C190  1  0.24716000  0.96424000  0.56160000  1.0
  C  C191  1  0.24701000  0.03600000  0.43836000  1.0
  C  C192  1  0.87157000  0.54092000  0.93182000  1.0
  C  C193  1  0.87172000  0.45931000  0.06827000  1.0
  C  C194  1  0.12843000  0.04093000  0.56818000  1.0
  C  C195  1  0.12828000  0.95931000  0.43173000  1.0
  C  C196  1  0.61547000  0.46061000  0.56739000  1.0
  C  C197  1  0.61529000  0.53891000  0.43256000  1.0
  C  C198  1  0.38453000  0.96061000  0.93261000  1.0
  C  C199  1  0.38471000  0.03891000  0.06744000  1.0
  C  C200  1  0.73668000  0.53481000  0.56189000  1.0
  C  C201  1  0.73634000  0.46455000  0.43820000  1.0
  C  C202  1  0.26333000  0.03482000  0.93811000  1.0
  C  C203  1  0.26365000  0.96456000  0.06180000  1.0
  C  C204  1  0.83757000  0.53476000  0.52327000  1.0
  C  C205  1  0.83747000  0.46500000  0.47676000  1.0
  C  C206  1  0.16243000  0.03477000  0.97673000  1.0
  C  C207  1  0.16253000  0.96500000  0.02324000  1.0
  C  C208  1  0.93258000  0.61627000  0.53933000  1.0
  C  C209  1  0.93239000  0.38334000  0.46080000  1.0
  C  C210  1  0.06742000  0.11628000  0.96067000  1.0
  C  C211  1  0.06761000  0.88334000  0.03920000  1.0
  C  C212  1  0.06022000  0.65727000  0.51525000  1.0
  C  C213  1  0.06034000  0.34279000  0.48479000  1.0
  C  C214  1  0.93978000  0.15728000  0.98474000  1.0
  C  C215  1  0.93966000  0.84279000  0.01521000  1.0
  N  N216  1  0.60785000  0.58287000  0.73313000  1.0
  N  N217  1  0.60914000  0.41507000  0.26653000  1.0
  N  N218  1  0.39215000  0.08287000  0.76688000  1.0
  N  N219  1  0.39086000  0.91508000  0.23346000  1.0
  N  N220  1  0.88182000  0.41267000  0.76926000  1.0
  N  N221  1  0.88209000  0.58498000  0.22995000  1.0
  N  N222  1  0.11818000  0.91268000  0.73074000  1.0
  N  N223  1  0.11791000  0.08498000  0.27005000  1.0
  N  N224  1  0.60644000  0.33506000  0.91767000  1.0
  N  N225  1  0.60675000  0.66554000  0.08222000  1.0
  N  N226  1  0.39356000  0.83507000  0.58233000  1.0
  N  N227  1  0.39325000  0.16554000  0.41777000  1.0
  N  N228  1  0.72340000  0.38459000  0.90300000  1.0
  N  N229  1  0.72366000  0.61593000  0.09692000  1.0
  N  N230  1  0.27660000  0.88460000  0.59700000  1.0
  N  N231  1  0.27635000  0.11593000  0.40307000  1.0
  N  N232  1  0.76813000  0.61176000  0.59829000  1.0
  N  N233  1  0.76764000  0.38720000  0.40196000  1.0
  N  N234  1  0.23187000  0.11177000  0.90171000  1.0
  N  N235  1  0.23236000  0.88720000  0.09804000  1.0
  N  N236  1  0.88658000  0.65967000  0.58419000  1.0
  N  N237  1  0.88615000  0.33942000  0.41607000  1.0
  N  N238  1  0.11342000  0.15968000  0.91581000  1.0
  N  N239  1  0.11385000  0.83942000  0.08393000  1.0
  O  O240  1  0.18429000  0.27589000  0.81091000  1.0
  O  O241  1  0.18244000  0.72543000  0.18905000  1.0
  O  O242  1  0.81572000  0.77589000  0.68910000  1.0
  O  O243  1  0.81756000  0.22542000  0.31095000  1.0
  O  O244  1  0.98302000  0.30681000  0.84785000  1.0
  O  O245  1  0.98174000  0.69378000  0.15200000  1.0
  O  O246  1  0.01698000  0.80681000  0.65216000  1.0
  O  O247  1  0.01826000  0.19378000  0.34800000  1.0
  O  O248  1  0.64246000  0.47253000  0.80640000  1.0
  O  O249  1  0.63825000  0.53110000  0.19445000  1.0
  O  O250  1  0.35754000  0.97254000  0.69361000  1.0
  O  O251  1  0.36175000  0.03111000  0.30554000  1.0
  O  O252  1  0.83568000  0.50926000  0.69318000  1.0
  O  O253  1  0.83140000  0.49842000  0.30831000  1.0
  O  O254  1  0.16432000  0.00927000  0.80683000  1.0
  O  O255  1  0.16860000  0.99843000  0.19169000  1.0
  O  O256  1  0.51131000  0.68848000  0.65373000  1.0
  O  O257  1  0.51113000  0.31329000  0.34663000  1.0
  O  O258  1  0.48867000  0.18848000  0.84628000  1.0
  O  O259  1  0.48887000  0.81329000  0.15336000  1.0
  O  O260  1  0.30651000  0.71403000  0.68831000  1.0
  O  O261  1  0.30715000  0.28618000  0.31180000  1.0
  O  O262  1  0.69348000  0.21402000  0.81170000  1.0
  O  O263  1  0.69285000  0.78618000  0.18819000  1.0
