# generated using pymatgen
data_Er2H9C21(NO4)3
_symmetry_space_group_name_H-M   'P 1'
_cell_length_a   7.31398000
_cell_length_b   16.22280000
_cell_length_c   16.22263565
_cell_angle_alpha   120.00700551
_cell_angle_beta   90.00080004
_cell_angle_gamma   89.99890000
_symmetry_Int_Tables_number   1
_chemical_formula_structural   Er2H9C21(NO4)3
_chemical_formula_sum   'Er4 H18 C42 N6 O24'
_cell_volume   1666.86706784
_cell_formula_units_Z   2
loop_
 _symmetry_equiv_pos_site_id
 _symmetry_equiv_pos_as_xyz
  1  'x, y, z'
loop_
 _atom_site_type_symbol
 _atom_site_label
 _atom_site_symmetry_multiplicity
 _atom_site_fract_x
 _atom_site_fract_y
 _atom_site_fract_z
 _atom_site_occupancy
  Er  Er0  1  0.86702000  0.33333333  0.66666667  1.0
  Er  Er1  1  0.36712000  0.66666667  0.33333333  1.0
  Er  Er2  1  0.36699000  0.33333333  0.66666667  1.0
  Er  Er3  1  0.86724000  0.66666667  0.33333333  1.0
  H  H4  1  0.37654000  0.14726000  0.72633000  1.0
  H  H5  1  0.87661000  0.85278000  0.27368000  1.0
  H  H6  1  0.37654000  0.27366000  0.42089000  1.0
  H  H7  1  0.37649000  0.57913000  0.85280000  1.0
  H  H8  1  0.87662000  0.42085000  0.14715000  1.0
  H  H9  1  0.87667000  0.72629000  0.57913000  1.0
  H  H10  1  0.87655000  0.57912000  0.72633000  1.0
  H  H11  1  0.87653000  0.14719000  0.42084000  1.0
  H  H12  1  0.87649000  0.27366000  0.85275000  1.0
  H  H13  1  0.37658000  0.72631000  0.14721000  1.0
  H  H14  1  0.37659000  0.85286000  0.57918000  1.0
  H  H15  1  0.37667000  0.42083000  0.27368000  1.0
  H  H16  1  0.92358000  1.00000000  0.53994000  1.0
  H  H17  1  0.42362000  1.00000000  0.46009000  1.0
  H  H18  1  0.92362000  0.46007000  0.46004000  1.0
  H  H19  1  0.92359000  0.53992000  0.00002000  1.0
  H  H20  1  0.42359000  0.46008000  0.00002000  1.0
  H  H21  1  0.42360000  0.53995000  0.53993000  1.0
  C  C22  1  0.30524000  0.08169000  0.67708000  1.0
  C  C23  1  0.80527000  0.91837000  0.32295000  1.0
  C  C24  1  0.30525000  0.32293000  0.40458000  1.0
  C  C25  1  0.30518000  0.59543000  0.91838000  1.0
  C  C26  1  0.80528000  0.40456000  0.08159000  1.0
  C  C27  1  0.80531000  0.67704000  0.59544000  1.0
  C  C28  1  0.80524000  0.59542000  0.67706000  1.0
  C  C29  1  0.80521000  0.08162000  0.40455000  1.0
  C  C30  1  0.80521000  0.32293000  0.91832000  1.0
  C  C31  1  0.30523000  0.67705000  0.08164000  1.0
  C  C32  1  0.30528000  0.91841000  0.59546000  1.0
  C  C33  1  0.30531000  0.40454000  0.32294000  1.0
  C  C34  1  0.13834000  0.08553000  0.63639000  1.0
  C  C35  1  0.63839000  0.91449000  0.36362000  1.0
  C  C36  1  0.13836000  0.36360000  0.44911000  1.0
  C  C37  1  0.13832000  0.55087000  0.91450000  1.0
  C  C38  1  0.63840000  0.44913000  0.08550000  1.0
  C  C39  1  0.63841000  0.63638000  0.55088000  1.0
  C  C40  1  0.63834000  0.55088000  0.63639000  1.0
  C  C41  1  0.63835000  0.08551000  0.44912000  1.0
  C  C42  1  0.63832000  0.36362000  0.91448000  1.0
  C  C43  1  0.13836000  0.63639000  0.08553000  1.0
  C  C44  1  0.13839000  0.91452000  0.55090000  1.0
  C  C45  1  0.13843000  0.44910000  0.36360000  1.0
  C  C46  1  0.05293000  0.00001000  0.57316000  1.0
  C  C47  1  0.55294000  0.99999000  0.42686000  1.0
  C  C48  1  0.05295000  0.42685000  0.42684000  1.0
  C  C49  1  0.05291000  0.57314000  0.00002000  1.0
  C  C50  1  0.55291000  0.42685000  0.00000000  1.0
  C  C51  1  0.55295000  0.57315000  0.57314000  1.0
  C  C52  1  0.05477000  0.17560000  0.65238000  1.0
  C  C53  1  0.55488000  0.82441000  0.34763000  1.0
  C  C54  1  0.05473000  0.34762000  0.52318000  1.0
  C  C55  1  0.05473000  0.47680000  0.82442000  1.0
  C  C56  1  0.55489000  0.52320000  0.17559000  1.0
  C  C57  1  0.55491000  0.65238000  0.47680000  1.0
  C  C58  1  0.55475000  0.47682000  0.65240000  1.0
  C  C59  1  0.55477000  0.17560000  0.52318000  1.0
  C  C60  1  0.55472000  0.34763000  0.82440000  1.0
  C  C61  1  0.05484000  0.65238000  0.17560000  1.0
  C  C62  1  0.05486000  0.82442000  0.47682000  1.0
  C  C63  1  0.05491000  0.52318000  0.34761000  1.0
  N  N64  1  0.38719000  0.00006000  0.65796000  1.0
  N  N65  1  0.88718000  0.99999000  0.34207000  1.0
  N  N66  1  0.38723000  0.34204000  0.34208000  1.0
  N  N67  1  0.38715000  0.65792000  0.00001000  1.0
  N  N68  1  0.88717000  0.34205000  0.99995000  1.0
  N  N69  1  0.88721000  0.65789000  0.65792000  1.0
  O  O70  1  0.13478000  0.25703000  0.70372000  1.0
  O  O71  1  0.63486000  0.74300000  0.29631000  1.0
  O  O72  1  0.13471000  0.29629000  0.55328000  1.0
  O  O73  1  0.13468000  0.44675000  0.74300000  1.0
  O  O74  1  0.63485000  0.55326000  0.25700000  1.0
  O  O75  1  0.63490000  0.70371000  0.44674000  1.0
  O  O76  1  0.63474000  0.44674000  0.70372000  1.0
  O  O77  1  0.63476000  0.25700000  0.55325000  1.0
  O  O78  1  0.63469000  0.29628000  0.74298000  1.0
  O  O79  1  0.13485000  0.70373000  0.25703000  1.0
  O  O80  1  0.13487000  0.74301000  0.44676000  1.0
  O  O81  1  0.13496000  0.55324000  0.29626000  1.0
  O  O82  1  0.90185000  0.17276000  0.61434000  1.0
  O  O83  1  0.40197000  0.82726000  0.38570000  1.0
  O  O84  1  0.90180000  0.38564000  0.55835000  1.0
  O  O85  1  0.90182000  0.44159000  0.82726000  1.0
  O  O86  1  0.40196000  0.55843000  0.17275000  1.0
  O  O87  1  0.40198000  0.61432000  0.44158000  1.0
  O  O88  1  0.40181000  0.44163000  0.61437000  1.0
  O  O89  1  0.40182000  0.17278000  0.55837000  1.0
  O  O90  1  0.40182000  0.38569000  0.82726000  1.0
  O  O91  1  0.90197000  0.61431000  0.17277000  1.0
  O  O92  1  0.90195000  0.82723000  0.44160000  1.0
  O  O93  1  0.90204000  0.55842000  0.38565000  1.0
