# generated using pymatgen
data_ZnH24C34NO4
_symmetry_space_group_name_H-M   'P 1'
_cell_length_a   10.82620000
_cell_length_b   14.58610000
_cell_length_c   16.02380000
_cell_angle_alpha   93.82340000
_cell_angle_beta   90.66670000
_cell_angle_gamma   94.00880000
_symmetry_Int_Tables_number   1
_chemical_formula_structural   ZnH24C34NO4
_chemical_formula_sum   'Zn2 H48 C68 N2 O8'
_cell_volume   2518.20431545
_cell_formula_units_Z   2
loop_
 _symmetry_equiv_pos_site_id
 _symmetry_equiv_pos_as_xyz
  1  'x, y, z'
loop_
 _atom_site_type_symbol
 _atom_site_label
 _atom_site_symmetry_multiplicity
 _atom_site_fract_x
 _atom_site_fract_y
 _atom_site_fract_z
 _atom_site_occupancy
  Zn  Zn0  1  0.50662000  0.59642000  0.51432000  1.0
  Zn  Zn1  1  0.49348000  0.40356000  0.48565000  1.0
  H  H2  1  0.79659000  0.67247000  0.55019000  1.0
  H  H3  1  0.20345000  0.32758000  0.44977000  1.0
  H  H4  1  0.20317000  0.66584000  0.41466000  1.0
  H  H5  1  0.79687000  0.33430000  0.58532000  1.0
  H  H6  1  0.37023000  0.62347000  0.16544000  1.0
  H  H7  1  0.40728000  0.70693000  0.09198000  1.0
  H  H8  1  0.26990000  0.63438000  0.07862000  1.0
  H  H9  1  0.62992000  0.37654000  0.83454000  1.0
  H  H10  1  0.73023000  0.36562000  0.92137000  1.0
  H  H11  1  0.59287000  0.29305000  0.90797000  1.0
  H  H12  1  0.35820000  0.61996000  0.84980000  1.0
  H  H13  1  0.24597000  0.60833000  0.92908000  1.0
  H  H14  1  0.36660000  0.69644000  0.94148000  1.0
  H  H15  1  0.64187000  0.37995000  0.15015000  1.0
  H  H16  1  0.63353000  0.30352000  0.05844000  1.0
  H  H17  1  0.75414000  0.39165000  0.07090000  1.0
  H  H18  1  0.79948000  0.18024000  0.61648000  1.0
  H  H19  1  0.86796000  0.10832000  0.53820000  1.0
  H  H20  1  0.95032000  0.14262000  0.63188000  1.0
  H  H21  1  0.20050000  0.81989000  0.38350000  1.0
  H  H22  1  0.04961000  0.85746000  0.36812000  1.0
  H  H23  1  0.13200000  0.89179000  0.46178000  1.0
  H  H24  1  0.19698000  0.16895000  0.44590000  1.0
  H  H25  1  0.13302000  0.12239000  0.53696000  1.0
  H  H26  1  0.04675000  0.11083000  0.44198000  1.0
  H  H27  1  0.80296000  0.83109000  0.55404000  1.0
  H  H28  1  0.95317000  0.88925000  0.55800000  1.0
  H  H29  1  0.86697000  0.87767000  0.46298000  1.0
  H  H30  1  0.49189000  0.02587000  0.26496000  1.0
  H  H31  1  0.58662000  0.11318000  0.15129000  1.0
  H  H32  1  0.75976000  0.23224000  0.18348000  1.0
  H  H33  1  0.83349000  0.26719000  0.33134000  1.0
  H  H34  1  0.73727000  0.18243000  0.44439000  1.0
  H  H35  1  0.50810000  0.97415000  0.73502000  1.0
  H  H36  1  0.41340000  0.88687000  0.84872000  1.0
  H  H37  1  0.24027000  0.76777000  0.81657000  1.0
  H  H38  1  0.16651000  0.73277000  0.66872000  1.0
  H  H39  1  0.26271000  0.81752000  0.55565000  1.0
  H  H40  1  0.21628000  0.02667000  0.63816000  1.0
  H  H41  1  0.12777000  0.12720000  0.74945000  1.0
  H  H42  1  0.25282000  0.26531000  0.81266000  1.0
  H  H43  1  0.46556000  0.30220000  0.76277000  1.0
  H  H44  1  0.55504000  0.20169000  0.65249000  1.0
  H  H45  1  0.44493000  0.79825000  0.34751000  1.0
  H  H46  1  0.53444000  0.69773000  0.23723000  1.0
  H  H47  1  0.74716000  0.73466000  0.18734000  1.0
  H  H48  1  0.87219000  0.87279000  0.25053000  1.0
  H  H49  1  0.78365000  0.97331000  0.36182000  1.0
  C  C50  1  0.53867000  0.51423000  0.25102000  1.0
  C  C51  1  0.46152000  0.48572000  0.74894000  1.0
  C  C52  1  0.12682000  0.50192000  0.47517000  1.0
  C  C53  1  0.87327000  0.49818000  0.52480000  1.0
  C  C54  1  0.50248000  0.90665000  0.50128000  1.0
  C  C55  1  0.49749000  0.09331000  0.49871000  1.0
  C  C56  1  0.55493000  0.94922000  0.43153000  1.0
  C  C57  1  0.44504000  0.05074000  0.56846000  1.0
  C  C58  1  0.44610000  0.95437000  0.56898000  1.0
  C  C59  1  0.55386000  0.04559000  0.43101000  1.0
  C  C60  1  0.42411000  0.56050000  0.96042000  1.0
  C  C61  1  0.57599000  0.43945000  0.03955000  1.0
  C  C62  1  0.43610000  0.56675000  0.04770000  1.0
  C  C63  1  0.56403000  0.43323000  0.95228000  1.0
  C  C64  1  0.54214000  0.50628000  0.34050000  1.0
  C  C65  1  0.45800000  0.49355000  0.65945000  1.0
  C  C66  1  0.73427000  0.49096000  0.53085000  1.0
  C  C67  1  0.26581000  0.50918000  0.46916000  1.0
  C  C68  1  0.48758000  0.49332000  0.91307000  1.0
  C  C69  1  0.51257000  0.50666000  0.08690000  1.0
  C  C70  1  0.51742000  0.81162000  0.50909000  1.0
  C  C71  1  0.48258000  0.18836000  0.49088000  1.0
  C  C72  1  0.47415000  0.48733000  0.82480000  1.0
  C  C73  1  0.52601000  0.51266000  0.17518000  1.0
  C  C74  1  0.88529000  0.67075000  0.51971000  1.0
  C  C75  1  0.11475000  0.32934000  0.48027000  1.0
  C  C76  1  0.11466000  0.66731000  0.44582000  1.0
  C  C77  1  0.88538000  0.33281000  0.55415000  1.0
  C  C78  1  0.94400000  0.75188000  0.49738000  1.0
  C  C79  1  0.05602000  0.24821000  0.50260000  1.0
  C  C80  1  0.05790000  0.74888000  0.45288000  1.0
  C  C81  1  0.94212000  0.25122000  0.54711000  1.0
  C  C82  1  0.06223000  0.58360000  0.47685000  1.0
  C  C83  1  0.93785000  0.41652000  0.52312000  1.0
  C  C84  1  0.93693000  0.58332000  0.50689000  1.0
  C  C85  1  0.06316000  0.41679000  0.49309000  1.0
  C  C86  1  0.36746000  0.63626000  0.09886000  1.0
  C  C87  1  0.63268000  0.36373000  0.90111000  1.0
  C  C88  1  0.34503000  0.62457000  0.91759000  1.0
  C  C89  1  0.65508000  0.37538000  0.08237000  1.0
  C  C90  1  0.88661000  0.16651000  0.58517000  1.0
  C  C91  1  0.11337000  0.83360000  0.41482000  1.0
  C  C92  1  0.11124000  0.15807000  0.48084000  1.0
  C  C93  1  0.88873000  0.84200000  0.51912000  1.0
  C  C94  1  0.60857000  0.09761000  0.36228000  1.0
  C  C95  1  0.56673000  0.07875000  0.27925000  1.0
  C  C96  1  0.62051000  0.12760000  0.21551000  1.0
  C  C97  1  0.71737000  0.19474000  0.23365000  1.0
  C  C98  1  0.75899000  0.21431000  0.31612000  1.0
  C  C99  1  0.70431000  0.16639000  0.38018000  1.0
  C  C100  1  0.39143000  0.90235000  0.63773000  1.0
  C  C101  1  0.43327000  0.92124000  0.72076000  1.0
  C  C102  1  0.37951000  0.87241000  0.78451000  1.0
  C  C103  1  0.28266000  0.80525000  0.76639000  1.0
  C  C104  1  0.24102000  0.78566000  0.68392000  1.0
  C  C105  1  0.29568000  0.83357000  0.61985000  1.0
  C  C106  1  0.39145000  0.10765000  0.63691000  1.0
  C  C107  1  0.27116000  0.08690000  0.66559000  1.0
  C  C108  1  0.22172000  0.14333000  0.72841000  1.0
  C  C109  1  0.29167000  0.22065000  0.76394000  1.0
  C  C110  1  0.41156000  0.24120000  0.73650000  1.0
  C  C111  1  0.46110000  0.18512000  0.67347000  1.0
  C  C112  1  0.60849000  0.89231000  0.36307000  1.0
  C  C113  1  0.53886000  0.81482000  0.32653000  1.0
  C  C114  1  0.58842000  0.75875000  0.26350000  1.0
  C  C115  1  0.70830000  0.77932000  0.23605000  1.0
  C  C116  1  0.77824000  0.85665000  0.27158000  1.0
  C  C117  1  0.72878000  0.91307000  0.33439000  1.0
  N  N118  1  0.46643000  0.26467000  0.48045000  1.0
  N  N119  1  0.53363000  0.73530000  0.51952000  1.0
  O  O120  1  0.54223000  0.58071000  0.38719000  1.0
  O  O121  1  0.45812000  0.41906000  0.61285000  1.0
  O  O122  1  0.45730000  0.57520000  0.63657000  1.0
  O  O123  1  0.54250000  0.42457000  0.36328000  1.0
  O  O124  1  0.67759000  0.56270000  0.55118000  1.0
  O  O125  1  0.32252000  0.43739000  0.44903000  1.0
  O  O126  1  0.32126000  0.58743000  0.49070000  1.0
  O  O127  1  0.67883000  0.41274000  0.50912000  1.0
