# generated using pymatgen
data_ZnH42C54(N3O)2
_symmetry_space_group_name_H-M   'P 1'
_cell_length_a   10.69960000
_cell_length_b   13.59640000
_cell_length_c   19.13170000
_cell_angle_alpha   89.99990000
_cell_angle_beta   89.99990000
_cell_angle_gamma   95.81670000
_symmetry_Int_Tables_number   1
_chemical_formula_structural   ZnH42C54(N3O)2
_chemical_formula_sum   'Zn2 H84 C108 N12 O4'
_cell_volume   2768.87385389
_cell_formula_units_Z   2
loop_
 _symmetry_equiv_pos_site_id
 _symmetry_equiv_pos_as_xyz
  1  'x, y, z'
loop_
 _atom_site_type_symbol
 _atom_site_label
 _atom_site_symmetry_multiplicity
 _atom_site_fract_x
 _atom_site_fract_y
 _atom_site_fract_z
 _atom_site_occupancy
  Zn  Zn0  1  0.74849000  0.24922000  0.67330000  1.0
  Zn  Zn1  1  0.25151000  0.75078000  0.17330000  1.0
  H  H2  1  0.32965000  0.33438000  0.54817000  1.0
  H  H3  1  0.67036000  0.66562000  0.04818000  1.0
  H  H4  1  0.39401000  0.17017000  0.48293000  1.0
  H  H5  1  0.60601000  0.82983000  0.98294000  1.0
  H  H6  1  0.76842000  0.94234000  0.50477000  1.0
  H  H7  1  0.23159000  0.05766000  0.00476000  1.0
  H  H8  1  0.98317000  0.94847000  0.57978000  1.0
  H  H9  1  0.01683000  0.05153000  0.07978000  1.0
  H  H10  1  0.16776000  0.16446000  0.79805000  1.0
  H  H11  1  0.83224000  0.83554000  0.29806000  1.0
  H  H12  1  0.09401000  0.32008000  0.87002000  1.0
  H  H13  1  0.90598000  0.67992000  0.37003000  1.0
  H  H14  1  0.71040000  0.54010000  0.85421000  1.0
  H  H15  1  0.28960000  0.45991000  0.35422000  1.0
  H  H16  1  0.50800000  0.54435000  0.76984000  1.0
  H  H17  1  0.49200000  0.45565000  0.26984000  1.0
  H  H18  1  0.29647000  0.01869000  0.37943000  1.0
  H  H19  1  0.70353000  0.98131000  0.87943000  1.0
  H  H20  1  0.20833000  0.93022000  0.27305000  1.0
  H  H21  1  0.79167000  0.06978000  0.77304000  1.0
  H  H22  1  0.50694000  0.76038000  0.26121000  1.0
  H  H23  1  0.49305000  0.23962000  0.76120000  1.0
  H  H24  1  0.61091000  0.84277000  0.36584000  1.0
  H  H25  1  0.38908000  0.15723000  0.86583000  1.0
  H  H26  1  0.01512000  0.91260000  0.71728000  1.0
  H  H27  1  0.98488000  0.08740000  0.21729000  1.0
  H  H28  1  0.20488000  0.82542000  0.72753000  1.0
  H  H29  1  0.79512000  0.17458000  0.22754000  1.0
  H  H30  1  0.43292000  0.08992000  0.66407000  1.0
  H  H31  1  0.56709000  0.91008000  0.16407000  1.0
  H  H32  1  0.24101000  0.17728000  0.65330000  1.0
  H  H33  1  0.75901000  0.82273000  0.15331000  1.0
  H  H34  1  0.36890000  0.76581000  0.70758000  1.0
  H  H35  1  0.63111000  0.23419000  0.20758000  1.0
  H  H36  1  0.51691000  0.84938000  0.83446000  1.0
  H  H37  1  0.48309000  0.15062000  0.33446000  1.0
  H  H38  1  0.35742000  0.86549000  0.82465000  1.0
  H  H39  1  0.64258000  0.13451000  0.32465000  1.0
  H  H40  1  0.29274000  0.70371000  0.85905000  1.0
  H  H41  1  0.70726000  0.29630000  0.35905000  1.0
  H  H42  1  0.44853000  0.69815000  0.88832000  1.0
  H  H43  1  0.55147000  0.30185000  0.38833000  1.0
  H  H44  1  0.40248000  0.65376000  0.80415000  1.0
  H  H45  1  0.59752000  0.34624000  0.30415000  1.0
  H  H46  1  0.64796000  0.83361000  0.73003000  1.0
  H  H47  1  0.35205000  0.16640000  0.23003000  1.0
  H  H48  1  0.57869000  0.78047000  0.65234000  1.0
  H  H49  1  0.42132000  0.21953000  0.15234000  1.0
  H  H50  1  0.58209000  0.70755000  0.72946000  1.0
  H  H51  1  0.41792000  0.29244000  0.22946000  1.0
  H  H52  1  0.85160000  0.58500000  0.02806000  1.0
  H  H53  1  0.14839000  0.41499000  0.52806000  1.0
  H  H54  1  0.97194000  0.68414000  0.12053000  1.0
  H  H55  1  0.02806000  0.31586000  0.62053000  1.0
  H  H56  1  0.31267000  0.62058000  0.03940000  1.0
  H  H57  1  0.68732000  0.37941000  0.53941000  1.0
  H  H58  1  0.20858000  0.52015000  0.94252000  1.0
  H  H59  1  0.79141000  0.47984000  0.44252000  1.0
  H  H60  1  0.27398000  0.35604000  0.72495000  1.0
  H  H61  1  0.72602000  0.64396000  0.22495000  1.0
  H  H62  1  0.09733000  0.45657000  0.72814000  1.0
  H  H63  1  0.90267000  0.54343000  0.22814000  1.0
  H  H64  1  0.30022000  0.67260000  0.59393000  1.0
  H  H65  1  0.69978000  0.32740000  0.09393000  1.0
  H  H66  1  0.48192000  0.57134000  0.59329000  1.0
  H  H67  1  0.51807000  0.42865000  0.09329000  1.0
  H  H68  1  0.95579000  0.54046000  0.70947000  1.0
  H  H69  1  0.04421000  0.45954000  0.20947000  1.0
  H  H70  1  0.92843000  0.75488000  0.67214000  1.0
  H  H71  1  0.07156000  0.24512000  0.17213000  1.0
  H  H72  1  0.81807000  0.68118000  0.72369000  1.0
  H  H73  1  0.18192000  0.31882000  0.22369000  1.0
  H  H74  1  0.89225000  0.62790000  0.57370000  1.0
  H  H75  1  0.10775000  0.37209000  0.07370000  1.0
  H  H76  1  0.75248000  0.68065000  0.59675000  1.0
  H  H77  1  0.24752000  0.31935000  0.09674000  1.0
  H  H78  1  0.77677000  0.56013000  0.62634000  1.0
  H  H79  1  0.22323000  0.43987000  0.12634000  1.0
  H  H80  1  0.96184000  0.63638000  0.81983000  1.0
  H  H81  1  0.03816000  0.36362000  0.31983000  1.0
  H  H82  1  0.06543000  0.73264000  0.78184000  1.0
  H  H83  1  0.93457000  0.26736000  0.28184000  1.0
  H  H84  1  0.11720000  0.61408000  0.79786000  1.0
  H  H85  1  0.88280000  0.38592000  0.29786000  1.0
  C  C86  1  0.49925000  0.31517000  0.61491000  1.0
  C  C87  1  0.50075000  0.68483000  0.11492000  1.0
  C  C88  1  0.40802000  0.29230000  0.55981000  1.0
  C  C89  1  0.59198000  0.70770000  0.05981000  1.0
  C  C90  1  0.44088000  0.20956000  0.52647000  1.0
  C  C91  1  0.55913000  0.79044000  0.02648000  1.0
  C  C92  1  0.55233000  0.18179000  0.56115000  1.0
  C  C93  1  0.44769000  0.81822000  0.06115000  1.0
  C  C94  1  0.61767000  0.09935000  0.54236000  1.0
  C  C95  1  0.38234000  0.90064000  0.04236000  1.0
  C  C96  1  0.73195000  0.07302000  0.57169000  1.0
  C  C97  1  0.26806000  0.92698000  0.07169000  1.0
  C  C98  1  0.79953000  0.99282000  0.54668000  1.0
  C  C99  1  0.20047000  0.00718000  0.04668000  1.0
  C  C100  1  0.90791000  0.99582000  0.58484000  1.0
  C  C101  1  0.09209000  0.00417000  0.08484000  1.0
  C  C102  1  0.90574000  0.07710000  0.63393000  1.0
  C  C103  1  0.09427000  0.92290000  0.13393000  1.0
  C  C104  1  0.00152000  0.10704000  0.68252000  1.0
  C  C105  1  0.99848000  0.89296000  0.18252000  1.0
  C  C106  1  0.00059000  0.18678000  0.73006000  1.0
  C  C107  1  0.99941000  0.81322000  0.23006000  1.0
  C  C108  1  0.08944000  0.20682000  0.78684000  1.0
  C  C109  1  0.91056000  0.79318000  0.28685000  1.0
  C  C110  1  0.05195000  0.28524000  0.82342000  1.0
  C  C111  1  0.94805000  0.71477000  0.32343000  1.0
  C  C112  1  0.94045000  0.31319000  0.78900000  1.0
  C  C113  1  0.05954000  0.68681000  0.28900000  1.0
  C  C114  1  0.86894000  0.38970000  0.81232000  1.0
  C  C115  1  0.13105000  0.61030000  0.31232000  1.0
  C  C116  1  0.75641000  0.41753000  0.78198000  1.0
  C  C117  1  0.24358000  0.58247000  0.28198000  1.0
  C  C118  1  0.68559000  0.49485000  0.80853000  1.0
  C  C119  1  0.31440000  0.50515000  0.30853000  1.0
  C  C120  1  0.58360000  0.49730000  0.76565000  1.0
  C  C121  1  0.41640000  0.50270000  0.26565000  1.0
  C  C122  1  0.59179000  0.42124000  0.71319000  1.0
  C  C123  1  0.40820000  0.57876000  0.21319000  1.0
  C  C124  1  0.50003000  0.39555000  0.66159000  1.0
  C  C125  1  0.49997000  0.60445000  0.16159000  1.0
  C  C126  1  0.56486000  0.03967000  0.48759000  1.0
  C  C127  1  0.43514000  0.96033000  0.98758000  1.0
  C  C128  1  0.51739000  0.98981000  0.43949000  1.0
  C  C129  1  0.48260000  0.01018000  0.93948000  1.0
  C  C130  1  0.46228000  0.93844000  0.38160000  1.0
  C  C131  1  0.53772000  0.06157000  0.88160000  1.0
  C  C132  1  0.34634000  0.96223000  0.35439000  1.0
  C  C133  1  0.65365000  0.03777000  0.85439000  1.0
  C  C134  1  0.29730000  0.91300000  0.29550000  1.0
  C  C135  1  0.70269000  0.08700000  0.79549000  1.0
  C  C136  1  0.46364000  0.81836000  0.28894000  1.0
  C  C137  1  0.53635000  0.18164000  0.78893000  1.0
  C  C138  1  0.52112000  0.86377000  0.34722000  1.0
  C  C139  1  0.47888000  0.13623000  0.84721000  1.0
  C  C140  1  0.11388000  0.05149000  0.68526000  1.0
  C  C141  1  0.88613000  0.94852000  0.18526000  1.0
  C  C142  1  0.10660000  0.95192000  0.70508000  1.0
  C  C143  1  0.89341000  0.04808000  0.20509000  1.0
  C  C144  1  0.21429000  0.90261000  0.71166000  1.0
  C  C145  1  0.78572000  0.09740000  0.21167000  1.0
  C  C146  1  0.33264000  0.95312000  0.69780000  1.0
  C  C147  1  0.66737000  0.04688000  0.19781000  1.0
  C  C148  1  0.34087000  0.05217000  0.67604000  1.0
  C  C149  1  0.65914000  0.94783000  0.17605000  1.0
  C  C150  1  0.23317000  0.10035000  0.67032000  1.0
  C  C151  1  0.76684000  0.89965000  0.17032000  1.0
  C  C152  1  0.44549000  0.81474000  0.73183000  1.0
  C  C153  1  0.55451000  0.18526000  0.23183000  1.0
  C  C154  1  0.42862000  0.81574000  0.81142000  1.0
  C  C155  1  0.57138000  0.18427000  0.31142000  1.0
  C  C156  1  0.39143000  0.71248000  0.84247000  1.0
  C  C157  1  0.60857000  0.28752000  0.34247000  1.0
  C  C158  1  0.57098000  0.78188000  0.70954000  1.0
  C  C159  1  0.42902000  0.21812000  0.20954000  1.0
  C  C160  1  0.91522000  0.44265000  0.87183000  1.0
  C  C161  1  0.08477000  0.55736000  0.37183000  1.0
  C  C162  1  0.95949000  0.48873000  0.92242000  1.0
  C  C163  1  0.04051000  0.51127000  0.42242000  1.0
  C  C164  1  0.02037000  0.54469000  0.97677000  1.0
  C  C165  1  0.97963000  0.45531000  0.47677000  1.0
  C  C166  1  0.95389000  0.59239000  0.02815000  1.0
  C  C167  1  0.04610000  0.40760000  0.52815000  1.0
  C  C168  1  0.02071000  0.64686000  0.07982000  1.0
  C  C169  1  0.97929000  0.35313000  0.57982000  1.0
  C  C170  1  0.21055000  0.61121000  0.03483000  1.0
  C  C171  1  0.78944000  0.38878000  0.53483000  1.0
  C  C172  1  0.15277000  0.55538000  0.98104000  1.0
  C  C173  1  0.84722000  0.44462000  0.48104000  1.0
  C  C174  1  0.39116000  0.45608000  0.65898000  1.0
  C  C175  1  0.60883000  0.54392000  0.15899000  1.0
  C  C176  1  0.28112000  0.42560000  0.69602000  1.0
  C  C177  1  0.71888000  0.57440000  0.19602000  1.0
  C  C178  1  0.18021000  0.48303000  0.69804000  1.0
  C  C179  1  0.81978000  0.51697000  0.19804000  1.0
  C  C180  1  0.18703000  0.57270000  0.66122000  1.0
  C  C181  1  0.81297000  0.42730000  0.16122000  1.0
  C  C182  1  0.29601000  0.60312000  0.62273000  1.0
  C  C183  1  0.70399000  0.39688000  0.12274000  1.0
  C  C184  1  0.39681000  0.54583000  0.62223000  1.0
  C  C185  1  0.60318000  0.45417000  0.12223000  1.0
  C  C186  1  0.99118000  0.61954000  0.70894000  1.0
  C  C187  1  0.00882000  0.38046000  0.20894000  1.0
  C  C188  1  0.88766000  0.67831000  0.68157000  1.0
  C  C189  1  0.11234000  0.32169000  0.18157000  1.0
  C  C190  1  0.82373000  0.63436000  0.61577000  1.0
  C  C191  1  0.17626000  0.36564000  0.11577000  1.0
  C  C192  1  0.03697000  0.65270000  0.78130000  1.0
  C  C193  1  0.96303000  0.34731000  0.28130000  1.0
  N  N194  1  0.58521000  0.24627000  0.61413000  1.0
  N  N195  1  0.41479000  0.75373000  0.11413000  1.0
  N  N196  1  0.79708000  0.12161000  0.62463000  1.0
  N  N197  1  0.20292000  0.87839000  0.12463000  1.0
  N  N198  1  0.91222000  0.25337000  0.73275000  1.0
  N  N199  1  0.08778000  0.74663000  0.23276000  1.0
  N  N200  1  0.69871000  0.37524000  0.72433000  1.0
  N  N201  1  0.30128000  0.62475000  0.22433000  1.0
  N  N202  1  0.35399000  0.84203000  0.26294000  1.0
  N  N203  1  0.64600000  0.15797000  0.76293000  1.0
  N  N204  1  0.14675000  0.65646000  0.08382000  1.0
  N  N205  1  0.85325000  0.34354000  0.58382000  1.0
  O  O206  1  0.44426000  0.91344000  0.70325000  1.0
  O  O207  1  0.55575000  0.08656000  0.20325000  1.0
  O  O208  1  0.09400000  0.63431000  0.65892000  1.0
  O  O209  1  0.90600000  0.36569000  0.15892000  1.0
