# generated using pymatgen
data_CoH14C21N2O7
_symmetry_space_group_name_H-M   'P 1'
_cell_length_a   9.54720000
_cell_length_b   10.74960000
_cell_length_c   10.98540000
_cell_angle_alpha   96.58040000
_cell_angle_beta   113.80600000
_cell_angle_gamma   110.60300000
_symmetry_Int_Tables_number   1
_chemical_formula_structural   CoH14C21N2O7
_chemical_formula_sum   'Co2 H28 C42 N4 O14'
_cell_volume   921.14789045
_cell_formula_units_Z   2
loop_
 _symmetry_equiv_pos_site_id
 _symmetry_equiv_pos_as_xyz
  1  'x, y, z'
loop_
 _atom_site_type_symbol
 _atom_site_label
 _atom_site_symmetry_multiplicity
 _atom_site_fract_x
 _atom_site_fract_y
 _atom_site_fract_z
 _atom_site_occupancy
  Co  Co0  1  0.88653000  0.84733000  0.01961000  1.0
  Co  Co1  1  0.11347000  0.15268000  0.98039000  1.0
  H  H2  1  0.26583000  0.94125000  0.20613000  1.0
  H  H3  1  0.73418000  0.05877000  0.79387000  1.0
  H  H4  1  0.46338000  0.83986000  0.19855000  1.0
  H  H5  1  0.53663000  0.16015000  0.80145000  1.0
  H  H6  1  0.35672000  0.62872000  0.00879000  1.0
  H  H7  1  0.64328000  0.37129000  0.99121000  1.0
  H  H8  1  0.49538000  0.66770000  0.82362000  1.0
  H  H9  1  0.50462000  0.33230000  0.17637000  1.0
  H  H10  1  0.33658000  0.45730000  0.61861000  1.0
  H  H11  1  0.66343000  0.54270000  0.38139000  1.0
  H  H12  1  0.49173000  0.34109000  0.55133000  1.0
  H  H13  1  0.50827000  0.65891000  0.44867000  1.0
  H  H14  1  0.08938000  0.43123000  0.78583000  1.0
  H  H15  1  0.91063000  0.56877000  0.21417000  1.0
  H  H16  1  0.78172000  0.33333333  0.62072000  1.0
  H  H17  1  0.21829000  0.66673000  0.37929000  1.0
  H  H18  1  0.85211000  0.11571000  0.18130000  1.0
  H  H19  1  0.14788000  0.88428000  0.81870000  1.0
  H  H20  1  0.48707000  0.14697000  0.34997000  1.0
  H  H21  1  0.51293000  0.85304000  0.65003000  1.0
  H  H22  1  0.87079000  0.18861000  0.58311000  1.0
  H  H23  1  0.12920000  0.81138000  0.41688000  1.0
  H  H24  1  0.28610000  0.15249000  0.54856000  1.0
  H  H25  1  0.71389000  0.84752000  0.45144000  1.0
  H  H26  1  0.60441000  0.87957000  0.92560000  1.0
  H  H27  1  0.39559000  0.12041000  0.07439000  1.0
  H  H28  1  0.67862000  0.86166000  0.08240000  1.0
  H  H29  1  0.32139000  0.13835000  0.91759000  1.0
  C  C30  1  0.22069000  0.84705000  0.12519000  1.0
  C  C31  1  0.77932000  0.15296000  0.87480000  1.0
  C  C32  1  0.33009000  0.79004000  0.11947000  1.0
  C  C33  1  0.66992000  0.20997000  0.88053000  1.0
  C  C34  1  0.27042000  0.67158000  0.01327000  1.0
  C  C35  1  0.72959000  0.32842000  0.98673000  1.0
  C  C36  1  0.09655000  0.60727000  0.91273000  1.0
  C  C37  1  0.90346000  0.39274000  0.08728000  1.0
  C  C38  1  0.99476000  0.66986000  0.92841000  1.0
  C  C39  1  0.00524000  0.33014000  0.07159000  1.0
  C  C40  1  0.56268000  0.61651000  0.79537000  1.0
  C  C41  1  0.43733000  0.38349000  0.20463000  1.0
  C  C42  1  0.47428000  0.49757000  0.67949000  1.0
  C  C43  1  0.52573000  0.50243000  0.32051000  1.0
  C  C44  1  0.55979000  0.43264000  0.64244000  1.0
  C  C45  1  0.44021000  0.56737000  0.35756000  1.0
  C  C46  1  0.73778000  0.48744000  0.72609000  1.0
  C  C47  1  0.26222000  0.51256000  0.27392000  1.0
  C  C48  1  0.81722000  0.60861000  0.83931000  1.0
  C  C49  1  0.18279000  0.39139000  0.16070000  1.0
  C  C50  1  0.01421000  0.48342000  0.79787000  1.0
  C  C51  1  0.98579000  0.51658000  0.20214000  1.0
  C  C52  1  0.84308000  0.42752000  0.70744000  1.0
  C  C53  1  0.15693000  0.57248000  0.29257000  1.0
  C  C54  1  0.16306000  0.10801000  0.27247000  1.0
  C  C55  1  0.83694000  0.89199000  0.72753000  1.0
  C  C56  1  0.07900000  0.13348000  0.35570000  1.0
  C  C57  1  0.92099000  0.86651000  0.64430000  1.0
  C  C58  1  0.92032000  0.13581000  0.29354000  1.0
  C  C59  1  0.07967000  0.86418000  0.70646000  1.0
  C  C60  1  0.84543000  0.15747000  0.37561000  1.0
  C  C61  1  0.15455000  0.84251000  0.62438000  1.0
  C  C62  1  0.67311000  0.15315000  0.30930000  1.0
  C  C63  1  0.32688000  0.84682000  0.69071000  1.0
  C  C64  1  0.93011000  0.17767000  0.51903000  1.0
  C  C65  1  0.06988000  0.82232000  0.48097000  1.0
  C  C66  1  0.09067000  0.17932000  0.58238000  1.0
  C  C67  1  0.90933000  0.82067000  0.41762000  1.0
  C  C68  1  0.17428000  0.19408000  0.73544000  1.0
  C  C69  1  0.82572000  0.80592000  0.26456000  1.0
  C  C70  1  0.16398000  0.15646000  0.50030000  1.0
  C  C71  1  0.83602000  0.84354000  0.49971000  1.0
  N  N72  1  0.05567000  0.78929000  0.03054000  1.0
  N  N73  1  0.94434000  0.21072000  0.96946000  1.0
  N  N74  1  0.73275000  0.67422000  0.87398000  1.0
  N  N75  1  0.26726000  0.32578000  0.12602000  1.0
  O  O76  1  0.07273000  0.04399000  0.14011000  1.0
  O  O77  1  0.92727000  0.95601000  0.85989000  1.0
  O  O78  1  0.32360000  0.15644000  0.33754000  1.0
  O  O79  1  0.67640000  0.84357000  0.66246000  1.0
  O  O80  1  0.60438000  0.14727000  0.39378000  1.0
  O  O81  1  0.39563000  0.85276000  0.60622000  1.0
  O  O82  1  0.60148000  0.15434000  0.18711000  1.0
  O  O83  1  0.39848000  0.84559000  0.81285000  1.0
  O  O84  1  0.09058000  0.20646000  0.79832000  1.0
  O  O85  1  0.90943000  0.79354000  0.20168000  1.0
  O  O86  1  0.31689000  0.18931000  0.79098000  1.0
  O  O87  1  0.68311000  0.81069000  0.20902000  1.0
  O  O88  1  0.71112000  0.90238000  0.01200000  1.0
  O  O89  1  0.28888000  0.09763000  0.98800000  1.0
