# generated using pymatgen
data_AlH12(C7O3)3
_symmetry_space_group_name_H-M   'P 1'
_cell_length_a   4.00898000
_cell_length_b   24.62017213
_cell_length_c   24.62000000
_cell_angle_alpha   120.00130616
_cell_angle_beta   90.00060000
_cell_angle_gamma   89.99900001
_symmetry_Int_Tables_number   1
_chemical_formula_structural   AlH12(C7O3)3
_chemical_formula_sum   'Al2 H24 C42 O18'
_cell_volume   2104.44673824
_cell_formula_units_Z   2
loop_
 _symmetry_equiv_pos_site_id
 _symmetry_equiv_pos_as_xyz
  1  'x, y, z'
loop_
 _atom_site_type_symbol
 _atom_site_label
 _atom_site_symmetry_multiplicity
 _atom_site_fract_x
 _atom_site_fract_y
 _atom_site_fract_z
 _atom_site_occupancy
  Al  Al0  1  0.01954000  0.50000000  0.00000000  1.0
  Al  Al1  1  0.01920000  0.83333000  0.66668000  1.0
  H  H2  1  0.24428000  0.65864000  0.17256000  1.0
  H  H3  1  0.24372000  0.67441000  0.49421000  1.0
  H  H4  1  0.82177000  0.82080000  0.49335000  1.0
  H  H5  1  0.81384000  0.76203000  0.37628000  1.0
  H  H6  1  0.82223000  0.51219000  0.17328000  1.0
  H  H7  1  0.81380000  0.57084000  0.29035000  1.0
  H  H8  1  0.24426000  0.51392000  0.84137000  1.0
  H  H9  1  0.24367000  0.81979000  0.82558000  1.0
  H  H10  1  0.82182000  0.67254000  0.67920000  1.0
  H  H11  1  0.81392000  0.61425000  0.73797000  1.0
  H  H12  1  0.82222000  0.66109000  0.98781000  1.0
  H  H13  1  0.81383000  0.71951000  0.92917000  1.0
  H  H14  1  0.24426000  0.32745000  0.98608000  1.0
  H  H15  1  0.24368000  0.00579000  0.68021000  1.0
  H  H16  1  0.82180000  0.00667000  0.82746000  1.0
  H  H17  1  0.81383000  0.12373000  0.88574000  1.0
  H  H18  1  0.82222000  0.32672000  0.83891000  1.0
  H  H19  1  0.81378000  0.20965000  0.78048000  1.0
  H  H20  1  0.10417000  0.73892000  0.26771000  1.0
  H  H21  1  0.10359000  0.59412000  0.39908000  1.0
  H  H22  1  0.10419000  0.52880000  0.76109000  1.0
  H  H23  1  0.10358000  0.80495000  0.90588000  1.0
  H  H24  1  0.10418000  0.23229000  0.97121000  1.0
  H  H25  1  0.10354000  0.10092000  0.69503000  1.0
  C  C26  1  0.52200000  0.40362000  0.95016000  1.0
  C  C27  1  0.52201000  0.54655000  0.09639000  1.0
  C  C28  1  0.52200000  0.54984000  0.95346000  1.0
  C  C29  1  0.52151000  0.78657000  0.57029000  1.0
  C  C30  1  0.52149000  0.78370000  0.71343000  1.0
  C  C31  1  0.52146000  0.92972000  0.71629000  1.0
  C  C32  1  0.53180000  0.58192000  0.16609000  1.0
  C  C33  1  0.53132000  0.75112000  0.50060000  1.0
  C  C34  1  0.37584000  0.64039000  0.19890000  1.0
  C  C35  1  0.38531000  0.67436000  0.26428000  1.0
  C  C36  1  0.37543000  0.69263000  0.46783000  1.0
  C  C37  1  0.38506000  0.65862000  0.40246000  1.0
  C  C38  1  0.69368000  0.77593000  0.46750000  1.0
  C  C39  1  0.68879000  0.74294000  0.40228000  1.0
  C  C40  1  0.69404000  0.55705000  0.19915000  1.0
  C  C41  1  0.68883000  0.58997000  0.26437000  1.0
  C  C42  1  0.53775000  0.64915000  0.29854000  1.0
  C  C43  1  0.53769000  0.68377000  0.36819000  1.0
  C  C44  1  0.53178000  0.58418000  0.91809000  1.0
  C  C45  1  0.53132000  0.74947000  0.74888000  1.0
  C  C46  1  0.37582000  0.55852000  0.85961000  1.0
  C  C47  1  0.38532000  0.58992000  0.82564000  1.0
  C  C48  1  0.37543000  0.77520000  0.80738000  1.0
  C  C49  1  0.38506000  0.74384000  0.84139000  1.0
  C  C50  1  0.69372000  0.69157000  0.72408000  1.0
  C  C51  1  0.68884000  0.65934000  0.75707000  1.0
  C  C52  1  0.69403000  0.64210000  0.94295000  1.0
  C  C53  1  0.68884000  0.67440000  0.91003000  1.0
  C  C54  1  0.53776000  0.64939000  0.85086000  1.0
  C  C55  1  0.53772000  0.68441000  0.81623000  1.0
  C  C56  1  0.53176000  0.33391000  0.91583000  1.0
  C  C57  1  0.53130000  0.99940000  0.75051000  1.0
  C  C58  1  0.37580000  0.30110000  0.94149000  1.0
  C  C59  1  0.38527000  0.23572000  0.91007000  1.0
  C  C60  1  0.37541000  0.03217000  0.72479000  1.0
  C  C61  1  0.38503000  0.09755000  0.75616000  1.0
  C  C62  1  0.69369000  0.03251000  0.80843000  1.0
  C  C63  1  0.68879000  0.09773000  0.84066000  1.0
  C  C64  1  0.69402000  0.30085000  0.85790000  1.0
  C  C65  1  0.68879000  0.23563000  0.82560000  1.0
  C  C66  1  0.53771000  0.20147000  0.85060000  1.0
  C  C67  1  0.53766000  0.13181000  0.81557000  1.0
  O  O68  1  0.75274000  0.56129000  0.99360000  1.0
  O  O69  1  0.75275000  0.43231000  0.93872000  1.0
  O  O70  1  0.75277000  0.50641000  0.06770000  1.0
  O  O71  1  0.28338000  0.51100000  0.94130000  1.0
  O  O72  1  0.28339000  0.55871000  0.06970000  1.0
  O  O73  1  0.28338000  0.43030000  0.98901000  1.0
  O  O74  1  0.75223000  0.90110000  0.72781000  1.0
  O  O75  1  0.75225000  0.82671000  0.59892000  1.0
  O  O76  1  0.75225000  0.77220000  0.67331000  1.0
  O  O77  1  0.28286000  0.90298000  0.67746000  1.0
  O  O78  1  0.28289000  0.82254000  0.72553000  1.0
  O  O79  1  0.28288000  0.77448000  0.59703000  1.0
  O  O80  1  0.24001000  0.73281000  0.29704000  1.0
  O  O81  1  0.23962000  0.60019000  0.36974000  1.0
  O  O82  1  0.24002000  0.56423000  0.76719000  1.0
  O  O83  1  0.23960000  0.76955000  0.89982000  1.0
  O  O84  1  0.23999000  0.20296000  0.93576000  1.0
  O  O85  1  0.23957000  0.13026000  0.73044000  1.0
