# generated using pymatgen
data_CdH9C4NO6
_symmetry_space_group_name_H-M   'P 1'
_cell_length_a   5.44655000
_cell_length_b   9.74562000
_cell_length_c   14.77770000
_cell_angle_alpha   89.99850000
_cell_angle_beta   89.99830000
_cell_angle_gamma   89.99930000
_symmetry_Int_Tables_number   1
_chemical_formula_structural   CdH9C4NO6
_chemical_formula_sum   'Cd4 H36 C16 N4 O24'
_cell_volume   784.40041302
_cell_formula_units_Z   4
loop_
 _symmetry_equiv_pos_site_id
 _symmetry_equiv_pos_as_xyz
  1  'x, y, z'
loop_
 _atom_site_type_symbol
 _atom_site_label
 _atom_site_symmetry_multiplicity
 _atom_site_fract_x
 _atom_site_fract_y
 _atom_site_fract_z
 _atom_site_occupancy
  Cd  Cd0  1  0.15827000  0.74156000  0.05151000  1.0
  Cd  Cd1  1  0.84174000  0.24157000  0.94849000  1.0
  Cd  Cd2  1  0.84171000  0.74157000  0.55150000  1.0
  Cd  Cd3  1  0.15829000  0.24157000  0.44850000  1.0
  H  H4  1  0.59498000  0.62489000  0.12955000  1.0
  H  H5  1  0.40505000  0.12489000  0.87045000  1.0
  H  H6  1  0.40502000  0.62490000  0.62955000  1.0
  H  H7  1  0.59497000  0.12490000  0.37045000  1.0
  H  H8  1  0.47063000  0.49758000  0.07837000  1.0
  H  H9  1  0.52939000  0.99758000  0.92164000  1.0
  H  H10  1  0.52938000  0.49760000  0.57836000  1.0
  H  H11  1  0.47064000  0.99759000  0.42164000  1.0
  H  H12  1  0.36919000  0.81705000  0.88450000  1.0
  H  H13  1  0.63081000  0.31704000  0.11550000  1.0
  H  H14  1  0.63079000  0.81704000  0.38450000  1.0
  H  H15  1  0.36920000  0.31706000  0.61550000  1.0
  H  H16  1  0.59845000  0.77960000  0.94777000  1.0
  H  H17  1  0.40156000  0.27960000  0.05223000  1.0
  H  H18  1  0.40153000  0.77961000  0.44777000  1.0
  H  H19  1  0.59845000  0.27961000  0.55223000  1.0
  H  H20  1  0.42521000  0.84168000  0.20570000  1.0
  H  H21  1  0.57478000  0.34169000  0.79430000  1.0
  H  H22  1  0.57475000  0.84169000  0.70570000  1.0
  H  H23  1  0.42525000  0.34169000  0.29430000  1.0
  H  H24  1  0.99825000  0.97915000  0.25859000  1.0
  H  H25  1  0.00173000  0.47917000  0.74140000  1.0
  H  H26  1  0.00174000  0.97916000  0.75858000  1.0
  H  H27  1  0.99825000  0.47915000  0.24141000  1.0
  H  H28  1  0.15169000  0.84327000  0.31158000  1.0
  H  H29  1  0.84830000  0.34327000  0.68842000  1.0
  H  H30  1  0.84828000  0.84325000  0.81158000  1.0
  H  H31  1  0.15170000  0.34324000  0.18843000  1.0
  H  H32  1  0.49669000  0.01540000  0.10529000  1.0
  H  H33  1  0.50332000  0.51540000  0.89471000  1.0
  H  H34  1  0.50331000  0.01541000  0.60528000  1.0
  H  H35  1  0.49669000  0.51540000  0.39471000  1.0
  H  H36  1  0.34314000  0.09441000  0.19674000  1.0
  H  H37  1  0.65686000  0.59442000  0.80326000  1.0
  H  H38  1  0.65683000  0.09442000  0.69673000  1.0
  H  H39  1  0.34317000  0.59441000  0.30327000  1.0
  C  C40  1  0.85882000  0.78051000  0.22727000  1.0
  C  C41  1  0.14118000  0.28052000  0.77273000  1.0
  C  C42  1  0.14115000  0.78050000  0.72727000  1.0
  C  C43  1  0.85885000  0.28049000  0.27273000  1.0
  C  C44  1  0.07436000  0.87632000  0.24626000  1.0
  C  C45  1  0.92563000  0.37633000  0.75374000  1.0
  C  C46  1  0.92560000  0.87633000  0.74625000  1.0
  C  C47  1  0.07439000  0.37632000  0.25375000  1.0
  C  C48  1  0.32051000  0.01852000  0.14209000  1.0
  C  C49  1  0.67950000  0.51853000  0.85792000  1.0
  C  C50  1  0.67947000  0.01853000  0.64207000  1.0
  C  C51  1  0.32052000  0.51853000  0.35792000  1.0
  C  C52  1  0.12550000  0.06854000  0.07562000  1.0
  C  C53  1  0.87450000  0.56855000  0.92439000  1.0
  C  C54  1  0.87448000  0.06856000  0.57561000  1.0
  C  C55  1  0.12552000  0.56855000  0.42438000  1.0
  N  N56  1  0.26812000  0.88066000  0.17675000  1.0
  N  N57  1  0.73188000  0.38067000  0.82325000  1.0
  N  N58  1  0.73185000  0.88066000  0.67674000  1.0
  N  N59  1  0.26815000  0.38067000  0.32326000  1.0
  O  O60  1  0.86148000  0.69960000  0.15935000  1.0
  O  O61  1  0.13853000  0.19960000  0.84065000  1.0
  O  O62  1  0.13849000  0.69960000  0.65934000  1.0
  O  O63  1  0.86151000  0.19960000  0.34067000  1.0
  O  O64  1  0.67891000  0.78561000  0.28150000  1.0
  O  O65  1  0.32110000  0.28563000  0.71851000  1.0
  O  O66  1  0.32104000  0.78560000  0.78150000  1.0
  O  O67  1  0.67895000  0.28559000  0.21851000  1.0
  O  O68  1  0.13419000  0.19762000  0.05543000  1.0
  O  O69  1  0.86580000  0.69762000  0.94457000  1.0
  O  O70  1  0.86582000  0.19763000  0.55544000  1.0
  O  O71  1  0.13418000  0.69763000  0.44457000  1.0
  O  O72  1  0.96962000  0.98750000  0.04301000  1.0
  O  O73  1  0.03039000  0.48749000  0.95700000  1.0
  O  O74  1  0.03036000  0.98748000  0.54299000  1.0
  O  O75  1  0.96962000  0.48748000  0.45700000  1.0
  O  O76  1  0.43446000  0.58655000  0.10836000  1.0
  O  O77  1  0.56556000  0.08655000  0.89164000  1.0
  O  O78  1  0.56553000  0.58656000  0.60836000  1.0
  O  O79  1  0.43447000  0.08656000  0.39165000  1.0
  O  O80  1  0.43818000  0.83100000  0.94754000  1.0
  O  O81  1  0.56183000  0.33099000  0.05246000  1.0
  O  O82  1  0.56182000  0.83100000  0.44754000  1.0
  O  O83  1  0.43817000  0.33100000  0.55246000  1.0
