# generated using pymatgen
data_CsH11C10(N2O5)2
_symmetry_space_group_name_H-M   'P 1'
_cell_length_a   5.05579000
_cell_length_b   8.15727000
_cell_length_c   9.07980000
_cell_angle_alpha   79.57080000
_cell_angle_beta   85.49720000
_cell_angle_gamma   88.86310000
_symmetry_Int_Tables_number   1
_chemical_formula_structural   CsH11C10(N2O5)2
_chemical_formula_sum   'Cs1 H11 C10 N4 O10'
_cell_volume   367.13492970
_cell_formula_units_Z   1
loop_
 _symmetry_equiv_pos_site_id
 _symmetry_equiv_pos_as_xyz
  1  'x, y, z'
loop_
 _atom_site_type_symbol
 _atom_site_label
 _atom_site_symmetry_multiplicity
 _atom_site_fract_x
 _atom_site_fract_y
 _atom_site_fract_z
 _atom_site_occupancy
  Cs  Cs0  1  0.50000000  0.00000000  0.50000000  1.0
  H  H1  1  0.50000000  0.50001000  0.50000000  1.0
  H  H2  1  0.04265000  0.28990000  0.46225000  1.0
  H  H3  1  0.95734000  0.71010000  0.53775000  1.0
  H  H4  1  0.24413000  0.36863000  0.32435000  1.0
  H  H5  1  0.75586000  0.63138000  0.67565000  1.0
  H  H6  1  0.98470000  0.25962000  0.20120000  1.0
  H  H7  1  0.01530000  0.74037000  0.79880000  1.0
  H  H8  1  0.63108000  0.06266000  0.87793000  1.0
  H  H9  1  0.36892000  0.93733000  0.12207000  1.0
  H  H10  1  0.29410000  0.40391000  0.02169000  1.0
  H  H11  1  0.70591000  0.59608000  0.97831000  1.0
  C  C12  1  0.35034000  0.42229000  0.72570000  1.0
  C  C13  1  0.64966000  0.57772000  0.27430000  1.0
  C  C14  1  0.14624000  0.32381000  0.83107000  1.0
  C  C15  1  0.85376000  0.67619000  0.16894000  1.0
  C  C16  1  0.14647000  0.33079000  0.98101000  1.0
  C  C17  1  0.85354000  0.66920000  0.01899000  1.0
  C  C18  1  0.94705000  0.22050000  0.78547000  1.0
  C  C19  1  0.05294000  0.77950000  0.21453000  1.0
  C  C20  1  0.77457000  0.15146000  0.05285000  1.0
  C  C21  1  0.22544000  0.84854000  0.94715000  1.0
  N  N22  1  0.96889000  0.25023000  0.08728000  1.0
  N  N23  1  0.03112000  0.74976000  0.91272000  1.0
  N  N24  1  0.77560000  0.13988000  0.90431000  1.0
  N  N25  1  0.22440000  0.86012000  0.09570000  1.0
  O  O26  1  0.35197000  0.40663000  0.58644000  1.0
  O  O27  1  0.64802000  0.59338000  0.41356000  1.0
  O  O28  1  0.50716000  0.51227000  0.77663000  1.0
  O  O29  1  0.49284000  0.48773000  0.22337000  1.0
  O  O30  1  0.91445000  0.19421000  0.65737000  1.0
  O  O31  1  0.08554000  0.80580000  0.34263000  1.0
  O  O32  1  0.61190000  0.07633000  0.15132000  1.0
  O  O33  1  0.38811000  0.92366000  0.84868000  1.0
  O  O34  1  0.09830000  0.28598000  0.35639000  1.0
  O  O35  1  0.90169000  0.71403000  0.64361000  1.0
