# generated using pymatgen
data_Ag3H5C12(NO2)4
_symmetry_space_group_name_H-M   'P 1'
_cell_length_a   10.15870000
_cell_length_b   11.32240000
_cell_length_c   13.34800000
_cell_angle_alpha   107.98700000
_cell_angle_beta   90.00000000
_cell_angle_gamma   90.00000000
_symmetry_Int_Tables_number   1
_chemical_formula_structural   Ag3H5C12(NO2)4
_chemical_formula_sum   'Ag12 H20 C48 N16 O32'
_cell_volume   1460.26325501
_cell_formula_units_Z   4
loop_
 _symmetry_equiv_pos_site_id
 _symmetry_equiv_pos_as_xyz
  1  'x, y, z'
loop_
 _atom_site_type_symbol
 _atom_site_label
 _atom_site_symmetry_multiplicity
 _atom_site_fract_x
 _atom_site_fract_y
 _atom_site_fract_z
 _atom_site_occupancy
  Ag  Ag0  1  0.54365000  0.08397000  0.35919000  1.0
  Ag  Ag1  1  0.04365000  0.41603000  0.14081000  1.0
  Ag  Ag2  1  0.45635000  0.91603000  0.64081000  1.0
  Ag  Ag3  1  0.95635000  0.58397000  0.85919000  1.0
  Ag  Ag4  1  0.98393000  0.66629000  0.50621000  1.0
  Ag  Ag5  1  0.48393000  0.83371000  0.99379000  1.0
  Ag  Ag6  1  0.01606000  0.33371000  0.49379000  1.0
  Ag  Ag7  1  0.51606000  0.16629000  0.00621000  1.0
  Ag  Ag8  1  0.99784000  0.10570000  0.83024000  1.0
  Ag  Ag9  1  0.49783000  0.39430000  0.66976000  1.0
  Ag  Ag10  1  0.00216000  0.89430000  0.16976000  1.0
  Ag  Ag11  1  0.50216000  0.60570000  0.33024000  1.0
  H  H12  1  0.76144000  0.29261000  0.58487000  1.0
  H  H13  1  0.26144000  0.20739000  0.91513000  1.0
  H  H14  1  0.23856000  0.70739000  0.41513000  1.0
  H  H15  1  0.73856000  0.79261000  0.08487000  1.0
  H  H16  1  0.63020000  0.80797000  0.26964000  1.0
  H  H17  1  0.13019000  0.69203000  0.23036000  1.0
  H  H18  1  0.36980000  0.19203000  0.73036000  1.0
  H  H19  1  0.86980000  0.30797000  0.76964000  1.0
  H  H20  1  0.80181000  0.66834000  0.30676000  1.0
  H  H21  1  0.30181000  0.83166000  0.19324000  1.0
  H  H22  1  0.19819000  0.33166000  0.69324000  1.0
  H  H23  1  0.69819000  0.16834000  0.80676000  1.0
  H  H24  1  0.69058000  0.35011000  0.41813000  1.0
  H  H25  1  0.19058000  0.14989000  0.08187000  1.0
  H  H26  1  0.30942000  0.64989000  0.58187000  1.0
  H  H27  1  0.80942000  0.85011000  0.91813000  1.0
  H  H28  1  0.84662000  0.47379000  0.34470000  1.0
  H  H29  1  0.34662000  0.02621000  0.15530000  1.0
  H  H30  1  0.15338000  0.52621000  0.65530000  1.0
  H  H31  1  0.65338000  0.97379000  0.84470000  1.0
  C  C32  1  0.90999000  0.94467000  0.62248000  1.0
  C  C33  1  0.40999000  0.55533000  0.87752000  1.0
  C  C34  1  0.09001000  0.05533000  0.37751000  1.0
  C  C35  1  0.59001000  0.44467000  0.12248000  1.0
  C  C36  1  0.83231000  0.90837000  0.52050000  1.0
  C  C37  1  0.33231000  0.59163000  0.97950000  1.0
  C  C38  1  0.16769000  0.09163000  0.47950000  1.0
  C  C39  1  0.66769000  0.40837000  0.02050000  1.0
  C  C40  1  0.74074000  0.98843000  0.49687000  1.0
  C  C41  1  0.24074000  0.51157000  0.00313000  1.0
  C  C42  1  0.25926000  0.01157000  0.50313000  1.0
  C  C43  1  0.75926000  0.48843000  0.99687000  1.0
  C  C44  1  0.71361000  0.11865000  0.56783000  1.0
  C  C45  1  0.21361000  0.38135000  0.93217000  1.0
  C  C46  1  0.28639000  0.88135000  0.43217000  1.0
  C  C47  1  0.78639000  0.61865000  0.06783000  1.0
  C  C48  1  0.68858000  0.83747000  0.34135000  1.0
  C  C49  1  0.18858000  0.66253000  0.15865000  1.0
  C  C50  1  0.31142000  0.16253000  0.65865000  1.0
  C  C51  1  0.81142000  0.33747000  0.84135000  1.0
  C  C52  1  0.78277000  0.75922000  0.36299000  1.0
  C  C53  1  0.28277000  0.74078000  0.13701000  1.0
  C  C54  1  0.21723000  0.24078000  0.63701000  1.0
  C  C55  1  0.71723000  0.25922000  0.86299000  1.0
  C  C56  1  0.89232000  0.15922000  0.03694000  1.0
  C  C57  1  0.39232000  0.34078000  0.46306000  1.0
  C  C58  1  0.10768000  0.84078000  0.96306000  1.0
  C  C59  1  0.60768000  0.65922000  0.53694000  1.0
  C  C60  1  0.83918000  0.21408000  0.14690000  1.0
  C  C61  1  0.33918000  0.28592000  0.35310000  1.0
  C  C62  1  0.16082000  0.78592000  0.85310000  1.0
  C  C63  1  0.66082000  0.71408000  0.64690000  1.0
  C  C64  1  0.75194000  0.14572000  0.18889000  1.0
  C  C65  1  0.25194000  0.35428000  0.31111000  1.0
  C  C66  1  0.24806000  0.85428000  0.81111000  1.0
  C  C67  1  0.74806000  0.64572000  0.68889000  1.0
  C  C68  1  0.70497000  0.01595000  0.13036000  1.0
  C  C69  1  0.20497000  0.48405000  0.36964000  1.0
  C  C70  1  0.29503000  0.98405000  0.86964000  1.0
  C  C71  1  0.79503000  0.51595000  0.63036000  1.0
  C  C72  1  0.73492000  0.30997000  0.34092000  1.0
  C  C73  1  0.23492000  0.19003000  0.15908000  1.0
  C  C74  1  0.26508000  0.69003000  0.65908000  1.0
  C  C75  1  0.76508000  0.80997000  0.84092000  1.0
  C  C76  1  0.82093000  0.37892000  0.29950000  1.0
  C  C77  1  0.32093000  0.12108000  0.20050000  1.0
  C  C78  1  0.17907000  0.62108000  0.70050000  1.0
  C  C79  1  0.67907000  0.87892000  0.79950000  1.0
  N  N80  1  0.66773000  0.95189000  0.40789000  1.0
  N  N81  1  0.16773000  0.54811000  0.09211000  1.0
  N  N82  1  0.33227000  0.04811000  0.59211000  1.0
  N  N83  1  0.83227000  0.45188000  0.90789000  1.0
  N  N84  1  0.85188000  0.79397000  0.45261000  1.0
  N  N85  1  0.35188000  0.70603000  0.04739000  1.0
  N  N86  1  0.14812000  0.20603000  0.54739000  1.0
  N  N87  1  0.64812000  0.29397000  0.95261000  1.0
  N  N88  1  0.70110000  0.19395000  0.28581000  1.0
  N  N89  1  0.20110000  0.30606000  0.21419000  1.0
  N  N90  1  0.29890000  0.80605000  0.71419000  1.0
  N  N91  1  0.79890000  0.69394000  0.78581000  1.0
  N  N92  1  0.87285000  0.33101000  0.20308000  1.0
  N  N93  1  0.37285000  0.16899000  0.29691000  1.0
  N  N94  1  0.12715000  0.66899000  0.79691000  1.0
  N  N95  1  0.62715000  0.83101000  0.70309000  1.0
  O  O96  1  0.97204000  0.86289000  0.64878000  1.0
  O  O97  1  0.47204000  0.63712000  0.85122000  1.0
  O  O98  1  0.02796000  0.13711000  0.35122000  1.0
  O  O99  1  0.52796000  0.36289000  0.14878000  1.0
  O  O100  1  0.90280000  0.06005000  0.67487000  1.0
  O  O101  1  0.40280000  0.43995000  0.82513000  1.0
  O  O102  1  0.09721000  0.93995000  0.32513000  1.0
  O  O103  1  0.59721000  0.56005000  0.17487000  1.0
  O  O104  1  0.62816000  0.14027000  0.63651000  1.0
  O  O105  1  0.12816000  0.35973000  0.86349000  1.0
  O  O106  1  0.37184000  0.85973000  0.36349000  1.0
  O  O107  1  0.87184000  0.64027000  0.13651000  1.0
  O  O108  1  0.78323000  0.20181000  0.53979000  1.0
  O  O109  1  0.28323000  0.29819000  0.96021000  1.0
  O  O110  1  0.21677000  0.79819000  0.46021000  1.0
  O  O111  1  0.71677000  0.70181000  0.03979000  1.0
  O  O112  1  0.97872000  0.22153000  0.00478000  1.0
  O  O113  1  0.47872000  0.27847000  0.49522000  1.0
  O  O114  1  0.02129000  0.77846000  0.99522000  1.0
  O  O115  1  0.52128000  0.72153000  0.50478000  1.0
  O  O116  1  0.84530000  0.05684000  0.98280000  1.0
  O  O117  1  0.34530000  0.44316000  0.51720000  1.0
  O  O118  1  0.15470000  0.94316000  0.01720000  1.0
  O  O119  1  0.65470000  0.55684000  0.48280000  1.0
  O  O120  1  0.59688000  0.00769000  0.08076000  1.0
  O  O121  1  0.09688000  0.49231000  0.41924000  1.0
  O  O122  1  0.40312000  0.99231000  0.91924000  1.0
  O  O123  1  0.90312000  0.50769000  0.58076000  1.0
  O  O124  1  0.76820000  0.92556000  0.14439000  1.0
  O  O125  1  0.26820000  0.57444000  0.35561000  1.0
  O  O126  1  0.23180000  0.07444000  0.85561000  1.0
  O  O127  1  0.73180000  0.42556000  0.64439000  1.0
