# generated using pymatgen
data_CoH8C9(NO)2
_symmetry_space_group_name_H-M   'P 1'
_cell_length_a   9.02265000
_cell_length_b   9.47295000
_cell_length_c   10.69780000
_cell_angle_alpha   89.99960000
_cell_angle_beta   81.52490000
_cell_angle_gamma   89.99990000
_symmetry_Int_Tables_number   1
_chemical_formula_structural   CoH8C9(NO)2
_chemical_formula_sum   'Co4 H32 C36 N8 O8'
_cell_volume   904.36813753
_cell_formula_units_Z   4
loop_
 _symmetry_equiv_pos_site_id
 _symmetry_equiv_pos_as_xyz
  1  'x, y, z'
loop_
 _atom_site_type_symbol
 _atom_site_label
 _atom_site_symmetry_multiplicity
 _atom_site_fract_x
 _atom_site_fract_y
 _atom_site_fract_z
 _atom_site_occupancy
  Co  Co0  1  0.86067000  0.22546000  0.84955000  1.0
  Co  Co1  1  0.63934000  0.72546000  0.15044000  1.0
  Co  Co2  1  0.13933000  0.77454000  0.15045000  1.0
  Co  Co3  1  0.36067000  0.27454000  0.84956000  1.0
  H  H4  1  0.71064000  0.52405000  0.91543000  1.0
  H  H5  1  0.78936000  0.02405000  0.08456000  1.0
  H  H6  1  0.28936000  0.47596000  0.08457000  1.0
  H  H7  1  0.21063000  0.97595000  0.91544000  1.0
  H  H8  1  0.81722000  0.57072000  0.36224000  1.0
  H  H9  1  0.68278000  0.07072000  0.63776000  1.0
  H  H10  1  0.18279000  0.42927000  0.63777000  1.0
  H  H11  1  0.31722000  0.92928000  0.36224000  1.0
  H  H12  1  0.98251000  0.39310000  0.44370000  1.0
  H  H13  1  0.51749000  0.89310000  0.55630000  1.0
  H  H14  1  0.01749000  0.60690000  0.55630000  1.0
  H  H15  1  0.48251000  0.10691000  0.44370000  1.0
  H  H16  1  0.09153000  0.19523000  0.30881000  1.0
  H  H17  1  0.40847000  0.69523000  0.69119000  1.0
  H  H18  1  0.90847000  0.80477000  0.69119000  1.0
  H  H19  1  0.59152000  0.30478000  0.30881000  1.0
  H  H20  1  0.03308000  0.16429000  0.09016000  1.0
  H  H21  1  0.46691000  0.66429000  0.90985000  1.0
  H  H22  1  0.96691000  0.83571000  0.90985000  1.0
  H  H23  1  0.53308000  0.33571000  0.09015000  1.0
  H  H24  1  0.48675000  0.35792000  0.59020000  1.0
  H  H25  1  0.01324000  0.85793000  0.40980000  1.0
  H  H26  1  0.51325000  0.64208000  0.40980000  1.0
  H  H27  1  0.98676000  0.14207000  0.59020000  1.0
  H  H28  1  0.67402000  0.38246000  0.50731000  1.0
  H  H29  1  0.82597000  0.88247000  0.49269000  1.0
  H  H30  1  0.32597000  0.61754000  0.49269000  1.0
  H  H31  1  0.17403000  0.11753000  0.50731000  1.0
  H  H32  1  0.58708000  0.51590000  0.61047000  1.0
  H  H33  1  0.91291000  0.01591000  0.38952000  1.0
  H  H34  1  0.41291000  0.48409000  0.38953000  1.0
  H  H35  1  0.08709000  0.98409000  0.61047000  1.0
  C  C36  1  0.76222000  0.48400000  0.99382000  1.0
  C  C37  1  0.73778000  0.98400000  0.00618000  1.0
  C  C38  1  0.23778000  0.51600000  0.00619000  1.0
  C  C39  1  0.26222000  0.01601000  0.99382000  1.0
  C  C40  1  0.83360000  0.46776000  0.17911000  1.0
  C  C41  1  0.66641000  0.96776000  0.82089000  1.0
  C  C42  1  0.16640000  0.53224000  0.82089000  1.0
  C  C43  1  0.33360000  0.03224000  0.17911000  1.0
  C  C44  1  0.86392000  0.48332000  0.30291000  1.0
  C  C45  1  0.63609000  0.98332000  0.69709000  1.0
  C  C46  1  0.13609000  0.51668000  0.69710000  1.0
  C  C47  1  0.36392000  0.01668000  0.30291000  1.0
  C  C48  1  0.95632000  0.38315000  0.34780000  1.0
  C  C49  1  0.54368000  0.88315000  0.65220000  1.0
  C  C50  1  0.04367000  0.61685000  0.65220000  1.0
  C  C51  1  0.45632000  0.11685000  0.34780000  1.0
  C  C52  1  0.01657000  0.26945000  0.27179000  1.0
  C  C53  1  0.48343000  0.76945000  0.72820000  1.0
  C  C54  1  0.98343000  0.73055000  0.72821000  1.0
  C  C55  1  0.51656000  0.23056000  0.27179000  1.0
  C  C56  1  0.98478000  0.25137000  0.14913000  1.0
  C  C57  1  0.51522000  0.75137000  0.85087000  1.0
  C  C58  1  0.01522000  0.74864000  0.85087000  1.0
  C  C59  1  0.48478000  0.24864000  0.14913000  1.0
  C  C60  1  0.89270000  0.35175000  0.10334000  1.0
  C  C61  1  0.60730000  0.85175000  0.89666000  1.0
  C  C62  1  0.10730000  0.64825000  0.89667000  1.0
  C  C63  1  0.39270000  0.14825000  0.10334000  1.0
  C  C64  1  0.66028000  0.33959000  0.70611000  1.0
  C  C65  1  0.83972000  0.83959000  0.29389000  1.0
  C  C66  1  0.33972000  0.66041000  0.29389000  1.0
  C  C67  1  0.16028000  0.16041000  0.70611000  1.0
  C  C68  1  0.59839000  0.40119000  0.59552000  1.0
  C  C69  1  0.90161000  0.90120000  0.40448000  1.0
  C  C70  1  0.40161000  0.59880000  0.40448000  1.0
  C  C71  1  0.09839000  0.09880000  0.59552000  1.0
  N  N72  1  0.84405000  0.36446000  0.98633000  1.0
  N  N73  1  0.65595000  0.86446000  0.01367000  1.0
  N  N74  1  0.15595000  0.63554000  0.01367000  1.0
  N  N75  1  0.34405000  0.13553000  0.98633000  1.0
  N  N76  1  0.75074000  0.55006000  0.10661000  1.0
  N  N77  1  0.74926000  0.05006000  0.89339000  1.0
  N  N78  1  0.24926000  0.44994000  0.89339000  1.0
  N  N79  1  0.25074000  0.94994000  0.10661000  1.0
  O  O80  1  0.80089000  0.31494000  0.69630000  1.0
  O  O81  1  0.69911000  0.81494000  0.30370000  1.0
  O  O82  1  0.19911000  0.68506000  0.30370000  1.0
  O  O83  1  0.30089000  0.18506000  0.69630000  1.0
  O  O84  1  0.57476000  0.31461000  0.81015000  1.0
  O  O85  1  0.92524000  0.81461000  0.18985000  1.0
  O  O86  1  0.42524000  0.68539000  0.18985000  1.0
  O  O87  1  0.07476000  0.18539000  0.81014000  1.0
