# generated using pymatgen
data_TbH13(CO)10
_symmetry_space_group_name_H-M   'P 1'
_cell_length_a   6.42888000
_cell_length_b   12.16650000
_cell_length_c   19.19070000
_cell_angle_alpha   72.12560000
_cell_angle_beta   80.41060000
_cell_angle_gamma   74.69500000
_symmetry_Int_Tables_number   1
_chemical_formula_structural   TbH13(CO)10
_chemical_formula_sum   'Tb4 H52 C40 O40'
_cell_volume   1371.92054976
_cell_formula_units_Z   4
loop_
 _symmetry_equiv_pos_site_id
 _symmetry_equiv_pos_as_xyz
  1  'x, y, z'
loop_
 _atom_site_type_symbol
 _atom_site_label
 _atom_site_symmetry_multiplicity
 _atom_site_fract_x
 _atom_site_fract_y
 _atom_site_fract_z
 _atom_site_occupancy
  Tb  Tb0  1  0.37096000  0.17545000  0.98163000  1.0
  Tb  Tb1  1  0.52833000  0.32452000  0.51849000  1.0
  Tb  Tb2  1  0.62904000  0.82455000  0.01837000  1.0
  Tb  Tb3  1  0.47167000  0.67548000  0.48151000  1.0
  H  H4  1  0.59161000  0.22044000  0.35454000  1.0
  H  H5  1  0.16699000  0.27946000  0.14549000  1.0
  H  H6  1  0.40839000  0.77955000  0.64546000  1.0
  H  H7  1  0.83301000  0.72055000  0.85451000  1.0
  H  H8  1  0.26038000  0.44281000  0.93417000  1.0
  H  H9  1  0.63739000  0.05719000  0.56582000  1.0
  H  H10  1  0.73962000  0.55719000  0.06583000  1.0
  H  H11  1  0.36262000  0.94281000  0.43418000  1.0
  H  H12  1  0.48065000  0.40763000  0.97156000  1.0
  H  H13  1  0.85984000  0.09232000  0.52847000  1.0
  H  H14  1  0.51935000  0.59237000  0.02844000  1.0
  H  H15  1  0.14016000  0.90768000  0.47153000  1.0
  H  H16  1  0.81358000  0.07920000  0.93293000  1.0
  H  H17  1  0.82583000  0.42087000  0.56710000  1.0
  H  H18  1  0.18642000  0.92080000  0.06707000  1.0
  H  H19  1  0.17417000  0.57913000  0.43290000  1.0
  H  H20  1  0.83590000  0.20875000  0.92909000  1.0
  H  H21  1  0.97395000  0.29132000  0.57097000  1.0
  H  H22  1  0.16410000  0.79124000  0.07091000  1.0
  H  H23  1  0.02606000  0.70868000  0.42904000  1.0
  H  H24  1  0.77298000  0.16340000  0.17481000  1.0
  H  H25  1  0.11105000  0.33665000  0.32528000  1.0
  H  H26  1  0.22701000  0.83660000  0.82519000  1.0
  H  H27  1  0.88895000  0.66335000  0.67472000  1.0
  H  H28  1  0.91168000  0.92120000  0.14366000  1.0
  H  H29  1  0.97651000  0.57879000  0.35651000  1.0
  H  H30  1  0.08832000  0.07880000  0.85634000  1.0
  H  H31  1  0.02349000  0.42121000  0.64349000  1.0
  H  H32  1  0.51146000  0.00183000  0.24227000  1.0
  H  H33  1  0.75568000  0.49817000  0.25772000  1.0
  H  H34  1  0.48854000  0.99817000  0.75773000  1.0
  H  H35  1  0.24432000  0.50184000  0.74228000  1.0
  H  H36  1  0.59192000  0.86710000  0.21767000  1.0
  H  H37  1  0.67682000  0.63292000  0.28226000  1.0
  H  H38  1  0.40808000  0.13290000  0.78233000  1.0
  H  H39  1  0.32319000  0.36708000  0.71774000  1.0
  H  H40  1  0.93943000  0.82023000  0.27808000  1.0
  H  H41  1  0.03792000  0.67969000  0.22205000  1.0
  H  H42  1  0.06057000  0.17977000  0.72192000  1.0
  H  H43  1  0.96208000  0.32031000  0.77795000  1.0
  H  H44  1  0.97469000  0.93883000  0.35528000  1.0
  H  H45  1  0.26869000  0.56100000  0.14492000  1.0
  H  H46  1  0.02531000  0.06117000  0.64472000  1.0
  H  H47  1  0.73131000  0.43901000  0.85508000  1.0
  H  H48  1  0.06768000  0.10845000  0.25177000  1.0
  H  H49  1  0.42765000  0.39145000  0.24857000  1.0
  H  H50  1  0.93231000  0.89155000  0.74823000  1.0
  H  H51  1  0.57235000  0.60855000  0.75143000  1.0
  H  H52  1  0.16134000  0.96694000  0.23561000  1.0
  H  H53  1  0.36392000  0.53297000  0.26467000  1.0
  H  H54  1  0.83865000  0.03306000  0.76439000  1.0
  H  H55  1  0.63609000  0.46703000  0.73533000  1.0
  C  C56  1  0.89757000  0.08307000  0.17103000  1.0
  C  C57  1  0.15157000  0.41697000  0.32912000  1.0
  C  C58  1  0.10243000  0.91694000  0.82897000  1.0
  C  C59  1  0.84843000  0.58303000  0.67088000  1.0
  C  C60  1  0.78757000  0.99337000  0.15924000  1.0
  C  C61  1  0.94017000  0.50661000  0.34089000  1.0
  C  C62  1  0.21243000  0.00663000  0.84075000  1.0
  C  C63  1  0.05983000  0.49339000  0.65911000  1.0
  C  C64  1  0.65314000  0.93590000  0.22827000  1.0
  C  C65  1  0.81740000  0.56408000  0.27179000  1.0
  C  C66  1  0.34686000  0.06410000  0.77173000  1.0
  C  C67  1  0.18261000  0.43592000  0.72821000  1.0
  C  C68  1  0.79233000  0.88309000  0.29303000  1.0
  C  C69  1  0.96856000  0.61683000  0.20709000  1.0
  C  C70  1  0.20767000  0.11691000  0.70697000  1.0
  C  C71  1  0.03145000  0.38317000  0.79291000  1.0
  C  C72  1  0.87239000  0.98024000  0.30906000  1.0
  C  C73  1  0.16163000  0.51967000  0.19112000  1.0
  C  C74  1  0.12761000  0.01976000  0.69094000  1.0
  C  C75  1  0.83837000  0.48033000  0.80888000  1.0
  C  C76  1  0.01518000  0.03616000  0.24185000  1.0
  C  C77  1  0.29311000  0.46379000  0.25839000  1.0
  C  C78  1  0.98482000  0.96384000  0.75815000  1.0
  C  C79  1  0.70690000  0.53621000  0.74161000  1.0
  C  C80  1  0.05067000  0.12201000  0.10365000  1.0
  C  C81  1  0.27643000  0.37792000  0.39652000  1.0
  C  C82  1  0.94933000  0.87799000  0.89635000  1.0
  C  C83  1  0.72356000  0.62208000  0.60348000  1.0
  C  C84  1  0.64630000  0.05298000  0.09633000  1.0
  C  C85  1  0.79572000  0.44693000  0.40374000  1.0
  C  C86  1  0.35369000  0.94702000  0.90367000  1.0
  C  C87  1  0.20428000  0.55307000  0.59626000  1.0
  C  C88  1  0.67981000  0.81030000  0.35991000  1.0
  C  C89  1  0.85016000  0.68962000  0.14014000  1.0
  C  C90  1  0.32019000  0.18969000  0.64009000  1.0
  C  C91  1  0.14985000  0.31038000  0.85986000  1.0
  C  C92  1  0.68158000  0.06593000  0.33748000  1.0
  C  C93  1  0.08487000  0.43390000  0.16271000  1.0
  C  C94  1  0.31841000  0.93406000  0.66252000  1.0
  C  C95  1  0.91514000  0.56610000  0.83729000  1.0
  O  O96  1  0.13317000  0.21058000  0.09442000  1.0
  O  O97  1  0.43808000  0.28924000  0.40580000  1.0
  O  O98  1  0.86682000  0.78942000  0.90558000  1.0
  O  O99  1  0.56192000  0.71076000  0.59420000  1.0
  O  O100  1  0.10115000  0.06582000  0.05443000  1.0
  O  O101  1  0.22177000  0.43410000  0.44575000  1.0
  O  O102  1  0.89884000  0.93419000  0.94557000  1.0
  O  O103  1  0.77823000  0.56590000  0.55425000  1.0
  O  O104  1  0.58575000  0.16457000  0.07572000  1.0
  O  O105  1  0.82654000  0.33533000  0.42445000  1.0
  O  O106  1  0.41425000  0.83543000  0.92428000  1.0
  O  O107  1  0.17346000  0.66467000  0.57555000  1.0
  O  O108  1  0.58133000  0.98897000  0.06518000  1.0
  O  O109  1  0.63531000  0.51090000  0.43477000  1.0
  O  O110  1  0.41867000  0.01103000  0.93482000  1.0
  O  O111  1  0.36469000  0.48910000  0.56523000  1.0
  O  O112  1  0.51053000  0.78039000  0.35418000  1.0
  O  O113  1  0.64531000  0.71955000  0.14574000  1.0
  O  O114  1  0.48947000  0.21961000  0.64582000  1.0
  O  O115  1  0.35469000  0.28045000  0.85426000  1.0
  O  O116  1  0.76197000  0.77436000  0.42249000  1.0
  O  O117  1  0.95896000  0.72542000  0.07760000  1.0
  O  O118  1  0.23803000  0.22564000  0.57751000  1.0
  O  O119  1  0.04105000  0.27458000  0.92240000  1.0
  O  O120  1  0.51330000  0.03611000  0.36983000  1.0
  O  O121  1  0.91880000  0.46352000  0.13048000  1.0
  O  O122  1  0.48671000  0.96389000  0.63017000  1.0
  O  O123  1  0.08119000  0.53648000  0.86952000  1.0
  O  O124  1  0.71503000  0.17288000  0.32647000  1.0
  O  O125  1  0.21481000  0.32711000  0.17355000  1.0
  O  O126  1  0.28497000  0.82712000  0.67353000  1.0
  O  O127  1  0.78519000  0.67289000  0.82645000  1.0
  O  O128  1  0.34881000  0.38246000  0.97239000  1.0
  O  O129  1  0.70367000  0.11759000  0.52770000  1.0
  O  O130  1  0.65119000  0.61754000  0.02761000  1.0
  O  O131  1  0.29633000  0.88241000  0.47230000  1.0
  O  O132  1  0.73136000  0.16306000  0.92604000  1.0
  O  O133  1  0.82066000  0.33691000  0.57419000  1.0
  O  O134  1  0.26864000  0.83694000  0.07396000  1.0
  O  O135  1  0.17935000  0.66309000  0.42581000  1.0
