# generated using pymatgen
data_CuH20C20(N2O)4
_symmetry_space_group_name_H-M   'P 1'
_cell_length_a   8.01890000
_cell_length_b   8.43481000
_cell_length_c   8.81387000
_cell_angle_alpha   77.19470000
_cell_angle_beta   68.26920000
_cell_angle_gamma   76.53050000
_symmetry_Int_Tables_number   1
_chemical_formula_structural   CuH20C20(N2O)4
_chemical_formula_sum   'Cu1 H20 C20 N8 O4'
_cell_volume   532.46963134
_cell_formula_units_Z   1
loop_
 _symmetry_equiv_pos_site_id
 _symmetry_equiv_pos_as_xyz
  1  'x, y, z'
loop_
 _atom_site_type_symbol
 _atom_site_label
 _atom_site_symmetry_multiplicity
 _atom_site_fract_x
 _atom_site_fract_y
 _atom_site_fract_z
 _atom_site_occupancy
  Cu  Cu0  1  0.50000000  0.50000000  0.50000000  1.0
  H  H1  1  0.96850000  0.34470000  0.79592000  1.0
  H  H2  1  0.03150000  0.65530000  0.20408000  1.0
  H  H3  1  0.95752000  0.11832000  0.12296000  1.0
  H  H4  1  0.04249000  0.88168000  0.87704000  1.0
  H  H5  1  0.55992000  0.74273000  0.71452000  1.0
  H  H6  1  0.44008000  0.25727000  0.28548000  1.0
  H  H7  1  0.81239000  0.63200000  0.87609000  1.0
  H  H8  1  0.18761000  0.36800000  0.12391000  1.0
  H  H9  1  0.85505000  0.28053000  0.58301000  1.0
  H  H10  1  0.14495000  0.71948000  0.41699000  1.0
  H  H11  1  0.81338000  0.40863000  0.17849000  1.0
  H  H12  1  0.18663000  0.59137000  0.82151000  1.0
  H  H13  1  0.82554000  0.90264000  0.38272000  1.0
  H  H14  1  0.17447000  0.09736000  0.61728000  1.0
  H  H15  1  0.56971000  0.09636000  0.61122000  1.0
  H  H16  1  0.43029000  0.90364000  0.38877000  1.0
  H  H17  1  0.45081000  0.71678000  0.13849000  1.0
  H  H18  1  0.54919000  0.28321000  0.86152000  1.0
  H  H19  1  0.78485000  0.09369000  0.96893000  1.0
  H  H20  1  0.21515000  0.90631000  0.03108000  1.0
  C  C21  1  0.65874000  0.63041000  0.70966000  1.0
  C  C22  1  0.34126000  0.36959000  0.29034000  1.0
  C  C23  1  0.78363000  0.57692000  0.79063000  1.0
  C  C24  1  0.21637000  0.42308000  0.20936000  1.0
  C  C25  1  0.80842000  0.39245000  0.63809000  1.0
  C  C26  1  0.19157000  0.60756000  0.36191000  1.0
  C  C27  1  0.78278000  0.29747000  0.26499000  1.0
  C  C28  1  0.21723000  0.70253000  0.73502000  1.0
  C  C29  1  0.78671000  0.03513000  0.37597000  1.0
  C  C30  1  0.21330000  0.96487000  0.62403000  1.0
  C  C31  1  0.65933000  0.13186000  0.48741000  1.0
  C  C32  1  0.34068000  0.86813000  0.51258000  1.0
  C  C33  1  0.76428000  0.77764000  0.13508000  1.0
  C  C34  1  0.23571000  0.22235000  0.86492000  1.0
  C  C35  1  0.63061000  0.89345000  0.06176000  1.0
  C  C36  1  0.36938000  0.10655000  0.93825000  1.0
  C  C37  1  0.47021000  0.84153000  0.07785000  1.0
  C  C38  1  0.52978000  0.15847000  0.92216000  1.0
  C  C39  1  0.66021000  0.05294000  0.98222000  1.0
  C  C40  1  0.33978000  0.94706000  0.01778000  1.0
  N  N41  1  0.67460000  0.51334000  0.61503000  1.0
  N  N42  1  0.32539000  0.48666000  0.38497000  1.0
  N  N43  1  0.87645000  0.42685000  0.74382000  1.0
  N  N44  1  0.12355000  0.57315000  0.25618000  1.0
  N  N45  1  0.65866000  0.29548000  0.41609000  1.0
  N  N46  1  0.34134000  0.70452000  0.58390000  1.0
  N  N47  1  0.86244000  0.14225000  0.23712000  1.0
  N  N48  1  0.13757000  0.85775000  0.76288000  1.0
  O  O49  1  0.71096000  0.65606000  0.24029000  1.0
  O  O50  1  0.28904000  0.34393000  0.75972000  1.0
  O  O51  1  0.92765000  0.80935000  0.08649000  1.0
  O  O52  1  0.07235000  0.19065000  0.91351000  1.0
