# generated using pymatgen
data_CuHCBrN2
_symmetry_space_group_name_H-M   'P 1'
_cell_length_a   6.27896000
_cell_length_b   6.58135338
_cell_length_c   9.60101000
_cell_angle_alpha   90.00011786
_cell_angle_beta   90.00250000
_cell_angle_gamma   118.40947778
_symmetry_Int_Tables_number   1
_chemical_formula_structural   CuHCBrN2
_chemical_formula_sum   'Cu4 H4 C4 Br4 N8'
_cell_volume   348.97169180
_cell_formula_units_Z   4
loop_
 _symmetry_equiv_pos_site_id
 _symmetry_equiv_pos_as_xyz
  1  'x, y, z'
loop_
 _atom_site_type_symbol
 _atom_site_label
 _atom_site_symmetry_multiplicity
 _atom_site_fract_x
 _atom_site_fract_y
 _atom_site_fract_z
 _atom_site_occupancy
  Cu  Cu0  1  0.12501000  0.72766000  0.24999000  1.0
  Cu  Cu1  1  0.87499000  0.27234000  0.74999000  1.0
  Cu  Cu2  1  0.60281000  0.72867000  0.74999000  1.0
  Cu  Cu3  1  0.39718000  0.27131000  0.25001000  1.0
  H  H4  1  0.79406000  0.58772000  0.49991000  1.0
  H  H5  1  0.20594000  0.41228000  0.99991000  1.0
  H  H6  1  0.20592000  0.41228000  0.50007000  1.0
  H  H7  1  0.79407000  0.58775000  0.00008000  1.0
  C  C8  1  0.88816000  0.77613000  0.49995000  1.0
  C  C9  1  0.11187000  0.22384000  0.99998000  1.0
  C  C10  1  0.11186000  0.22384000  0.50002000  1.0
  C  C11  1  0.88814000  0.77612000  0.00004000  1.0
  Br  Br12  1  0.79916000  0.31797000  0.24999000  1.0
  Br  Br13  1  0.20083000  0.68203000  0.75000000  1.0
  Br  Br14  1  0.51932000  0.31877000  0.74995000  1.0
  Br  Br15  1  0.48066000  0.68122000  0.25016000  1.0
  N  N16  1  0.07214000  0.88238000  0.41098000  1.0
  N  N17  1  0.92785000  0.11763000  0.91096000  1.0
  N  N18  1  0.81025000  0.88250000  0.58900000  1.0
  N  N19  1  0.18976000  0.11751000  0.08897000  1.0
  N  N20  1  0.92785000  0.11762000  0.58903000  1.0
  N  N21  1  0.07216000  0.88239000  0.08901000  1.0
  N  N22  1  0.18975000  0.11750000  0.41102000  1.0
  N  N23  1  0.81024000  0.88251000  0.91101000  1.0
