# generated using pymatgen
data_ZnH8C11(N3O)2
_symmetry_space_group_name_H-M   'P 1'
_cell_length_a   9.01379000
_cell_length_b   10.16650000
_cell_length_c   18.71340000
_cell_angle_alpha   89.99980000
_cell_angle_beta   90.00040000
_cell_angle_gamma   89.99990000
_symmetry_Int_Tables_number   1
_chemical_formula_structural   ZnH8C11(N3O)2
_chemical_formula_sum   'Zn4 H32 C44 N24 O8'
_cell_volume   1714.87157433
_cell_formula_units_Z   4
loop_
 _symmetry_equiv_pos_site_id
 _symmetry_equiv_pos_as_xyz
  1  'x, y, z'
loop_
 _atom_site_type_symbol
 _atom_site_label
 _atom_site_symmetry_multiplicity
 _atom_site_fract_x
 _atom_site_fract_y
 _atom_site_fract_z
 _atom_site_occupancy
  Zn  Zn0  1  0.13248000  0.98524000  0.59752000  1.0
  Zn  Zn1  1  0.63248000  0.01476000  0.40248000  1.0
  Zn  Zn2  1  0.13248000  0.51476000  0.09752000  1.0
  Zn  Zn3  1  0.63248000  0.48524000  0.90248000  1.0
  H  H4  1  0.81884000  0.05271000  0.53354000  1.0
  H  H5  1  0.31884000  0.94729000  0.46646000  1.0
  H  H6  1  0.81884000  0.44729000  0.03353000  1.0
  H  H7  1  0.31884000  0.55271000  0.96646000  1.0
  H  H8  1  0.25169000  0.62023000  0.39365000  1.0
  H  H9  1  0.75169000  0.37977000  0.60634000  1.0
  H  H10  1  0.25169000  0.87977000  0.89365000  1.0
  H  H11  1  0.75169000  0.12023000  0.10635000  1.0
  H  H12  1  0.83996000  0.67824000  0.26442000  1.0
  H  H13  1  0.33996000  0.32176000  0.73558000  1.0
  H  H14  1  0.83996000  0.82176000  0.76442000  1.0
  H  H15  1  0.33996000  0.17824000  0.23558000  1.0
  H  H16  1  0.72281000  0.78887000  0.31081000  1.0
  H  H17  1  0.22282000  0.21113000  0.68918000  1.0
  H  H18  1  0.72281000  0.71113000  0.81081000  1.0
  H  H19  1  0.22281000  0.28887000  0.18919000  1.0
  H  H20  1  0.98644000  0.32897000  0.71065000  1.0
  H  H21  1  0.48643000  0.67102000  0.28935000  1.0
  H  H22  1  0.98644000  0.17103000  0.21066000  1.0
  H  H23  1  0.48644000  0.82897000  0.78935000  1.0
  H  H24  1  0.86138000  0.48865000  0.79347000  1.0
  H  H25  1  0.36137000  0.51134000  0.20654000  1.0
  H  H26  1  0.86137000  0.01135000  0.29347000  1.0
  H  H27  1  0.36138000  0.98865000  0.70653000  1.0
  H  H28  1  0.58527000  0.19775000  0.87370000  1.0
  H  H29  1  0.08526000  0.80224000  0.12630000  1.0
  H  H30  1  0.58527000  0.30225000  0.37370000  1.0
  H  H31  1  0.08526000  0.69776000  0.62629000  1.0
  H  H32  1  0.69971000  0.02632000  0.79286000  1.0
  H  H33  1  0.19970000  0.97368000  0.20714000  1.0
  H  H34  1  0.69971000  0.47369000  0.29286000  1.0
  H  H35  1  0.19970000  0.52631000  0.70714000  1.0
  C  C36  1  0.87169000  0.97492000  0.50273000  1.0
  C  C37  1  0.37169000  0.02508000  0.49727000  1.0
  C  C38  1  0.87169000  0.52508000  0.00273000  1.0
  C  C39  1  0.37169000  0.47492000  0.99727000  1.0
  C  C40  1  0.15496000  0.68346000  0.40194000  1.0
  C  C41  1  0.65497000  0.31654000  0.59806000  1.0
  C  C42  1  0.15496000  0.81655000  0.90194000  1.0
  C  C43  1  0.65496000  0.18346000  0.09806000  1.0
  C  C44  1  0.92652000  0.75126000  0.35745000  1.0
  C  C45  1  0.42652000  0.24874000  0.64255000  1.0
  C  C46  1  0.92652000  0.74874000  0.85745000  1.0
  C  C47  1  0.42652000  0.25127000  0.14255000  1.0
  C  C48  1  0.91567000  0.83462000  0.41801000  1.0
  C  C49  1  0.41568000  0.16538000  0.58199000  1.0
  C  C50  1  0.91567000  0.66539000  0.91801000  1.0
  C  C51  1  0.41567000  0.33462000  0.08199000  1.0
  C  C52  1  0.03473000  0.83275000  0.46671000  1.0
  C  C53  1  0.53473000  0.16725000  0.53329000  1.0
  C  C54  1  0.03473000  0.66726000  0.96671000  1.0
  C  C55  1  0.53473000  0.33275000  0.03329000  1.0
  C  C56  1  0.92428000  0.06768000  0.69698000  1.0
  C  C57  1  0.42428000  0.93231000  0.30302000  1.0
  C  C58  1  0.92429000  0.43232000  0.19699000  1.0
  C  C59  1  0.42428000  0.56767000  0.80301000  1.0
  C  C60  1  0.89833000  0.29696000  0.74637000  1.0
  C  C61  1  0.39833000  0.70304000  0.25364000  1.0
  C  C62  1  0.89833000  0.20304000  0.24637000  1.0
  C  C63  1  0.39834000  0.79696000  0.75363000  1.0
  C  C64  1  0.85236000  0.16566000  0.74628000  1.0
  C  C65  1  0.35235000  0.83434000  0.25372000  1.0
  C  C66  1  0.85235000  0.33434000  0.24628000  1.0
  C  C67  1  0.35235000  0.66566000  0.75372000  1.0
  C  C68  1  0.82930000  0.38515000  0.79196000  1.0
  C  C69  1  0.32929000  0.61485000  0.20805000  1.0
  C  C70  1  0.82930000  0.11485000  0.29196000  1.0
  C  C71  1  0.32930000  0.88515000  0.70804000  1.0
  C  C72  1  0.67423000  0.22182000  0.83647000  1.0
  C  C73  1  0.17422000  0.77818000  0.16353000  1.0
  C  C74  1  0.67422000  0.27818000  0.33647000  1.0
  C  C75  1  0.17422000  0.72182000  0.66353000  1.0
  C  C76  1  0.73754000  0.12799000  0.79198000  1.0
  C  C77  1  0.23753000  0.87201000  0.20802000  1.0
  C  C78  1  0.73754000  0.37201000  0.29198000  1.0
  C  C79  1  0.23754000  0.62799000  0.70802000  1.0
  N  N80  1  0.00429000  0.92232000  0.52013000  1.0
  N  N81  1  0.50428000  0.07768000  0.47987000  1.0
  N  N82  1  0.00429000  0.57768000  0.02013000  1.0
  N  N83  1  0.50428000  0.42233000  0.97987000  1.0
  N  N84  1  0.15760000  0.75813000  0.46093000  1.0
  N  N85  1  0.65760000  0.24186000  0.53906000  1.0
  N  N86  1  0.15760000  0.74187000  0.96094000  1.0
  N  N87  1  0.65760000  0.25814000  0.03907000  1.0
  N  N88  1  0.81276000  0.92630000  0.44222000  1.0
  N  N89  1  0.31276000  0.07370000  0.55778000  1.0
  N  N90  1  0.81276000  0.57370000  0.94222000  1.0
  N  N91  1  0.31276000  0.42631000  0.05778000  1.0
  N  N92  1  0.04989000  0.67602000  0.35124000  1.0
  N  N93  1  0.54990000  0.32398000  0.64876000  1.0
  N  N94  1  0.04990000  0.82398000  0.85124000  1.0
  N  N95  1  0.54990000  0.17603000  0.14876000  1.0
  N  N96  1  0.82381000  0.74497000  0.30481000  1.0
  N  N97  1  0.32382000  0.25502000  0.69519000  1.0
  N  N98  1  0.82381000  0.75503000  0.80481000  1.0
  N  N99  1  0.32382000  0.24498000  0.19519000  1.0
  N  N100  1  0.71991000  0.34777000  0.83653000  1.0
  N  N101  1  0.21990000  0.65223000  0.16347000  1.0
  N  N102  1  0.71991000  0.15223000  0.33653000  1.0
  N  N103  1  0.21991000  0.84777000  0.66347000  1.0
  O  O104  1  0.03790000  0.11401000  0.66212000  1.0
  O  O105  1  0.53790000  0.88599000  0.33788000  1.0
  O  O106  1  0.03790000  0.38599000  0.16212000  1.0
  O  O107  1  0.53790000  0.61400000  0.83788000  1.0
  O  O108  1  0.87386000  0.95410000  0.69107000  1.0
  O  O109  1  0.37386000  0.04590000  0.30893000  1.0
  O  O110  1  0.87387000  0.54590000  0.19107000  1.0
  O  O111  1  0.37386000  0.45410000  0.80893000  1.0
