# generated using pymatgen
data_Al4H41C64N2ClO20
_symmetry_space_group_name_H-M   'P 1'
_cell_length_a   6.65835000
_cell_length_b   22.41660000
_cell_length_c   23.84410000
_cell_angle_alpha   112.74300000
_cell_angle_beta   89.96040000
_cell_angle_gamma   89.94760000
_symmetry_Int_Tables_number   1
_chemical_formula_structural   Al4H41C64N2ClO20
_chemical_formula_sum   'Al4 H41 C64 N2 Cl1 O20'
_cell_volume   3282.19710585
_cell_formula_units_Z   1
loop_
 _symmetry_equiv_pos_site_id
 _symmetry_equiv_pos_as_xyz
  1  'x, y, z'
loop_
 _atom_site_type_symbol
 _atom_site_label
 _atom_site_symmetry_multiplicity
 _atom_site_fract_x
 _atom_site_fract_y
 _atom_site_fract_z
 _atom_site_occupancy
  Al  Al0  1  0.11949000  0.49943000  0.49936000  1.0
  Al  Al1  1  0.61905000  0.50227000  0.50234000  1.0
  Al  Al2  1  0.69053000  0.00238000  0.00286000  1.0
  Al  Al3  1  0.19082000  0.99965000  0.00053000  1.0
  H  H4  1  0.62702000  0.07356000  0.86701000  1.0
  H  H5  1  0.62821000  0.13643000  0.80004000  1.0
  H  H6  1  0.23933000  0.13037000  0.91629000  1.0
  H  H7  1  0.17058000  0.16498000  0.72711000  1.0
  H  H8  1  0.15003000  0.23153000  0.66587000  1.0
  H  H9  1  0.63955000  0.33273000  0.77115000  1.0
  H  H10  1  0.66153000  0.26627000  0.83275000  1.0
  H  H11  1  0.56252000  0.33722000  0.68015000  1.0
  H  H12  1  0.55323000  0.40333000  0.61676000  1.0
  H  H13  1  0.19508000  0.39471000  0.60238000  1.0
  H  H14  1  0.20846000  0.32989000  0.66682000  1.0
  H  H15  1  0.13871000  0.31434000  0.35467000  1.0
  H  H16  1  0.56337000  0.38262000  0.32259000  1.0
  H  H17  1  0.53719000  0.28943000  0.22288000  1.0
  H  H18  1  0.24504000  0.11630000  0.17954000  1.0
  H  H19  1  0.67112000  0.18633000  0.14844000  1.0
  H  H20  1  0.64437000  0.68460000  0.65035000  1.0
  H  H21  1  0.05638000  0.61972000  0.67554000  1.0
  H  H22  1  0.77671000  0.78700000  0.72518000  1.0
  H  H23  1  0.75053000  0.87995000  0.82521000  1.0
  H  H24  1  0.16621000  0.81735000  0.85408000  1.0
  H  H25  1  0.11688000  0.89679000  0.10333000  1.0
  H  H26  1  0.10168000  0.83052000  0.16639000  1.0
  H  H27  1  0.74693000  0.83909000  0.18212000  1.0
  H  H28  1  0.75881000  0.90411000  0.11778000  1.0
  H  H29  1  0.69388000  0.73893000  0.18028000  1.0
  H  H30  1  0.67921000  0.67145000  0.24037000  1.0
  H  H31  1  0.11947000  0.76183000  0.31985000  1.0
  H  H32  1  0.13425000  0.82928000  0.25971000  1.0
  H  H33  1  0.06706000  0.66192000  0.31861000  1.0
  H  H34  1  0.05547000  0.59855000  0.38446000  1.0
  H  H35  1  0.69765000  0.60529000  0.39779000  1.0
  H  H36  1  0.71229000  0.67051000  0.33377000  1.0
  H  H37  1  0.87086000  0.68186000  0.76383000  1.0
  H  H38  1  0.94591000  0.75412000  0.81490000  1.0
  H  H39  1  0.28119000  0.22612000  0.82393000  1.0
  H  H40  1  0.40273000  0.19612000  0.87078000  1.0
  H  H41  1  0.37610000  0.41653000  0.46526000  1.0
  H  H42  1  0.87486000  0.58592000  0.53003000  1.0
  H  H43  1  0.43776000  0.07569000  0.99494000  1.0
  H  H44  1  0.93419000  0.91635000  0.96720000  1.0
  C  C45  1  0.36490000  0.59234000  0.59783000  1.0
  C  C46  1  0.36993000  0.56246000  0.43634000  1.0
  C  C47  1  0.86627000  0.40906000  0.40391000  1.0
  C  C48  1  0.86883000  0.43935000  0.56517000  1.0
  C  C49  1  0.75878000  0.10083000  0.86381000  1.0
  C  C50  1  0.76005000  0.13644000  0.82726000  1.0
  C  C51  1  0.92889000  0.17169000  0.82255000  1.0
  C  C52  1  0.10536000  0.17005000  0.85548000  1.0
  C  C53  1  0.10512000  0.13231000  0.89083000  1.0
  C  C54  1  0.93392000  0.09891000  0.89585000  1.0
  C  C55  1  0.05633000  0.20279000  0.73791000  1.0
  C  C56  1  0.04447000  0.24032000  0.70322000  1.0
  C  C57  1  0.89454000  0.28781000  0.71411000  1.0
  C  C58  1  0.75512000  0.29547000  0.76073000  1.0
  C  C59  1  0.76720000  0.25794000  0.79546000  1.0
  C  C60  1  0.91842000  0.21105000  0.78507000  1.0
  C  C61  1  0.70226000  0.35033000  0.66392000  1.0
  C  C62  1  0.69563000  0.38689000  0.62824000  1.0
  C  C63  1  0.87346000  0.40244000  0.60549000  1.0
  C  C64  1  0.05791000  0.38168000  0.61987000  1.0
  C  C65  1  0.06383000  0.34513000  0.65544000  1.0
  C  C66  1  0.88621000  0.32815000  0.67773000  1.0
  C  C67  1  0.85442000  0.35357000  0.34396000  1.0
  C  C68  1  0.95647000  0.14705000  0.15805000  1.0
  C  C69  1  0.14123000  0.20350000  0.25076000  1.0
  C  C70  1  0.12757000  0.15284000  0.19516000  1.0
  C  C71  1  0.80374000  0.19232000  0.17694000  1.0
  C  C72  1  0.82013000  0.24667000  0.23244000  1.0
  C  C73  1  0.99268000  0.25336000  0.27079000  1.0
  C  C74  1  0.00726000  0.30817000  0.32584000  1.0
  C  C75  1  0.68237000  0.34653000  0.30687000  1.0
  C  C76  1  0.66809000  0.29491000  0.25199000  1.0
  C  C77  1  0.35254000  0.64749000  0.65804000  1.0
  C  C78  1  0.45440000  0.85281000  0.84486000  1.0
  C  C79  1  0.64450000  0.79295000  0.75394000  1.0
  C  C80  1  0.63013000  0.84450000  0.80891000  1.0
  C  C81  1  0.29820000  0.80885000  0.82490000  1.0
  C  C82  1  0.31181000  0.75409000  0.76975000  1.0
  C  C83  1  0.48977000  0.74573000  0.73316000  1.0
  C  C84  1  0.50923000  0.69132000  0.67795000  1.0
  C  C85  1  0.17621000  0.65524000  0.69297000  1.0
  C  C86  1  0.15483000  0.70637000  0.74901000  1.0
  C  C87  1  0.25347000  0.88378000  0.12109000  1.0
  C  C88  1  0.24633000  0.84723000  0.15665000  1.0
  C  C89  1  0.42343000  0.82955000  0.17863000  1.0
  C  C90  1  0.60820000  0.85080000  0.16427000  1.0
  C  C91  1  0.61604000  0.88747000  0.12875000  1.0
  C  C92  1  0.43865000  0.90389000  0.10648000  1.0
  C  C93  1  0.56881000  0.74498000  0.21159000  1.0
  C  C94  1  0.56051000  0.70679000  0.24566000  1.0
  C  C95  1  0.39824000  0.71128000  0.28495000  1.0
  C  C96  1  0.24445000  0.75570000  0.28849000  1.0
  C  C97  1  0.25277000  0.79387000  0.25440000  1.0
  C  C98  1  0.41512000  0.78943000  0.21518000  1.0
  C  C99  1  0.20591000  0.65053000  0.33664000  1.0
  C  C100  1  0.19824000  0.61476000  0.37299000  1.0
  C  C101  1  0.37577000  0.59869000  0.39546000  1.0
  C  C102  1  0.56080000  0.61814000  0.38003000  1.0
  C  C103  1  0.56778000  0.65402000  0.34386000  1.0
  C  C104  1  0.39044000  0.67145000  0.32180000  1.0
  C  C105  1  0.44488000  0.94104000  0.06656000  1.0
  C  C106  1  0.44157000  0.90782000  0.90498000  1.0
  C  C107  1  0.93605000  0.06226000  0.93640000  1.0
  C  C108  1  0.94751000  0.09194000  0.09774000  1.0
  N  N109  1  0.98944000  0.70986000  0.78511000  1.0
  N  N110  1  0.27056000  0.20766000  0.85644000  1.0
  Cl  Cl111  1  0.34253000  0.20579000  0.29763000  1.0
  O  O112  1  0.53893000  0.55030000  0.45468000  1.0
  O  O113  1  0.19833000  0.56888000  0.57287000  1.0
  O  O114  1  0.03793000  0.45133000  0.54683000  1.0
  O  O115  1  0.19826000  0.54737000  0.45064000  1.0
  O  O116  1  0.03941000  0.42849000  0.42620000  1.0
  O  O117  1  0.53821000  0.57314000  0.57535000  1.0
  O  O118  1  0.37070000  0.46178000  0.49215000  1.0
  O  O119  1  0.69908000  0.43230000  0.42881000  1.0
  O  O120  1  0.69738000  0.45501000  0.55134000  1.0
  O  O121  1  0.87049000  0.53939000  0.50890000  1.0
  O  O122  1  0.26752000  0.92946000  0.92530000  1.0
  O  O123  1  0.61512000  0.96048000  0.05598000  1.0
  O  O124  1  0.77690000  0.07584000  0.07225000  1.0
  O  O125  1  0.60844000  0.92832000  0.93168000  1.0
  O  O126  1  0.76573000  0.04528000  0.94974000  1.0
  O  O127  1  0.27796000  0.94984000  0.04486000  1.0
  O  O128  1  0.43909000  0.03969000  0.00785000  1.0
  O  O129  1  0.10583000  0.05140000  0.95552000  1.0
  O  O130  1  0.11475000  0.06581000  0.07596000  1.0
  O  O131  1  0.93953000  0.96195000  0.99286000  1.0
