# generated using pymatgen
data_KNaH30Ru2(C2O)12
_symmetry_space_group_name_H-M   'P 1'
_cell_length_a   9.69582000
_cell_length_b   9.69581000
_cell_length_c   9.69581000
_cell_angle_alpha   62.16860000
_cell_angle_beta   62.16880000
_cell_angle_gamma   62.16850000
_symmetry_Int_Tables_number   1
_chemical_formula_structural   KNaH30Ru2(C2O)12
_chemical_formula_sum   'K1 Na1 H30 Ru2 C24 O12'
_cell_volume   675.74743539
_cell_formula_units_Z   1
loop_
 _symmetry_equiv_pos_site_id
 _symmetry_equiv_pos_as_xyz
  1  'x, y, z'
loop_
 _atom_site_type_symbol
 _atom_site_label
 _atom_site_symmetry_multiplicity
 _atom_site_fract_x
 _atom_site_fract_y
 _atom_site_fract_z
 _atom_site_occupancy
  K  K0  1  0.50001000  0.50000000  0.49998000  1.0
  Na  Na1  1  0.00000000  0.00000000  0.00000000  1.0
  H  H2  1  0.74568000  0.70197000  0.49340000  1.0
  H  H3  1  0.70198000  0.49339000  0.74568000  1.0
  H  H4  1  0.49340000  0.74568000  0.70198000  1.0
  H  H5  1  0.25430000  0.29803000  0.50660000  1.0
  H  H6  1  0.29803000  0.50660000  0.25431000  1.0
  H  H7  1  0.50660000  0.25432000  0.29802000  1.0
  H  H8  1  0.90890000  0.78685000  0.35013000  1.0
  H  H9  1  0.78686000  0.35013000  0.90890000  1.0
  H  H10  1  0.35013000  0.90890000  0.78686000  1.0
  H  H11  1  0.09109000  0.21315000  0.64987000  1.0
  H  H12  1  0.21314000  0.64987000  0.09109000  1.0
  H  H13  1  0.64987000  0.09110000  0.21314000  1.0
  H  H14  1  0.93793000  0.57735000  0.39416000  1.0
  H  H15  1  0.57736000  0.39416000  0.93794000  1.0
  H  H16  1  0.39415000  0.93793000  0.57735000  1.0
  H  H17  1  0.06205000  0.42265000  0.60584000  1.0
  H  H18  1  0.42265000  0.60584000  0.06206000  1.0
  H  H19  1  0.60584000  0.06206000  0.42264000  1.0
  H  H20  1  0.06695000  0.74994000  0.57314000  1.0
  H  H21  1  0.74994000  0.57314000  0.06695000  1.0
  H  H22  1  0.57314000  0.06695000  0.74994000  1.0
  H  H23  1  0.93305000  0.25006000  0.42686000  1.0
  H  H24  1  0.25006000  0.42686000  0.93305000  1.0
  H  H25  1  0.42686000  0.93305000  0.25006000  1.0
  H  H26  1  0.84335000  0.01930000  0.52484000  1.0
  H  H27  1  0.01930000  0.52483000  0.84335000  1.0
  H  H28  1  0.52483000  0.84335000  0.01930000  1.0
  H  H29  1  0.15665000  0.98070000  0.47517000  1.0
  H  H30  1  0.98070000  0.47517000  0.15665000  1.0
  H  H31  1  0.47516000  0.15665000  0.98070000  1.0
  Ru  Ru32  1  0.86224000  0.86224000  0.86224000  1.0
  Ru  Ru33  1  0.13776000  0.13776000  0.13776000  1.0
  C  C34  1  0.78645000  0.74499000  0.24015000  1.0
  C  C35  1  0.74500000  0.24014000  0.78646000  1.0
  C  C36  1  0.24016000  0.78645000  0.74499000  1.0
  C  C37  1  0.21352000  0.25501000  0.75985000  1.0
  C  C38  1  0.25501000  0.75986000  0.21353000  1.0
  C  C39  1  0.75985000  0.21354000  0.25500000  1.0
  C  C40  1  0.84793000  0.70173000  0.37812000  1.0
  C  C41  1  0.70173000  0.37811000  0.84794000  1.0
  C  C42  1  0.37811000  0.84794000  0.70173000  1.0
  C  C43  1  0.15205000  0.29828000  0.62189000  1.0
  C  C44  1  0.29827000  0.62189000  0.15206000  1.0
  C  C45  1  0.62189000  0.15206000  0.29827000  1.0
  C  C46  1  0.94535000  0.76582000  0.66553000  1.0
  C  C47  1  0.76582000  0.66553000  0.94535000  1.0
  C  C48  1  0.66552000  0.94535000  0.76582000  1.0
  C  C49  1  0.05465000  0.23418000  0.33447000  1.0
  C  C50  1  0.23417000  0.33448000  0.05465000  1.0
  C  C51  1  0.33447000  0.05465000  0.23418000  1.0
  C  C52  1  0.81878000  0.91886000  0.63753000  1.0
  C  C53  1  0.91887000  0.63753000  0.81878000  1.0
  C  C54  1  0.63753000  0.81878000  0.91886000  1.0
  C  C55  1  0.18122000  0.08114000  0.36247000  1.0
  C  C56  1  0.08113000  0.36247000  0.18122000  1.0
  C  C57  1  0.36247000  0.18122000  0.08114000  1.0
  O  O58  1  0.88769000  0.79350000  0.09338000  1.0
  O  O59  1  0.79350000  0.09337000  0.88770000  1.0
  O  O60  1  0.09338000  0.88768000  0.79350000  1.0
  O  O61  1  0.11230000  0.20651000  0.90662000  1.0
  O  O62  1  0.20650000  0.90662000  0.11230000  1.0
  O  O63  1  0.90662000  0.11230000  0.20650000  1.0
  O  O64  1  0.65370000  0.72968000  0.27068000  1.0
  O  O65  1  0.72968000  0.27067000  0.65371000  1.0
  O  O66  1  0.27069000  0.65371000  0.72967000  1.0
  O  O67  1  0.34630000  0.27033000  0.72932000  1.0
  O  O68  1  0.27032000  0.72932000  0.34629000  1.0
  O  O69  1  0.72933000  0.34629000  0.27032000  1.0
