# generated using pymatgen
data_ZnH12C10(NO2)4
_symmetry_space_group_name_H-M   'P 1'
_cell_length_a   7.34815000
_cell_length_b   11.87760000
_cell_length_c   19.34800000
_cell_angle_alpha   90.00000000
_cell_angle_beta   90.00000000
_cell_angle_gamma   90.00000000
_symmetry_Int_Tables_number   1
_chemical_formula_structural   ZnH12C10(NO2)4
_chemical_formula_sum   'Zn4 H48 C40 N16 O32'
_cell_volume   1688.66222084
_cell_formula_units_Z   4
loop_
 _symmetry_equiv_pos_site_id
 _symmetry_equiv_pos_as_xyz
  1  'x, y, z'
loop_
 _atom_site_type_symbol
 _atom_site_label
 _atom_site_symmetry_multiplicity
 _atom_site_fract_x
 _atom_site_fract_y
 _atom_site_fract_z
 _atom_site_occupancy
  Zn  Zn0  1  0.50000000  0.50000000  0.00000000  1.0
  Zn  Zn1  1  0.50000000  0.00000000  0.50000000  1.0
  Zn  Zn2  1  0.00000000  0.00000000  0.00000000  1.0
  Zn  Zn3  1  0.00000000  0.50000000  0.50000000  1.0
  H  H4  1  0.45868000  0.25322000  0.04356000  1.0
  H  H5  1  0.45869000  0.24677000  0.45644000  1.0
  H  H6  1  0.04131000  0.75322000  0.95644000  1.0
  H  H7  1  0.04131000  0.74678000  0.54356000  1.0
  H  H8  1  0.54131000  0.74677000  0.95644000  1.0
  H  H9  1  0.54131000  0.75322000  0.54356000  1.0
  H  H10  1  0.95868000  0.24677000  0.04356000  1.0
  H  H11  1  0.95869000  0.25323000  0.45644000  1.0
  H  H12  1  0.45528000  0.14012000  0.14947000  1.0
  H  H13  1  0.45528000  0.35988000  0.35053000  1.0
  H  H14  1  0.04472000  0.64012000  0.85053000  1.0
  H  H15  1  0.04472000  0.85988000  0.64947000  1.0
  H  H16  1  0.54471000  0.85988000  0.85053000  1.0
  H  H17  1  0.54472000  0.64012000  0.64947000  1.0
  H  H18  1  0.95528000  0.35988000  0.14947000  1.0
  H  H19  1  0.95528000  0.14012000  0.35053000  1.0
  H  H20  1  0.56350000  0.44666000  0.26422000  1.0
  H  H21  1  0.56350000  0.05333000  0.23578000  1.0
  H  H22  1  0.93650000  0.94666000  0.73578000  1.0
  H  H23  1  0.93649000  0.55333000  0.76422000  1.0
  H  H24  1  0.43650000  0.55333000  0.73578000  1.0
  H  H25  1  0.43650000  0.94667000  0.76422000  1.0
  H  H26  1  0.06350000  0.05334000  0.26422000  1.0
  H  H27  1  0.06351000  0.44667000  0.23578000  1.0
  H  H28  1  0.55108000  0.54844000  0.15217000  1.0
  H  H29  1  0.55108000  0.95156000  0.34783000  1.0
  H  H30  1  0.94891000  0.04844000  0.84783000  1.0
  H  H31  1  0.94891000  0.45156000  0.65217000  1.0
  H  H32  1  0.44892000  0.45155000  0.84783000  1.0
  H  H33  1  0.44892000  0.04844000  0.65217000  1.0
  H  H34  1  0.05108000  0.95156000  0.15217000  1.0
  H  H35  1  0.05110000  0.54844000  0.34783000  1.0
  H  H36  1  0.60039000  0.29724000  0.93991000  1.0
  H  H37  1  0.60039000  0.20276000  0.56009000  1.0
  H  H38  1  0.89962000  0.79724000  0.06009000  1.0
  H  H39  1  0.89962000  0.70276000  0.43991000  1.0
  H  H40  1  0.39961000  0.70276000  0.06009000  1.0
  H  H41  1  0.39962000  0.79724000  0.43991000  1.0
  H  H42  1  0.10038000  0.20276000  0.93991000  1.0
  H  H43  1  0.10038000  0.29724000  0.56009000  1.0
  H  H44  1  0.77964000  0.37215000  0.93826000  1.0
  H  H45  1  0.77965000  0.12785000  0.56174000  1.0
  H  H46  1  0.72036000  0.87215000  0.06174000  1.0
  H  H47  1  0.72036000  0.62785000  0.43826000  1.0
  H  H48  1  0.22036000  0.62785000  0.06174000  1.0
  H  H49  1  0.22036000  0.87215000  0.43826000  1.0
  H  H50  1  0.27964000  0.12785000  0.93826000  1.0
  H  H51  1  0.27964000  0.37215000  0.56174000  1.0
  C  C52  1  0.48113000  0.29344000  0.09339000  1.0
  C  C53  1  0.48114000  0.20656000  0.40661000  1.0
  C  C54  1  0.01886000  0.79344000  0.90661000  1.0
  C  C55  1  0.01886000  0.70656000  0.59339000  1.0
  C  C56  1  0.51886000  0.70656000  0.90661000  1.0
  C  C57  1  0.51886000  0.79344000  0.59339000  1.0
  C  C58  1  0.98114000  0.20656000  0.09339000  1.0
  C  C59  1  0.98114000  0.29344000  0.40661000  1.0
  C  C60  1  0.48065000  0.23002000  0.15372000  1.0
  C  C61  1  0.48065000  0.26998000  0.34628000  1.0
  C  C62  1  0.01934000  0.73002000  0.84628000  1.0
  C  C63  1  0.01934000  0.76998000  0.65372000  1.0
  C  C64  1  0.51934000  0.76998000  0.84628000  1.0
  C  C65  1  0.51934000  0.73002000  0.65372000  1.0
  C  C66  1  0.98066000  0.26998000  0.15372000  1.0
  C  C67  1  0.98065000  0.23002000  0.34628000  1.0
  C  C68  1  0.50989000  0.28268000  0.21751000  1.0
  C  C69  1  0.50989000  0.21731000  0.28249000  1.0
  C  C70  1  0.99011000  0.78269000  0.78249000  1.0
  C  C71  1  0.99010000  0.71731000  0.71751000  1.0
  C  C72  1  0.49011000  0.71732000  0.78249000  1.0
  C  C73  1  0.49011000  0.78269000  0.71751000  1.0
  C  C74  1  0.00989000  0.21732000  0.21751000  1.0
  C  C75  1  0.00989000  0.28269000  0.28249000  1.0
  C  C76  1  0.53762000  0.39983000  0.21677000  1.0
  C  C77  1  0.53762000  0.10016000  0.28323000  1.0
  C  C78  1  0.96238000  0.89983000  0.78323000  1.0
  C  C79  1  0.96237000  0.60017000  0.71677000  1.0
  C  C80  1  0.46238000  0.60016000  0.78323000  1.0
  C  C81  1  0.46238000  0.89983000  0.71677000  1.0
  C  C82  1  0.03763000  0.10017000  0.21677000  1.0
  C  C83  1  0.03763000  0.39984000  0.28323000  1.0
  C  C84  1  0.53381000  0.45742000  0.15427000  1.0
  C  C85  1  0.53381000  0.04258000  0.34573000  1.0
  C  C86  1  0.96618000  0.95742000  0.84573000  1.0
  C  C87  1  0.96618000  0.54258000  0.65427000  1.0
  C  C88  1  0.46619000  0.54258000  0.84573000  1.0
  C  C89  1  0.46619000  0.95742000  0.65427000  1.0
  C  C90  1  0.03381000  0.04258000  0.15427000  1.0
  C  C91  1  0.03382000  0.45743000  0.34573000  1.0
  N  N92  1  0.50664000  0.40558000  0.09319000  1.0
  N  N93  1  0.50664000  0.09442000  0.40681000  1.0
  N  N94  1  0.99336000  0.90558000  0.90681000  1.0
  N  N95  1  0.99335000  0.59442000  0.59319000  1.0
  N  N96  1  0.49336000  0.59442000  0.90681000  1.0
  N  N97  1  0.49336000  0.90558000  0.59319000  1.0
  N  N98  1  0.00664000  0.09442000  0.09319000  1.0
  N  N99  1  0.00665000  0.40558000  0.40681000  1.0
  N  N100  1  0.12111000  0.41633000  0.94285000  1.0
  N  N101  1  0.12112000  0.08367000  0.55715000  1.0
  N  N102  1  0.37889000  0.91633000  0.05715000  1.0
  N  N103  1  0.37888000  0.58368000  0.44285000  1.0
  N  N104  1  0.87889000  0.58367000  0.05715000  1.0
  N  N105  1  0.87888000  0.91633000  0.44285000  1.0
  N  N106  1  0.62112000  0.08367000  0.94285000  1.0
  N  N107  1  0.62112000  0.41633000  0.55715000  1.0
  O  O108  1  0.27290000  0.38678000  0.96920000  1.0
  O  O109  1  0.27291000  0.11323000  0.53081000  1.0
  O  O110  1  0.22710000  0.88678000  0.03080000  1.0
  O  O111  1  0.22709000  0.61323000  0.46919000  1.0
  O  O112  1  0.72710000  0.61322000  0.03080000  1.0
  O  O113  1  0.72709000  0.88678000  0.46919000  1.0
  O  O114  1  0.77290000  0.11322000  0.96920000  1.0
  O  O115  1  0.77290000  0.38678000  0.53080000  1.0
  O  O116  1  0.00779000  0.33764000  0.92818000  1.0
  O  O117  1  0.00779000  0.16236000  0.57182000  1.0
  O  O118  1  0.49221000  0.83764000  0.07182000  1.0
  O  O119  1  0.49221000  0.66236000  0.42818000  1.0
  O  O120  1  0.99221000  0.66236000  0.07182000  1.0
  O  O121  1  0.99221000  0.83764000  0.42818000  1.0
  O  O122  1  0.50779000  0.16236000  0.92818000  1.0
  O  O123  1  0.50779000  0.33764000  0.57182000  1.0
  O  O124  1  0.08341000  0.51665000  0.93139000  1.0
  O  O125  1  0.08341000  0.98336000  0.56861000  1.0
  O  O126  1  0.41659000  0.01665000  0.06861000  1.0
  O  O127  1  0.41659000  0.48336000  0.43139000  1.0
  O  O128  1  0.91660000  0.48335000  0.06861000  1.0
  O  O129  1  0.91660000  0.01664000  0.43139000  1.0
  O  O130  1  0.58340000  0.98335000  0.93139000  1.0
  O  O131  1  0.58340000  0.51665000  0.56861000  1.0
  O  O132  1  0.64527000  0.37596000  0.94233000  1.0
  O  O133  1  0.64527000  0.12404000  0.55767000  1.0
  O  O134  1  0.85473000  0.87596000  0.05767000  1.0
  O  O135  1  0.85473000  0.62404000  0.44233000  1.0
  O  O136  1  0.35473000  0.62404000  0.05768000  1.0
  O  O137  1  0.35473000  0.87596000  0.44233000  1.0
  O  O138  1  0.14527000  0.12404000  0.94233000  1.0
  O  O139  1  0.14527000  0.37596000  0.55768000  1.0
