# generated using pymatgen
data_TbCuH10C16N5O9
_symmetry_space_group_name_H-M   'P 1'
_cell_length_a   10.49090000
_cell_length_b   10.54037639
_cell_length_c   11.62210000
_cell_angle_alpha   99.10323972
_cell_angle_beta   98.29490000
_cell_angle_gamma   117.70158370
_symmetry_Int_Tables_number   1
_chemical_formula_structural   TbCuH10C16N5O9
_chemical_formula_sum   'Tb2 Cu2 H20 C32 N10 O18'
_cell_volume   1088.08398395
_cell_formula_units_Z   2
loop_
 _symmetry_equiv_pos_site_id
 _symmetry_equiv_pos_as_xyz
  1  'x, y, z'
loop_
 _atom_site_type_symbol
 _atom_site_label
 _atom_site_symmetry_multiplicity
 _atom_site_fract_x
 _atom_site_fract_y
 _atom_site_fract_z
 _atom_site_occupancy
  Tb  Tb0  1  0.55692000  0.99227000  0.82473000  1.0
  Tb  Tb1  1  0.44308000  0.00773000  0.17526000  1.0
  Cu  Cu2  1  0.00000000  0.99999000  0.00000000  1.0
  Cu  Cu3  1  0.00000000  0.00001000  0.50000000  1.0
  H  H4  1  0.30395000  0.23055000  0.48986000  1.0
  H  H5  1  0.69604000  0.76946000  0.51013000  1.0
  H  H6  1  0.47767000  0.50373000  0.58546000  1.0
  H  H7  1  0.52233000  0.49628000  0.41451000  1.0
  H  H8  1  0.14627000  0.50608000  0.76197000  1.0
  H  H9  1  0.85376000  0.49394000  0.23805000  1.0
  H  H10  1  0.98189000  0.23310000  0.65875000  1.0
  H  H11  1  0.01814000  0.76692000  0.34127000  1.0
  H  H12  1  0.72876000  0.74658000  0.82030000  1.0
  H  H13  1  0.27125000  0.25342000  0.17969000  1.0
  H  H14  1  0.59738000  0.46716000  0.76828000  1.0
  H  H15  1  0.40261000  0.53283000  0.23173000  1.0
  H  H16  1  0.91820000  0.50026000  0.06360000  1.0
  H  H17  1  0.08177000  0.49972000  0.93641000  1.0
  H  H18  1  0.04104000  0.77776000  0.10443000  1.0
  H  H19  1  0.95895000  0.22223000  0.89557000  1.0
  H  H20  1  0.80652000  0.01936000  0.71944000  1.0
  H  H21  1  0.19348000  0.98064000  0.28056000  1.0
  H  H22  1  0.72197000  0.05444000  0.61901000  1.0
  H  H23  1  0.27805000  0.94557000  0.38099000  1.0
  C  C24  1  0.16757000  0.97212000  0.70863000  1.0
  C  C25  1  0.83244000  0.02789000  0.29137000  1.0
  C  C26  1  0.17052000  0.98513000  0.83118000  1.0
  C  C27  1  0.82949000  0.01487000  0.16881000  1.0
  C  C28  1  0.26132000  0.95551000  0.62707000  1.0
  C  C29  1  0.73868000  0.04449000  0.37293000  1.0
  C  C30  1  0.27633000  0.00764000  0.94182000  1.0
  C  C31  1  0.72367000  0.99234000  0.05818000  1.0
  C  C32  1  0.27290000  0.29569000  0.55011000  1.0
  C  C33  1  0.72710000  0.70432000  0.44988000  1.0
  C  C34  1  0.36853000  0.44623000  0.60325000  1.0
  C  C35  1  0.63148000  0.55379000  0.39674000  1.0
  C  C36  1  0.32407000  0.52373000  0.68134000  1.0
  C  C37  1  0.67595000  0.47628000  0.31866000  1.0
  C  C38  1  0.18312000  0.44729000  0.70202000  1.0
  C  C39  1  0.81691000  0.55273000  0.29799000  1.0
  C  C40  1  0.09285000  0.29723000  0.64557000  1.0
  C  C41  1  0.90717000  0.70279000  0.35443000  1.0
  C  C42  1  0.42351000  0.68594000  0.74285000  1.0
  C  C43  1  0.57650000  0.31407000  0.25715000  1.0
  C  C44  1  0.76763000  0.68786000  0.87180000  1.0
  C  C45  1  0.23237000  0.31213000  0.12820000  1.0
  C  C46  1  0.69497000  0.53381000  0.84350000  1.0
  C  C47  1  0.30501000  0.46618000  0.15651000  1.0
  C  C48  1  0.74955000  0.46405000  0.91234000  1.0
  C  C49  1  0.25041000  0.53593000  0.08767000  1.0
  C  C50  1  0.87381000  0.55224000  0.00902000  1.0
  C  C51  1  0.12617000  0.44775000  0.99099000  1.0
  C  C52  1  0.94131000  0.70564000  0.03213000  1.0
  C  C53  1  0.05867000  0.29434000  0.96788000  1.0
  C  C54  1  0.67953000  0.29804000  0.88076000  1.0
  C  C55  1  0.32043000  0.70194000  0.11926000  1.0
  N  N56  1  0.04101000  0.97002000  0.65856000  1.0
  N  N57  1  0.95900000  0.02999000  0.34144000  1.0
  N  N58  1  0.96725000  0.97866000  0.74060000  1.0
  N  N59  1  0.03276000  0.02134000  0.25939000  1.0
  N  N60  1  0.04520000  0.98763000  0.84456000  1.0
  N  N61  1  0.95481000  0.01237000  0.15544000  1.0
  N  N62  1  0.13784000  0.22322000  0.57187000  1.0
  N  N63  1  0.86216000  0.77679000  0.42813000  1.0
  N  N64  1  0.88923000  0.77158000  0.96421000  1.0
  N  N65  1  0.11077000  0.22842000  0.03579000  1.0
  O  O66  1  0.22704000  0.96665000  0.52146000  1.0
  O  O67  1  0.77296000  0.03336000  0.47854000  1.0
  O  O68  1  0.36131000  0.92669000  0.66666667  1.0
  O  O69  1  0.63869000  0.07331000  0.33333333  1.0
  O  O70  1  0.40182000  0.02141000  0.93846000  1.0
  O  O71  1  0.59817000  0.97855000  0.06154000  1.0
  O  O72  1  0.23867000  0.01656000  0.04145000  1.0
  O  O73  1  0.76133000  0.98344000  0.95855000  1.0
  O  O74  1  0.53856000  0.76231000  0.70675000  1.0
  O  O75  1  0.46145000  0.23771000  0.29326000  1.0
  O  O76  1  0.38692000  0.74215000  0.82817000  1.0
  O  O77  1  0.61308000  0.25785000  0.17183000  1.0
  O  O78  1  0.73761000  0.24004000  0.94302000  1.0
  O  O79  1  0.26237000  0.75995000  0.05698000  1.0
  O  O80  1  0.56670000  0.22043000  0.79172000  1.0
  O  O81  1  0.43325000  0.77956000  0.20830000  1.0
  O  O82  1  0.74121000  0.06293000  0.70711000  1.0
  O  O83  1  0.25879000  0.93707000  0.29288000  1.0
