# generated using pymatgen
data_CuH3C7N3O
_symmetry_space_group_name_H-M   'P 1'
_cell_length_a   7.80934000
_cell_length_b   7.80930000
_cell_length_c   12.66850000
_cell_angle_alpha   104.34600000
_cell_angle_beta   104.34500000
_cell_angle_gamma   95.07450000
_symmetry_Int_Tables_number   1
_chemical_formula_structural   CuH3C7N3O
_chemical_formula_sum   'Cu4 H12 C28 N12 O4'
_cell_volume   715.86549472
_cell_formula_units_Z   4
loop_
 _symmetry_equiv_pos_site_id
 _symmetry_equiv_pos_as_xyz
  1  'x, y, z'
loop_
 _atom_site_type_symbol
 _atom_site_label
 _atom_site_symmetry_multiplicity
 _atom_site_fract_x
 _atom_site_fract_y
 _atom_site_fract_z
 _atom_site_occupancy
  Cu  Cu0  1  0.28308000  0.68498000  0.62087000  1.0
  Cu  Cu1  1  0.31502000  0.71691000  0.87913000  1.0
  Cu  Cu2  1  0.71691000  0.31502000  0.37912000  1.0
  Cu  Cu3  1  0.68499000  0.28308000  0.12088000  1.0
  H  H4  1  0.22217000  0.28159000  0.58008000  1.0
  H  H5  1  0.71842000  0.77783000  0.91992000  1.0
  H  H6  1  0.77782000  0.71841000  0.41992000  1.0
  H  H7  1  0.28160000  0.22218000  0.08008000  1.0
  H  H8  1  0.12521000  0.16287000  0.43409000  1.0
  H  H9  1  0.83714000  0.87480000  0.06591000  1.0
  H  H10  1  0.87478000  0.83714000  0.56591000  1.0
  H  H11  1  0.16287000  0.12521000  0.93409000  1.0
  H  H12  1  0.36242000  0.23419000  0.48628000  1.0
  H  H13  1  0.76581000  0.63758000  0.01372000  1.0
  H  H14  1  0.63757000  0.76581000  0.51372000  1.0
  H  H15  1  0.23420000  0.36242000  0.98628000  1.0
  C  C16  1  0.93433000  0.18508000  0.72924000  1.0
  C  C17  1  0.81494000  0.06570000  0.77077000  1.0
  C  C18  1  0.06567000  0.81493000  0.27076000  1.0
  C  C19  1  0.18507000  0.93431000  0.22923000  1.0
  C  C20  1  0.79844000  0.30750000  0.72778000  1.0
  C  C21  1  0.69251000  0.20156000  0.77223000  1.0
  C  C22  1  0.20155000  0.69250000  0.27222000  1.0
  C  C23  1  0.30749000  0.79843000  0.22777000  1.0
  C  C24  1  0.78967000  0.46210000  0.68820000  1.0
  C  C25  1  0.53790000  0.21031000  0.81180000  1.0
  C  C26  1  0.21032000  0.53790000  0.31180000  1.0
  C  C27  1  0.46210000  0.78968000  0.18821000  1.0
  C  C28  1  0.94053000  0.53514000  0.66328000  1.0
  C  C29  1  0.46487000  0.05945000  0.83672000  1.0
  C  C30  1  0.05945000  0.46486000  0.33672000  1.0
  C  C31  1  0.53514000  0.94054000  0.16328000  1.0
  C  C32  1  0.63276000  0.53631000  0.66507000  1.0
  C  C33  1  0.46369000  0.36723000  0.83493000  1.0
  C  C34  1  0.36724000  0.46369000  0.33493000  1.0
  C  C35  1  0.53631000  0.63276000  0.16507000  1.0
  C  C36  1  0.26242000  0.01813000  0.53585000  1.0
  C  C37  1  0.98186000  0.73758000  0.96415000  1.0
  C  C38  1  0.73756000  0.98186000  0.46415000  1.0
  C  C39  1  0.01815000  0.26243000  0.03585000  1.0
  C  C40  1  0.24296000  0.18382000  0.50723000  1.0
  C  C41  1  0.81618000  0.75704000  0.99277000  1.0
  C  C42  1  0.75703000  0.81618000  0.49277000  1.0
  C  C43  1  0.18383000  0.24296000  0.00724000  1.0
  N  N44  1  0.27576000  0.88438000  0.55962000  1.0
  N  N45  1  0.11561000  0.72424000  0.94038000  1.0
  N  N46  1  0.72423000  0.11562000  0.44037000  1.0
  N  N47  1  0.88439000  0.27577000  0.05963000  1.0
  N  N48  1  0.07137000  0.59424000  0.64622000  1.0
  N  N49  1  0.40577000  0.92861000  0.85378000  1.0
  N  N50  1  0.92862000  0.40576000  0.35378000  1.0
  N  N51  1  0.59424000  0.07138000  0.14622000  1.0
  N  N52  1  0.49706000  0.59091000  0.64265000  1.0
  N  N53  1  0.40908000  0.50292000  0.85735000  1.0
  N  N54  1  0.50293000  0.40908000  0.35735000  1.0
  N  N55  1  0.59093000  0.49706000  0.14265000  1.0
  O  O56  1  0.07915000  0.18331000  0.70779000  1.0
  O  O57  1  0.81672000  0.92084000  0.79221000  1.0
  O  O58  1  0.92085000  0.81670000  0.29221000  1.0
  O  O59  1  0.18329000  0.07915000  0.20778000  1.0
