# generated using pymatgen
data_MnH12C14(NO2)2
_symmetry_space_group_name_H-M   'P 1'
_cell_length_a   4.51795000
_cell_length_b   8.72915000
_cell_length_c   15.37840000
_cell_angle_alpha   75.00500000
_cell_angle_beta   89.99990000
_cell_angle_gamma   89.99980000
_symmetry_Int_Tables_number   1
_chemical_formula_structural   MnH12C14(NO2)2
_chemical_formula_sum   'Mn2 H24 C28 N4 O8'
_cell_volume   585.83924447
_cell_formula_units_Z   2
loop_
 _symmetry_equiv_pos_site_id
 _symmetry_equiv_pos_as_xyz
  1  'x, y, z'
loop_
 _atom_site_type_symbol
 _atom_site_label
 _atom_site_symmetry_multiplicity
 _atom_site_fract_x
 _atom_site_fract_y
 _atom_site_fract_z
 _atom_site_occupancy
  Mn  Mn0  1  0.00000000  0.50000000  0.50000000  1.0
  Mn  Mn1  1  0.50000000  0.00000000  0.00000000  1.0
  H  H2  1  0.80628000  0.22210000  0.48521000  1.0
  H  H3  1  0.30628000  0.27790000  0.01479000  1.0
  H  H4  1  0.19372000  0.77790000  0.51478000  1.0
  H  H5  1  0.69372000  0.72210000  0.98522000  1.0
  H  H6  1  0.59950000  0.26570000  0.56442000  1.0
  H  H7  1  0.09950000  0.23430000  0.93557000  1.0
  H  H8  1  0.40050000  0.73430000  0.43557000  1.0
  H  H9  1  0.90050000  0.76570000  0.06443000  1.0
  H  H10  1  0.74324000  0.18318000  0.72535000  1.0
  H  H11  1  0.24325000  0.31682000  0.77465000  1.0
  H  H12  1  0.25676000  0.81682000  0.27465000  1.0
  H  H13  1  0.75676000  0.68318000  0.22535000  1.0
  H  H14  1  0.23955000  0.06291000  0.51299000  1.0
  H  H15  1  0.73955000  0.43710000  0.98701000  1.0
  H  H16  1  0.76045000  0.93709000  0.48701000  1.0
  H  H17  1  0.26045000  0.56291000  0.01299000  1.0
  H  H18  1  0.51958000  0.85941000  0.62805000  1.0
  H  H19  1  0.01959000  0.64059000  0.87194000  1.0
  H  H20  1  0.48042000  0.14059000  0.37194000  1.0
  H  H21  1  0.98042000  0.35941000  0.12806000  1.0
  H  H22  1  0.41740000  0.82452000  0.79102000  1.0
  H  H23  1  0.91741000  0.67547000  0.70898000  1.0
  H  H24  1  0.58260000  0.17547000  0.20898000  1.0
  H  H25  1  0.08259000  0.32454000  0.29102000  1.0
  C  C26  1  0.01156000  0.98225000  0.86528000  1.0
  C  C27  1  0.51156000  0.51774000  0.63472000  1.0
  C  C28  1  0.98844000  0.01775000  0.13472000  1.0
  C  C29  1  0.48843000  0.48226000  0.36529000  1.0
  C  C30  1  0.07453000  0.00252000  0.76733000  1.0
  C  C31  1  0.57453000  0.49747000  0.73267000  1.0
  C  C32  1  0.92547000  0.99748000  0.23267000  1.0
  C  C33  1  0.42547000  0.50253000  0.26733000  1.0
  C  C34  1  0.91340000  0.11379000  0.70285000  1.0
  C  C35  1  0.41341000  0.38621000  0.79715000  1.0
  C  C36  1  0.08660000  0.88621000  0.29715000  1.0
  C  C37  1  0.58659000  0.61379000  0.20285000  1.0
  C  C38  1  0.97104000  0.13497000  0.61127000  1.0
  C  C39  1  0.47105000  0.36503000  0.88873000  1.0
  C  C40  1  0.02896000  0.86503000  0.38873000  1.0
  C  C41  1  0.52896000  0.63497000  0.11127000  1.0
  C  C42  1  0.19223000  0.04373000  0.58457000  1.0
  C  C43  1  0.69223000  0.45627000  0.91543000  1.0
  C  C44  1  0.80777000  0.95627000  0.41543000  1.0
  C  C45  1  0.30777000  0.54373000  0.08457000  1.0
  C  C46  1  0.34929000  0.93092000  0.64906000  1.0
  C  C47  1  0.84929000  0.56907000  0.85093000  1.0
  C  C48  1  0.65071000  0.06907000  0.35094000  1.0
  C  C49  1  0.15071000  0.43093000  0.14907000  1.0
  C  C50  1  0.29287000  0.91044000  0.74041000  1.0
  C  C51  1  0.79287000  0.58955000  0.75958000  1.0
  C  C52  1  0.70713000  0.08956000  0.25958000  1.0
  C  C53  1  0.20713000  0.41045000  0.24042000  1.0
  N  N54  1  0.81278000  0.24988000  0.54575000  1.0
  N  N55  1  0.31279000  0.25013000  0.95425000  1.0
  N  N56  1  0.18722000  0.75012000  0.45425000  1.0
  N  N57  1  0.68721000  0.74988000  0.04575000  1.0
  O  O58  1  0.78506000  0.05349000  0.88564000  1.0
  O  O59  1  0.28507000  0.44651000  0.61436000  1.0
  O  O60  1  0.21494000  0.94651000  0.11436000  1.0
  O  O61  1  0.71493000  0.55349000  0.38564000  1.0
  O  O62  1  0.18779000  0.89672000  0.92324000  1.0
  O  O63  1  0.68779000  0.60328000  0.57676000  1.0
  O  O64  1  0.81221000  0.10328000  0.07676000  1.0
  O  O65  1  0.31220000  0.39672000  0.42324000  1.0
