# generated using pymatgen
data_ZnH6C9N3O2
_symmetry_space_group_name_H-M   'P 1'
_cell_length_a   11.11030000
_cell_length_b   13.34160000
_cell_length_c   13.74620000
_cell_angle_alpha   90.00000000
_cell_angle_beta   90.00010000
_cell_angle_gamma   90.00000000
_symmetry_Int_Tables_number   1
_chemical_formula_structural   ZnH6C9N3O2
_chemical_formula_sum   'Zn8 H48 C72 N24 O16'
_cell_volume   2037.58793322
_cell_formula_units_Z   8
loop_
 _symmetry_equiv_pos_site_id
 _symmetry_equiv_pos_as_xyz
  1  'x, y, z'
loop_
 _atom_site_type_symbol
 _atom_site_label
 _atom_site_symmetry_multiplicity
 _atom_site_fract_x
 _atom_site_fract_y
 _atom_site_fract_z
 _atom_site_occupancy
  Zn  Zn0  1  0.28943000  0.04999000  0.68741000  1.0
  Zn  Zn1  1  0.78943000  0.95001000  0.31259000  1.0
  Zn  Zn2  1  0.78943000  0.45001000  0.68741000  1.0
  Zn  Zn3  1  0.28943000  0.54999000  0.31259000  1.0
  Zn  Zn4  1  0.42410000  0.95050000  0.89010000  1.0
  Zn  Zn5  1  0.92410000  0.04950000  0.10990000  1.0
  Zn  Zn6  1  0.92410000  0.54950000  0.89010000  1.0
  Zn  Zn7  1  0.42410000  0.45050000  0.10990000  1.0
  H  H8  1  0.21701000  0.79627000  0.94823000  1.0
  H  H9  1  0.71701000  0.20373000  0.05177000  1.0
  H  H10  1  0.71701000  0.70373000  0.94823000  1.0
  H  H11  1  0.21701000  0.29627000  0.05177000  1.0
  H  H12  1  0.09564000  0.86655000  0.65662000  1.0
  H  H13  1  0.59564000  0.13344000  0.34338000  1.0
  H  H14  1  0.59565000  0.63344000  0.65662000  1.0
  H  H15  1  0.09564000  0.36656000  0.34338000  1.0
  H  H16  1  0.62632000  0.12407000  0.91526000  1.0
  H  H17  1  0.12632000  0.87593000  0.08474000  1.0
  H  H18  1  0.12632000  0.37593000  0.91526000  1.0
  H  H19  1  0.62632000  0.62407000  0.08474000  1.0
  H  H20  1  0.50101000  0.20025000  0.62611000  1.0
  H  H21  1  0.00101000  0.79976000  0.37389000  1.0
  H  H22  1  0.00101000  0.29976000  0.62612000  1.0
  H  H23  1  0.50101000  0.70024000  0.37388000  1.0
  H  H24  1  0.48188000  0.83931000  0.06616000  1.0
  H  H25  1  0.98188000  0.16070000  0.93384000  1.0
  H  H26  1  0.98188000  0.66070000  0.06615000  1.0
  H  H27  1  0.48188000  0.33930000  0.93384000  1.0
  H  H28  1  0.44193000  0.85017000  0.24355000  1.0
  H  H29  1  0.94193000  0.14983000  0.75645000  1.0
  H  H30  1  0.94193000  0.64983000  0.24355000  1.0
  H  H31  1  0.44193000  0.35017000  0.75645000  1.0
  H  H32  1  0.28285000  0.14197000  0.19232000  1.0
  H  H33  1  0.78286000  0.85803000  0.80768000  1.0
  H  H34  1  0.78285000  0.35803000  0.19232000  1.0
  H  H35  1  0.28285000  0.64197000  0.80768000  1.0
  H  H36  1  0.32063000  0.11518000  0.01525000  1.0
  H  H37  1  0.82063000  0.88482000  0.98475000  1.0
  H  H38  1  0.82063000  0.38482000  0.01525000  1.0
  H  H39  1  0.32063000  0.61518000  0.98475000  1.0
  H  H40  1  0.45405000  0.93652000  0.55922000  1.0
  H  H41  1  0.95404000  0.06348000  0.44078000  1.0
  H  H42  1  0.95405000  0.56348000  0.55921000  1.0
  H  H43  1  0.45405000  0.43652000  0.44079000  1.0
  H  H44  1  0.49418000  0.91835000  0.38011000  1.0
  H  H45  1  0.99418000  0.08164000  0.61989000  1.0
  H  H46  1  0.99418000  0.58165000  0.38011000  1.0
  H  H47  1  0.49418000  0.41835000  0.61989000  1.0
  H  H48  1  0.17684000  0.10145000  0.32949000  1.0
  H  H49  1  0.67684000  0.89855000  0.67051000  1.0
  H  H50  1  0.67684000  0.39855000  0.32949000  1.0
  H  H51  1  0.17684000  0.60146000  0.67051000  1.0
  H  H52  1  0.15983000  0.11948000  0.50909000  1.0
  H  H53  1  0.65983000  0.88052000  0.49091000  1.0
  H  H54  1  0.65983000  0.38052000  0.50909000  1.0
  H  H55  1  0.15983000  0.61948000  0.49091000  1.0
  C  C56  1  0.23050000  0.07370000  0.47659000  1.0
  C  C57  1  0.73049000  0.92630000  0.52341000  1.0
  C  C58  1  0.73049000  0.42630000  0.47659000  1.0
  C  C59  1  0.23049000  0.57370000  0.52341000  1.0
  C  C60  1  0.41688000  0.96147000  0.40573000  1.0
  C  C61  1  0.91687000  0.03853000  0.59427000  1.0
  C  C62  1  0.91688000  0.53853000  0.40573000  1.0
  C  C63  1  0.41687000  0.46147000  0.59427000  1.0
  C  C64  1  0.24301000  0.06506000  0.37644000  1.0
  C  C65  1  0.74301000  0.93494000  0.62357000  1.0
  C  C66  1  0.74301000  0.43494000  0.37644000  1.0
  C  C67  1  0.24301000  0.56506000  0.62356000  1.0
  C  C68  1  0.33891000  0.00830000  0.33916000  1.0
  C  C69  1  0.83891000  0.99169000  0.66084000  1.0
  C  C70  1  0.83891000  0.49169000  0.33916000  1.0
  C  C71  1  0.33891000  0.50831000  0.66084000  1.0
  C  C72  1  0.19968000  0.82888000  0.87713000  1.0
  C  C73  1  0.69968000  0.17112000  0.12287000  1.0
  C  C74  1  0.69968000  0.67112000  0.87713000  1.0
  C  C75  1  0.19969000  0.32888000  0.12287000  1.0
  C  C76  1  0.12042000  0.79629000  0.80418000  1.0
  C  C77  1  0.62042000  0.20371000  0.19582000  1.0
  C  C78  1  0.62042000  0.70370000  0.80418000  1.0
  C  C79  1  0.12042000  0.29629000  0.19582000  1.0
  C  C80  1  0.13901000  0.86372000  0.72729000  1.0
  C  C81  1  0.63901000  0.13628000  0.27271000  1.0
  C  C82  1  0.63901000  0.63628000  0.72729000  1.0
  C  C83  1  0.13901000  0.36372000  0.27271000  1.0
  C  C84  1  0.04112000  0.70781000  0.80700000  1.0
  C  C85  1  0.54112000  0.29219000  0.19300000  1.0
  C  C86  1  0.54112000  0.79219000  0.80700000  1.0
  C  C87  1  0.04112000  0.20781000  0.19300000  1.0
  C  C88  1  0.58193000  0.12931000  0.84513000  1.0
  C  C89  1  0.08193000  0.87070000  0.15487000  1.0
  C  C90  1  0.08193000  0.37070000  0.84513000  1.0
  C  C91  1  0.58194000  0.62930000  0.15487000  1.0
  C  C92  1  0.60103000  0.19718000  0.76862000  1.0
  C  C93  1  0.10104000  0.80282000  0.23138000  1.0
  C  C94  1  0.10103000  0.30282000  0.76862000  1.0
  C  C95  1  0.60104000  0.69718000  0.23138000  1.0
  C  C96  1  0.51831000  0.16740000  0.69701000  1.0
  C  C97  1  0.01831000  0.83260000  0.30299000  1.0
  C  C98  1  0.01831000  0.33260000  0.69701000  1.0
  C  C99  1  0.51831000  0.66740000  0.30298000  1.0
  C  C100  1  0.68124000  0.28502000  0.76648000  1.0
  C  C101  1  0.18124000  0.71498000  0.23352000  1.0
  C  C102  1  0.18124000  0.21498000  0.76648000  1.0
  C  C103  1  0.68124000  0.78502000  0.23352000  1.0
  C  C104  1  0.43713000  0.90441000  0.09766000  1.0
  C  C105  1  0.93712000  0.09559000  0.90234000  1.0
  C  C106  1  0.93713000  0.59559000  0.09766000  1.0
  C  C107  1  0.43713000  0.40441000  0.90234000  1.0
  C  C108  1  0.41579000  0.91204000  0.19665000  1.0
  C  C109  1  0.91579000  0.08796000  0.80335000  1.0
  C  C110  1  0.91579000  0.58796000  0.19665000  1.0
  C  C111  1  0.41579000  0.41204000  0.80335000  1.0
  C  C112  1  0.35947000  0.99784000  0.23368000  1.0
  C  C113  1  0.85947000  0.00216000  0.76632000  1.0
  C  C114  1  0.85947000  0.50216000  0.23368000  1.0
  C  C115  1  0.35947000  0.49784000  0.76632000  1.0
  C  C116  1  0.32498000  0.07279000  0.16772000  1.0
  C  C117  1  0.82499000  0.92720000  0.83228000  1.0
  C  C118  1  0.82498000  0.42721000  0.16772000  1.0
  C  C119  1  0.32498000  0.57279000  0.83228000  1.0
  C  C120  1  0.34757000  0.05950000  0.06926000  1.0
  C  C121  1  0.84757000  0.94050000  0.93074000  1.0
  C  C122  1  0.84757000  0.44050000  0.06926000  1.0
  C  C123  1  0.34757000  0.55950000  0.93074000  1.0
  C  C124  1  0.39662000  0.97217000  0.50482000  1.0
  C  C125  1  0.89662000  0.02783000  0.49518000  1.0
  C  C126  1  0.89662000  0.52783000  0.50482000  1.0
  C  C127  1  0.39662000  0.47217000  0.49518000  1.0
  N  N128  1  0.30510000  0.02787000  0.53985000  1.0
  N  N129  1  0.80510000  0.97212000  0.46015000  1.0
  N  N130  1  0.80510000  0.47213000  0.53985000  1.0
  N  N131  1  0.30510000  0.52788000  0.46015000  1.0
  N  N132  1  0.22274000  0.93123000  0.75330000  1.0
  N  N133  1  0.72274000  0.06877000  0.24670000  1.0
  N  N134  1  0.72275000  0.56877000  0.75330000  1.0
  N  N135  1  0.22274000  0.43123000  0.24670000  1.0
  N  N136  1  0.26099000  0.90931000  0.84546000  1.0
  N  N137  1  0.76099000  0.09069000  0.15454000  1.0
  N  N138  1  0.76099000  0.59069000  0.84546000  1.0
  N  N139  1  0.26099000  0.40931000  0.15454000  1.0
  N  N140  1  0.45479000  0.08831000  0.72886000  1.0
  N  N141  1  0.95480000  0.91169000  0.27114000  1.0
  N  N142  1  0.95480000  0.41169000  0.72886000  1.0
  N  N143  1  0.45480000  0.58831000  0.27114000  1.0
  N  N144  1  0.49455000  0.06484000  0.82023000  1.0
  N  N145  1  0.99455000  0.93516000  0.17977000  1.0
  N  N146  1  0.99455000  0.43516000  0.82024000  1.0
  N  N147  1  0.49455000  0.56484000  0.17976000  1.0
  N  N148  1  0.40350000  0.97692000  0.03498000  1.0
  N  N149  1  0.90350000  0.02308000  0.96502000  1.0
  N  N150  1  0.90350000  0.52308000  0.03498000  1.0
  N  N151  1  0.40350000  0.47692000  0.96502000  1.0
  O  O152  1  0.99660000  0.67259000  0.73038000  1.0
  O  O153  1  0.49659000  0.32741000  0.26963000  1.0
  O  O154  1  0.49659000  0.82740000  0.73037000  1.0
  O  O155  1  0.99660000  0.17259000  0.26963000  1.0
  O  O156  1  0.02614000  0.66990000  0.89382000  1.0
  O  O157  1  0.52614000  0.33010000  0.10618000  1.0
  O  O158  1  0.52614000  0.83010000  0.89382000  1.0
  O  O159  1  0.02614000  0.16990000  0.10618000  1.0
  O  O160  1  0.67867000  0.33484000  0.68386000  1.0
  O  O161  1  0.17867000  0.66516000  0.31614000  1.0
  O  O162  1  0.17867000  0.16516000  0.68386000  1.0
  O  O163  1  0.67866000  0.83484000  0.31614000  1.0
  O  O164  1  0.74266000  0.30947000  0.83878000  1.0
  O  O165  1  0.24266000  0.69054000  0.16122000  1.0
  O  O166  1  0.24266000  0.19053000  0.83878000  1.0
  O  O167  1  0.74266000  0.80947000  0.16122000  1.0
