# generated using pymatgen
data_MgH7C11O3
_symmetry_space_group_name_H-M   'P 1'
_cell_length_a   6.77203000
_cell_length_b   27.99465831
_cell_length_c   28.00060000
_cell_angle_alpha   119.33341843
_cell_angle_beta   94.62700000
_cell_angle_gamma   94.63192311
_symmetry_Int_Tables_number   1
_chemical_formula_structural   MgH7C11O3
_chemical_formula_sum   'Mg6 H42 C66 O18'
_cell_volume   4568.27154368
_cell_formula_units_Z   6
loop_
 _symmetry_equiv_pos_site_id
 _symmetry_equiv_pos_as_xyz
  1  'x, y, z'
loop_
 _atom_site_type_symbol
 _atom_site_label
 _atom_site_symmetry_multiplicity
 _atom_site_fract_x
 _atom_site_fract_y
 _atom_site_fract_z
 _atom_site_occupancy
  Mg  Mg0  1  0.95824000  0.67854000  0.30251000  1.0
  Mg  Mg1  1  0.76004000  0.32730000  0.70150000  1.0
  Mg  Mg2  1  0.65563000  0.69748000  0.37587000  1.0
  Mg  Mg3  1  0.05863000  0.29852000  0.62593000  1.0
  Mg  Mg4  1  0.27973000  0.62408000  0.32147000  1.0
  Mg  Mg5  1  0.43281000  0.37414000  0.67268000  1.0
  H  H6  1  0.76819000  0.84076000  0.40147000  1.0
  H  H7  1  0.18413000  0.12669000  0.57298000  1.0
  H  H8  1  0.32591000  0.15331000  0.51144000  1.0
  H  H9  1  0.49911000  0.07120000  0.47600000  1.0
  H  H10  1  0.56537000  0.88905000  0.39784000  1.0
  H  H11  1  0.52106000  0.00966000  0.48835000  1.0
  H  H12  1  0.20569000  0.98901000  0.53708000  1.0
  H  H13  1  0.15120000  0.11217000  0.62689000  1.0
  H  H14  1  0.31782000  0.07785000  0.57929000  1.0
  H  H15  1  0.96101000  0.16250000  0.61721000  1.0
  H  H16  1  0.54731000  0.87126000  0.45005000  1.0
  H  H17  1  0.40778000  0.92150000  0.44868000  1.0
  H  H18  1  0.22613000  0.92178000  0.54439000  1.0
  H  H19  1  0.39241000  0.83823000  0.50334000  1.0
  H  H20  1  0.36699000  0.59863000  0.43932000  1.0
  H  H21  1  0.61105000  0.42699000  0.55370000  1.0
  H  H22  1  0.81489000  0.48860000  0.64191000  1.0
  H  H23  1  0.02334000  0.52400000  0.59516000  1.0
  H  H24  1  0.16761000  0.60221000  0.49116000  1.0
  H  H25  1  0.03265000  0.51167000  0.52130000  1.0
  H  H26  1  0.66864000  0.46300000  0.45200000  1.0
  H  H27  1  0.52426000  0.37309000  0.48531000  1.0
  H  H28  1  0.73847000  0.42071000  0.49858000  1.0
  H  H29  1  0.34381000  0.38276000  0.54528000  1.0
  H  H30  1  0.09751000  0.55000000  0.42119000  1.0
  H  H31  1  0.95908000  0.55135000  0.47275000  1.0
  H  H32  1  0.68176000  0.45563000  0.37750000  1.0
  H  H33  1  0.88899000  0.49665000  0.33495000  1.0
  H  H34  1  0.92774000  0.56061000  0.15925000  1.0
  H  H35  1  0.05769000  0.44633000  0.87336000  1.0
  H  H36  1  0.17295000  0.35811000  0.84676000  1.0
  H  H37  1  0.42833000  0.40475000  0.92882000  1.0
  H  H38  1  0.67625000  0.50876000  0.11099000  1.0
  H  H39  1  0.51162000  0.47855000  0.99032000  1.0
  H  H40  1  0.21690000  0.54802000  0.01104000  1.0
  H  H41  1  0.03926000  0.51475000  0.88786000  1.0
  H  H42  1  0.24026000  0.50146000  0.92218000  1.0
  H  H43  1  0.79871000  0.45471000  0.83747000  1.0
  H  H44  1  0.67624000  0.57872000  0.12868000  1.0
  H  H45  1  0.48626000  0.52715000  0.07849000  1.0
  H  H46  1  0.30408000  0.62260000  0.07812000  1.0
  H  H47  1  0.55411000  0.66511000  0.16163000  1.0
  C  C48  1  0.54778000  0.20470000  0.58169000  1.0
  C  C49  1  0.46857000  0.15458000  0.53339000  1.0
  C  C50  1  0.56375000  0.10814000  0.51456000  1.0
  C  C51  1  0.42106000  0.24871000  0.60493000  1.0
  C  C52  1  0.97867000  0.79138000  0.40659000  1.0
  C  C53  1  0.90106000  0.84188000  0.42648000  1.0
  C  C54  1  0.98914000  0.89054000  0.47444000  1.0
  C  C55  1  0.91622000  0.94463000  0.49264000  1.0
  C  C56  1  0.71945000  0.95174000  0.47809000  1.0
  C  C57  1  0.67536000  0.00559000  0.49840000  1.0
  C  C58  1  0.81189000  0.05418000  0.53106000  1.0
  C  C59  1  0.00798000  0.04716000  0.54643000  1.0
  C  C60  1  0.05204000  0.99320000  0.52636000  1.0
  C  C61  1  0.17318000  0.09348000  0.58308000  1.0
  C  C62  1  0.73768000  0.10764000  0.54625000  1.0
  C  C63  1  0.82515000  0.15859000  0.59154000  1.0
  C  C64  1  0.74335000  0.20818000  0.60755000  1.0
  C  C65  1  0.55220000  0.90585000  0.44203000  1.0
  C  C66  1  0.16011000  0.88665000  0.50456000  1.0
  C  C67  1  0.25150000  0.83937000  0.48234000  1.0
  C  C68  1  0.17156000  0.79177000  0.43165000  1.0
  C  C69  1  0.29491000  0.74744000  0.40445000  1.0
  C  C70  1  0.96643000  0.41834000  0.62309000  1.0
  C  C71  1  0.93554000  0.46664000  0.62124000  1.0
  C  C72  1  0.04944000  0.48546000  0.59359000  1.0
  C  C73  1  0.81639000  0.39510000  0.64387000  1.0
  C  C74  1  0.57202000  0.59340000  0.38472000  1.0
  C  C75  1  0.47472000  0.57358000  0.41542000  1.0
  C  C76  1  0.51481000  0.52562000  0.41616000  1.0
  C  C77  1  0.42363000  0.50742000  0.45205000  1.0
  C  C78  1  0.24136000  0.52197000  0.47367000  1.0
  C  C79  1  0.17693000  0.50163000  0.50720000  1.0
  C  C80  1  0.28081000  0.46894000  0.52311000  1.0
  C  C81  1  0.46151000  0.45358000  0.50074000  1.0
  C  C82  1  0.52569000  0.47368000  0.46688000  1.0
  C  C83  1  0.59001000  0.41690000  0.51041000  1.0
  C  C84  1  0.19151000  0.45375000  0.56139000  1.0
  C  C85  1  0.23368000  0.40843000  0.56704000  1.0
  C  C86  1  0.13602000  0.39245000  0.60067000  1.0
  C  C87  1  0.11025000  0.55802000  0.46379000  1.0
  C  C88  1  0.65559000  0.49546000  0.38216000  1.0
  C  C89  1  0.76912000  0.51765000  0.35705000  1.0
  C  C90  1  0.73978000  0.56832000  0.36005000  1.0
  C  C91  1  0.89027000  0.59553000  0.34291000  1.0
  C  C92  1  0.34328000  0.37694000  0.79531000  1.0
  C  C93  1  0.31433000  0.37877000  0.84545000  1.0
  C  C94  1  0.45601000  0.40636000  0.89187000  1.0
  C  C95  1  0.17248000  0.35617000  0.75131000  1.0
  C  C96  1  0.18737000  0.61526000  0.20860000  1.0
  C  C97  1  0.05931000  0.58457000  0.15811000  1.0
  C  C98  1  0.09862000  0.58387000  0.10944000  1.0
  C  C99  1  0.97167000  0.54794000  0.05535000  1.0
  C  C100  1  0.76779000  0.52626000  0.04824000  1.0
  C  C101  1  0.66997000  0.49271000  0.99439000  1.0
  C  C102  1  0.75800000  0.47683000  0.94582000  1.0
  C  C103  1  0.96107000  0.49925000  0.95287000  1.0
  C  C104  1  0.05904000  0.53311000  0.00681000  1.0
  C  C105  1  0.07997000  0.48963000  0.90656000  1.0
  C  C106  1  0.63035000  0.43857000  0.89235000  1.0
  C  C107  1  0.66677000  0.43295000  0.84140000  1.0
  C  C108  1  0.53536000  0.39933000  0.79182000  1.0
  C  C109  1  0.64640000  0.53612000  0.09413000  1.0
  C  C110  1  0.27336000  0.61790000  0.11327000  1.0
  C  C111  1  0.41210000  0.64298000  0.16052000  1.0
  C  C112  1  0.37982000  0.63994000  0.20817000  1.0
  C  C113  1  0.54755000  0.65711000  0.25250000  1.0
  O  O114  1  0.86729000  0.74584000  0.36453000  1.0
  O  O115  1  0.23696000  0.24032000  0.58540000  1.0
  O  O116  1  0.49715000  0.29592000  0.64785000  1.0
  O  O117  1  0.47887000  0.75340000  0.42296000  1.0
  O  O118  1  0.21509000  0.70300000  0.35901000  1.0
  O  O119  1  0.85365000  0.25583000  0.64657000  1.0
  O  O120  1  0.50261000  0.63542000  0.38116000  1.0
  O  O121  1  0.65192000  0.41468000  0.65504000  1.0
  O  O122  1  0.84939000  0.35215000  0.64813000  1.0
  O  O123  1  0.05575000  0.57704000  0.33038000  1.0
  O  O124  1  0.85585000  0.64096000  0.34385000  1.0
  O  O125  1  0.20735000  0.35344000  0.60934000  1.0
  O  O126  1  0.12151000  0.61881000  0.25417000  1.0
  O  O127  1  0.99679000  0.34501000  0.75970000  1.0
  O  O128  1  0.20129000  0.35191000  0.70411000  1.0
  O  O129  1  0.72555000  0.66965000  0.24652000  1.0
  O  O130  1  0.51215000  0.65615000  0.29697000  1.0
  O  O131  1  0.59799000  0.39064000  0.74414000  1.0
