# generated using pymatgen
data_CuH6C5IN2
_symmetry_space_group_name_H-M   'P 1'
_cell_length_a   4.05787000
_cell_length_b   10.04340000
_cell_length_c   17.48240000
_cell_angle_alpha   89.99890000
_cell_angle_beta   92.50490000
_cell_angle_gamma   89.99880000
_symmetry_Int_Tables_number   1
_chemical_formula_structural   CuH6C5IN2
_chemical_formula_sum   'Cu4 H24 C20 I4 N8'
_cell_volume   711.81112238
_cell_formula_units_Z   4
loop_
 _symmetry_equiv_pos_site_id
 _symmetry_equiv_pos_as_xyz
  1  'x, y, z'
loop_
 _atom_site_type_symbol
 _atom_site_label
 _atom_site_symmetry_multiplicity
 _atom_site_fract_x
 _atom_site_fract_y
 _atom_site_fract_z
 _atom_site_occupancy
  Cu  Cu0  1  0.25132000  0.91740000  0.50191000  1.0
  Cu  Cu1  1  0.75134000  0.58259000  0.00193000  1.0
  Cu  Cu2  1  0.74870000  0.08259000  0.49807000  1.0
  Cu  Cu3  1  0.24869000  0.41740000  0.99810000  1.0
  H  H4  1  0.39942000  0.62335000  0.50430000  1.0
  H  H5  1  0.89946000  0.87663000  0.00431000  1.0
  H  H6  1  0.60063000  0.37666000  0.49569000  1.0
  H  H7  1  0.10056000  0.12336000  0.99571000  1.0
  H  H8  1  0.21124000  0.42578000  0.58233000  1.0
  H  H9  1  0.71125000  0.07421000  0.08232000  1.0
  H  H10  1  0.78878000  0.57422000  0.41766000  1.0
  H  H11  1  0.28872000  0.92578000  0.91769000  1.0
  H  H12  1  0.92219000  0.87930000  0.64755000  1.0
  H  H13  1  0.42217000  0.62066000  0.14755000  1.0
  H  H14  1  0.07780000  0.12069000  0.35245000  1.0
  H  H15  1  0.57789000  0.37934000  0.85248000  1.0
  H  H16  1  0.79849000  0.35142000  0.67911000  1.0
  H  H17  1  0.29839000  0.14855000  0.17908000  1.0
  H  H18  1  0.20157000  0.64857000  0.32088000  1.0
  H  H19  1  0.70149000  0.85146000  0.82091000  1.0
  H  H20  1  0.60758000  0.47692000  0.73589000  1.0
  H  H21  1  0.10755000  0.02305000  0.23587000  1.0
  H  H22  1  0.39242000  0.52307000  0.26409000  1.0
  H  H23  1  0.89241000  0.97695000  0.76413000  1.0
  H  H24  1  0.01748000  0.42586000  0.75770000  1.0
  H  H25  1  0.51742000  0.07413000  0.25767000  1.0
  H  H26  1  0.98254000  0.57415000  0.24230000  1.0
  H  H27  1  0.48252000  0.92590000  0.74232000  1.0
  C  C28  1  0.25191000  0.63504000  0.55460000  1.0
  C  C29  1  0.75194000  0.86494000  0.05460000  1.0
  C  C30  1  0.74811000  0.36496000  0.44539000  1.0
  C  C31  1  0.24804000  0.13506000  0.94541000  1.0
  C  C32  1  0.14852000  0.52788000  0.59729000  1.0
  C  C33  1  0.64851000  0.97211000  0.09728000  1.0
  C  C34  1  0.85154000  0.47214000  0.40270000  1.0
  C  C35  1  0.35144000  0.02789000  0.90273000  1.0
  C  C36  1  0.95839000  0.55395000  0.66073000  1.0
  C  C37  1  0.45843000  0.94602000  0.16072000  1.0
  C  C38  1  0.04156000  0.44604000  0.33925000  1.0
  C  C39  1  0.54159000  0.05397000  0.83930000  1.0
  C  C40  1  0.98936000  0.77686000  0.63426000  1.0
  C  C41  1  0.48931000  0.72312000  0.13426000  1.0
  C  C42  1  0.01068000  0.22316000  0.36574000  1.0
  C  C43  1  0.51063000  0.27688000  0.86576000  1.0
  C  C44  1  0.83639000  0.44535000  0.71025000  1.0
  C  C45  1  0.33636000  0.05460000  0.21022000  1.0
  C  C46  1  0.16363000  0.55463000  0.28974000  1.0
  C  C47  1  0.66361000  0.94538000  0.78976000  1.0
  I  I48  1  0.28519000  0.12476000  0.59471000  1.0
  I  I49  1  0.78515000  0.37522000  0.09472000  1.0
  I  I50  1  0.71485000  0.87524000  0.40528000  1.0
  I  I51  1  0.21487000  0.62477000  0.90529000  1.0
  N  N52  1  0.17281000  0.76120000  0.57242000  1.0
  N  N53  1  0.67285000  0.73878000  0.07243000  1.0
  N  N54  1  0.82716000  0.23880000  0.42757000  1.0
  N  N55  1  0.32722000  0.26122000  0.92759000  1.0
  N  N56  1  0.88037000  0.68051000  0.67881000  1.0
  N  N57  1  0.38037000  0.81945000  0.17880000  1.0
  N  N58  1  0.11961000  0.31948000  0.32118000  1.0
  N  N59  1  0.61962000  0.18055000  0.82122000  1.0
