# generated using pymatgen
data_SmH10C11(NO3)3
_symmetry_space_group_name_H-M   'P 1'
_cell_length_a   6.84997000
_cell_length_b   8.79204000
_cell_length_c   11.81340000
_cell_angle_alpha   75.62540000
_cell_angle_beta   81.70350000
_cell_angle_gamma   68.76120000
_symmetry_Int_Tables_number   1
_chemical_formula_structural   SmH10C11(NO3)3
_chemical_formula_sum   'Sm2 H20 C22 N6 O18'
_cell_volume   641.21477804
_cell_formula_units_Z   2
loop_
 _symmetry_equiv_pos_site_id
 _symmetry_equiv_pos_as_xyz
  1  'x, y, z'
loop_
 _atom_site_type_symbol
 _atom_site_label
 _atom_site_symmetry_multiplicity
 _atom_site_fract_x
 _atom_site_fract_y
 _atom_site_fract_z
 _atom_site_occupancy
  Sm  Sm0  1  0.51912000  0.32648000  0.39660000  1.0
  Sm  Sm1  1  0.48088000  0.67353000  0.60340000  1.0
  H  H2  1  0.92989000  0.90052000  0.83551000  1.0
  H  H3  1  0.07011000  0.09948000  0.16449000  1.0
  H  H4  1  0.61179000  0.24409000  0.06617000  1.0
  H  H5  1  0.38821000  0.75591000  0.93383000  1.0
  H  H6  1  0.93156000  0.14723000  0.67751000  1.0
  H  H7  1  0.06844000  0.85277000  0.32249000  1.0
  H  H8  1  0.63284000  0.47701000  0.89547000  1.0
  H  H9  1  0.36716000  0.52299000  0.10453000  1.0
  H  H10  1  0.94704000  0.46121000  0.39338000  1.0
  H  H11  1  0.05296000  0.53880000  0.60662000  1.0
  H  H12  1  0.90559000  0.69898000  0.98137000  1.0
  H  H13  1  0.09442000  0.30101000  0.01863000  1.0
  H  H14  1  0.61612000  0.98396000  0.37699000  1.0
  H  H15  1  0.38388000  0.01604000  0.62301000  1.0
  H  H16  1  0.78598000  0.96746000  0.45535000  1.0
  H  H17  1  0.21401000  0.03254000  0.54465000  1.0
  H  H18  1  0.26692000  0.28507000  0.20942000  1.0
  H  H19  1  0.73308000  0.71493000  0.79059000  1.0
  H  H20  1  0.47737000  0.12425000  0.21372000  1.0
  H  H21  1  0.52263000  0.87575000  0.78628000  1.0
  C  C22  1  0.84354000  0.46973000  0.17182000  1.0
  C  C23  1  0.15648000  0.53026000  0.82818000  1.0
  C  C24  1  0.77135000  0.65540000  0.15476000  1.0
  C  C25  1  0.22866000  0.34460000  0.84524000  1.0
  C  C26  1  0.65003000  0.77002000  0.22324000  1.0
  C  C27  1  0.34997000  0.22998000  0.77676000  1.0
  C  C28  1  0.55830000  0.74007000  0.34423000  1.0
  C  C29  1  0.44170000  0.25993000  0.65577000  1.0
  C  C30  1  0.74054000  0.91425000  0.05948000  1.0
  C  C31  1  0.25945000  0.08574000  0.94052000  1.0
  C  C32  1  0.76089000  0.05076000  0.96513000  1.0
  C  C33  1  0.23910000  0.94923000  0.03487000  1.0
  C  C34  1  0.85845000  0.02484000  0.85488000  1.0
  C  C35  1  0.14155000  0.97516000  0.14512000  1.0
  C  C36  1  0.68151000  0.21602000  0.98152000  1.0
  C  C37  1  0.31849000  0.78398000  0.01847000  1.0
  C  C38  1  0.86426000  0.15864000  0.76541000  1.0
  C  C39  1  0.13575000  0.84135000  0.23459000  1.0
  C  C40  1  0.69133000  0.34629000  0.89039000  1.0
  C  C41  1  0.30867000  0.65372000  0.10961000  1.0
  C  C42  1  0.00153000  0.32840000  0.43881000  1.0
  C  C43  1  0.99847000  0.67160000  0.56119000  1.0
  N  N44  1  0.82695000  0.74938000  0.05337000  1.0
  N  N45  1  0.17305000  0.25062000  0.94663000  1.0
  N  N46  1  0.63398000  0.92924000  0.16290000  1.0
  N  N47  1  0.36602000  0.07076000  0.83710000  1.0
  N  N48  1  0.77652000  0.31784000  0.78261000  1.0
  N  N49  1  0.22348000  0.68216000  0.21739000  1.0
  O  O50  1  0.71668000  0.39583000  0.22197000  1.0
  O  O51  1  0.28334000  0.60417000  0.77804000  1.0
  O  O52  1  0.02760000  0.39945000  0.13050000  1.0
  O  O53  1  0.97241000  0.60055000  0.86950000  1.0
  O  O54  1  0.57165000  0.59177000  0.40073000  1.0
  O  O55  1  0.42835000  0.40823000  0.59926000  1.0
  O  O56  1  0.47210000  0.86307000  0.39377000  1.0
  O  O57  1  0.52790000  0.13693000  0.60623000  1.0
  O  O58  1  0.77713000  0.44412000  0.69534000  1.0
  O  O59  1  0.22287000  0.55588000  0.30466000  1.0
  O  O60  1  0.87158000  0.25126000  0.46473000  1.0
  O  O61  1  0.12842000  0.74875000  0.53528000  1.0
  O  O62  1  0.19392000  0.26332000  0.46198000  1.0
  O  O63  1  0.80608000  0.73669000  0.53802000  1.0
  O  O64  1  0.71188000  0.04272000  0.38618000  1.0
  O  O65  1  0.28812000  0.95728000  0.61383000  1.0
  O  O66  1  0.41374000  0.23819000  0.23134000  1.0
  O  O67  1  0.58626000  0.76181000  0.76867000  1.0
