# generated using pymatgen
data_Cu3H24C20S4I3
_symmetry_space_group_name_H-M   'P 1'
_cell_length_a   8.55169000
_cell_length_b   9.79326000
_cell_length_c   16.03550000
_cell_angle_alpha   76.38020000
_cell_angle_beta   78.82160000
_cell_angle_gamma   87.41440000
_symmetry_Int_Tables_number   1
_chemical_formula_structural   Cu3H24C20S4I3
_chemical_formula_sum   'Cu6 H48 C40 S8 I6'
_cell_volume   1280.42962716
_cell_formula_units_Z   2
loop_
 _symmetry_equiv_pos_site_id
 _symmetry_equiv_pos_as_xyz
  1  'x, y, z'
loop_
 _atom_site_type_symbol
 _atom_site_label
 _atom_site_symmetry_multiplicity
 _atom_site_fract_x
 _atom_site_fract_y
 _atom_site_fract_z
 _atom_site_occupancy
  Cu  Cu0  1  0.00905000  0.06034000  0.25092000  1.0
  Cu  Cu1  1  0.99095000  0.93966000  0.74907000  1.0
  Cu  Cu2  1  0.04170000  0.38980000  0.24242000  1.0
  Cu  Cu3  1  0.95830000  0.61020000  0.75758000  1.0
  Cu  Cu4  1  0.28790000  0.20431000  0.20713000  1.0
  Cu  Cu5  1  0.71210000  0.79569000  0.79287000  1.0
  H  H6  1  0.07629000  0.74216000  0.22166000  1.0
  H  H7  1  0.92371000  0.25783000  0.77834000  1.0
  H  H8  1  0.17097000  0.44250000  0.40578000  1.0
  H  H9  1  0.82903000  0.55751000  0.59422000  1.0
  H  H10  1  0.24464000  0.58165000  0.31599000  1.0
  H  H11  1  0.75536000  0.41835000  0.68401000  1.0
  H  H12  1  0.23256000  0.64078000  0.46554000  1.0
  H  H13  1  0.76744000  0.35922000  0.53446000  1.0
  H  H14  1  0.02392000  0.62304000  0.48518000  1.0
  H  H15  1  0.97608000  0.37696000  0.51482000  1.0
  H  H16  1  0.22220000  0.83605000  0.33333333  1.0
  H  H17  1  0.77780000  0.16396000  0.66666667  1.0
  H  H18  1  0.10990000  0.87285000  0.43091000  1.0
  H  H19  1  0.89010000  0.12715000  0.56909000  1.0
  H  H20  1  0.65742000  0.82210000  0.30972000  1.0
  H  H21  1  0.34258000  0.17790000  0.69028000  1.0
  H  H22  1  0.43618000  0.83158000  0.22832000  1.0
  H  H23  1  0.56381000  0.16841000  0.77168000  1.0
  H  H24  1  0.47745000  0.74619000  0.09246000  1.0
  H  H25  1  0.52255000  0.25381000  0.90755000  1.0
  H  H26  1  0.74151000  0.65327000  0.03528000  1.0
  H  H27  1  0.25849000  0.34673000  0.96472000  1.0
  H  H28  1  0.96550000  0.64505000  0.11620000  1.0
  H  H29  1  0.03450000  0.35496000  0.88380000  1.0
  H  H30  1  0.63257000  0.38471000  0.18676000  1.0
  H  H31  1  0.36743000  0.61529000  0.81324000  1.0
  H  H32  1  0.57004000  0.10677000  0.05913000  1.0
  H  H33  1  0.42997000  0.89323000  0.94087000  1.0
  H  H34  1  0.58453000  0.28954000  0.05373000  1.0
  H  H35  1  0.41547000  0.71046000  0.94627000  1.0
  H  H36  1  0.85241000  0.07008000  0.08353000  1.0
  H  H37  1  0.14759000  0.92992000  0.91647000  1.0
  H  H38  1  0.83918000  0.19145000  0.98465000  1.0
  H  H39  1  0.16082000  0.80856000  0.01535000  1.0
  H  H40  1  0.85760000  0.39317000  0.05630000  1.0
  H  H41  1  0.14241000  0.60684000  0.94370000  1.0
  H  H42  1  0.02764000  0.28006000  0.05864000  1.0
  H  H43  1  0.97236000  0.71994000  0.94136000  1.0
  H  H44  1  0.50809000  0.48533000  0.29785000  1.0
  H  H45  1  0.49191000  0.51467000  0.70215000  1.0
  H  H46  1  0.41511000  0.47861000  0.45612000  1.0
  H  H47  1  0.58489000  0.52139000  0.54388000  1.0
  H  H48  1  0.46877000  0.27068000  0.56830000  1.0
  H  H49  1  0.53123000  0.72932000  0.43170000  1.0
  H  H50  1  0.61728000  0.06553000  0.52328000  1.0
  H  H51  1  0.38272000  0.93447000  0.47672000  1.0
  H  H52  1  0.70370000  0.06984000  0.36591000  1.0
  H  H53  1  0.29629000  0.93016000  0.63409000  1.0
  C  C54  1  0.96115000  0.72092000  0.26721000  1.0
  C  C55  1  0.03885000  0.27908000  0.73279000  1.0
  C  C56  1  0.14717000  0.55066000  0.37265000  1.0
  C  C57  1  0.85284000  0.44934000  0.62735000  1.0
  C  C58  1  0.12897000  0.65084000  0.43305000  1.0
  C  C59  1  0.87103000  0.34916000  0.56695000  1.0
  C  C60  1  0.11814000  0.80317000  0.38576000  1.0
  C  C61  1  0.88186000  0.19683000  0.61424000  1.0
  C  C62  1  0.82572000  0.73261000  0.21850000  1.0
  C  C63  1  0.17428000  0.26739000  0.78150000  1.0
  C  C64  1  0.67595000  0.78323000  0.25023000  1.0
  C  C65  1  0.32403000  0.21676000  0.74977000  1.0
  C  C66  1  0.55139000  0.78797000  0.20490000  1.0
  C  C67  1  0.44862000  0.21202000  0.79510000  1.0
  C  C68  1  0.57494000  0.74137000  0.12776000  1.0
  C  C69  1  0.42505000  0.25863000  0.87224000  1.0
  C  C70  1  0.72387000  0.68929000  0.09589000  1.0
  C  C71  1  0.27615000  0.31071000  0.90411000  1.0
  C  C72  1  0.84883000  0.68535000  0.14079000  1.0
  C  C73  1  0.15116000  0.31465000  0.85921000  1.0
  C  C74  1  0.65913000  0.28176000  0.22686000  1.0
  C  C75  1  0.34087000  0.71824000  0.77314000  1.0
  C  C76  1  0.62921000  0.18474000  0.08167000  1.0
  C  C77  1  0.37079000  0.81526000  0.91833000  1.0
  C  C78  1  0.80946000  0.17568000  0.05630000  1.0
  C  C79  1  0.19054000  0.82432000  0.94370000  1.0
  C  C80  1  0.89856000  0.28594000  0.08151000  1.0
  C  C81  1  0.10145000  0.71406000  0.91849000  1.0
  C  C82  1  0.61031000  0.27783000  0.32216000  1.0
  C  C83  1  0.38969000  0.72217000  0.67784000  1.0
  C  C84  1  0.53065000  0.39353000  0.34768000  1.0
  C  C85  1  0.46935000  0.60647000  0.65232000  1.0
  C  C86  1  0.47914000  0.38963000  0.43610000  1.0
  C  C87  1  0.52087000  0.61037000  0.56390000  1.0
  C  C88  1  0.50960000  0.27205000  0.49938000  1.0
  C  C89  1  0.49041000  0.72795000  0.50062000  1.0
  C  C90  1  0.59208000  0.15745000  0.47429000  1.0
  C  C91  1  0.40792000  0.84255000  0.52571000  1.0
  C  C92  1  0.64085000  0.15979000  0.38579000  1.0
  C  C93  1  0.35915000  0.84020000  0.61422000  1.0
  S  S94  1  0.93963000  0.84486000  0.33859000  1.0
  S  S95  1  0.06037000  0.15514000  0.66141000  1.0
  S  S96  1  0.96593000  0.53876000  0.33160000  1.0
  S  S97  1  0.03407000  0.46124000  0.66840000  1.0
  S  S98  1  0.87781000  0.25867000  0.19912000  1.0
  S  S99  1  0.12219000  0.74133000  0.80088000  1.0
  S  S100  1  0.55407000  0.14605000  0.19902000  1.0
  S  S101  1  0.44594000  0.85395000  0.80098000  1.0
  I  I102  1  0.21968000  0.02227000  0.11837000  1.0
  I  I103  1  0.78032000  0.97773000  0.88163000  1.0
  I  I104  1  0.28362000  0.47178000  0.11825000  1.0
  I  I105  1  0.71638000  0.52822000  0.88175000  1.0
  I  I106  1  0.13271000  0.17237000  0.37005000  1.0
  I  I107  1  0.86729000  0.82763000  0.62996000  1.0
