# generated using pymatgen
data_Ag2H4C7SO5
_symmetry_space_group_name_H-M   'P 1'
_cell_length_a   8.38577000
_cell_length_b   9.87184000
_cell_length_c   11.02820000
_cell_angle_alpha   76.12800000
_cell_angle_beta   89.99990000
_cell_angle_gamma   89.99980000
_symmetry_Int_Tables_number   1
_chemical_formula_structural   Ag2H4C7SO5
_chemical_formula_sum   'Ag8 H16 C28 S4 O20'
_cell_volume   886.32002105
_cell_formula_units_Z   4
loop_
 _symmetry_equiv_pos_site_id
 _symmetry_equiv_pos_as_xyz
  1  'x, y, z'
loop_
 _atom_site_type_symbol
 _atom_site_label
 _atom_site_symmetry_multiplicity
 _atom_site_fract_x
 _atom_site_fract_y
 _atom_site_fract_z
 _atom_site_occupancy
  Ag  Ag0  1  0.35898000  0.97179000  0.44745000  1.0
  Ag  Ag1  1  0.85898000  0.52821000  0.55255000  1.0
  Ag  Ag2  1  0.64102000  0.02821000  0.55255000  1.0
  Ag  Ag3  1  0.14102000  0.47179000  0.44745000  1.0
  Ag  Ag4  1  0.99393000  0.17672000  0.34080000  1.0
  Ag  Ag5  1  0.49393000  0.32328000  0.65920000  1.0
  Ag  Ag6  1  0.00607000  0.82328000  0.65921000  1.0
  Ag  Ag7  1  0.50607000  0.67672000  0.34079000  1.0
  H  H8  1  0.58120000  0.00947000  0.06643000  1.0
  H  H9  1  0.08120000  0.49053000  0.93357000  1.0
  H  H10  1  0.41880000  0.99053000  0.93357000  1.0
  H  H11  1  0.91880000  0.50946000  0.06643000  1.0
  H  H12  1  0.10120000  0.76560000  0.10555000  1.0
  H  H13  1  0.60120000  0.73440000  0.89445000  1.0
  H  H14  1  0.89880000  0.23440000  0.89445000  1.0
  H  H15  1  0.39880000  0.26560000  0.10556000  1.0
  H  H16  1  0.95687000  0.81452000  0.90228000  1.0
  H  H17  1  0.45687000  0.68548000  0.09772000  1.0
  H  H18  1  0.04313000  0.18548000  0.09772000  1.0
  H  H19  1  0.54313000  0.31452000  0.90228000  1.0
  H  H20  1  0.70216000  0.94779000  0.87918000  1.0
  H  H21  1  0.20216000  0.55221000  0.12082000  1.0
  H  H22  1  0.29784000  0.05221000  0.12082000  1.0
  H  H23  1  0.79784000  0.44779000  0.87918000  1.0
  C  C24  1  0.92359000  0.86134000  0.19763000  1.0
  C  C25  1  0.42359000  0.63866000  0.80237000  1.0
  C  C26  1  0.07641000  0.13866000  0.80237000  1.0
  C  C27  1  0.57641000  0.36134000  0.19763000  1.0
  C  C28  1  0.69526000  0.95564000  0.07324000  1.0
  C  C29  1  0.19526000  0.54436000  0.92676000  1.0
  C  C30  1  0.30474000  0.04436000  0.92676000  1.0
  C  C31  1  0.80474000  0.45564000  0.07324000  1.0
  C  C32  1  0.77388000  0.92680000  0.18882000  1.0
  C  C33  1  0.27388000  0.57320000  0.81118000  1.0
  C  C34  1  0.22612000  0.07321000  0.81118000  1.0
  C  C35  1  0.72612000  0.42679000  0.18882000  1.0
  C  C36  1  0.98685000  0.81897000  0.09535000  1.0
  C  C37  1  0.48685000  0.68103000  0.90465000  1.0
  C  C38  1  0.01315000  0.18103000  0.90465000  1.0
  C  C39  1  0.51315000  0.31897000  0.09535000  1.0
  C  C40  1  0.90560000  0.84666000  0.98205000  1.0
  C  C41  1  0.40560000  0.65334000  0.01795000  1.0
  C  C42  1  0.09440000  0.15335000  0.01795000  1.0
  C  C43  1  0.59440000  0.34666000  0.98205000  1.0
  C  C44  1  0.76131000  0.91915000  0.96971000  1.0
  C  C45  1  0.26131000  0.58085000  0.03029000  1.0
  C  C46  1  0.23869000  0.08085000  0.03029000  1.0
  C  C47  1  0.73869000  0.41915000  0.96971000  1.0
  C  C48  1  0.68634000  0.96357000  0.29534000  1.0
  C  C49  1  0.18634000  0.53643000  0.70466000  1.0
  C  C50  1  0.31366000  0.03643000  0.70465000  1.0
  C  C51  1  0.81366000  0.46357000  0.29535000  1.0
  S  S52  1  0.04313000  0.83368000  0.33494000  1.0
  S  S53  1  0.54313000  0.66632000  0.66506000  1.0
  S  S54  1  0.95687000  0.16632000  0.66506000  1.0
  S  S55  1  0.45687000  0.33368000  0.33494000  1.0
  O  O56  1  0.12084000  0.97215000  0.32749000  1.0
  O  O57  1  0.62084000  0.52785000  0.67251000  1.0
  O  O58  1  0.87916000  0.02785000  0.67251000  1.0
  O  O59  1  0.37916000  0.47215000  0.32749000  1.0
  O  O60  1  0.74571000  0.04626000  0.35475000  1.0
  O  O61  1  0.24571000  0.45374000  0.64526000  1.0
  O  O62  1  0.25429000  0.95374000  0.64525000  1.0
  O  O63  1  0.75429000  0.54626000  0.35475000  1.0
  O  O64  1  0.16333000  0.72898000  0.32523000  1.0
  O  O65  1  0.66333000  0.77102000  0.67477000  1.0
  O  O66  1  0.83667000  0.27102000  0.67477000  1.0
  O  O67  1  0.33667000  0.22898000  0.32523000  1.0
  O  O68  1  0.54669000  0.90969000  0.31606000  1.0
  O  O69  1  0.04669000  0.59031000  0.68394000  1.0
  O  O70  1  0.45331000  0.09030000  0.68394000  1.0
  O  O71  1  0.95331000  0.40969000  0.31606000  1.0
  O  O72  1  0.93538000  0.79377000  0.44232000  1.0
  O  O73  1  0.43538000  0.70623000  0.55768000  1.0
  O  O74  1  0.06462000  0.20623000  0.55768000  1.0
  O  O75  1  0.56462000  0.29377000  0.44232000  1.0
