# generated using pymatgen
data_Co3H16C20(NO)12
_symmetry_space_group_name_H-M   'P 1'
_cell_length_a   7.47078000
_cell_length_b   9.14406000
_cell_length_c   12.07790000
_cell_angle_alpha   109.22200000
_cell_angle_beta   93.20300000
_cell_angle_gamma   111.35900000
_symmetry_Int_Tables_number   1
_chemical_formula_structural   Co3H16C20(NO)12
_chemical_formula_sum   'Co3 H16 C20 N12 O12'
_cell_volume   710.92925646
_cell_formula_units_Z   1
loop_
 _symmetry_equiv_pos_site_id
 _symmetry_equiv_pos_as_xyz
  1  'x, y, z'
loop_
 _atom_site_type_symbol
 _atom_site_label
 _atom_site_symmetry_multiplicity
 _atom_site_fract_x
 _atom_site_fract_y
 _atom_site_fract_z
 _atom_site_occupancy
  Co  Co0  1  0.50000000  0.49999000  0.50000000  1.0
  Co  Co1  1  0.00368000  0.95387000  0.83135000  1.0
  Co  Co2  1  0.99632000  0.04614000  0.16865000  1.0
  H  H3  1  0.69934000  0.61942000  0.76210000  1.0
  H  H4  1  0.30066000  0.38057000  0.23791000  1.0
  H  H5  1  0.76454000  0.71693000  0.90551000  1.0
  H  H6  1  0.23546000  0.28307000  0.09448000  1.0
  H  H7  1  0.29095000  0.23940000  0.84561000  1.0
  H  H8  1  0.70905000  0.76061000  0.15439000  1.0
  H  H9  1  0.38255000  0.18890000  0.94045000  1.0
  H  H10  1  0.61744000  0.81112000  0.05955000  1.0
  H  H11  1  0.05028000  0.82002000  0.56245000  1.0
  H  H12  1  0.94972000  0.17999000  0.43755000  1.0
  H  H13  1  0.19508000  0.62136000  0.44769000  1.0
  H  H14  1  0.80490000  0.37864000  0.55231000  1.0
  H  H15  1  0.41748000  0.60503000  0.76386000  1.0
  H  H16  1  0.58253000  0.39499000  0.23614000  1.0
  H  H17  1  0.66944000  0.14534000  0.71279000  1.0
  H  H18  1  0.33056000  0.85464000  0.28721000  1.0
  C  C19  1  0.26120000  0.81727000  0.91116000  1.0
  C  C20  1  0.73882000  0.18275000  0.08884000  1.0
  C  C21  1  0.25582000  0.76307000  0.78324000  1.0
  C  C22  1  0.74420000  0.23695000  0.21676000  1.0
  C  C23  1  0.13266000  0.77285000  0.60782000  1.0
  C  C24  1  0.86734000  0.22717000  0.39218000  1.0
  C  C25  1  0.21240000  0.66336000  0.54442000  1.0
  C  C26  1  0.78759000  0.33665000  0.45558000  1.0
  C  C27  1  0.33797000  0.65484000  0.71915000  1.0
  C  C28  1  0.66205000  0.34518000  0.28085000  1.0
  C  C29  1  0.47373000  0.14476000  0.57320000  1.0
  C  C30  1  0.52625000  0.85522000  0.42680000  1.0
  C  C31  1  0.37684000  0.05873000  0.45218000  1.0
  C  C32  1  0.62316000  0.94127000  0.54781000  1.0
  C  C33  1  0.59565000  0.08427000  0.61893000  1.0
  C  C34  1  0.40434000  0.91571000  0.38107000  1.0
  C  C35  1  0.46622000  0.30611000  0.65733000  1.0
  C  C36  1  0.53375000  0.69386000  0.34267000  1.0
  C  C37  1  0.24889000  0.11591000  0.39288000  1.0
  C  C38  1  0.75112000  0.88407000  0.60711000  1.0
  N  N39  1  0.13922000  0.89140000  0.95202000  1.0
  N  N40  1  0.86079000  0.10860000  0.04798000  1.0
  N  N41  1  0.16322000  0.92404000  0.06881000  1.0
  N  N42  1  0.83678000  0.07597000  0.93119000  1.0
  N  N43  1  0.29872000  0.87522000  0.09995000  1.0
  N  N44  1  0.70129000  0.12480000  0.90006000  1.0
  N  N45  1  0.36332000  0.80755000  0.00214000  1.0
  N  N46  1  0.63670000  0.19248000  0.99787000  1.0
  N  N47  1  0.15259000  0.82287000  0.72696000  1.0
  N  N48  1  0.84742000  0.17714000  0.27305000  1.0
  N  N49  1  0.31940000  0.60720000  0.59981000  1.0
  N  N50  1  0.68060000  0.39281000  0.40019000  1.0
  O  O51  1  0.36650000  0.30522000  0.73640000  1.0
  O  O52  1  0.63346000  0.69474000  0.26358000  1.0
  O  O53  1  0.58162000  0.44456000  0.64577000  1.0
  O  O54  1  0.41837000  0.55541000  0.35423000  1.0
  O  O55  1  0.27784000  0.27238000  0.43163000  1.0
  O  O56  1  0.72218000  0.72762000  0.56837000  1.0
  O  O57  1  0.11354000  0.00390000  0.30448000  1.0
  O  O58  1  0.88648000  0.99608000  0.69552000  1.0
  O  O59  1  0.75653000  0.73337000  0.82957000  1.0
  O  O60  1  0.24347000  0.26663000  0.17042000  1.0
  O  O61  1  0.25902000  0.19404000  0.91027000  1.0
  O  O62  1  0.74097000  0.80597000  0.08973000  1.0
