# generated using pymatgen
data_AgH15C15N7O4
_symmetry_space_group_name_H-M   'P 1'
_cell_length_a   9.58044000
_cell_length_b   11.55990000
_cell_length_c   19.14310000
_cell_angle_alpha   89.99880000
_cell_angle_beta   89.99960000
_cell_angle_gamma   92.76480000
_symmetry_Int_Tables_number   1
_chemical_formula_structural   AgH15C15N7O4
_chemical_formula_sum   'Ag4 H60 C60 N28 O16'
_cell_volume   2117.60995449
_cell_formula_units_Z   4
loop_
 _symmetry_equiv_pos_site_id
 _symmetry_equiv_pos_as_xyz
  1  'x, y, z'
loop_
 _atom_site_type_symbol
 _atom_site_label
 _atom_site_symmetry_multiplicity
 _atom_site_fract_x
 _atom_site_fract_y
 _atom_site_fract_z
 _atom_site_occupancy
  Ag  Ag0  1  0.37789000  0.92650000  0.20460000  1.0
  Ag  Ag1  1  0.87787000  0.92651000  0.29541000  1.0
  Ag  Ag2  1  0.62212000  0.07348000  0.79541000  1.0
  Ag  Ag3  1  0.12212000  0.07349000  0.70458000  1.0
  H  H4  1  0.87087000  0.92905000  0.05717000  1.0
  H  H5  1  0.37086000  0.92906000  0.44283000  1.0
  H  H6  1  0.12915000  0.07095000  0.94283000  1.0
  H  H7  1  0.62915000  0.07094000  0.55717000  1.0
  H  H8  1  0.92406000  0.89145000  0.14316000  1.0
  H  H9  1  0.42405000  0.89146000  0.35684000  1.0
  H  H10  1  0.07595000  0.10855000  0.85685000  1.0
  H  H11  1  0.57595000  0.10854000  0.64315000  1.0
  H  H12  1  0.07421000  0.74665000  0.09909000  1.0
  H  H13  1  0.57420000  0.74664000  0.40091000  1.0
  H  H14  1  0.92579000  0.25336000  0.90092000  1.0
  H  H15  1  0.42578000  0.25334000  0.59907000  1.0
  H  H16  1  0.02942000  0.79808000  0.01431000  1.0
  H  H17  1  0.52941000  0.79807000  0.48569000  1.0
  H  H18  1  0.97060000  0.20192000  0.98570000  1.0
  H  H19  1  0.47059000  0.20190000  0.51429000  1.0
  H  H20  1  0.99085000  0.66836000  0.91933000  1.0
  H  H21  1  0.49079000  0.66835000  0.58067000  1.0
  H  H22  1  0.00918000  0.33163000  0.08069000  1.0
  H  H23  1  0.50919000  0.33163000  0.41931000  1.0
  H  H24  1  0.00844000  0.53381000  0.12821000  1.0
  H  H25  1  0.50846000  0.53382000  0.37179000  1.0
  H  H26  1  0.99157000  0.46618000  0.87180000  1.0
  H  H27  1  0.49152000  0.46616000  0.62820000  1.0
  H  H28  1  0.88132000  0.08422000  0.11953000  1.0
  H  H29  1  0.38132000  0.08422000  0.38047000  1.0
  H  H30  1  0.11869000  0.91579000  0.88048000  1.0
  H  H31  1  0.61868000  0.91578000  0.61952000  1.0
  H  H32  1  0.77758000  0.26823000  0.18825000  1.0
  H  H33  1  0.27758000  0.26823000  0.31175000  1.0
  H  H34  1  0.22242000  0.73177000  0.81177000  1.0
  H  H35  1  0.72242000  0.73177000  0.68825000  1.0
  H  H36  1  0.53131000  0.17974000  0.24772000  1.0
  H  H37  1  0.03131000  0.17975000  0.25228000  1.0
  H  H38  1  0.46869000  0.82026000  0.75228000  1.0
  H  H39  1  0.96870000  0.82026000  0.74772000  1.0
  H  H40  1  0.72302000  0.82727000  0.98347000  1.0
  H  H41  1  0.22302000  0.82728000  0.51653000  1.0
  H  H42  1  0.27699000  0.17272000  0.01653000  1.0
  H  H43  1  0.77698000  0.17273000  0.48347000  1.0
  H  H44  1  0.46880000  0.81730000  0.91853000  1.0
  H  H45  1  0.96879000  0.81729000  0.58147000  1.0
  H  H46  1  0.53123000  0.18271000  0.08146000  1.0
  H  H47  1  0.03122000  0.18271000  0.41853000  1.0
  H  H48  1  0.28076000  0.85618000  0.02609000  1.0
  H  H49  1  0.78076000  0.85619000  0.47391000  1.0
  H  H50  1  0.71925000  0.14384000  0.97390000  1.0
  H  H51  1  0.21924000  0.14383000  0.52609000  1.0
  H  H52  1  0.54038000  0.66901000  0.12636000  1.0
  H  H53  1  0.04036000  0.66903000  0.37366000  1.0
  H  H54  1  0.45962000  0.33100000  0.87364000  1.0
  H  H55  1  0.95962000  0.33100000  0.62635000  1.0
  H  H56  1  0.58031000  0.53451000  0.24258000  1.0
  H  H57  1  0.08022000  0.53453000  0.25744000  1.0
  H  H58  1  0.41970000  0.46549000  0.75742000  1.0
  H  H59  1  0.91969000  0.46549000  0.74257000  1.0
  H  H60  1  0.75683000  0.67310000  0.32528000  1.0
  H  H61  1  0.25674000  0.67310000  0.17472000  1.0
  H  H62  1  0.24320000  0.32689000  0.67471000  1.0
  H  H63  1  0.74318000  0.32689000  0.82528000  1.0
  C  C64  1  0.70100000  0.88037000  0.12898000  1.0
  C  C65  1  0.20100000  0.88038000  0.37102000  1.0
  C  C66  1  0.29901000  0.11963000  0.87102000  1.0
  C  C67  1  0.79900000  0.11963000  0.62898000  1.0
  C  C68  1  0.84990000  0.86823000  0.10083000  1.0
  C  C69  1  0.34989000  0.86824000  0.39917000  1.0
  C  C70  1  0.15011000  0.13177000  0.89918000  1.0
  C  C71  1  0.65010000  0.13176000  0.60082000  1.0
  C  C72  1  0.00118000  0.73367000  0.05496000  1.0
  C  C73  1  0.50116000  0.73367000  0.44504000  1.0
  C  C74  1  0.99884000  0.26633000  0.94505000  1.0
  C  C75  1  0.49883000  0.26631000  0.55495000  1.0
  C  C76  1  0.00232000  0.61322000  0.02650000  1.0
  C  C77  1  0.50228000  0.61322000  0.47349000  1.0
  C  C78  1  0.99771000  0.38677000  0.97351000  1.0
  C  C79  1  0.49767000  0.38675000  0.52648000  1.0
  C  C80  1  0.99650000  0.59412000  0.95428000  1.0
  C  C81  1  0.49646000  0.59410000  0.54571000  1.0
  C  C82  1  0.00352000  0.40588000  0.04573000  1.0
  C  C83  1  0.50351000  0.40587000  0.45427000  1.0
  C  C84  1  0.00544000  0.51846000  0.07193000  1.0
  C  C85  1  0.50542000  0.51846000  0.42807000  1.0
  C  C86  1  0.99458000  0.48154000  0.92809000  1.0
  C  C87  1  0.49454000  0.48152000  0.57191000  1.0
  C  C88  1  0.78499000  0.08903000  0.14941000  1.0
  C  C89  1  0.28498000  0.08903000  0.35059000  1.0
  C  C90  1  0.21502000  0.91098000  0.85060000  1.0
  C  C91  1  0.71502000  0.91097000  0.64941000  1.0
  C  C92  1  0.73100000  0.18120000  0.18455000  1.0
  C  C93  1  0.23099000  0.18121000  0.31545000  1.0
  C  C94  1  0.26901000  0.81880000  0.81546000  1.0
  C  C95  1  0.76900000  0.81880000  0.68455000  1.0
  C  C96  1  0.60595000  0.13696000  0.21527000  1.0
  C  C97  1  0.10594000  0.13698000  0.28473000  1.0
  C  C98  1  0.39404000  0.86303000  0.78474000  1.0
  C  C99  1  0.89405000  0.86303000  0.71527000  1.0
  C  C100  1  0.61970000  0.83959000  0.00451000  1.0
  C  C101  1  0.11969000  0.83960000  0.49549000  1.0
  C  C102  1  0.38032000  0.16040000  0.99549000  1.0
  C  C103  1  0.88032000  0.16041000  0.50451000  1.0
  C  C104  1  0.48961000  0.83314000  0.97335000  1.0
  C  C105  1  0.98959000  0.83314000  0.52666000  1.0
  C  C106  1  0.51042000  0.16687000  0.02664000  1.0
  C  C107  1  0.01042000  0.16687000  0.47335000  1.0
  C  C108  1  0.39375000  0.85252000  0.02760000  1.0
  C  C109  1  0.89374000  0.85253000  0.47241000  1.0
  C  C110  1  0.60627000  0.14749000  0.97239000  1.0
  C  C111  1  0.10627000  0.14748000  0.52760000  1.0
  C  C112  1  0.60042000  0.68723000  0.17328000  1.0
  C  C113  1  0.10040000  0.68724000  0.32673000  1.0
  C  C114  1  0.39958000  0.31277000  0.82672000  1.0
  C  C115  1  0.89957000  0.31278000  0.67328000  1.0
  C  C116  1  0.62327000  0.62117000  0.23204000  1.0
  C  C117  1  0.12320000  0.62119000  0.26798000  1.0
  C  C118  1  0.37674000  0.37884000  0.76796000  1.0
  C  C119  1  0.87672000  0.37883000  0.73204000  1.0
  C  C120  1  0.71323000  0.69085000  0.27430000  1.0
  C  C121  1  0.21317000  0.69086000  0.22571000  1.0
  C  C122  1  0.28679000  0.30915000  0.72570000  1.0
  C  C123  1  0.78678000  0.30914000  0.77429000  1.0
  N  N124  1  0.58291000  0.02495000  0.20011000  1.0
  N  N125  1  0.08290000  0.02495000  0.29988000  1.0
  N  N126  1  0.41709000  0.97506000  0.79989000  1.0
  N  N127  1  0.91710000  0.97505000  0.70011000  1.0
  N  N128  1  0.69344000  0.99576000  0.15998000  1.0
  N  N129  1  0.19343000  0.99577000  0.34002000  1.0
  N  N130  1  0.30657000  0.00424000  0.84002000  1.0
  N  N131  1  0.80656000  0.00424000  0.65998000  1.0
  N  N132  1  0.45928000  0.86990000  0.08859000  1.0
  N  N133  1  0.95927000  0.86992000  0.41142000  1.0
  N  N134  1  0.54074000  0.13011000  0.91141000  1.0
  N  N135  1  0.04074000  0.13011000  0.58858000  1.0
  N  N136  1  0.59764000  0.86226000  0.07378000  1.0
  N  N137  1  0.09763000  0.86228000  0.42623000  1.0
  N  N138  1  0.40238000  0.13773000  0.92622000  1.0
  N  N139  1  0.90238000  0.13773000  0.57377000  1.0
  N  N140  1  0.74404000  0.79319000  0.24376000  1.0
  N  N141  1  0.24401000  0.79319000  0.25625000  1.0
  N  N142  1  0.25597000  0.20681000  0.75624000  1.0
  N  N143  1  0.75597000  0.20680000  0.74375000  1.0
  N  N144  1  0.67201000  0.79084000  0.18268000  1.0
  N  N145  1  0.17200000  0.79085000  0.31733000  1.0
  N  N146  1  0.32800000  0.20916000  0.81732000  1.0
  N  N147  1  0.82800000  0.20916000  0.68267000  1.0
  N  N148  1  0.17242000  0.06913000  0.12206000  1.0
  N  N149  1  0.67242000  0.06913000  0.37794000  1.0
  N  N150  1  0.82759000  0.93087000  0.87794000  1.0
  N  N151  1  0.32759000  0.93086000  0.62206000  1.0
  O  O152  1  0.86121000  0.75247000  0.07929000  1.0
  O  O153  1  0.36120000  0.75248000  0.42071000  1.0
  O  O154  1  0.13881000  0.24753000  0.92072000  1.0
  O  O155  1  0.63879000  0.24752000  0.57927000  1.0
  O  O156  1  0.27451000  0.12135000  0.15235000  1.0
  O  O157  1  0.77450000  0.12134000  0.34765000  1.0
  O  O158  1  0.72550000  0.87866000  0.84765000  1.0
  O  O159  1  0.22550000  0.87864000  0.65235000  1.0
  O  O160  1  0.15464000  0.95979000  0.12752000  1.0
  O  O161  1  0.65463000  0.95979000  0.37249000  1.0
  O  O162  1  0.84538000  0.04021000  0.87249000  1.0
  O  O163  1  0.34537000  0.04020000  0.62752000  1.0
  O  O164  1  0.08734000  0.12558000  0.08576000  1.0
  O  O165  1  0.58734000  0.12559000  0.41424000  1.0
  O  O166  1  0.91267000  0.87441000  0.91424000  1.0
  O  O167  1  0.41267000  0.87441000  0.58575000  1.0
