# generated using pymatgen
data_CuH3C6N2ClO4
_symmetry_space_group_name_H-M   'P 1'
_cell_length_a   7.94512000
_cell_length_b   9.39433000
_cell_length_c   10.70920000
_cell_angle_alpha   90.00020000
_cell_angle_beta   89.99990000
_cell_angle_gamma   89.99980000
_symmetry_Int_Tables_number   1
_chemical_formula_structural   CuH3C6N2ClO4
_chemical_formula_sum   'Cu4 H12 C24 N8 Cl4 O16'
_cell_volume   799.32482663
_cell_formula_units_Z   4
loop_
 _symmetry_equiv_pos_site_id
 _symmetry_equiv_pos_as_xyz
  1  'x, y, z'
loop_
 _atom_site_type_symbol
 _atom_site_label
 _atom_site_symmetry_multiplicity
 _atom_site_fract_x
 _atom_site_fract_y
 _atom_site_fract_z
 _atom_site_occupancy
  Cu  Cu0  1  0.24808000  0.24386000  0.22421000  1.0
  Cu  Cu1  1  0.74808000  0.75614000  0.77579000  1.0
  Cu  Cu2  1  0.74809000  0.25614000  0.72420000  1.0
  Cu  Cu3  1  0.24808000  0.74386000  0.27579000  1.0
  H  H4  1  0.97150000  0.43076000  0.14328000  1.0
  H  H5  1  0.47150000  0.56924000  0.85672000  1.0
  H  H6  1  0.47150000  0.06924000  0.64328000  1.0
  H  H7  1  0.97150000  0.93076000  0.35672000  1.0
  H  H8  1  0.26397000  0.07506000  0.46346000  1.0
  H  H9  1  0.76397000  0.92494000  0.53654000  1.0
  H  H10  1  0.76397000  0.42494000  0.96346000  1.0
  H  H11  1  0.26397000  0.57506000  0.03654000  1.0
  H  H12  1  0.75798000  0.50932000  0.32599000  1.0
  H  H13  1  0.25799000  0.49068000  0.67400000  1.0
  H  H14  1  0.25799000  0.99068000  0.82599000  1.0
  H  H15  1  0.75799000  0.00932000  0.17401000  1.0
  C  C16  1  0.98737000  0.35826000  0.06495000  1.0
  C  C17  1  0.48737000  0.64174000  0.93505000  1.0
  C  C18  1  0.48737000  0.14174000  0.56495000  1.0
  C  C19  1  0.98737000  0.85827000  0.43505000  1.0
  C  C20  1  0.37620000  0.14094000  0.46442000  1.0
  C  C21  1  0.87620000  0.85906000  0.53558000  1.0
  C  C22  1  0.87620000  0.35906000  0.96442000  1.0
  C  C23  1  0.37620000  0.64094000  0.03558000  1.0
  C  C24  1  0.53668000  0.31573000  0.36543000  1.0
  C  C25  1  0.03668000  0.68427000  0.63457000  1.0
  C  C26  1  0.03668000  0.18427000  0.86543000  1.0
  C  C27  1  0.53668000  0.81573000  0.13457000  1.0
  C  C28  1  0.14139000  0.17566000  0.97113000  1.0
  C  C29  1  0.64139000  0.82434000  0.02887000  1.0
  C  C30  1  0.64139000  0.32434000  0.47113000  1.0
  C  C31  1  0.14139000  0.67566000  0.52887000  1.0
  C  C32  1  0.27481000  0.06437000  0.99945000  1.0
  C  C33  1  0.77481000  0.93563000  0.00055000  1.0
  C  C34  1  0.77481000  0.43564000  0.49945000  1.0
  C  C35  1  0.27481000  0.56437000  0.50055000  1.0
  C  C36  1  0.54972000  0.39634000  0.24270000  1.0
  C  C37  1  0.04972000  0.60366000  0.75730000  1.0
  C  C38  1  0.04973000  0.10366000  0.74270000  1.0
  C  C39  1  0.54972000  0.89634000  0.25730000  1.0
  N  N40  1  0.11412000  0.26549000  0.06770000  1.0
  N  N41  1  0.61412000  0.73451000  0.93230000  1.0
  N  N42  1  0.61413000  0.23451000  0.56770000  1.0
  N  N43  1  0.11412000  0.76549000  0.43230000  1.0
  N  N44  1  0.40332000  0.22661000  0.36752000  1.0
  N  N45  1  0.90332000  0.77339000  0.63249000  1.0
  N  N46  1  0.90332000  0.27339000  0.86751000  1.0
  N  N47  1  0.40332000  0.72661000  0.13249000  1.0
  Cl  Cl48  1  0.01683000  0.20571000  0.33835000  1.0
  Cl  Cl49  1  0.51683000  0.79429000  0.66166000  1.0
  Cl  Cl50  1  0.51684000  0.29429000  0.83834000  1.0
  Cl  Cl51  1  0.01683000  0.70571000  0.16166000  1.0
  O  O52  1  0.43471000  0.37075000  0.16346000  1.0
  O  O53  1  0.93471000  0.62924000  0.83654000  1.0
  O  O54  1  0.93472000  0.12924000  0.66345000  1.0
  O  O55  1  0.43471000  0.87076000  0.33654000  1.0
  O  O56  1  0.66986000  0.48138000  0.22133000  1.0
  O  O57  1  0.16987000  0.51862000  0.77867000  1.0
  O  O58  1  0.16987000  0.01862000  0.72133000  1.0
  O  O59  1  0.66987000  0.98138000  0.27867000  1.0
  O  O60  1  0.31844000  0.97175000  0.91574000  1.0
  O  O61  1  0.81844000  0.02825000  0.08426000  1.0
  O  O62  1  0.81843000  0.52825000  0.41574000  1.0
  O  O63  1  0.31844000  0.47175000  0.58426000  1.0
  O  O64  1  0.33381000  0.06181000  0.10701000  1.0
  O  O65  1  0.83381000  0.93819000  0.89300000  1.0
  O  O66  1  0.83380000  0.43820000  0.60701000  1.0
  O  O67  1  0.33381000  0.56181000  0.39299000  1.0
