# generated using pymatgen
data_CdH8C6SN2ClO
_symmetry_space_group_name_H-M   'P 1'
_cell_length_a   9.57378000
_cell_length_b   10.46050000
_cell_length_c   11.03680000
_cell_angle_alpha   89.99970000
_cell_angle_beta   89.99960000
_cell_angle_gamma   66.66000000
_symmetry_Int_Tables_number   1
_chemical_formula_structural   CdH8C6SN2ClO
_chemical_formula_sum   'Cd4 H32 C24 S4 N8 Cl4 O4'
_cell_volume   1014.85072314
_cell_formula_units_Z   4
loop_
 _symmetry_equiv_pos_site_id
 _symmetry_equiv_pos_as_xyz
  1  'x, y, z'
loop_
 _atom_site_type_symbol
 _atom_site_label
 _atom_site_symmetry_multiplicity
 _atom_site_fract_x
 _atom_site_fract_y
 _atom_site_fract_z
 _atom_site_occupancy
  Cd  Cd0  1  0.35518000  0.63994000  0.10099000  1.0
  Cd  Cd1  1  0.64482000  0.86006000  0.60098000  1.0
  Cd  Cd2  1  0.64483000  0.36006000  0.89902000  1.0
  Cd  Cd3  1  0.35517000  0.13994000  0.39902000  1.0
  H  H4  1  0.26715000  0.39162000  0.20829000  1.0
  H  H5  1  0.73285000  0.10837000  0.70829000  1.0
  H  H6  1  0.73285000  0.60837000  0.79171000  1.0
  H  H7  1  0.26716000  0.89163000  0.29171000  1.0
  H  H8  1  0.51117000  0.70031000  0.37294000  1.0
  H  H9  1  0.48883000  0.79969000  0.87294000  1.0
  H  H10  1  0.48883000  0.29968000  0.62707000  1.0
  H  H11  1  0.51117000  0.20032000  0.12707000  1.0
  H  H12  1  0.00804000  0.65025000  0.89031000  1.0
  H  H13  1  0.99196000  0.84976000  0.39031000  1.0
  H  H14  1  0.99197000  0.34974000  0.10969000  1.0
  H  H15  1  0.00803000  0.15025000  0.60968000  1.0
  H  H16  1  0.88640000  0.82754000  0.93059000  1.0
  H  H17  1  0.11360000  0.67247000  0.43059000  1.0
  H  H18  1  0.11361000  0.17246000  0.06941000  1.0
  H  H19  1  0.88639000  0.32754000  0.56941000  1.0
  H  H20  1  0.81506000  0.69172000  0.93810000  1.0
  H  H21  1  0.18494000  0.80828000  0.43810000  1.0
  H  H22  1  0.18495000  0.30827000  0.06190000  1.0
  H  H23  1  0.81505000  0.19172000  0.56189000  1.0
  H  H24  1  0.82346000  0.78234000  0.27331000  1.0
  H  H25  1  0.17654000  0.71766000  0.77331000  1.0
  H  H26  1  0.17654000  0.21766000  0.72669000  1.0
  H  H27  1  0.82345000  0.28235000  0.22668000  1.0
  H  H28  1  0.71705000  0.75020000  0.15126000  1.0
  H  H29  1  0.28295000  0.74980000  0.65126000  1.0
  H  H30  1  0.28296000  0.24979000  0.84873000  1.0
  H  H31  1  0.71704000  0.25021000  0.34873000  1.0
  H  H32  1  0.77176000  0.89688000  0.14445000  1.0
  H  H33  1  0.22824000  0.60312000  0.64445000  1.0
  H  H34  1  0.22824000  0.10311000  0.85555000  1.0
  H  H35  1  0.77176000  0.39689000  0.35555000  1.0
  C  C36  1  0.43426000  0.41346000  0.45587000  1.0
  C  C37  1  0.56574000  0.08655000  0.95586000  1.0
  C  C38  1  0.56575000  0.58654000  0.54414000  1.0
  C  C39  1  0.43425000  0.91347000  0.04414000  1.0
  C  C40  1  0.32668000  0.41820000  0.28143000  1.0
  C  C41  1  0.67333000  0.08180000  0.78142000  1.0
  C  C42  1  0.67333000  0.58179000  0.71857000  1.0
  C  C43  1  0.32667000  0.91821000  0.21858000  1.0
  C  C44  1  0.44041000  0.52594000  0.38427000  1.0
  C  C45  1  0.55958000  0.97407000  0.88427000  1.0
  C  C46  1  0.55958000  0.47406000  0.61573000  1.0
  C  C47  1  0.44040000  0.02594000  0.11573000  1.0
  C  C48  1  0.50632000  0.61492000  0.42697000  1.0
  C  C49  1  0.49368000  0.88509000  0.92696000  1.0
  C  C50  1  0.49369000  0.38508000  0.57304000  1.0
  C  C51  1  0.50631000  0.11492000  0.07303000  1.0
  C  C52  1  0.91520000  0.71685000  0.94861000  1.0
  C  C53  1  0.08480000  0.78316000  0.44861000  1.0
  C  C54  1  0.08482000  0.28315000  0.05139000  1.0
  C  C55  1  0.91519000  0.21685000  0.55138000  1.0
  C  C56  1  0.80439000  0.78915000  0.17524000  1.0
  C  C57  1  0.19561000  0.71085000  0.67524000  1.0
  C  C58  1  0.19561000  0.21084000  0.82476000  1.0
  C  C59  1  0.80438000  0.28916000  0.32475000  1.0
  S  S60  1  0.97884000  0.68018000  0.10298000  1.0
  S  S61  1  0.02116000  0.81981000  0.60297000  1.0
  S  S62  1  0.02117000  0.31981000  0.89703000  1.0
  S  S63  1  0.97883000  0.18019000  0.39702000  1.0
  N  N64  1  0.36144000  0.34736000  0.38669000  1.0
  N  N65  1  0.63855000  0.15264000  0.88669000  1.0
  N  N66  1  0.63855000  0.65264000  0.61331000  1.0
  N  N67  1  0.36144000  0.84736000  0.11331000  1.0
  N  N68  1  0.37098000  0.52474000  0.27401000  1.0
  N  N69  1  0.62901000  0.97526000  0.77401000  1.0
  N  N70  1  0.62903000  0.47525000  0.72599000  1.0
  N  N71  1  0.37098000  0.02475000  0.22600000  1.0
  Cl  Cl72  1  0.33133000  0.48124000  0.93786000  1.0
  Cl  Cl73  1  0.66868000  0.01875000  0.43784000  1.0
  Cl  Cl74  1  0.66868000  0.51876000  0.06216000  1.0
  Cl  Cl75  1  0.33132000  0.98125000  0.56216000  1.0
  O  O76  1  0.08584000  0.75445000  0.12363000  1.0
  O  O77  1  0.91416000  0.74554000  0.62362000  1.0
  O  O78  1  0.91416000  0.24553000  0.87638000  1.0
  O  O79  1  0.08583000  0.25446000  0.37636000  1.0
