# generated using pymatgen
data_Cu3H24RhC15S6(IN)3
_symmetry_space_group_name_H-M   'P 1'
_cell_length_a   20.10198561
_cell_length_b   20.10170000
_cell_length_c   20.10180000
_cell_angle_alpha   109.47100000
_cell_angle_beta   109.47157563
_cell_angle_gamma   109.47117254
_symmetry_Int_Tables_number   1
_chemical_formula_structural   Cu3H24RhC15S6(IN)3
_chemical_formula_sum   'Cu24 H192 Rh8 C120 S48 I24 N24'
_cell_volume   6252.94112454
_cell_formula_units_Z   8
loop_
 _symmetry_equiv_pos_site_id
 _symmetry_equiv_pos_as_xyz
  1  'x, y, z'
loop_
 _atom_site_type_symbol
 _atom_site_label
 _atom_site_symmetry_multiplicity
 _atom_site_fract_x
 _atom_site_fract_y
 _atom_site_fract_z
 _atom_site_occupancy
  Cu  Cu0  1  0.77861000  0.78540000  0.95783000  1.0
  Cu  Cu1  1  0.78539000  0.95782000  0.77860000  1.0
  Cu  Cu2  1  0.95783000  0.77861000  0.78540000  1.0
  Cu  Cu3  1  0.67243000  0.71461000  0.99321000  1.0
  Cu  Cu4  1  0.32078000  0.54217000  0.82757000  1.0
  Cu  Cu5  1  0.50679000  0.72140000  0.17922000  1.0
  Cu  Cu6  1  0.72139000  0.17922000  0.50678000  1.0
  Cu  Cu7  1  0.71460000  0.99321000  0.67243000  1.0
  Cu  Cu8  1  0.54218000  0.82757000  0.32079000  1.0
  Cu  Cu9  1  0.82757000  0.32078000  0.54217000  1.0
  Cu  Cu10  1  0.17921000  0.50678000  0.72139000  1.0
  Cu  Cu11  1  0.99321000  0.67243000  0.71460000  1.0
  Cu  Cu12  1  0.28540000  0.27861000  0.45783000  1.0
  Cu  Cu13  1  0.45782000  0.28539000  0.27860000  1.0
  Cu  Cu14  1  0.27861000  0.45783000  0.28540000  1.0
  Cu  Cu15  1  0.21461000  0.17243000  0.49322000  1.0
  Cu  Cu16  1  0.04217000  0.82078000  0.32757000  1.0
  Cu  Cu17  1  0.22139000  0.00678000  0.67921000  1.0
  Cu  Cu18  1  0.67921000  0.22139000  0.00678000  1.0
  Cu  Cu19  1  0.49321000  0.21460000  0.17242000  1.0
  Cu  Cu20  1  0.32758000  0.04218000  0.82079000  1.0
  Cu  Cu21  1  0.82078000  0.32757000  0.04217000  1.0
  Cu  Cu22  1  0.00679000  0.67922000  0.22139000  1.0
  Cu  Cu23  1  0.17243000  0.49322000  0.21461000  1.0
  H  H24  1  0.78365000  0.04438000  0.00637000  1.0
  H  H25  1  0.04438000  0.00638000  0.78365000  1.0
  H  H26  1  0.00637000  0.78364000  0.04437000  1.0
  H  H27  1  0.46199000  0.45562000  0.73927000  1.0
  H  H28  1  0.27728000  0.49363000  0.03800000  1.0
  H  H29  1  0.76072000  0.71635000  0.22272000  1.0
  H  H30  1  0.71635000  0.22273000  0.76072000  1.0
  H  H31  1  0.45563000  0.73928000  0.46200000  1.0
  H  H32  1  0.49363000  0.03800000  0.27728000  1.0
  H  H33  1  0.03800000  0.27728000  0.49363000  1.0
  H  H34  1  0.22272000  0.76073000  0.71635000  1.0
  H  H35  1  0.73927000  0.46199000  0.45562000  1.0
  H  H36  1  0.54437000  0.28365000  0.50637000  1.0
  H  H37  1  0.50637000  0.54437000  0.28365000  1.0
  H  H38  1  0.28365000  0.50637000  0.54437000  1.0
  H  H39  1  0.95563000  0.96200000  0.23928000  1.0
  H  H40  1  0.99363000  0.77728000  0.53801000  1.0
  H  H41  1  0.21635000  0.26072000  0.72272000  1.0
  H  H42  1  0.72272000  0.21635000  0.26073000  1.0
  H  H43  1  0.23927000  0.95562000  0.96199000  1.0
  H  H44  1  0.53800000  0.99362000  0.77727000  1.0
  H  H45  1  0.77728000  0.53801000  0.99363000  1.0
  H  H46  1  0.26073000  0.72272000  0.21635000  1.0
  H  H47  1  0.96200000  0.23928000  0.95563000  1.0
  H  H48  1  0.70385000  0.03421000  0.92316000  1.0
  H  H49  1  0.03421000  0.92316000  0.70385000  1.0
  H  H50  1  0.92316000  0.70385000  0.03421000  1.0
  H  H51  1  0.38895000  0.46579000  0.66964000  1.0
  H  H52  1  0.28070000  0.57685000  0.11106000  1.0
  H  H53  1  0.83035000  0.79614000  0.21930000  1.0
  H  H54  1  0.79615000  0.21931000  0.83036000  1.0
  H  H55  1  0.46580000  0.66965000  0.38895000  1.0
  H  H56  1  0.57684000  0.11105000  0.28069000  1.0
  H  H57  1  0.11105000  0.28069000  0.57685000  1.0
  H  H58  1  0.21931000  0.83036000  0.79616000  1.0
  H  H59  1  0.66964000  0.38894000  0.46579000  1.0
  H  H60  1  0.53420000  0.20385000  0.42315000  1.0
  H  H61  1  0.42316000  0.53421000  0.20386000  1.0
  H  H62  1  0.20385000  0.42315000  0.53421000  1.0
  H  H63  1  0.96580000  0.88896000  0.16965000  1.0
  H  H64  1  0.07685000  0.78070000  0.61106000  1.0
  H  H65  1  0.29615000  0.33036000  0.71931000  1.0
  H  H66  1  0.71930000  0.29615000  0.33035000  1.0
  H  H67  1  0.16964000  0.96579000  0.88895000  1.0
  H  H68  1  0.61105000  0.07684000  0.78069000  1.0
  H  H69  1  0.78070000  0.61106000  0.07685000  1.0
  H  H70  1  0.33036000  0.71931000  0.29615000  1.0
  H  H71  1  0.88895000  0.16964000  0.96580000  1.0
  H  H72  1  0.69208000  0.98953000  0.05251000  1.0
  H  H73  1  0.98953000  0.05252000  0.69209000  1.0
  H  H74  1  0.05250000  0.69207000  0.98952000  1.0
  H  H75  1  0.56299000  0.51048000  0.70256000  1.0
  H  H76  1  0.13958000  0.44750000  0.93702000  1.0
  H  H77  1  0.79744000  0.80792000  0.36043000  1.0
  H  H78  1  0.80792000  0.36043000  0.79745000  1.0
  H  H79  1  0.51048000  0.70256000  0.56299000  1.0
  H  H80  1  0.44749000  0.93701000  0.13957000  1.0
  H  H81  1  0.93701000  0.13957000  0.44749000  1.0
  H  H82  1  0.36043000  0.79745000  0.80792000  1.0
  H  H83  1  0.70256000  0.56299000  0.51047000  1.0
  H  H84  1  0.48952000  0.19208000  0.55251000  1.0
  H  H85  1  0.55251000  0.48952000  0.19208000  1.0
  H  H86  1  0.19208000  0.55251000  0.48952000  1.0
  H  H87  1  0.01048000  0.06299000  0.20256000  1.0
  H  H88  1  0.94749000  0.63957000  0.43701000  1.0
  H  H89  1  0.30792000  0.29744000  0.86043000  1.0
  H  H90  1  0.86042000  0.30791000  0.29744000  1.0
  H  H91  1  0.20256000  0.01048000  0.06299000  1.0
  H  H92  1  0.43701000  0.94748000  0.63957000  1.0
  H  H93  1  0.63957000  0.43702000  0.94749000  1.0
  H  H94  1  0.29744000  0.86043000  0.30791000  1.0
  H  H95  1  0.06298000  0.20255000  0.01047000  1.0
  H  H96  1  0.65389000  0.04813000  0.02033000  1.0
  H  H97  1  0.04812000  0.02033000  0.65389000  1.0
  H  H98  1  0.02032000  0.65388000  0.04812000  1.0
  H  H99  1  0.47221000  0.45188000  0.60577000  1.0
  H  H100  1  0.13357000  0.47968000  0.02781000  1.0
  H  H101  1  0.89423000  0.84611000  0.36644000  1.0
  H  H102  1  0.84611000  0.36644000  0.89424000  1.0
  H  H103  1  0.45188000  0.60577000  0.47220000  1.0
  H  H104  1  0.47967000  0.02779000  0.13356000  1.0
  H  H105  1  0.02780000  0.13357000  0.47968000  1.0
  H  H106  1  0.36644000  0.89423000  0.84610000  1.0
  H  H107  1  0.60576000  0.47220000  0.45187000  1.0
  H  H108  1  0.54812000  0.15389000  0.52033000  1.0
  H  H109  1  0.52033000  0.54812000  0.15389000  1.0
  H  H110  1  0.15389000  0.52033000  0.54812000  1.0
  H  H111  1  0.95188000  0.97221000  0.10577000  1.0
  H  H112  1  0.97968000  0.63357000  0.52780000  1.0
  H  H113  1  0.34611000  0.39423000  0.86644000  1.0
  H  H114  1  0.86643000  0.34610000  0.39423000  1.0
  H  H115  1  0.10577000  0.95187000  0.97221000  1.0
  H  H116  1  0.52779000  0.97966000  0.63356000  1.0
  H  H117  1  0.63356000  0.52780000  0.97967000  1.0
  H  H118  1  0.39423000  0.86644000  0.34610000  1.0
  H  H119  1  0.97221000  0.10577000  0.95188000  1.0
  H  H120  1  0.54809000  0.88613000  0.95275000  1.0
  H  H121  1  0.88613000  0.95275000  0.54809000  1.0
  H  H122  1  0.95274000  0.54808000  0.88613000  1.0
  H  H123  1  0.56661000  0.61386000  0.66195000  1.0
  H  H124  1  0.09534000  0.54726000  0.93339000  1.0
  H  H125  1  0.83804000  0.95191000  0.40466000  1.0
  H  H126  1  0.95192000  0.40467000  0.83805000  1.0
  H  H127  1  0.61387000  0.66195000  0.56661000  1.0
  H  H128  1  0.54726000  0.93338000  0.09534000  1.0
  H  H129  1  0.93338000  0.09533000  0.54725000  1.0
  H  H130  1  0.40466000  0.83804000  0.95191000  1.0
  H  H131  1  0.66196000  0.56662000  0.61387000  1.0
  H  H132  1  0.38613000  0.04809000  0.45275000  1.0
  H  H133  1  0.45275000  0.38613000  0.04809000  1.0
  H  H134  1  0.04809000  0.45275000  0.38613000  1.0
  H  H135  1  0.11387000  0.06662000  0.16196000  1.0
  H  H136  1  0.04726000  0.59534000  0.43339000  1.0
  H  H137  1  0.45191000  0.33804000  0.90466000  1.0
  H  H138  1  0.90466000  0.45191000  0.33804000  1.0
  H  H139  1  0.16195000  0.11386000  0.06661000  1.0
  H  H140  1  0.43338000  0.04725000  0.59534000  1.0
  H  H141  1  0.59534000  0.43339000  0.04725000  1.0
  H  H142  1  0.33804000  0.90466000  0.45191000  1.0
  H  H143  1  0.06661000  0.16195000  0.11387000  1.0
  H  H144  1  0.54782000  0.92698000  0.88673000  1.0
  H  H145  1  0.92698000  0.88673000  0.54782000  1.0
  H  H146  1  0.88672000  0.54782000  0.92698000  1.0
  H  H147  1  0.45974000  0.57301000  0.62084000  1.0
  H  H148  1  0.16110000  0.61328000  0.04026000  1.0
  H  H149  1  0.87916000  0.95218000  0.33891000  1.0
  H  H150  1  0.95218000  0.33891000  0.87916000  1.0
  H  H151  1  0.57302000  0.62084000  0.45974000  1.0
  H  H152  1  0.61328000  0.04026000  0.16110000  1.0
  H  H153  1  0.04026000  0.16110000  0.61328000  1.0
  H  H154  1  0.33891000  0.87917000  0.95218000  1.0
  H  H155  1  0.62084000  0.45975000  0.57302000  1.0
  H  H156  1  0.42698000  0.04782000  0.38673000  1.0
  H  H157  1  0.38673000  0.42698000  0.04783000  1.0
  H  H158  1  0.04782000  0.38672000  0.42698000  1.0
  H  H159  1  0.07302000  0.95975000  0.12084000  1.0
  H  H160  1  0.11328000  0.66110000  0.54026000  1.0
  H  H161  1  0.45218000  0.37916000  0.83891000  1.0
  H  H162  1  0.83891000  0.45218000  0.37917000  1.0
  H  H163  1  0.12083000  0.07301000  0.95974000  1.0
  H  H164  1  0.54025000  0.11327000  0.66109000  1.0
  H  H165  1  0.66110000  0.54026000  0.11328000  1.0
  H  H166  1  0.37916000  0.83891000  0.45218000  1.0
  H  H167  1  0.95974000  0.12083000  0.07302000  1.0
  H  H168  1  0.62581000  0.82575000  0.91921000  1.0
  H  H169  1  0.82575000  0.91921000  0.62581000  1.0
  H  H170  1  0.91921000  0.62581000  0.82575000  1.0
  H  H171  1  0.59346000  0.67425000  0.80006000  1.0
  H  H172  1  0.20660000  0.58079000  0.90655000  1.0
  H  H173  1  0.69994000  0.87419000  0.29340000  1.0
  H  H174  1  0.87419000  0.29340000  0.69994000  1.0
  H  H175  1  0.67425000  0.80006000  0.59346000  1.0
  H  H176  1  0.58080000  0.90654000  0.20661000  1.0
  H  H177  1  0.90654000  0.20660000  0.58079000  1.0
  H  H178  1  0.29341000  0.69995000  0.87419000  1.0
  H  H179  1  0.80006000  0.59346000  0.67424000  1.0
  H  H180  1  0.32575000  0.12581000  0.41921000  1.0
  H  H181  1  0.41921000  0.32575000  0.12581000  1.0
  H  H182  1  0.12581000  0.41921000  0.32575000  1.0
  H  H183  1  0.17425000  0.09346000  0.30006000  1.0
  H  H184  1  0.08079000  0.70660000  0.40654000  1.0
  H  H185  1  0.37419000  0.19994000  0.79339000  1.0
  H  H186  1  0.79340000  0.37419000  0.19994000  1.0
  H  H187  1  0.30005000  0.17424000  0.09345000  1.0
  H  H188  1  0.40654000  0.08078000  0.70660000  1.0
  H  H189  1  0.70660000  0.40654000  0.08079000  1.0
  H  H190  1  0.19994000  0.79340000  0.37418000  1.0
  H  H191  1  0.09346000  0.30006000  0.17425000  1.0
  H  H192  1  0.57793000  0.82399000  0.82566000  1.0
  H  H193  1  0.82399000  0.82566000  0.57793000  1.0
  H  H194  1  0.82565000  0.57793000  0.82398000  1.0
  H  H195  1  0.50167000  0.67601000  0.75395000  1.0
  H  H196  1  0.25228000  0.67435000  0.99834000  1.0
  H  H197  1  0.74606000  0.92207000  0.24773000  1.0
  H  H198  1  0.92207000  0.24773000  0.74606000  1.0
  H  H199  1  0.67601000  0.75394000  0.50166000  1.0
  H  H200  1  0.67435000  0.99834000  0.25228000  1.0
  H  H201  1  0.99833000  0.25227000  0.67434000  1.0
  H  H202  1  0.24773000  0.74606000  0.92207000  1.0
  H  H203  1  0.75394000  0.50167000  0.67601000  1.0
  H  H204  1  0.32399000  0.07793000  0.32566000  1.0
  H  H205  1  0.32566000  0.32400000  0.07793000  1.0
  H  H206  1  0.07793000  0.32565000  0.32399000  1.0
  H  H207  1  0.17601000  0.00167000  0.25394000  1.0
  H  H208  1  0.17434000  0.75227000  0.49833000  1.0
  H  H209  1  0.42207000  0.24606000  0.74772000  1.0
  H  H210  1  0.74773000  0.42207000  0.24606000  1.0
  H  H211  1  0.25394000  0.17601000  0.00167000  1.0
  H  H212  1  0.49832000  0.17433000  0.75226000  1.0
  H  H213  1  0.75228000  0.49834000  0.17435000  1.0
  H  H214  1  0.24606000  0.74773000  0.42207000  1.0
  H  H215  1  0.00167000  0.25394000  0.17601000  1.0
  Rh  Rh216  1  0.84931000  0.84931000  0.84931000  1.0
  Rh  Rh217  1  0.50000000  0.65069000  0.00000000  1.0
  Rh  Rh218  1  0.65069000  0.00000000  0.50000000  1.0
  Rh  Rh219  1  1.00000000  0.50000000  0.65069000  1.0
  Rh  Rh220  1  0.34931000  0.34931000  0.34931000  1.0
  Rh  Rh221  1  0.15069000  0.00000000  0.50000000  1.0
  Rh  Rh222  1  0.50000000  0.15069000  0.00000000  1.0
  Rh  Rh223  1  1.00000000  0.50000000  0.15069000  1.0
  C  C224  1  0.74527000  0.90154000  0.89152000  1.0
  C  C225  1  0.90154000  0.89152000  0.74528000  1.0
  C  C226  1  0.89152000  0.74527000  0.90154000  1.0
  C  C227  1  0.48998000  0.59846000  0.84373000  1.0
  C  C228  1  0.35375000  0.60848000  0.01002000  1.0
  C  C229  1  0.65626000  0.75472000  0.14625000  1.0
  C  C230  1  0.75473000  0.14626000  0.65627000  1.0
  C  C231  1  0.59847000  0.84374000  0.48999000  1.0
  C  C232  1  0.60848000  0.01001000  0.35375000  1.0
  C  C233  1  0.01001000  0.35375000  0.60847000  1.0
  C  C234  1  0.14625000  0.65627000  0.75473000  1.0
  C  C235  1  0.84373000  0.48998000  0.59845000  1.0
  C  C236  1  0.40153000  0.24527000  0.39152000  1.0
  C  C237  1  0.39152000  0.40154000  0.24527000  1.0
  C  C238  1  0.24527000  0.39152000  0.40153000  1.0
  C  C239  1  0.09847000  0.98999000  0.34374000  1.0
  C  C240  1  0.10848000  0.85375000  0.51002000  1.0
  C  C241  1  0.25472000  0.15626000  0.64624000  1.0
  C  C242  1  0.64625000  0.25473000  0.15627000  1.0
  C  C243  1  0.34373000  0.09846000  0.98998000  1.0
  C  C244  1  0.51002000  0.10848000  0.85375000  1.0
  C  C245  1  0.85375000  0.51001000  0.10848000  1.0
  C  C246  1  0.15626000  0.64625000  0.25472000  1.0
  C  C247  1  0.98998000  0.34373000  0.09846000  1.0
  C  C248  1  0.71818000  0.00752000  0.96207000  1.0
  C  C249  1  0.00752000  0.96208000  0.71818000  1.0
  C  C250  1  0.96208000  0.71819000  0.00753000  1.0
  C  C251  1  0.45455000  0.49247000  0.71066000  1.0
  C  C252  1  0.25611000  0.53792000  0.04545000  1.0
  C  C253  1  0.78933000  0.78181000  0.24389000  1.0
  C  C254  1  0.78181000  0.24389000  0.78933000  1.0
  C  C255  1  0.49248000  0.71067000  0.45456000  1.0
  C  C256  1  0.53792000  0.04544000  0.25611000  1.0
  C  C257  1  0.04545000  0.25611000  0.53793000  1.0
  C  C258  1  0.24389000  0.78934000  0.78181000  1.0
  C  C259  1  0.71066000  0.45455000  0.49247000  1.0
  C  C260  1  0.50752000  0.21819000  0.46208000  1.0
  C  C261  1  0.46208000  0.50752000  0.21819000  1.0
  C  C262  1  0.21819000  0.46208000  0.50753000  1.0
  C  C263  1  0.99248000  0.95456000  0.21067000  1.0
  C  C264  1  0.03792000  0.75610000  0.54544000  1.0
  C  C265  1  0.28181000  0.28933000  0.74389000  1.0
  C  C266  1  0.74389000  0.28181000  0.28934000  1.0
  C  C267  1  0.21066000  0.99247000  0.95455000  1.0
  C  C268  1  0.54545000  0.03793000  0.75611000  1.0
  C  C269  1  0.75611000  0.54545000  0.03792000  1.0
  C  C270  1  0.28934000  0.74389000  0.28181000  1.0
  C  C271  1  0.95455000  0.21066000  0.99247000  1.0
  C  C272  1  0.66354000  0.99615000  0.99984000  1.0
  C  C273  1  0.99615000  0.99984000  0.66355000  1.0
  C  C274  1  0.99983000  0.66353000  0.99614000  1.0
  C  C275  1  0.50369000  0.50385000  0.66739000  1.0
  C  C276  1  0.16371000  0.50017000  0.99632000  1.0
  C  C277  1  0.83260000  0.83645000  0.33629000  1.0
  C  C278  1  0.83646000  0.33630000  0.83261000  1.0
  C  C279  1  0.50386000  0.66739000  0.50369000  1.0
  C  C280  1  0.50017000  0.99630000  0.16370000  1.0
  C  C281  1  0.99631000  0.16370000  0.50016000  1.0
  C  C282  1  0.33630000  0.83261000  0.83646000  1.0
  C  C283  1  0.66739000  0.50369000  0.50385000  1.0
  C  C284  1  0.49614000  0.16354000  0.49983000  1.0
  C  C285  1  0.49983000  0.49614000  0.16353000  1.0
  C  C286  1  0.16354000  0.49983000  0.49615000  1.0
  C  C287  1  0.00386000  0.00370000  0.16740000  1.0
  C  C288  1  0.00017000  0.66370000  0.49631000  1.0
  C  C289  1  0.33646000  0.33260000  0.83629000  1.0
  C  C290  1  0.83629000  0.33646000  0.33260000  1.0
  C  C291  1  0.16740000  0.00385000  0.00369000  1.0
  C  C292  1  0.49631000  0.00016000  0.66370000  1.0
  C  C293  1  0.66370000  0.49631000  0.00016000  1.0
  C  C294  1  0.33260000  0.83629000  0.33645000  1.0
  C  C295  1  0.00369000  0.16739000  0.00386000  1.0
  C  C296  1  0.58541000  0.91596000  0.93108000  1.0
  C  C297  1  0.91596000  0.93108000  0.58541000  1.0
  C  C298  1  0.93107000  0.58540000  0.91596000  1.0
  C  C299  1  0.51512000  0.58404000  0.66946000  1.0
  C  C300  1  0.15434000  0.56893000  0.98489000  1.0
  C  C301  1  0.83054000  0.91459000  0.34566000  1.0
  C  C302  1  0.91459000  0.34566000  0.83055000  1.0
  C  C303  1  0.58405000  0.66946000  0.51512000  1.0
  C  C304  1  0.56893000  0.98488000  0.15434000  1.0
  C  C305  1  0.98488000  0.15433000  0.56892000  1.0
  C  C306  1  0.34567000  0.83055000  0.91459000  1.0
  C  C307  1  0.66945000  0.51512000  0.58404000  1.0
  C  C308  1  0.41595000  0.08540000  0.43107000  1.0
  C  C309  1  0.43108000  0.41596000  0.08541000  1.0
  C  C310  1  0.08541000  0.43107000  0.41596000  1.0
  C  C311  1  0.08404000  0.01512000  0.16945000  1.0
  C  C312  1  0.06893000  0.65434000  0.48489000  1.0
  C  C313  1  0.41459000  0.33055000  0.84567000  1.0
  C  C314  1  0.84566000  0.41459000  0.33054000  1.0
  C  C315  1  0.16945000  0.08404000  0.01512000  1.0
  C  C316  1  0.48488000  0.06892000  0.65433000  1.0
  C  C317  1  0.65434000  0.48489000  0.06893000  1.0
  C  C318  1  0.33055000  0.84567000  0.41459000  1.0
  C  C319  1  0.01511000  0.16944000  0.08404000  1.0
  C  C320  1  0.61674000  0.86351000  0.89211000  1.0
  C  C321  1  0.86351000  0.89212000  0.61675000  1.0
  C  C322  1  0.89211000  0.61674000  0.86351000  1.0
  C  C323  1  0.52860000  0.63649000  0.75323000  1.0
  C  C324  1  0.22463000  0.60789000  0.97140000  1.0
  C  C325  1  0.74676000  0.88325000  0.27537000  1.0
  C  C326  1  0.88326000  0.27537000  0.74677000  1.0
  C  C327  1  0.63650000  0.75324000  0.52861000  1.0
  C  C328  1  0.60789000  0.97139000  0.22463000  1.0
  C  C329  1  0.97139000  0.22463000  0.60788000  1.0
  C  C330  1  0.27537000  0.74677000  0.88325000  1.0
  C  C331  1  0.75323000  0.52860000  0.63648000  1.0
  C  C332  1  0.36350000  0.11674000  0.39211000  1.0
  C  C333  1  0.39211000  0.36351000  0.11674000  1.0
  C  C334  1  0.11675000  0.39211000  0.36351000  1.0
  C  C335  1  0.13649000  0.02860000  0.25323000  1.0
  C  C336  1  0.10789000  0.72463000  0.47140000  1.0
  C  C337  1  0.38326000  0.24677000  0.77537000  1.0
  C  C338  1  0.77537000  0.38326000  0.24677000  1.0
  C  C339  1  0.25323000  0.13649000  0.02860000  1.0
  C  C340  1  0.47139000  0.10788000  0.72463000  1.0
  C  C341  1  0.72463000  0.47140000  0.10789000  1.0
  C  C342  1  0.24676000  0.77537000  0.38325000  1.0
  C  C343  1  0.02860000  0.25323000  0.13649000  1.0
  S  S344  1  0.72333000  0.80172000  0.84505000  1.0
  S  S345  1  0.80172000  0.84505000  0.72333000  1.0
  S  S346  1  0.84504000  0.72333000  0.80172000  1.0
  S  S347  1  0.54333000  0.69829000  0.92161000  1.0
  S  S348  1  0.37829000  0.65496000  0.95668000  1.0
  S  S349  1  0.57839000  0.77668000  0.12172000  1.0
  S  S350  1  0.77668000  0.12172000  0.57839000  1.0
  S  S351  1  0.69829000  0.92161000  0.54333000  1.0
  S  S352  1  0.65496000  0.95667000  0.37829000  1.0
  S  S353  1  0.95667000  0.37828000  0.65496000  1.0
  S  S354  1  0.12171000  0.57838000  0.77667000  1.0
  S  S355  1  0.92161000  0.54333000  0.69828000  1.0
  S  S356  1  0.30171000  0.22332000  0.34504000  1.0
  S  S357  1  0.34504000  0.30172000  0.22333000  1.0
  S  S358  1  0.22333000  0.34505000  0.30172000  1.0
  S  S359  1  0.19828000  0.04332000  0.42161000  1.0
  S  S360  1  0.15496000  0.87829000  0.45668000  1.0
  S  S361  1  0.27667000  0.07838000  0.62171000  1.0
  S  S362  1  0.62171000  0.27667000  0.07839000  1.0
  S  S363  1  0.42161000  0.19829000  0.04332000  1.0
  S  S364  1  0.45667000  0.15496000  0.87828000  1.0
  S  S365  1  0.87829000  0.45668000  0.15496000  1.0
  S  S366  1  0.07839000  0.62172000  0.27667000  1.0
  S  S367  1  0.04333000  0.42162000  0.19829000  1.0
  S  S368  1  0.90726000  0.83775000  0.96745000  1.0
  S  S369  1  0.83775000  0.96745000  0.90726000  1.0
  S  S370  1  0.96745000  0.90727000  0.83776000  1.0
  S  S371  1  0.62969000  0.66225000  0.06951000  1.0
  S  S372  1  0.43981000  0.53255000  0.87030000  1.0
  S  S373  1  0.43050000  0.59275000  0.06019000  1.0
  S  S374  1  0.59274000  0.06018000  0.43049000  1.0
  S  S375  1  0.66225000  0.06951000  0.62969000  1.0
  S  S376  1  0.53256000  0.87031000  0.43982000  1.0
  S  S377  1  0.87031000  0.43982000  0.53256000  1.0
  S  S378  1  0.06018000  0.43049000  0.59274000  1.0
  S  S379  1  0.06951000  0.62970000  0.66225000  1.0
  S  S380  1  0.33775000  0.40726000  0.46744000  1.0
  S  S381  1  0.46744000  0.33775000  0.40726000  1.0
  S  S382  1  0.40726000  0.46744000  0.33775000  1.0
  S  S383  1  0.16225000  0.12969000  0.56951000  1.0
  S  S384  1  0.03256000  0.93982000  0.37031000  1.0
  S  S385  1  0.09274000  0.93049000  0.56018000  1.0
  S  S386  1  0.56018000  0.09274000  0.93048000  1.0
  S  S387  1  0.56951000  0.16225000  0.12969000  1.0
  S  S388  1  0.37031000  0.03256000  0.93982000  1.0
  S  S389  1  0.93982000  0.37031000  0.03256000  1.0
  S  S390  1  0.93049000  0.56018000  0.09274000  1.0
  S  S391  1  0.12969000  0.56950000  0.16224000  1.0
  I  I392  1  0.77279000  0.87340000  0.08187000  1.0
  I  I393  1  0.87339000  0.08187000  0.77280000  1.0
  I  I394  1  0.08186000  0.77278000  0.87339000  1.0
  I  I395  1  0.70847000  0.62661000  0.89940000  1.0
  I  I396  1  0.19093000  0.41814000  0.79153000  1.0
  I  I397  1  0.60061000  0.72722000  0.30908000  1.0
  I  I398  1  0.72721000  0.30907000  0.60060000  1.0
  I  I399  1  0.62661000  0.89939000  0.70847000  1.0
  I  I400  1  0.41814000  0.79153000  0.19093000  1.0
  I  I401  1  0.79153000  0.19093000  0.41814000  1.0
  I  I402  1  0.30907000  0.60060000  0.72721000  1.0
  I  I403  1  0.89939000  0.70847000  0.62661000  1.0
  I  I404  1  0.37339000  0.27279000  0.58187000  1.0
  I  I405  1  0.58187000  0.37339000  0.27280000  1.0
  I  I406  1  0.27279000  0.58187000  0.37340000  1.0
  I  I407  1  0.12661000  0.20848000  0.39940000  1.0
  I  I408  1  0.91814000  0.69092000  0.29153000  1.0
  I  I409  1  0.22721000  0.10060000  0.80908000  1.0
  I  I410  1  0.80907000  0.22721000  0.10059000  1.0
  I  I411  1  0.39941000  0.12661000  0.20848000  1.0
  I  I412  1  0.29153000  0.91813000  0.69092000  1.0
  I  I413  1  0.69092000  0.29153000  0.91814000  1.0
  I  I414  1  0.10060000  0.80908000  0.22721000  1.0
  I  I415  1  0.20848000  0.39941000  0.12661000  1.0
  N  N416  1  0.69687000  0.92335000  0.91167000  1.0
  N  N417  1  0.92334000  0.91167000  0.69687000  1.0
  N  N418  1  0.91167000  0.69687000  0.92334000  1.0
  N  N419  1  0.48833000  0.57666000  0.77353000  1.0
  N  N420  1  0.28520000  0.58833000  0.01167000  1.0
  N  N421  1  0.72648000  0.80314000  0.21481000  1.0
  N  N422  1  0.80313000  0.21480000  0.72647000  1.0
  N  N423  1  0.57667000  0.77353000  0.48833000  1.0
  N  N424  1  0.58834000  0.01167000  0.28521000  1.0
  N  N425  1  0.01167000  0.28520000  0.58833000  1.0
  N  N426  1  0.21481000  0.72648000  0.80314000  1.0
  N  N427  1  0.77352000  0.48832000  0.57665000  1.0
  N  N428  1  0.42334000  0.19687000  0.41167000  1.0
  N  N429  1  0.41167000  0.42334000  0.19687000  1.0
  N  N430  1  0.19686000  0.41167000  0.42334000  1.0
  N  N431  1  0.07666000  0.98833000  0.27353000  1.0
  N  N432  1  0.08833000  0.78519000  0.51167000  1.0
  N  N433  1  0.30313000  0.22647000  0.71480000  1.0
  N  N434  1  0.71480000  0.30313000  0.22647000  1.0
  N  N435  1  0.27353000  0.07666000  0.98833000  1.0
  N  N436  1  0.51167000  0.08833000  0.78520000  1.0
  N  N437  1  0.78520000  0.51167000  0.08833000  1.0
  N  N438  1  0.22647000  0.71480000  0.30313000  1.0
  N  N439  1  0.98833000  0.27353000  0.07666000  1.0
