# generated using pymatgen
data_ZnH11C17NO5
_symmetry_space_group_name_H-M   'P 1'
_cell_length_a   9.56319000
_cell_length_b   11.06360000
_cell_length_c   14.77910000
_cell_angle_alpha   86.81960000
_cell_angle_beta   78.71100000
_cell_angle_gamma   88.04830000
_symmetry_Int_Tables_number   1
_chemical_formula_structural   ZnH11C17NO5
_chemical_formula_sum   'Zn2 H22 C34 N2 O10'
_cell_volume   1530.63256760
_cell_formula_units_Z   2
loop_
 _symmetry_equiv_pos_site_id
 _symmetry_equiv_pos_as_xyz
  1  'x, y, z'
loop_
 _atom_site_type_symbol
 _atom_site_label
 _atom_site_symmetry_multiplicity
 _atom_site_fract_x
 _atom_site_fract_y
 _atom_site_fract_z
 _atom_site_occupancy
  Zn  Zn0  1  0.86312000  0.50625000  0.48788000  1.0
  Zn  Zn1  1  0.13797000  0.49852000  0.51244000  1.0
  H  H2  1  0.22825000  0.68003000  0.89294000  1.0
  H  H3  1  0.79791000  0.45053000  0.11779000  1.0
  H  H4  1  0.08232000  0.44981000  0.81365000  1.0
  H  H5  1  0.92625000  0.61326000  0.18933000  1.0
  H  H6  1  0.33881000  0.63244000  0.60215000  1.0
  H  H7  1  0.66243000  0.37101000  0.39729000  1.0
  H  H8  1  0.66694000  0.56290000  0.77123000  1.0
  H  H9  1  0.34086000  0.49835000  0.23137000  1.0
  H  H10  1  0.02597000  0.67101000  0.02414000  1.0
  H  H11  1  0.99292000  0.43474000  0.98435000  1.0
  H  H12  1  0.47927000  0.63625000  0.82697000  1.0
  H  H13  1  0.54610000  0.49031000  0.18330000  1.0
  H  H14  1  0.36392000  0.14359000  0.62804000  1.0
  H  H15  1  0.33480000  0.16888000  0.51203000  1.0
  H  H16  1  0.36521000  0.01746000  0.55635000  1.0
  H  H17  1  0.81293000  0.81477000  0.27720000  1.0
  H  H18  1  0.96793000  0.77641000  0.32369000  1.0
  H  H19  1  0.95946000  0.91674000  0.25713000  1.0
  H  H20  1  0.14986000  0.86994000  0.58231000  1.0
  H  H21  1  0.85236000  0.13556000  0.41284000  1.0
  H  H22  1  0.61107000  0.64022000  0.58629000  1.0
  H  H23  1  0.39067000  0.36577000  0.41120000  1.0
  C  C24  1  0.00325000  0.26564000  0.50460000  1.0
  C  C25  1  0.99967000  0.74032000  0.49286000  1.0
  C  C26  1  0.43948000  0.61524000  0.90021000  1.0
  C  C27  1  0.58330000  0.50281000  0.10894000  1.0
  C  C28  1  0.29914000  0.64026000  0.93674000  1.0
  C  C29  1  0.72426000  0.48048000  0.07276000  1.0
  C  C30  1  0.08882000  0.05376000  0.55120000  1.0
  C  C31  1  0.91639000  0.95256000  0.44212000  1.0
  C  C32  1  0.08626000  0.92887000  0.54369000  1.0
  C  C33  1  0.91836000  0.07741000  0.45019000  1.0
  C  C34  1  0.00088000  0.87588000  0.49062000  1.0
  C  C35  1  0.00367000  0.13024000  0.50345000  1.0
  C  C36  1  0.41259000  0.57480000  0.55663000  1.0
  C  C37  1  0.58887000  0.42949000  0.44227000  1.0
  C  C38  1  0.55996000  0.57916000  0.54805000  1.0
  C  C39  1  0.44160000  0.42583000  0.45035000  1.0
  C  C40  1  0.07406000  0.51976000  0.31871000  1.0
  C  C41  1  0.92780000  0.50655000  0.68130000  1.0
  C  C42  1  0.13054000  0.55144000  0.21868000  1.0
  C  C43  1  0.87718000  0.50751000  0.78374000  1.0
  C  C44  1  0.09513000  0.63243000  0.06944000  1.0
  C  C45  1  0.92193000  0.46467000  0.93763000  1.0
  C  C46  1  0.03944000  0.60066000  0.16065000  1.0
  C  C47  1  0.97184000  0.47274000  0.84350000  1.0
  C  C48  1  0.27522000  0.53551000  0.18370000  1.0
  C  C49  1  0.73621000  0.53842000  0.81997000  1.0
  C  C50  1  0.33499000  0.56429000  0.09031000  1.0
  C  C51  1  0.68279000  0.53443000  0.91614000  1.0
  C  C52  1  0.24193000  0.61336000  0.03192000  1.0
  C  C53  1  0.77771000  0.49353000  0.97584000  1.0
  C  C54  1  0.48483000  0.54377000  0.05200000  1.0
  C  C55  1  0.53559000  0.56459000  0.95573000  1.0
  C  C56  1  0.31634000  0.10700000  0.57394000  1.0
  C  C57  1  0.89769000  0.85147000  0.30714000  1.0
  N  N58  1  0.64625000  0.50624000  0.49110000  1.0
  N  N59  1  0.35523000  0.49820000  0.50774000  1.0
  O  O60  1  0.88916000  0.32188000  0.49206000  1.0
  O  O61  1  0.11511000  0.68463000  0.50278000  1.0
  O  O62  1  0.11656000  0.31496000  0.51550000  1.0
  O  O63  1  0.88405000  0.69070000  0.48665000  1.0
  O  O64  1  0.93897000  0.51853000  0.34650000  1.0
  O  O65  1  0.06243000  0.50239000  0.65132000  1.0
  O  O66  1  0.16617000  0.49841000  0.36975000  1.0
  O  O67  1  0.83309000  0.50854000  0.63131000  1.0
  O  O68  1  0.16670000  0.09860000  0.61075000  1.0
  O  O69  1  0.82774000  0.91149000  0.38806000  1.0
