# generated using pymatgen
data_MnH16C16(NO2)2
_symmetry_space_group_name_H-M   'P 1'
_cell_length_a   4.35035000
_cell_length_b   10.55100000
_cell_length_c   15.56370000
_cell_angle_alpha   95.70400000
_cell_angle_beta   89.99980000
_cell_angle_gamma   90.00000000
_symmetry_Int_Tables_number   1
_chemical_formula_structural   MnH16C16(NO2)2
_chemical_formula_sum   'Mn2 H32 C32 N4 O8'
_cell_volume   710.84511042
_cell_formula_units_Z   2
loop_
 _symmetry_equiv_pos_site_id
 _symmetry_equiv_pos_as_xyz
  1  'x, y, z'
loop_
 _atom_site_type_symbol
 _atom_site_label
 _atom_site_symmetry_multiplicity
 _atom_site_fract_x
 _atom_site_fract_y
 _atom_site_fract_z
 _atom_site_occupancy
  Mn  Mn0  1  0.50000000  0.50000000  0.50000000  1.0
  Mn  Mn1  1  0.00001000  0.50000000  0.00000000  1.0
  H  H2  1  0.26497000  0.43367000  0.76118000  1.0
  H  H3  1  0.76497000  0.56633000  0.73882000  1.0
  H  H4  1  0.73503000  0.56633000  0.23882000  1.0
  H  H5  1  0.23503000  0.43367000  0.26118000  1.0
  H  H6  1  0.58012000  0.05743000  0.75341000  1.0
  H  H7  1  0.08012000  0.94257000  0.74659000  1.0
  H  H8  1  0.41987000  0.94257000  0.24659000  1.0
  H  H9  1  0.91988000  0.05743000  0.25341000  1.0
  H  H10  1  0.62914000  0.17687000  0.62358000  1.0
  H  H11  1  0.12914000  0.82313000  0.87642000  1.0
  H  H12  1  0.37085000  0.82313000  0.37642000  1.0
  H  H13  1  0.87086000  0.17687000  0.12358000  1.0
  H  H14  1  0.77779000  0.16528000  0.96651000  1.0
  H  H15  1  0.27779000  0.83472000  0.53350000  1.0
  H  H16  1  0.22221000  0.83472000  0.03350000  1.0
  H  H17  1  0.72221000  0.16528000  0.46650000  1.0
  H  H18  1  0.08209000  0.06510000  0.92622000  1.0
  H  H19  1  0.58209000  0.93490000  0.57378000  1.0
  H  H20  1  0.91790000  0.93490000  0.07378000  1.0
  H  H21  1  0.41790000  0.06510000  0.42622000  1.0
  H  H22  1  0.69916000  0.02472000  0.89588000  1.0
  H  H23  1  0.19915000  0.97528000  0.60412000  1.0
  H  H24  1  0.30084000  0.97528000  0.10412000  1.0
  H  H25  1  0.80085000  0.02472000  0.39588000  1.0
  H  H26  1  0.43359000  0.37798000  0.90070000  1.0
  H  H27  1  0.93359000  0.62202000  0.59930000  1.0
  H  H28  1  0.56640000  0.62202000  0.09930000  1.0
  H  H29  1  0.06641000  0.37798000  0.40070000  1.0
  H  H30  1  0.26362000  0.26708000  0.95226000  1.0
  H  H31  1  0.76362000  0.73292000  0.54774000  1.0
  H  H32  1  0.73638000  0.73292000  0.04774000  1.0
  H  H33  1  0.23638000  0.26708000  0.45226000  1.0
  C  C34  1  0.95428000  0.31151000  0.68428000  1.0
  C  C35  1  0.45427000  0.68849000  0.81572000  1.0
  C  C36  1  0.04573000  0.68849000  0.31572000  1.0
  C  C37  1  0.54573000  0.31151000  0.18428000  1.0
  C  C38  1  0.11253000  0.35163000  0.76024000  1.0
  C  C39  1  0.61253000  0.64837000  0.73976000  1.0
  C  C40  1  0.88747000  0.64837000  0.23976000  1.0
  C  C41  1  0.38748000  0.35163000  0.26024000  1.0
  C  C42  1  0.07663000  0.28783000  0.83406000  1.0
  C  C43  1  0.57663000  0.71217000  0.66594000  1.0
  C  C44  1  0.92336000  0.71217000  0.16594000  1.0
  C  C45  1  0.42337000  0.28783000  0.33406000  1.0
  C  C46  1  0.88647000  0.17918000  0.83188000  1.0
  C  C47  1  0.38647000  0.82082000  0.66813000  1.0
  C  C48  1  0.11353000  0.82082000  0.16813000  1.0
  C  C49  1  0.61353000  0.17918000  0.33187000  1.0
  C  C50  1  0.72976000  0.14051000  0.75503000  1.0
  C  C51  1  0.22976000  0.85949000  0.74497000  1.0
  C  C52  1  0.27023000  0.85949000  0.24497000  1.0
  C  C53  1  0.77024000  0.14051000  0.25503000  1.0
  C  C54  1  0.75868000  0.20569000  0.68208000  1.0
  C  C55  1  0.25869000  0.79431000  0.81792000  1.0
  C  C56  1  0.24131000  0.79431000  0.31792000  1.0
  C  C57  1  0.74132000  0.20569000  0.18208000  1.0
  C  C58  1  0.98906000  0.38280000  0.60694000  1.0
  C  C59  1  0.48907000  0.61720000  0.89306000  1.0
  C  C60  1  0.01093000  0.61720000  0.39306000  1.0
  C  C61  1  0.51094000  0.38280000  0.10694000  1.0
  C  C62  1  0.85836000  0.10499000  0.90913000  1.0
  C  C63  1  0.35836000  0.89501000  0.59087000  1.0
  C  C64  1  0.14163000  0.89501000  0.09087000  1.0
  C  C65  1  0.64164000  0.10499000  0.40913000  1.0
  N  N66  1  0.22668000  0.33526000  0.91144000  1.0
  N  N67  1  0.72668000  0.66474000  0.58856000  1.0
  N  N68  1  0.77332000  0.66474000  0.08856000  1.0
  N  N69  1  0.27332000  0.33526000  0.41144000  1.0
  O  O70  1  0.79920000  0.35916000  0.54437000  1.0
  O  O71  1  0.29920000  0.64084000  0.95563000  1.0
  O  O72  1  0.20080000  0.64084000  0.45563000  1.0
  O  O73  1  0.70080000  0.35916000  0.04437000  1.0
  O  O74  1  0.20357000  0.46593000  0.60679000  1.0
  O  O75  1  0.70358000  0.53407000  0.89321000  1.0
  O  O76  1  0.79642000  0.53407000  0.39321000  1.0
  O  O77  1  0.29643000  0.46593000  0.10679000  1.0
