# generated using pymatgen
data_NaH12C7N5O6
_symmetry_space_group_name_H-M   'P 1'
_cell_length_a   7.36724000
_cell_length_b   9.59437000
_cell_length_c   17.48790000
_cell_angle_alpha   89.99910000
_cell_angle_beta   99.52150000
_cell_angle_gamma   90.00000000
_symmetry_Int_Tables_number   1
_chemical_formula_structural   NaH12C7N5O6
_chemical_formula_sum   'Na4 H48 C28 N20 O24'
_cell_volume   1219.08596693
_cell_formula_units_Z   4
loop_
 _symmetry_equiv_pos_site_id
 _symmetry_equiv_pos_as_xyz
  1  'x, y, z'
loop_
 _atom_site_type_symbol
 _atom_site_label
 _atom_site_symmetry_multiplicity
 _atom_site_fract_x
 _atom_site_fract_y
 _atom_site_fract_z
 _atom_site_occupancy
  Na  Na0  1  0.66666667  0.14199000  0.52555000  1.0
  Na  Na1  1  0.83334000  0.64199000  0.47445000  1.0
  Na  Na2  1  0.33333333  0.85801000  0.47445000  1.0
  Na  Na3  1  0.16666000  0.35801000  0.52555000  1.0
  H  H4  1  0.73979000  0.10995000  0.98405000  1.0
  H  H5  1  0.76021000  0.60995000  0.01595000  1.0
  H  H6  1  0.26021000  0.89004000  0.01595000  1.0
  H  H7  1  0.23979000  0.39005000  0.98405000  1.0
  H  H8  1  0.67564000  0.80592000  0.09426000  1.0
  H  H9  1  0.82436000  0.30592000  0.90575000  1.0
  H  H10  1  0.32436000  0.19408000  0.90574000  1.0
  H  H11  1  0.17564000  0.69408000  0.09426000  1.0
  H  H12  1  0.64702000  0.99010000  0.08854000  1.0
  H  H13  1  0.85298000  0.49010000  0.91146000  1.0
  H  H14  1  0.35297000  0.00990000  0.91146000  1.0
  H  H15  1  0.14702000  0.50989000  0.08855000  1.0
  H  H16  1  0.13682000  0.89403000  0.72127000  1.0
  H  H17  1  0.36319000  0.39403000  0.27873000  1.0
  H  H18  1  0.86318000  0.10596000  0.27873000  1.0
  H  H19  1  0.63682000  0.60597000  0.72127000  1.0
  H  H20  1  0.03585000  0.03889000  0.76208000  1.0
  H  H21  1  0.46415000  0.53888000  0.23792000  1.0
  H  H22  1  0.96414000  0.96110000  0.23793000  1.0
  H  H23  1  0.53585000  0.46112000  0.76208000  1.0
  H  H24  1  0.02761000  0.64463000  0.76059000  1.0
  H  H25  1  0.47240000  0.14463000  0.23942000  1.0
  H  H26  1  0.97240000  0.35536000  0.23942000  1.0
  H  H27  1  0.52759000  0.85538000  0.76058000  1.0
  H  H28  1  0.70666000  0.27444000  0.68867000  1.0
  H  H29  1  0.79334000  0.77445000  0.31133000  1.0
  H  H30  1  0.29335000  0.72556000  0.31132000  1.0
  H  H31  1  0.20666000  0.22556000  0.68866000  1.0
  H  H32  1  0.47204000  0.37672000  0.44064000  1.0
  H  H33  1  0.02796000  0.87672000  0.55935000  1.0
  H  H34  1  0.52796000  0.62328000  0.55935000  1.0
  H  H35  1  0.97204000  0.12328000  0.44065000  1.0
  H  H36  1  0.48230000  0.03114000  0.38197000  1.0
  H  H37  1  0.01770000  0.53114000  0.61803000  1.0
  H  H38  1  0.51770000  0.96885000  0.61803000  1.0
  H  H39  1  0.98231000  0.46886000  0.38197000  1.0
  H  H40  1  0.64773000  0.92066000  0.39314000  1.0
  H  H41  1  0.85227000  0.42066000  0.60686000  1.0
  H  H42  1  0.35227000  0.07934000  0.60686000  1.0
  H  H43  1  0.14773000  0.57934000  0.39314000  1.0
  H  H44  1  0.37087000  0.23576000  0.41527000  1.0
  H  H45  1  0.12913000  0.73576000  0.58473000  1.0
  H  H46  1  0.62913000  0.76425000  0.58473000  1.0
  H  H47  1  0.87087000  0.26425000  0.41526000  1.0
  H  H48  1  0.57530000  0.37211000  0.63002000  1.0
  H  H49  1  0.92470000  0.87210000  0.36998000  1.0
  H  H50  1  0.42471000  0.62790000  0.36998000  1.0
  H  H51  1  0.07530000  0.12790000  0.63001000  1.0
  C  C52  1  0.75501000  0.89184000  0.99919000  1.0
  C  C53  1  0.74499000  0.39184000  0.00082000  1.0
  C  C54  1  0.24499000  0.10815000  0.00082000  1.0
  C  C55  1  0.25501000  0.60816000  0.99919000  1.0
  C  C56  1  0.86428000  0.77013000  0.90546000  1.0
  C  C57  1  0.63571000  0.27013000  0.09454000  1.0
  C  C58  1  0.13572000  0.22986000  0.09454000  1.0
  C  C59  1  0.36428000  0.72987000  0.90546000  1.0
  C  C60  1  0.00950000  0.93323000  0.73865000  1.0
  C  C61  1  0.49050000  0.43323000  0.26135000  1.0
  C  C62  1  0.99051000  0.06677000  0.26135000  1.0
  C  C63  1  0.50949000  0.56678000  0.73865000  1.0
  C  C64  1  0.86061000  0.94043000  0.66656000  1.0
  C  C65  1  0.63939000  0.44043000  0.33344000  1.0
  C  C66  1  0.13939000  0.05956000  0.33344000  1.0
  C  C67  1  0.36061000  0.55957000  0.66656000  1.0
  C  C68  1  0.89086000  0.89119000  0.86410000  1.0
  C  C69  1  0.60913000  0.39119000  0.13591000  1.0
  C  C70  1  0.10914000  0.10880000  0.13591000  1.0
  C  C71  1  0.39086000  0.60882000  0.86410000  1.0
  C  C72  1  0.97133000  0.70507000  0.80374000  1.0
  C  C73  1  0.52867000  0.20506000  0.19627000  1.0
  C  C74  1  0.02867000  0.29493000  0.19627000  1.0
  C  C75  1  0.47132000  0.79494000  0.80373000  1.0
  C  C76  1  0.83763000  0.02395000  0.88887000  1.0
  C  C77  1  0.66237000  0.52394000  0.11113000  1.0
  C  C78  1  0.16237000  0.97605000  0.11113000  1.0
  C  C79  1  0.33763000  0.47606000  0.88887000  1.0
  N  N80  1  0.77503000  0.01412000  0.95978000  1.0
  N  N81  1  0.72497000  0.51413000  0.04023000  1.0
  N  N82  1  0.22497000  0.98587000  0.04023000  1.0
  N  N83  1  0.27503000  0.48587000  0.95978000  1.0
  N  N84  1  0.91308000  0.65475000  0.86649000  1.0
  N  N85  1  0.58692000  0.15475000  0.13351000  1.0
  N  N86  1  0.08692000  0.34524000  0.13351000  1.0
  N  N87  1  0.41307000  0.84525000  0.86649000  1.0
  N  N88  1  0.79833000  0.76706000  0.97280000  1.0
  N  N89  1  0.70167000  0.26706000  0.02721000  1.0
  N  N90  1  0.20167000  0.23294000  0.02720000  1.0
  N  N91  1  0.29833000  0.73294000  0.97280000  1.0
  N  N92  1  0.96152000  0.84657000  0.79955000  1.0
  N  N93  1  0.53849000  0.34657000  0.20045000  1.0
  N  N94  1  0.03848000  0.15342000  0.20045000  1.0
  N  N95  1  0.46151000  0.65343000  0.79955000  1.0
  N  N96  1  0.68922000  0.89847000  0.06585000  1.0
  N  N97  1  0.81078000  0.39847000  0.93415000  1.0
  N  N98  1  0.31077000  0.10153000  0.93415000  1.0
  N  N99  1  0.18922000  0.60153000  0.06585000  1.0
  O  O100  1  0.90065000  0.01444000  0.61075000  1.0
  O  O101  1  0.59936000  0.51444000  0.38925000  1.0
  O  O102  1  0.09935000  0.98555000  0.38925000  1.0
  O  O103  1  0.40066000  0.48556000  0.61075000  1.0
  O  O104  1  0.71230000  0.87334000  0.66535000  1.0
  O  O105  1  0.78771000  0.37335000  0.33465000  1.0
  O  O106  1  0.28770000  0.12665000  0.33465000  1.0
  O  O107  1  0.21230000  0.62666000  0.66535000  1.0
  O  O108  1  0.84160000  0.13849000  0.85413000  1.0
  O  O109  1  0.65839000  0.63848000  0.14586000  1.0
  O  O110  1  0.15840000  0.86151000  0.14587000  1.0
  O  O111  1  0.34161000  0.36151000  0.85414000  1.0
  O  O112  1  0.42326000  0.29175000  0.46132000  1.0
  O  O113  1  0.07673000  0.79175000  0.53867000  1.0
  O  O114  1  0.57674000  0.70825000  0.53867000  1.0
  O  O115  1  0.92326000  0.20825000  0.46133000  1.0
  O  O116  1  0.57152000  0.98140000  0.42094000  1.0
  O  O117  1  0.92848000  0.48140000  0.57906000  1.0
  O  O118  1  0.42849000  0.01860000  0.57906000  1.0
  O  O119  1  0.07152000  0.51861000  0.42093000  1.0
  O  O120  1  0.68578000  0.30876000  0.63556000  1.0
  O  O121  1  0.81422000  0.80876000  0.36444000  1.0
  O  O122  1  0.31423000  0.69125000  0.36444000  1.0
  O  O123  1  0.18578000  0.19123000  0.63555000  1.0
