# generated using pymatgen
data_FeH24C18(SN7)2
_symmetry_space_group_name_H-M   'P 1'
_cell_length_a   8.87006000
_cell_length_b   10.38600000
_cell_length_c   13.47050000
_cell_angle_alpha   103.80600000
_cell_angle_beta   100.05300000
_cell_angle_gamma   99.65530000
_symmetry_Int_Tables_number   1
_chemical_formula_structural   FeH24C18(SN7)2
_chemical_formula_sum   'Fe2 H48 C36 S4 N28'
_cell_volume   1157.81131610
_cell_formula_units_Z   2
loop_
 _symmetry_equiv_pos_site_id
 _symmetry_equiv_pos_as_xyz
  1  'x, y, z'
loop_
 _atom_site_type_symbol
 _atom_site_label
 _atom_site_symmetry_multiplicity
 _atom_site_fract_x
 _atom_site_fract_y
 _atom_site_fract_z
 _atom_site_occupancy
  Fe  Fe0  1  0.00016000  0.50010000  0.49999000  1.0
  Fe  Fe1  1  0.00823000  0.98997000  0.00371000  1.0
  H  H2  1  0.19457000  0.40586000  0.68652000  1.0
  H  H3  1  0.80545000  0.59403000  0.31345000  1.0
  H  H4  1  0.25869000  0.37173000  0.37872000  1.0
  H  H5  1  0.74128000  0.62811000  0.62122000  1.0
  H  H6  1  0.40602000  0.29833000  0.74902000  1.0
  H  H7  1  0.59434000  0.70189000  0.25104000  1.0
  H  H8  1  0.57481000  0.33171000  0.69727000  1.0
  H  H9  1  0.42534000  0.66858000  0.30272000  1.0
  H  H10  1  0.49631000  0.09889000  0.57355000  1.0
  H  H11  1  0.50362000  0.90124000  0.42629000  1.0
  H  H12  1  0.31395000  0.07171000  0.61129000  1.0
  H  H13  1  0.68637000  0.92840000  0.38901000  1.0
  H  H14  1  0.63529000  0.12194000  0.76012000  1.0
  H  H15  1  0.36566000  0.87802000  0.23963000  1.0
  H  H16  1  0.45282000  0.09364000  0.79449000  1.0
  H  H17  1  0.54849000  0.90639000  0.20557000  1.0
  H  H18  1  0.55601000  0.88462000  0.63111000  1.0
  H  H19  1  0.44485000  0.11545000  0.36868000  1.0
  H  H20  1  0.56602000  0.88681000  0.76428000  1.0
  H  H21  1  0.43509000  0.11321000  0.23551000  1.0
  H  H22  1  0.34270000  0.68899000  0.52524000  1.0
  H  H23  1  0.65764000  0.31110000  0.47442000  1.0
  H  H24  1  0.01817000  0.73087000  0.71901000  1.0
  H  H25  1  0.98286000  0.26911000  0.28110000  1.0
  H  H26  1  0.19561000  0.04901000  0.24495000  1.0
  H  H27  1  0.81409000  0.94265000  0.75351000  1.0
  H  H28  1  0.74086000  0.82200000  0.09584000  1.0
  H  H29  1  0.26732000  0.17471000  0.89926000  1.0
  H  H30  1  0.21518000  0.99745000  0.41863000  1.0
  H  H31  1  0.78414000  0.00380000  0.58235000  1.0
  H  H32  1  0.14321000  0.81781000  0.38140000  1.0
  H  H33  1  0.85633000  0.18346000  0.61953000  1.0
  H  H34  1  0.90874000  0.85174000  0.45613000  1.0
  H  H35  1  0.08953000  0.14923000  0.54343000  1.0
  H  H36  1  0.08745000  0.90772000  0.54907000  1.0
  H  H37  1  0.91055000  0.09348000  0.45066000  1.0
  H  H38  1  0.03702000  0.66571000  0.94562000  1.0
  H  H39  1  0.95724000  0.33633000  0.05803000  1.0
  H  H40  1  0.38045000  0.03077000  0.03004000  1.0
  H  H41  1  0.61317000  0.97242000  0.97032000  1.0
  H  H42  1  0.35079000  0.55948000  0.86221000  1.0
  H  H43  1  0.64452000  0.44494000  0.13771000  1.0
  H  H44  1  0.22310000  0.50107000  0.93929000  1.0
  H  H45  1  0.77241000  0.50181000  0.06020000  1.0
  H  H46  1  0.44685000  0.57995000  0.09608000  1.0
  H  H47  1  0.54837000  0.42407000  0.90383000  1.0
  H  H48  1  0.56746000  0.65402000  0.02212000  1.0
  H  H49  1  0.42758000  0.35025000  0.97784000  1.0
  C  C50  1  0.91375000  0.43535000  0.69798000  1.0
  C  C51  1  0.08606000  0.56601000  0.30228000  1.0
  C  C52  1  0.23748000  0.38570000  0.61515000  1.0
  C  C53  1  0.76267000  0.61435000  0.38487000  1.0
  C  C54  1  0.26957000  0.36378000  0.45860000  1.0
  C  C55  1  0.73050000  0.63617000  0.54138000  1.0
  C  C56  1  0.45228000  0.27486000  0.67809000  1.0
  C  C57  1  0.54797000  0.72525000  0.32194000  1.0
  C  C58  1  0.43871000  0.12201000  0.63978000  1.0
  C  C59  1  0.56165000  0.87810000  0.36027000  1.0
  C  C60  1  0.51119000  0.06927000  0.72906000  1.0
  C  C61  1  0.48972000  0.93076000  0.27082000  1.0
  C  C62  1  0.50380000  0.91725000  0.69862000  1.0
  C  C63  1  0.49718000  0.08279000  0.30122000  1.0
  C  C64  1  0.28197000  0.72528000  0.58597000  1.0
  C  C65  1  0.71864000  0.27481000  0.41384000  1.0
  C  C66  1  0.12097000  0.74901000  0.68682000  1.0
  C  C67  1  0.87998000  0.25101000  0.31323000  1.0
  C  C68  1  0.74149000  0.75187000  0.86101000  1.0
  C  C69  1  0.26266000  0.24125000  0.14087000  1.0
  C  C70  1  0.08129000  0.98233000  0.22759000  1.0
  C  C71  1  0.92717000  0.01141000  0.77032000  1.0
  C  C72  1  0.84975000  0.86583000  0.15410000  1.0
  C  C73  1  0.15718000  0.13071000  0.84214000  1.0
  C  C74  1  0.10851000  0.91623000  0.39615000  1.0
  C  C75  1  0.89075000  0.08495000  0.60413000  1.0
  C  C76  1  0.01727000  0.93074000  0.48242000  1.0
  C  C77  1  0.98087000  0.07039000  0.51718000  1.0
  C  C78  1  0.14696000  0.74055000  0.96725000  1.0
  C  C79  1  0.84699000  0.26155000  0.03575000  1.0
  C  C80  1  0.32467000  0.92384000  0.00900000  1.0
  C  C81  1  0.66929000  0.07945000  0.99207000  1.0
  C  C82  1  0.32755000  0.57629000  0.94145000  1.0
  C  C83  1  0.66747000  0.42730000  0.05836000  1.0
  C  C84  1  0.47239000  0.56887000  0.01783000  1.0
  C  C85  1  0.52285000  0.43519000  0.98209000  1.0
  S  S86  1  0.88808000  0.39929000  0.80571000  1.0
  S  S87  1  0.11115000  0.60313000  0.19480000  1.0
  S  S88  1  0.60018000  0.63544000  0.77792000  1.0
  S  S89  1  0.39720000  0.36611000  0.22139000  1.0
  N  N90  1  0.93406000  0.45881000  0.61840000  1.0
  N  N91  1  0.06611000  0.54162000  0.38164000  1.0
  N  N92  1  0.17764000  0.41088000  0.52478000  1.0
  N  N93  1  0.82256000  0.58921000  0.47524000  1.0
  N  N94  1  0.86178000  0.33129000  0.40531000  1.0
  N  N95  1  0.13882000  0.66887000  0.59459000  1.0
  N  N96  1  0.35834000  0.32572000  0.60249000  1.0
  N  N97  1  0.64171000  0.67421000  0.39750000  1.0
  N  N98  1  0.38055000  0.31037000  0.50331000  1.0
  N  N99  1  0.61946000  0.68950000  0.49666000  1.0
  N  N100  1  0.34431000  0.83435000  0.66907000  1.0
  N  N101  1  0.65666000  0.16556000  0.33085000  1.0
  N  N102  1  0.24414000  0.85078000  0.73443000  1.0
  N  N103  1  0.75702000  0.14904000  0.26562000  1.0
  N  N104  1  0.84389000  0.83983000  0.92025000  1.0
  N  N105  1  0.16524000  0.14740000  0.08372000  1.0
  N  N106  1  0.97521000  0.94647000  0.13623000  1.0
  N  N107  1  0.03699000  0.04435000  0.85904000  1.0
  N  N108  1  0.02179000  0.92444000  0.29570000  1.0
  N  N109  1  0.97992000  0.07618000  0.70353000  1.0
  N  N110  1  0.87427000  0.84888000  0.24985000  1.0
  N  N111  1  0.12685000  0.15375000  0.74844000  1.0
  N  N112  1  0.16614000  0.87671000  0.99261000  1.0
  N  N113  1  0.82703000  0.12630000  0.01109000  1.0
  N  N114  1  0.28880000  0.70989000  0.96916000  1.0
  N  N115  1  0.70509000  0.29326000  0.03116000  1.0
  N  N116  1  0.40287000  0.82517000  0.99531000  1.0
  N  N117  1  0.59022000  0.17808000  0.00355000  1.0
