# generated using pymatgen
data_Na2H14C14N2O5
_symmetry_space_group_name_H-M   'P 1'
_cell_length_a   5.64720000
_cell_length_b   8.02019000
_cell_length_c   15.45470000
_cell_angle_alpha   76.50500000
_cell_angle_beta   89.99930000
_cell_angle_gamma   89.99800000
_symmetry_Int_Tables_number   1
_chemical_formula_structural   Na2H14C14N2O5
_chemical_formula_sum   'Na4 H28 C28 N4 O10'
_cell_volume   680.64242816
_cell_formula_units_Z   2
loop_
 _symmetry_equiv_pos_site_id
 _symmetry_equiv_pos_as_xyz
  1  'x, y, z'
loop_
 _atom_site_type_symbol
 _atom_site_label
 _atom_site_symmetry_multiplicity
 _atom_site_fract_x
 _atom_site_fract_y
 _atom_site_fract_z
 _atom_site_occupancy
  Na  Na0  1  0.09621000  0.66638000  0.42609000  1.0
  Na  Na1  1  0.90378000  0.16638000  0.42609000  1.0
  Na  Na2  1  0.35576000  0.06317000  0.30529000  1.0
  Na  Na3  1  0.64425000  0.56317000  0.30529000  1.0
  H  H4  1  0.87924000  0.71823000  0.08311000  1.0
  H  H5  1  0.12079000  0.21819000  0.08313000  1.0
  H  H6  1  0.56322000  0.87279000  0.21998000  1.0
  H  H7  1  0.43676000  0.37280000  0.21998000  1.0
  H  H8  1  0.27910000  0.05695000  0.87732000  1.0
  H  H9  1  0.72094000  0.55691000  0.87732000  1.0
  H  H10  1  0.92465000  0.86796000  0.92402000  1.0
  H  H11  1  0.07538000  0.36791000  0.92403000  1.0
  H  H12  1  0.57452000  0.09510000  0.98964000  1.0
  H  H13  1  0.42549000  0.59506000  0.98963000  1.0
  H  H14  1  0.13487000  0.43636000  0.31085000  1.0
  H  H15  1  0.86511000  0.93636000  0.31086000  1.0
  H  H16  1  0.94806000  0.61286000  0.75089000  1.0
  H  H17  1  0.05193000  0.11288000  0.75090000  1.0
  H  H18  1  0.23868000  0.67305000  0.85931000  1.0
  H  H19  1  0.76128000  0.17307000  0.85932000  1.0
  H  H20  1  0.89071000  0.82669000  0.53383000  1.0
  H  H21  1  0.10927000  0.32669000  0.53384000  1.0
  H  H22  1  0.72576000  0.99637000  0.13387000  1.0
  H  H23  1  0.27424000  0.49636000  0.13386000  1.0
  H  H24  1  0.30097000  0.38568000  0.39598000  1.0
  H  H25  1  0.69902000  0.88567000  0.39598000  1.0
  H  H26  1  0.59198000  0.85878000  0.80567000  1.0
  H  H27  1  0.40799000  0.35880000  0.80567000  1.0
  H  H28  1  0.81797000  0.65584000  0.61363000  1.0
  H  H29  1  0.18203000  0.15585000  0.61364000  1.0
  H  H30  1  0.65115000  0.96972000  0.64296000  1.0
  H  H31  1  0.34884000  0.46973000  0.64296000  1.0
  C  C32  1  0.39539000  0.92948000  0.10006000  1.0
  C  C33  1  0.60464000  0.42948000  0.10007000  1.0
  C  C34  1  0.12737000  0.76190000  0.63569000  1.0
  C  C35  1  0.87262000  0.26191000  0.63570000  1.0
  C  C36  1  0.33249000  0.86139000  0.60464000  1.0
  C  C37  1  0.66752000  0.36140000  0.60464000  1.0
  C  C38  1  0.19424000  0.82270000  0.12690000  1.0
  C  C39  1  0.80578000  0.32268000  0.12691000  1.0
  C  C40  1  0.49676000  0.89192000  0.66762000  1.0
  C  C41  1  0.50323000  0.39194000  0.66762000  1.0
  C  C42  1  0.10345000  0.69183000  0.72784000  1.0
  C  C43  1  0.89655000  0.19184000  0.72784000  1.0
  C  C44  1  0.42015000  0.01307000  0.00927000  1.0
  C  C45  1  0.57988000  0.51307000  0.00928000  1.0
  C  C46  1  0.26785000  0.72489000  0.78841000  1.0
  C  C47  1  0.73213000  0.22492000  0.78841000  1.0
  C  C48  1  0.16125000  0.72258000  0.22033000  1.0
  C  C49  1  0.83875000  0.22258000  0.22034000  1.0
  C  C50  1  0.02913000  0.80328000  0.06182000  1.0
  C  C51  1  0.97090000  0.30326000  0.06184000  1.0
  C  C52  1  0.46534000  0.82794000  0.75856000  1.0
  C  C53  1  0.53464000  0.32796000  0.75856000  1.0
  C  C54  1  0.05507000  0.88667000  0.97284000  1.0
  C  C55  1  0.94495000  0.38665000  0.97285000  1.0
  C  C56  1  0.25320000  0.99206000  0.94695000  1.0
  C  C57  1  0.74683000  0.49202000  0.94696000  1.0
  C  C58  1  0.38300000  0.93071000  0.50780000  1.0
  C  C59  1  0.61700000  0.43072000  0.50780000  1.0
  N  N60  1  0.56426000  0.95614000  0.15917000  1.0
  N  N61  1  0.43573000  0.45613000  0.15917000  1.0
  N  N62  1  0.95509000  0.72271000  0.57908000  1.0
  N  N63  1  0.04491000  0.22271000  0.57909000  1.0
  O  O64  1  0.29719000  0.75104000  0.28223000  1.0
  O  O65  1  0.70279000  0.25106000  0.28224000  1.0
  O  O66  1  0.21316000  0.94241000  0.45193000  1.0
  O  O67  1  0.78687000  0.44242000  0.45193000  1.0
  O  O68  1  0.00267000  0.60549000  0.23643000  1.0
  O  O69  1  0.99732000  0.10549000  0.23644000  1.0
  O  O70  1  0.59643000  0.97308000  0.48372000  1.0
  O  O71  1  0.40357000  0.47307000  0.48371000  1.0
  O  O72  1  0.22402000  0.33832000  0.34912000  1.0
  O  O73  1  0.77596000  0.83832000  0.34912000  1.0
