# generated using pymatgen
data_Zr6H44C59O32
_symmetry_space_group_name_H-M   'P 1'
_cell_length_a   14.75530000
_cell_length_b   14.75600000
_cell_length_c   14.77080690
_cell_angle_alpha   90.03797179
_cell_angle_beta   119.95186167
_cell_angle_gamma   119.93010000
_symmetry_Int_Tables_number   1
_chemical_formula_structural   Zr6H44C59O32
_chemical_formula_sum   'Zr6 H44 C59 O32'
_cell_volume   2277.38145309
_cell_formula_units_Z   1
loop_
 _symmetry_equiv_pos_site_id
 _symmetry_equiv_pos_as_xyz
  1  'x, y, z'
loop_
 _atom_site_type_symbol
 _atom_site_label
 _atom_site_symmetry_multiplicity
 _atom_site_fract_x
 _atom_site_fract_y
 _atom_site_fract_z
 _atom_site_occupancy
  Zr  Zr0  1  0.49340000  0.11612000  0.87805000  1.0
  Zr  Zr1  1  0.49851000  0.87836000  0.11863000  1.0
  Zr  Zr2  1  0.73588000  0.11883000  0.11672000  1.0
  Zr  Zr3  1  0.25686000  0.87754000  0.88011000  1.0
  Zr  Zr4  1  0.49726000  0.11654000  0.11997000  1.0
  Zr  Zr5  1  0.49625000  0.87773000  0.87900000  1.0
  H  H6  1  0.68549000  0.28027000  0.09456000  1.0
  H  H7  1  0.31135000  0.90365000  0.09644000  1.0
  H  H8  1  0.68787000  0.90629000  0.09175000  1.0
  H  H9  1  0.30542000  0.90178000  0.71616000  1.0
  H  H10  1  0.40812000  0.36974000  0.82331000  1.0
  H  H11  1  0.58734000  0.45458000  0.17417000  1.0
  H  H12  1  0.41392000  0.54313000  0.82916000  1.0
  H  H13  1  0.52751000  0.15692000  0.59614000  1.0
  H  H14  1  0.48038000  0.84485000  0.58070000  1.0
  H  H15  1  0.52713000  0.14980000  0.42589000  1.0
  H  H16  1  0.21812000  0.11023000  0.16697000  1.0
  H  H17  1  0.95552000  0.91072000  0.82328000  1.0
  H  H18  1  0.04232000  0.10768000  0.15828000  1.0
  H  H19  1  0.22531000  0.57583000  0.58500000  1.0
  H  H20  1  0.94230000  0.57093000  0.60377000  1.0
  H  H21  1  0.04970000  0.40685000  0.41408000  1.0
  H  H22  1  0.75406000  0.43589000  0.02971000  1.0
  H  H23  1  0.78772000  0.61500000  0.07464000  1.0
  H  H24  1  0.09734000  0.77329000  0.03722000  1.0
  H  H25  1  0.96117000  0.78524000  0.07860000  1.0
  H  H26  1  0.92908000  0.86392000  0.59201000  1.0
  H  H27  1  0.22967000  0.14318000  0.59255000  1.0
  H  H28  1  0.76748000  0.87135000  0.42111000  1.0
  H  H29  1  0.68815000  0.73662000  0.22924000  1.0
  H  H30  1  0.55231000  0.64798000  0.22789000  1.0
  H  H31  1  0.67534000  0.62576000  0.28238000  1.0
  H  H32  1  0.46298000  0.74838000  0.44959000  1.0
  H  H33  1  0.39662000  0.76228000  0.31547000  1.0
  H  H34  1  0.56265000  0.82944000  0.40617000  1.0
  H  H35  1  0.67472000  0.81561000  0.77390000  1.0
  H  H36  1  0.70811000  0.94434000  0.75906000  1.0
  H  H37  1  0.75804000  0.87865000  0.71224000  1.0
  H  H38  1  0.67188000  0.39212000  0.34565000  1.0
  H  H39  1  0.67970000  0.30581000  0.42621000  1.0
  H  H40  1  0.73214000  0.44187000  0.48727000  1.0
  H  H41  1  0.19766000  0.23041000  0.46825000  1.0
  H  H42  1  0.05996000  0.14539000  0.32984000  1.0
  H  H43  1  0.06060000  0.23400000  0.40941000  1.0
  H  H44  1  0.08505000  0.42286000  0.84474000  1.0
  H  H45  1  0.22322000  0.55580000  0.94264000  1.0
  H  H46  1  0.19005000  0.43584000  0.98200000  1.0
  H  H47  1  0.02737000  0.27733000  0.98421000  1.0
  H  H48  1  0.86180000  0.21042000  0.92093000  1.0
  H  H49  1  0.92717000  0.26156000  0.84417000  1.0
  C  C50  1  0.49065000  0.29849000  0.99733000  1.0
  C  C51  1  0.50532000  0.99794000  0.30805000  1.0
  C  C52  1  0.49782000  0.69314000  0.99963000  1.0
  C  C53  1  0.50045000  0.00016000  0.69696000  1.0
  C  C54  1  0.79537000  0.29776000  0.98972000  1.0
  C  C55  1  0.18857000  0.99966000  0.69992000  1.0
  C  C56  1  0.19213000  0.68963000  0.99469000  1.0
  C  C57  1  0.80436000  0.00508000  0.30683000  1.0
  C  C58  1  0.80063000  0.29711000  0.30863000  1.0
  C  C59  1  0.80080000  0.00464000  0.99113000  1.0
  C  C60  1  0.19391000  0.68738000  0.70122000  1.0
  C  C61  1  0.19569000  0.00430000  0.99867000  1.0
  C  C62  1  0.50318000  0.59474000  0.00439000  1.0
  C  C63  1  0.49484000  0.40154000  0.99857000  1.0
  C  C64  1  0.55602000  0.57301000  0.10490000  1.0
  C  C65  1  0.44772000  0.42631000  0.90057000  1.0
  C  C66  1  0.54885000  0.47483000  0.09878000  1.0
  C  C67  1  0.45156000  0.52225000  0.90418000  1.0
  C  C68  1  0.50564000  0.99473000  0.40931000  1.0
  C  C69  1  0.50407000  0.00061000  0.59784000  1.0
  C  C70  1  0.49228000  0.90598000  0.45186000  1.0
  C  C71  1  0.51776000  0.08792000  0.55539000  1.0
  C  C72  1  0.49171000  0.91186000  0.54608000  1.0
  C  C73  1  0.51802000  0.08385000  0.46170000  1.0
  C  C74  1  0.90090000  0.00708000  0.98662000  1.0
  C  C75  1  0.09509000  0.00822000  0.99541000  1.0
  C  C76  1  0.87381000  0.95201000  0.88869000  1.0
  C  C77  1  0.12209000  0.06608000  0.09057000  1.0
  C  C78  1  0.97287000  0.95325000  0.89642000  1.0
  C  C79  1  0.02476000  0.06454000  0.08539000  1.0
  C  C80  1  0.89819000  0.39451000  0.41321000  1.0
  C  C81  1  0.09279000  0.58351000  0.60315000  1.0
  C  C82  1  0.86444000  0.43904000  0.46657000  1.0
  C  C83  1  0.12499000  0.53717000  0.55141000  1.0
  C  C84  1  0.96426000  0.53360000  0.56104000  1.0
  C  C85  1  0.02777000  0.44369000  0.45722000  1.0
  C  C86  1  0.89493000  0.39794000  0.98662000  1.0
  C  C87  1  0.91071000  0.50033000  0.01197000  1.0
  C  C88  1  0.96892000  0.38910000  0.96032000  1.0
  C  C89  1  0.83240000  0.50993000  0.03486000  1.0
  C  C90  1  0.85025000  0.61025000  0.05880000  1.0
  C  C91  1  0.08799000  0.58730000  0.99102000  1.0
  C  C92  1  0.06829000  0.48621000  0.96308000  1.0
  C  C93  1  0.00956000  0.59741000  0.01400000  1.0
  C  C94  1  0.02538000  0.69951000  0.03898000  1.0
  C  C95  1  0.94789000  0.70609000  0.06095000  1.0
  C  C96  1  0.90785000  0.01043000  0.41081000  1.0
  C  C97  1  0.08903000  0.00347000  0.60130000  1.0
  C  C98  1  0.03987000  0.09027000  0.45868000  1.0
  C  C99  1  0.95857000  0.92634000  0.55446000  1.0
  C  C100  1  0.12741000  0.08412000  0.55381000  1.0
  C  C101  1  0.86966000  0.93065000  0.46006000  1.0
  C  C102  1  0.62159000  0.64988000  0.21703000  1.0
  C  C103  1  0.47759000  0.80596000  0.40313000  1.0
  C  C104  1  0.74707000  0.89483000  0.77747000  1.0
  C  C105  1  0.72988000  0.39250000  0.42958000  1.0
  C  C106  1  0.09266000  0.18002000  0.41444000  1.0
  C  C107  1  0.14615000  0.47547000  0.93186000  1.0
  C  C108  1  0.94463000  0.27889000  0.92586000  1.0
  O  O109  1  0.48617000  0.25673000  0.91815000  1.0
  O  O110  1  0.50523000  0.92244000  0.26540000  1.0
  O  O111  1  0.49412000  0.73233000  0.07408000  1.0
  O  O112  1  0.49719000  0.07573000  0.73433000  1.0
  O  O113  1  0.83522000  0.26130000  0.06879000  1.0
  O  O114  1  0.15073000  0.92084000  0.73743000  1.0
  O  O115  1  0.15578000  0.73096000  0.91923000  1.0
  O  O116  1  0.83785000  0.07912000  0.26321000  1.0
  O  O117  1  0.68288000  0.25584000  0.26575000  1.0
  O  O118  1  0.68406000  0.92570000  0.91765000  1.0
  O  O119  1  0.31044000  0.72836000  0.73897000  1.0
  O  O120  1  0.31208000  0.07799000  0.07853000  1.0
  O  O121  1  0.83887000  0.08000000  0.07036000  1.0
  O  O122  1  0.15666000  0.72896000  0.73893000  1.0
  O  O123  1  0.15772000  0.92642000  0.92228000  1.0
  O  O124  1  0.83992000  0.26203000  0.26700000  1.0
  O  O125  1  0.67843000  0.25775000  0.91444000  1.0
  O  O126  1  0.68855000  0.92537000  0.26684000  1.0
  O  O127  1  0.30788000  0.72887000  0.07273000  1.0
  O  O128  1  0.30518000  0.07501000  0.73838000  1.0
  O  O129  1  0.49935000  0.92274000  0.73646000  1.0
  O  O130  1  0.49414000  0.26103000  0.07615000  1.0
  O  O131  1  0.50367000  0.07504000  0.26932000  1.0
  O  O132  1  0.49600000  0.73096000  0.92138000  1.0
  O  O133  1  0.35962000  0.92893000  0.79649000  1.0
  O  O134  1  0.63267000  0.93150000  0.06537000  1.0
  O  O135  1  0.36298000  0.92985000  0.06769000  1.0
  O  O136  1  0.63066000  0.19991000  0.06571000  1.0
  O  O137  1  0.59714000  0.04751000  0.14771000  1.0
  O  O138  1  0.39663000  0.04682000  0.95032000  1.0
  O  O139  1  0.39766000  0.84838000  0.94955000  1.0
  O  O140  1  0.59469000  0.04745000  0.94772000  1.0
