# generated using pymatgen
data_TbHCO4
_symmetry_space_group_name_H-M   'P 1'
_cell_length_a   4.83371000
_cell_length_b   7.02635000
_cell_length_c   8.48833000
_cell_angle_alpha   89.99940000
_cell_angle_beta   90.00000000
_cell_angle_gamma   90.00000000
_symmetry_Int_Tables_number   1
_chemical_formula_structural   TbHCO4
_chemical_formula_sum   'Tb4 H4 C4 O16'
_cell_volume   288.29202302
_cell_formula_units_Z   4
loop_
 _symmetry_equiv_pos_site_id
 _symmetry_equiv_pos_as_xyz
  1  'x, y, z'
loop_
 _atom_site_type_symbol
 _atom_site_label
 _atom_site_symmetry_multiplicity
 _atom_site_fract_x
 _atom_site_fract_y
 _atom_site_fract_z
 _atom_site_occupancy
  Tb  Tb0  1  0.01830000  0.11711000  0.16541000  1.0
  Tb  Tb1  1  0.48170000  0.88289000  0.66541000  1.0
  Tb  Tb2  1  0.51830000  0.38289000  0.83459000  1.0
  Tb  Tb3  1  0.98170000  0.61711000  0.33459000  1.0
  H  H4  1  0.86744000  0.75635000  0.03144000  1.0
  H  H5  1  0.63256000  0.24365000  0.53144000  1.0
  H  H6  1  0.36744000  0.74365000  0.96856000  1.0
  H  H7  1  0.13256000  0.25635000  0.46856000  1.0
  C  C8  1  0.50544000  0.45086000  0.17031000  1.0
  C  C9  1  0.99456000  0.54913000  0.67032000  1.0
  C  C10  1  0.00544000  0.04914000  0.82969000  1.0
  C  C11  1  0.49456000  0.95087000  0.32968000  1.0
  O  O12  1  0.00159000  0.79683000  0.11168000  1.0
  O  O13  1  0.49841000  0.20317000  0.61168000  1.0
  O  O14  1  0.50159000  0.70317000  0.88832000  1.0
  O  O15  1  0.99841000  0.29683000  0.38832000  1.0
  O  O16  1  0.29492000  0.38982000  0.09124000  1.0
  O  O17  1  0.20509000  0.61018000  0.59123000  1.0
  O  O18  1  0.79492000  0.11018000  0.90877000  1.0
  O  O19  1  0.70509000  0.88982000  0.40877000  1.0
  O  O20  1  0.75261000  0.41712000  0.11774000  1.0
  O  O21  1  0.74739000  0.58289000  0.61773000  1.0
  O  O22  1  0.25261000  0.08289000  0.88226000  1.0
  O  O23  1  0.24740000  0.91711000  0.38227000  1.0
  O  O24  1  0.47596000  0.55300000  0.29479000  1.0
  O  O25  1  0.02402000  0.44702000  0.79478000  1.0
  O  O26  1  0.97596000  0.94700000  0.70521000  1.0
  O  O27  1  0.52402000  0.05298000  0.20522000  1.0
