# generated using pymatgen
data_KH4C6SIO5
_symmetry_space_group_name_H-M   'P 1'
_cell_length_a   7.02659000
_cell_length_b   10.06430000
_cell_length_c   13.02960000
_cell_angle_alpha   90.00010000
_cell_angle_beta   90.00040000
_cell_angle_gamma   97.25970000
_symmetry_Int_Tables_number   1
_chemical_formula_structural   KH4C6SIO5
_chemical_formula_sum   'K4 H16 C24 S4 I4 O20'
_cell_volume   914.03694435
_cell_formula_units_Z   4
loop_
 _symmetry_equiv_pos_site_id
 _symmetry_equiv_pos_as_xyz
  1  'x, y, z'
loop_
 _atom_site_type_symbol
 _atom_site_label
 _atom_site_symmetry_multiplicity
 _atom_site_fract_x
 _atom_site_fract_y
 _atom_site_fract_z
 _atom_site_occupancy
  K  K0  1  0.15376000  0.96827000  0.39263000  1.0
  K  K1  1  0.34624000  0.03173000  0.89263000  1.0
  K  K2  1  0.84624000  0.03172000  0.60737000  1.0
  K  K3  1  0.65376000  0.96827000  0.10737000  1.0
  H  H4  1  0.18805000  0.58459000  0.49173000  1.0
  H  H5  1  0.31196000  0.41541000  0.99173000  1.0
  H  H6  1  0.81196000  0.41541000  0.50827000  1.0
  H  H7  1  0.68803000  0.58459000  0.00827000  1.0
  H  H8  1  0.23840000  0.34222000  0.47670000  1.0
  H  H9  1  0.26162000  0.65778000  0.97670000  1.0
  H  H10  1  0.76161000  0.65778000  0.52329000  1.0
  H  H11  1  0.73839000  0.34222000  0.02330000  1.0
  H  H12  1  0.46181000  0.35312000  0.78554000  1.0
  H  H13  1  0.03818000  0.64688000  0.28554000  1.0
  H  H14  1  0.53819000  0.64688000  0.21445000  1.0
  H  H15  1  0.96181000  0.35312000  0.71446000  1.0
  H  H16  1  0.40325000  0.59356000  0.80226000  1.0
  H  H17  1  0.09674000  0.40644000  0.30225000  1.0
  H  H18  1  0.59675000  0.40644000  0.19775000  1.0
  H  H19  1  0.90325000  0.59356000  0.69775000  1.0
  C  C20  1  0.29795000  0.59983000  0.64664000  1.0
  C  C21  1  0.20205000  0.40017000  0.14664000  1.0
  C  C22  1  0.70206000  0.40016000  0.35336000  1.0
  C  C23  1  0.79795000  0.59984000  0.85337000  1.0
  C  C24  1  0.24776000  0.53254000  0.55515000  1.0
  C  C25  1  0.25225000  0.46746000  0.05515000  1.0
  C  C26  1  0.75226000  0.46747000  0.44485000  1.0
  C  C27  1  0.74775000  0.53254000  0.94485000  1.0
  C  C28  1  0.27699000  0.39841000  0.54682000  1.0
  C  C29  1  0.22302000  0.60159000  0.04682000  1.0
  C  C30  1  0.72303000  0.60159000  0.45318000  1.0
  C  C31  1  0.77698000  0.39841000  0.95318000  1.0
  C  C32  1  0.35714000  0.33694000  0.62998000  1.0
  C  C33  1  0.14286000  0.66306000  0.12999000  1.0
  C  C34  1  0.64287000  0.66306000  0.37002000  1.0
  C  C35  1  0.85714000  0.33695000  0.87002000  1.0
  C  C36  1  0.40124000  0.40455000  0.72220000  1.0
  C  C37  1  0.09875000  0.59545000  0.22220000  1.0
  C  C38  1  0.59876000  0.59545000  0.27780000  1.0
  C  C39  1  0.90124000  0.40456000  0.77780000  1.0
  C  C40  1  0.37070000  0.53851000  0.73107000  1.0
  C  C41  1  0.12929000  0.46149000  0.23107000  1.0
  C  C42  1  0.62930000  0.46149000  0.26893000  1.0
  C  C43  1  0.87071000  0.53851000  0.76893000  1.0
  S  S44  1  0.41502000  0.17099000  0.61390000  1.0
  S  S45  1  0.08499000  0.82902000  0.11390000  1.0
  S  S46  1  0.58499000  0.82901000  0.38610000  1.0
  S  S47  1  0.91501000  0.17099000  0.88610000  1.0
  I  I48  1  0.26621000  0.80894000  0.65376000  1.0
  I  I49  1  0.23379000  0.19107000  0.15375000  1.0
  I  I50  1  0.73380000  0.19106000  0.34625000  1.0
  I  I51  1  0.76620000  0.80894000  0.84625000  1.0
  O  O52  1  0.05643000  0.79809000  0.57115000  1.0
  O  O53  1  0.44358000  0.20191000  0.07115000  1.0
  O  O54  1  0.94358000  0.20190000  0.42885000  1.0
  O  O55  1  0.55642000  0.79810000  0.92885000  1.0
  O  O56  1  0.15979000  0.81405000  0.78178000  1.0
  O  O57  1  0.34020000  0.18595000  0.28179000  1.0
  O  O58  1  0.84021000  0.18595000  0.21822000  1.0
  O  O59  1  0.65979000  0.81405000  0.71822000  1.0
  O  O60  1  0.23763000  0.08757000  0.58200000  1.0
  O  O61  1  0.26237000  0.91243000  0.08200000  1.0
  O  O62  1  0.76237000  0.91243000  0.41800000  1.0
  O  O63  1  0.73763000  0.08756000  0.91800000  1.0
  O  O64  1  0.49084000  0.12933000  0.71196000  1.0
  O  O65  1  0.00916000  0.87067000  0.21196000  1.0
  O  O66  1  0.50916000  0.87066000  0.28804000  1.0
  O  O67  1  0.99084000  0.12933000  0.78804000  1.0
  O  O68  1  0.56268000  0.18182000  0.53272000  1.0
  O  O69  1  0.93731000  0.81818000  0.03272000  1.0
  O  O70  1  0.43732000  0.81817000  0.46728000  1.0
  O  O71  1  0.06268000  0.18182000  0.96729000  1.0
