# generated using pymatgen
data_Tb2H18C22O17
_symmetry_space_group_name_H-M   'P 1'
_cell_length_a   6.01369000
_cell_length_b   8.87015000
_cell_length_c   12.21720000
_cell_angle_alpha   104.33500000
_cell_angle_beta   90.81910000
_cell_angle_gamma   102.66200000
_symmetry_Int_Tables_number   1
_chemical_formula_structural   Tb2H18C22O17
_chemical_formula_sum   'Tb2 H18 C22 O17'
_cell_volume   614.42485631
_cell_formula_units_Z   1
loop_
 _symmetry_equiv_pos_site_id
 _symmetry_equiv_pos_as_xyz
  1  'x, y, z'
loop_
 _atom_site_type_symbol
 _atom_site_label
 _atom_site_symmetry_multiplicity
 _atom_site_fract_x
 _atom_site_fract_y
 _atom_site_fract_z
 _atom_site_occupancy
  Tb  Tb0  1  0.28733000  0.71700000  0.59712000  1.0
  Tb  Tb1  1  0.70527000  0.27957000  0.39267000  1.0
  H  H2  1  0.97875000  0.01836000  0.83935000  1.0
  H  H3  1  0.02169000  0.98638000  0.14994000  1.0
  H  H4  1  0.91003000  0.84651000  0.89483000  1.0
  H  H5  1  0.08785000  0.16563000  0.10263000  1.0
  H  H6  1  0.43142000  0.16491000  0.86669000  1.0
  H  H7  1  0.56344000  0.83405000  0.12641000  1.0
  H  H8  1  0.29517000  0.71217000  0.95005000  1.0
  H  H9  1  0.69948000  0.28682000  0.04308000  1.0
  H  H10  1  0.81279000  0.20698000  0.71484000  1.0
  H  H11  1  0.17933000  0.79198000  0.28249000  1.0
  H  H12  1  0.06008000  0.14809000  0.65432000  1.0
  H  H13  1  0.92890000  0.84814000  0.34110000  1.0
  H  H14  1  0.32086000  0.37277000  0.01393000  1.0
  H  H15  1  0.67532000  0.62729000  0.98085000  1.0
  H  H16  1  0.77343000  0.44241000  0.81293000  1.0
  H  H17  1  0.22284000  0.55740000  0.18175000  1.0
  H  H18  1  0.47611000  0.43693000  0.56906000  1.0
  H  H19  1  0.68121000  0.58065000  0.55878000  1.0
  C  C20  1  0.81944000  0.79794000  0.71838000  1.0
  C  C21  1  0.17043000  0.20014000  0.27988000  1.0
  C  C22  1  0.97652000  0.89007000  0.82186000  1.0
  C  C23  1  0.02040000  0.11437000  0.17221000  1.0
  C  C24  1  0.35126000  0.93301000  0.90064000  1.0
  C  C25  1  0.64382000  0.06597000  0.09252000  1.0
  C  C26  1  0.46264000  0.09392000  0.92397000  1.0
  C  C27  1  0.53251000  0.90498000  0.06902000  1.0
  C  C28  1  0.38426000  0.83778000  0.97170000  1.0
  C  C29  1  0.61080000  0.16113000  0.02130000  1.0
  C  C30  1  0.03752000  0.38220000  0.64874000  1.0
  C  C31  1  0.95170000  0.61286000  0.34415000  1.0
  C  C32  1  0.99774000  0.24749000  0.70797000  1.0
  C  C33  1  0.99386000  0.75017000  0.28738000  1.0
  C  C34  1  0.05571000  0.39380000  0.90225000  1.0
  C  C35  1  0.94094000  0.60665000  0.09234000  1.0
  C  C36  1  0.17921000  0.42891000  0.00696000  1.0
  C  C37  1  0.81750000  0.57157000  0.98762000  1.0
  C  C38  1  0.87398000  0.46641000  0.89277000  1.0
  C  C39  1  0.12287000  0.53412000  0.10182000  1.0
  C  C40  1  0.41520000  0.05002000  0.53322000  1.0
  C  C41  1  0.57395000  0.95076000  0.46437000  1.0
  O  O42  1  0.90164000  0.71349000  0.63590000  1.0
  O  O43  1  0.08215000  0.27203000  0.36417000  1.0
  O  O44  1  0.61289000  0.80675000  0.72059000  1.0
  O  O45  1  0.37900000  0.19341000  0.27652000  1.0
  O  O46  1  0.20174000  0.86354000  0.80308000  1.0
  O  O47  1  0.79174000  0.13515000  0.19040000  1.0
  O  O48  1  0.20921000  0.49897000  0.68093000  1.0
  O  O49  1  0.78955000  0.49238000  0.30632000  1.0
  O  O50  1  0.89333000  0.36705000  0.56786000  1.0
  O  O51  1  0.08658000  0.63070000  0.43010000  1.0
  O  O52  1  0.12226000  0.28539000  0.81495000  1.0
  O  O53  1  0.87353000  0.71434000  0.17948000  1.0
  O  O54  1  0.28408000  0.98247000  0.59651000  1.0
  O  O55  1  0.70095000  0.01558000  0.39871000  1.0
  O  O56  1  0.43004000  0.18893000  0.52106000  1.0
  O  O57  1  0.56465000  0.81402000  0.47964000  1.0
  O  O58  1  0.53308000  0.50749000  0.51989000  1.0
