# generated using pymatgen
data_Al4H36C68S6O47
_symmetry_space_group_name_H-M   'P 1'
_cell_length_a   6.69540000
_cell_length_b   19.99910000
_cell_length_c   23.75040000
_cell_angle_alpha   90.10980000
_cell_angle_beta   92.77430000
_cell_angle_gamma   90.66900000
_symmetry_Int_Tables_number   1
_chemical_formula_structural   Al4H36C68S6O47
_chemical_formula_sum   'Al4 H36 C68 S6 O47'
_cell_volume   3176.27172314
_cell_formula_units_Z   1
loop_
 _symmetry_equiv_pos_site_id
 _symmetry_equiv_pos_as_xyz
  1  'x, y, z'
loop_
 _atom_site_type_symbol
 _atom_site_label
 _atom_site_symmetry_multiplicity
 _atom_site_fract_x
 _atom_site_fract_y
 _atom_site_fract_z
 _atom_site_occupancy
  Al  Al0  1  0.05529000  0.49986000  0.49819000  1.0
  Al  Al1  1  0.55584000  0.49828000  0.49990000  1.0
  Al  Al2  1  0.75491000  0.00284000  0.00614000  1.0
  Al  Al3  1  0.25480000  0.00263000  0.00225000  1.0
  H  H4  1  0.95643000  0.37354000  0.35440000  1.0
  H  H5  1  0.58765000  0.28274000  0.47389000  1.0
  H  H6  1  0.65149000  0.11563000  0.32718000  1.0
  H  H7  1  0.78885000  0.11891000  0.23519000  1.0
  H  H8  1  0.09916000  0.84089000  0.29725000  1.0
  H  H9  1  0.61192000  0.79144000  0.19884000  1.0
  H  H10  1  0.22402000  0.33765000  0.78005000  1.0
  H  H11  1  0.09692000  0.20320000  0.78487000  1.0
  H  H12  1  0.72806000  0.28113000  0.70880000  1.0
  H  H13  1  0.50740000  0.61397000  0.84149000  1.0
  H  H14  1  0.44629000  0.62085000  0.65734000  1.0
  H  H15  1  0.19781000  0.72453000  0.51259000  1.0
  H  H16  1  0.20842000  0.88664000  0.66019000  1.0
  H  H17  1  0.48585000  0.77253000  0.99087000  1.0
  H  H18  1  0.47803000  0.61774000  0.73861000  1.0
  H  H19  1  0.28479000  0.88643000  0.76073000  1.0
  H  H20  1  0.18342000  0.82937000  0.56896000  1.0
  H  H21  1  0.46968000  0.36360000  0.23892000  1.0
  H  H22  1  0.25934000  0.24157000  0.42574000  1.0
  H  H23  1  0.20341000  0.65125000  0.18039000  1.0
  H  H24  1  0.89002000  0.65988000  0.11773000  1.0
  H  H25  1  0.45277000  0.66522000  0.24187000  1.0
  H  H26  1  0.57858000  0.78536000  0.33922000  1.0
  H  H27  1  0.77984000  0.40303000  0.79669000  1.0
  H  H28  1  0.07101000  0.15630000  0.67515000  1.0
  H  H29  1  0.43960000  0.13163000  0.62853000  1.0
  H  H30  1  0.51392000  0.65908000  0.97728000  1.0
  H  H31  1  0.51639000  0.90516000  0.79919000  1.0
  H  H32  1  0.41549000  0.29915000  0.06556000  1.0
  H  H33  1  0.30048000  0.16451000  0.02106000  1.0
  H  H34  1  0.76844000  0.10361000  0.11528000  1.0
  H  H35  1  0.27296000  0.45786000  0.30930000  1.0
  H  H36  1  0.29211000  0.46771000  0.42923000  1.0
  H  H37  1  0.81997000  0.54563000  0.56084000  1.0
  H  H38  1  0.50569000  0.99071000  0.07715000  1.0
  H  H39  1  0.98208000  0.96024000  0.94008000  1.0
  C  C40  1  0.30532000  0.42407000  0.57755000  1.0
  C  C41  1  0.32566000  0.60303000  0.55039000  1.0
  C  C42  1  0.79769000  0.57135000  0.41813000  1.0
  C  C43  1  0.78849000  0.39611000  0.44927000  1.0
  C  C44  1  0.06068000  0.16335000  0.09579000  1.0
  C  C45  1  0.78769000  0.33184000  0.41829000  1.0
  C  C46  1  0.24866000  0.26524000  0.12065000  1.0
  C  C47  1  0.21107000  0.21090000  0.08468000  1.0
  C  C48  1  0.95031000  0.16980000  0.14493000  1.0
  C  C49  1  0.01392000  0.21625000  0.18804000  1.0
  C  C50  1  0.16253000  0.26540000  0.17424000  1.0
  C  C51  1  0.93796000  0.21529000  0.24438000  1.0
  C  C52  1  0.99397000  0.26577000  0.28447000  1.0
  C  C53  1  0.16055000  0.30988000  0.27181000  1.0
  C  C54  1  0.24006000  0.31013000  0.21800000  1.0
  C  C55  1  0.81662000  0.16121000  0.26309000  1.0
  C  C56  1  0.73735000  0.15924000  0.31507000  1.0
  C  C57  1  0.75662000  0.21519000  0.35169000  1.0
  C  C58  1  0.88468000  0.26954000  0.33563000  1.0
  C  C59  1  0.65100000  0.22164000  0.40229000  1.0
  C  C60  1  0.67082000  0.27786000  0.43592000  1.0
  C  C61  1  0.88741000  0.32792000  0.36886000  1.0
  C  C62  1  0.81046000  0.69778000  0.22398000  1.0
  C  C63  1  0.03180000  0.71970000  0.21217000  1.0
  C  C64  1  0.02513000  0.88309000  0.13125000  1.0
  C  C65  1  0.79205000  0.61692000  0.37084000  1.0
  C  C66  1  0.74407000  0.77240000  0.22194000  1.0
  C  C67  1  0.96561000  0.79491000  0.21052000  1.0
  C  C68  1  0.79579000  0.77882000  0.28772000  1.0
  C  C69  1  0.85977000  0.70141000  0.28967000  1.0
  C  C70  1  0.01564000  0.79999000  0.27623000  1.0
  C  C71  1  0.07898000  0.72512000  0.27787000  1.0
  C  C72  1  0.01135000  0.84215000  0.16871000  1.0
  C  C73  1  0.81396000  0.65459000  0.33150000  1.0
  C  C74  1  0.52098000  0.27526000  0.78682000  1.0
  C  C75  1  0.30630000  0.29508000  0.76474000  1.0
  C  C76  1  0.31787000  0.37375000  0.62097000  1.0
  C  C77  1  0.50231000  0.11852000  0.87727000  1.0
  C  C78  1  0.58694000  0.26425000  0.72548000  1.0
  C  C79  1  0.37282000  0.28593000  0.70209000  1.0
  C  C80  1  0.51733000  0.19003000  0.72843000  1.0
  C  C81  1  0.44993000  0.19922000  0.79098000  1.0
  C  C82  1  0.29892000  0.20936000  0.70543000  1.0
  C  C83  1  0.23544000  0.22073000  0.76718000  1.0
  C  C84  1  0.33761000  0.33216000  0.65807000  1.0
  C  C85  1  0.48575000  0.15573000  0.83700000  1.0
  C  C86  1  0.48084000  0.83719000  0.91785000  1.0
  C  C87  1  0.32420000  0.66707000  0.58289000  1.0
  C  C88  1  0.48572000  0.71708000  0.91286000  1.0
  C  C89  1  0.48171000  0.77477000  0.94487000  1.0
  C  C90  1  0.47109000  0.84234000  0.85943000  1.0
  C  C91  1  0.44853000  0.78375000  0.82538000  1.0
  C  C92  1  0.47230000  0.72047000  0.85303000  1.0
  C  C93  1  0.40186000  0.78449000  0.76506000  1.0
  C  C94  1  0.41773000  0.72451000  0.73334000  1.0
  C  C95  1  0.46518000  0.66394000  0.76237000  1.0
  C  C96  1  0.48310000  0.66139000  0.81993000  1.0
  C  C97  1  0.32288000  0.84239000  0.73667000  1.0
  C  C98  1  0.27325000  0.84221000  0.68004000  1.0
  C  C99  1  0.29702000  0.78411000  0.64656000  1.0
  C  C100  1  0.37071000  0.72465000  0.67319000  1.0
  C  C101  1  0.23912000  0.78338000  0.58839000  1.0
  C  C102  1  0.24787000  0.72555000  0.55697000  1.0
  C  C103  1  0.38727000  0.66699000  0.63925000  1.0
  C  C104  1  0.48691000  0.89995000  0.95207000  1.0
  C  C105  1  0.51023000  0.07500000  0.92534000  1.0
  C  C106  1  0.03107000  0.10600000  0.05797000  1.0
  C  C107  1  0.01369000  0.93086000  0.08589000  1.0
  S  S108  1  0.46845000  0.16141000  0.42322000  1.0
  S  S109  1  0.72366000  0.62688000  0.18618000  1.0
  S  S110  1  0.28733000  0.69064000  0.31477000  1.0
  S  S111  1  0.66853000  0.31700000  0.83958000  1.0
  S  S112  1  0.63965000  0.12093000  0.70056000  1.0
  S  S113  1  0.30569000  0.35194000  0.32552000  1.0
  O  O114  1  0.49219000  0.58217000  0.53432000  1.0
  O  O115  1  0.13219000  0.43609000  0.55594000  1.0
  O  O116  1  0.95145000  0.42980000  0.45150000  1.0
  O  O117  1  0.15676000  0.57376000  0.54255000  1.0
  O  O118  1  0.97189000  0.56339000  0.44056000  1.0
  O  O119  1  0.47034000  0.45197000  0.56609000  1.0
  O  O120  1  0.30069000  0.49049000  0.46543000  1.0
  O  O121  1  0.63414000  0.54437000  0.43161000  1.0
  O  O122  1  0.62573000  0.41382000  0.47033000  1.0
  O  O123  1  0.81236000  0.51001000  0.53300000  1.0
  O  O124  1  0.34549000  0.04744000  0.93760000  1.0
  O  O125  1  0.65426000  0.93019000  0.95950000  1.0
  O  O126  1  0.83759000  0.94047000  0.06475000  1.0
  O  O127  1  0.67915000  0.06801000  0.95150000  1.0
  O  O128  1  0.86465000  0.07308000  0.05642000  1.0
  O  O129  1  0.32134000  0.91818000  0.97122000  1.0
  O  O130  1  0.50870000  0.01138000  0.04020000  1.0
  O  O131  1  0.17906000  0.08945000  0.02849000  1.0
  O  O132  1  0.17538000  0.95896000  0.07166000  1.0
  O  O133  1  0.99666000  0.99158000  0.97132000  1.0
  O  O134  1  0.39624000  0.34791000  0.20382000  1.0
  O  O135  1  0.37009000  0.13198000  0.37365000  1.0
  O  O136  1  0.55127000  0.12007000  0.46768000  1.0
  O  O137  1  0.31131000  0.20827000  0.45329000  1.0
  O  O138  1  0.14100000  0.69375000  0.16963000  1.0
  O  O139  1  0.85835000  0.57326000  0.19921000  1.0
  O  O140  1  0.50927000  0.61611000  0.19054000  1.0
  O  O141  1  0.74556000  0.65177000  0.12267000  1.0
  O  O142  1  0.34816000  0.73325000  0.36169000  1.0
  O  O143  1  0.25598000  0.62001000  0.32072000  1.0
  O  O144  1  0.44712000  0.70410000  0.26875000  1.0
  O  O145  1  0.69508000  0.81148000  0.32739000  1.0
  O  O146  1  0.56513000  0.31650000  0.89088000  1.0
  O  O147  1  0.87255000  0.29516000  0.83669000  1.0
  O  O148  1  0.65687000  0.39315000  0.81591000  1.0
  O  O149  1  0.20006000  0.17460000  0.66271000  1.0
  O  O150  1  0.85445000  0.12971000  0.70706000  1.0
  O  O151  1  0.54775000  0.06089000  0.72057000  1.0
  O  O152  1  0.58745000  0.13219000  0.63518000  1.0
  O  O153  1  0.50048000  0.65440000  0.93648000  1.0
  O  O154  1  0.48366000  0.90638000  0.83874000  1.0
  O  O155  1  0.37469000  0.31379000  0.10272000  1.0
  O  O156  1  0.31968000  0.20985000  0.03779000  1.0
  O  O157  1  0.78741000  0.13009000  0.15077000  1.0
  O  O158  1  0.28865000  0.31963000  0.37885000  1.0
  O  O159  1  0.50494000  0.36577000  0.30596000  1.0
  O  O160  1  0.21214000  0.42597000  0.33489000  1.0
