# generated using pymatgen
data_HoH22C19N6O13
_symmetry_space_group_name_H-M   'P 1'
_cell_length_a   8.24237000
_cell_length_b   10.05760000
_cell_length_c   15.44100000
_cell_angle_alpha   92.84260000
_cell_angle_beta   92.31050000
_cell_angle_gamma   102.97500000
_symmetry_Int_Tables_number   1
_chemical_formula_structural   HoH22C19N6O13
_chemical_formula_sum   'Ho2 H44 C38 N12 O26'
_cell_volume   1244.07669601
_cell_formula_units_Z   2
loop_
 _symmetry_equiv_pos_site_id
 _symmetry_equiv_pos_as_xyz
  1  'x, y, z'
loop_
 _atom_site_type_symbol
 _atom_site_label
 _atom_site_symmetry_multiplicity
 _atom_site_fract_x
 _atom_site_fract_y
 _atom_site_fract_z
 _atom_site_occupancy
  Ho  Ho0  1  0.04930000  0.14821000  0.28772000  1.0
  Ho  Ho1  1  0.95070000  0.85179000  0.71228000  1.0
  H  H2  1  0.68338000  0.05788000  0.25700000  1.0
  H  H3  1  0.31662000  0.94212000  0.74300000  1.0
  H  H4  1  0.76757000  0.13414000  0.43982000  1.0
  H  H5  1  0.23242000  0.86586000  0.56018000  1.0
  H  H6  1  0.58989000  0.16816000  0.38127000  1.0
  H  H7  1  0.41011000  0.83184000  0.61873000  1.0
  H  H8  1  0.60527000  0.99572000  0.39543000  1.0
  H  H9  1  0.39472000  0.00428000  0.60457000  1.0
  H  H10  1  0.35633000  0.17814000  0.45717000  1.0
  H  H11  1  0.64366000  0.82185000  0.54284000  1.0
  H  H12  1  0.56019000  0.28912000  0.57763000  1.0
  H  H13  1  0.43981000  0.71088000  0.42237000  1.0
  H  H14  1  0.48987000  0.47596000  0.67581000  1.0
  H  H15  1  0.51012000  0.52404000  0.32420000  1.0
  H  H16  1  0.21250000  0.53338000  0.65160000  1.0
  H  H17  1  0.78749000  0.46662000  0.34840000  1.0
  H  H18  1  0.95092000  0.47495000  0.59421000  1.0
  H  H19  1  0.04907000  0.52505000  0.40579000  1.0
  H  H20  1  0.89230000  0.35387000  0.50329000  1.0
  H  H21  1  0.10770000  0.64612000  0.49671000  1.0
  H  H22  1  0.77449000  0.77627000  0.25939000  1.0
  H  H23  1  0.22551000  0.22373000  0.74061000  1.0
  H  H24  1  0.60477000  0.57010000  0.17360000  1.0
  H  H25  1  0.39524000  0.42990000  0.82640000  1.0
  H  H26  1  0.63984000  0.54507000  0.01256000  1.0
  H  H27  1  0.36017000  0.45493000  0.98744000  1.0
  H  H28  1  0.84692000  0.72682000  0.94465000  1.0
  H  H29  1  0.15308000  0.27318000  0.05535000  1.0
  H  H30  1  0.08561000  0.88884000  0.96460000  1.0
  H  H31  1  0.91439000  0.11115000  0.03540000  1.0
  H  H32  1  0.13922000  0.98812000  0.06626000  1.0
  H  H33  1  0.86078000  0.01188000  0.93374000  1.0
  H  H34  1  0.37921000  0.83308000  0.28201000  1.0
  H  H35  1  0.62078000  0.16693000  0.71799000  1.0
  H  H36  1  0.16163000  0.62807000  0.22756000  1.0
  H  H37  1  0.83837000  0.37194000  0.77243000  1.0
  H  H38  1  0.11910000  0.56770000  0.06667000  1.0
  H  H39  1  0.88090000  0.43230000  0.93333000  1.0
  H  H40  1  0.29986000  0.71597000  0.96603000  1.0
  H  H41  1  0.70014000  0.28403000  0.03397000  1.0
  H  H42  1  0.52475000  0.87545000  0.94390000  1.0
  H  H43  1  0.47525000  0.12455000  0.05610000  1.0
  H  H44  1  0.65827000  0.96104000  0.03408000  1.0
  H  H45  1  0.34173000  0.03896000  0.96591000  1.0
  C  C46  1  0.67646000  0.09964000  0.38527000  1.0
  C  C47  1  0.32353000  0.90036000  0.61473000  1.0
  C  C48  1  0.17635000  0.29543000  0.48669000  1.0
  C  C49  1  0.82364000  0.70456000  0.51331000  1.0
  C  C50  1  0.33046000  0.25700000  0.50178000  1.0
  C  C51  1  0.66953000  0.74299000  0.49822000  1.0
  C  C52  1  0.44181000  0.31942000  0.56828000  1.0
  C  C53  1  0.55819000  0.68057000  0.43172000  1.0
  C  C54  1  0.40324000  0.42186000  0.62416000  1.0
  C  C55  1  0.59675000  0.57813000  0.37585000  1.0
  C  C56  1  0.25314000  0.45683000  0.61074000  1.0
  C  C57  1  0.74685000  0.54317000  0.38926000  1.0
  C  C58  1  0.98729000  0.44144000  0.53071000  1.0
  C  C59  1  0.01270000  0.55855000  0.46929000  1.0
  C  C60  1  0.89944000  0.86362000  0.14964000  1.0
  C  C61  1  0.10057000  0.13638000  0.85036000  1.0
  C  C62  1  0.78445000  0.76098000  0.18972000  1.0
  C  C63  1  0.21555000  0.23902000  0.81028000  1.0
  C  C64  1  0.69114000  0.64888000  0.14187000  1.0
  C  C65  1  0.30887000  0.35112000  0.85813000  1.0
  C  C66  1  0.70989000  0.63365000  0.05174000  1.0
  C  C67  1  0.29012000  0.36635000  0.94826000  1.0
  C  C68  1  0.82380000  0.73081000  0.01346000  1.0
  C  C69  1  0.17620000  0.26919000  0.98654000  1.0
  C  C70  1  0.03880000  0.94359000  0.01765000  1.0
  C  C71  1  0.96121000  0.05641000  0.98234000  1.0
  C  C72  1  0.45964000  0.88912000  0.15528000  1.0
  C  C73  1  0.54037000  0.11089000  0.84471000  1.0
  C  C74  1  0.35949000  0.80322000  0.21307000  1.0
  C  C75  1  0.64051000  0.19679000  0.78693000  1.0
  C  C76  1  0.23917000  0.69074000  0.18235000  1.0
  C  C77  1  0.76084000  0.30927000  0.81765000  1.0
  C  C78  1  0.21444000  0.65545000  0.09218000  1.0
  C  C79  1  0.78556000  0.34455000  0.90782000  1.0
  C  C80  1  0.31171000  0.73615000  0.03627000  1.0
  C  C81  1  0.68829000  0.26386000  0.96373000  1.0
  C  C82  1  0.53049000  0.93436000  0.00598000  1.0
  C  C83  1  0.46952000  0.06564000  0.99401000  1.0
  N  N84  1  0.93300000  0.35287000  0.19175000  1.0
  N  N85  1  0.06700000  0.64713000  0.80825000  1.0
  N  N86  1  0.36781000  0.27829000  0.22192000  1.0
  N  N87  1  0.63220000  0.72171000  0.77809000  1.0
  N  N88  1  0.14839000  0.93101000  0.37367000  1.0
  N  N89  1  0.85161000  0.06899000  0.62633000  1.0
  N  N90  1  0.14293000  0.39575000  0.54425000  1.0
  N  N91  1  0.85707000  0.60425000  0.45576000  1.0
  N  N92  1  0.91585000  0.84273000  0.06071000  1.0
  N  N93  1  0.08416000  0.15727000  0.93929000  1.0
  N  N94  1  0.42880000  0.84912000  0.06660000  1.0
  N  N95  1  0.57120000  0.15089000  0.93340000  1.0
  O  O96  1  0.99284000  0.37811000  0.27067000  1.0
  O  O97  1  0.00717000  0.62189000  0.72933000  1.0
  O  O98  1  0.92561000  0.23113000  0.15954000  1.0
  O  O99  1  0.07439000  0.76887000  0.84046000  1.0
  O  O100  1  0.88732000  0.43985000  0.14925000  1.0
  O  O101  1  0.11268000  0.56016000  0.85075000  1.0
  O  O102  1  0.32297000  0.31320000  0.29692000  1.0
  O  O103  1  0.67704000  0.68680000  0.70309000  1.0
  O  O104  1  0.26114000  0.18367000  0.17776000  1.0
  O  O105  1  0.73886000  0.81633000  0.82224000  1.0
  O  O106  1  0.50360000  0.33265000  0.19369000  1.0
  O  O107  1  0.49640000  0.66735000  0.80632000  1.0
  O  O108  1  0.99752000  0.94309000  0.37477000  1.0
  O  O109  1  0.00248000  0.05690000  0.62523000  1.0
  O  O110  1  0.25200000  0.02782000  0.33956000  1.0
  O  O111  1  0.74800000  0.97218000  0.66044000  1.0
  O  O112  1  0.19465000  0.83215000  0.40275000  1.0
  O  O113  1  0.80536000  0.16785000  0.59725000  1.0
  O  O114  1  0.76517000  0.10089000  0.30712000  1.0
  O  O115  1  0.23483000  0.89911000  0.69288000  1.0
  O  O116  1  0.06951000  0.24601000  0.42482000  1.0
  O  O117  1  0.93048000  0.75398000  0.57518000  1.0
  O  O118  1  0.98799000  0.97116000  0.18826000  1.0
  O  O119  1  0.01201000  0.02884000  0.81174000  1.0
  O  O120  1  0.57126000  0.99546000  0.17566000  1.0
  O  O121  1  0.42874000  0.00454000  0.82434000  1.0
