# generated using pymatgen
data_NaSmH22(C4O3)5
_symmetry_space_group_name_H-M   'P 1'
_cell_length_a   8.32010000
_cell_length_b   11.79770000
_cell_length_c   12.82280000
_cell_angle_alpha   68.85280000
_cell_angle_beta   83.42820000
_cell_angle_gamma   82.50890000
_symmetry_Int_Tables_number   1
_chemical_formula_structural   NaSmH22(C4O3)5
_chemical_formula_sum   'Na2 Sm2 H44 C40 O30'
_cell_volume   1160.78228412
_cell_formula_units_Z   2
loop_
 _symmetry_equiv_pos_site_id
 _symmetry_equiv_pos_as_xyz
  1  'x, y, z'
loop_
 _atom_site_type_symbol
 _atom_site_label
 _atom_site_symmetry_multiplicity
 _atom_site_fract_x
 _atom_site_fract_y
 _atom_site_fract_z
 _atom_site_occupancy
  Na  Na0  1  0.68973000  0.05464000  0.45507000  1.0
  Na  Na1  1  0.31027000  0.94536000  0.54493000  1.0
  Sm  Sm2  1  0.66036000  0.77721000  0.72905000  1.0
  Sm  Sm3  1  0.33964000  0.22279000  0.27095000  1.0
  H  H4  1  0.18274000  0.70834000  0.68417000  1.0
  H  H5  1  0.81726000  0.29167000  0.31584000  1.0
  H  H6  1  0.11985000  0.66885000  0.82976000  1.0
  H  H7  1  0.88015000  0.33115000  0.17024000  1.0
  H  H8  1  0.54066000  0.49036000  0.63052000  1.0
  H  H9  1  0.45934000  0.50964000  0.36948000  1.0
  H  H10  1  0.64590000  0.57358000  0.50147000  1.0
  H  H11  1  0.35410000  0.42642000  0.49853000  1.0
  H  H12  1  0.78712000  0.39356000  0.58913000  1.0
  H  H13  1  0.21288000  0.60644000  0.41087000  1.0
  H  H14  1  0.05414000  0.27064000  0.61433000  1.0
  H  H15  1  0.94586000  0.72936000  0.38568000  1.0
  H  H16  1  0.27493000  0.33100000  0.69113000  1.0
  H  H17  1  0.72507000  0.66900000  0.30887000  1.0
  H  H18  1  0.22946000  0.51751000  0.74349000  1.0
  H  H19  1  0.77054000  0.48249000  0.25651000  1.0
  H  H20  1  0.63339000  0.14026000  0.75244000  1.0
  H  H21  1  0.36661000  0.85974000  0.24756000  1.0
  H  H22  1  0.44922000  0.09435000  0.83662000  1.0
  H  H23  1  0.55077000  0.90564000  0.16338000  1.0
  H  H24  1  0.75813000  0.60096000  0.08083000  1.0
  H  H25  1  0.24188000  0.39904000  0.91917000  1.0
  H  H26  1  0.94083000  0.58549000  0.99770000  1.0
  H  H27  1  0.05917000  0.41451000  0.00230000  1.0
  H  H28  1  0.96171000  0.71180000  0.09508000  1.0
  H  H29  1  0.03828000  0.28821000  0.90492000  1.0
  H  H30  1  0.96701000  0.87104000  0.17812000  1.0
  H  H31  1  0.03298000  0.12897000  0.82188000  1.0
  H  H32  1  0.81165000  0.07298000  0.09817000  1.0
  H  H33  1  0.18833000  0.92702000  0.90183000  1.0
  H  H34  1  0.64931000  0.11748000  0.93598000  1.0
  H  H35  1  0.35067000  0.88252000  0.06402000  1.0
  H  H36  1  0.90054000  0.84906000  0.51013000  1.0
  H  H37  1  0.09947000  0.15094000  0.48987000  1.0
  H  H38  1  0.72799000  0.83760000  0.46773000  1.0
  H  H39  1  0.27201000  0.16240000  0.53227000  1.0
  H  H40  1  0.36502000  0.70060000  0.89855000  1.0
  H  H41  1  0.63499000  0.29940000  0.10145000  1.0
  H  H42  1  0.30941000  0.82350000  0.79807000  1.0
  H  H43  1  0.69059000  0.17650000  0.20193000  1.0
  H  H44  1  0.80917000  0.19690000  0.53253000  1.0
  H  H45  1  0.19083000  0.80310000  0.46748000  1.0
  H  H46  1  0.88821000  0.06074000  0.60558000  1.0
  H  H47  1  0.11180000  0.93926000  0.39443000  1.0
  C  C48  1  0.98118000  0.55804000  0.69899000  1.0
  C  C49  1  0.01882000  0.44196000  0.30101000  1.0
  C  C50  1  0.08044000  0.71628000  0.74407000  1.0
  C  C51  1  0.91956000  0.28372000  0.25593000  1.0
  C  C52  1  0.03663000  0.85155000  0.72223000  1.0
  C  C53  1  0.96337000  0.14845000  0.27777000  1.0
  C  C54  1  0.85579000  0.52315000  0.65532000  1.0
  C  C55  1  0.14421000  0.47685000  0.34468000  1.0
  C  C56  1  0.59195000  0.57760000  0.58258000  1.0
  C  C57  1  0.40806000  0.42240000  0.41742000  1.0
  C  C58  1  0.45732000  0.68156000  0.56327000  1.0
  C  C59  1  0.54268000  0.31844000  0.43673000  1.0
  C  C60  1  0.88231000  0.41971000  0.62514000  1.0
  C  C61  1  0.11770000  0.58030000  0.37486000  1.0
  C  C62  1  0.03404000  0.35159000  0.63779000  1.0
  C  C63  1  0.96596000  0.64841000  0.36221000  1.0
  C  C64  1  0.15854000  0.38649000  0.67990000  1.0
  C  C65  1  0.84146000  0.61351000  0.32010000  1.0
  C  C66  1  0.13219000  0.49018000  0.71044000  1.0
  C  C67  1  0.86781000  0.50983000  0.28956000  1.0
  C  C68  1  0.71184000  0.93866000  0.92370000  1.0
  C  C69  1  0.28815000  0.06134000  0.07630000  1.0
  C  C70  1  0.54585000  0.07042000  0.78001000  1.0
  C  C71  1  0.45414000  0.92958000  0.21999000  1.0
  C  C72  1  0.47159000  0.07113000  0.67730000  1.0
  C  C73  1  0.52841000  0.92887000  0.32270000  1.0
  C  C74  1  0.79700000  0.82297000  0.97106000  1.0
  C  C75  1  0.20299000  0.17703000  0.02894000  1.0
  C  C76  1  0.80885000  0.61129000  0.99529000  1.0
  C  C77  1  0.19116000  0.38871000  0.00471000  1.0
  C  C78  1  0.72811000  0.52763000  0.95427000  1.0
  C  C79  1  0.27190000  0.47237000  0.04573000  1.0
  C  C80  1  0.89083000  0.79949000  0.06100000  1.0
  C  C81  1  0.10916000  0.20052000  0.93901000  1.0
  C  C82  1  0.89463000  0.88980000  0.10726000  1.0
  C  C83  1  0.10536000  0.11020000  0.89274000  1.0
  C  C84  1  0.80808000  0.00305000  0.06222000  1.0
  C  C85  1  0.19190000  0.99695000  0.93778000  1.0
  C  C86  1  0.71728000  0.02849000  0.96972000  1.0
  C  C87  1  0.28270000  0.97152000  0.03028000  1.0
  O  O88  1  0.94482000  0.66228000  0.72680000  1.0
  O  O89  1  0.05518000  0.33773000  0.27320000  1.0
  O  O90  1  0.89120000  0.89765000  0.70231000  1.0
  O  O91  1  0.10880000  0.10235000  0.29769000  1.0
  O  O92  1  0.15271000  0.91077000  0.72210000  1.0
  O  O93  1  0.84730000  0.08923000  0.27791000  1.0
  O  O94  1  0.71288000  0.59845000  0.64309000  1.0
  O  O95  1  0.28712000  0.40155000  0.35691000  1.0
  O  O96  1  0.46226000  0.75768000  0.61329000  1.0
  O  O97  1  0.53774000  0.24232000  0.38671000  1.0
  O  O98  1  0.34851000  0.68497000  0.50167000  1.0
  O  O99  1  0.65148000  0.31503000  0.49833000  1.0
  O  O100  1  0.62545000  0.95224000  0.83425000  1.0
  O  O101  1  0.37455000  0.04776000  0.16575000  1.0
  O  O102  1  0.52117000  0.98424000  0.63899000  1.0
  O  O103  1  0.47883000  0.01576000  0.36101000  1.0
  O  O104  1  0.36971000  0.15945000  0.63471000  1.0
  O  O105  1  0.63030000  0.84055000  0.36529000  1.0
  O  O106  1  0.77807000  0.73681000  0.92381000  1.0
  O  O107  1  0.22193000  0.26318000  0.07619000  1.0
  O  O108  1  0.64838000  0.57698000  0.86738000  1.0
  O  O109  1  0.35163000  0.42301000  0.13262000  1.0
  O  O110  1  0.74911000  0.41568000  0.01172000  1.0
  O  O111  1  0.25090000  0.58431000  0.98828000  1.0
  O  O112  1  0.78110000  0.84959000  0.52967000  1.0
  O  O113  1  0.21890000  0.15040000  0.47033000  1.0
  O  O114  1  0.40489000  0.77446000  0.83910000  1.0
  O  O115  1  0.59512000  0.22554000  0.16091000  1.0
  O  O116  1  0.89280000  0.12811000  0.53203000  1.0
  O  O117  1  0.10721000  0.87189000  0.46798000  1.0
