# generated using pymatgen
data_DyH6C7(NO4)2
_symmetry_space_group_name_H-M   'P 1'
_cell_length_a   6.06763000
_cell_length_b   6.73035135
_cell_length_c   13.05020000
_cell_angle_alpha   91.43021703
_cell_angle_beta   98.01440000
_cell_angle_gamma   113.70911322
_symmetry_Int_Tables_number   1
_chemical_formula_structural   DyH6C7(NO4)2
_chemical_formula_sum   'Dy2 H12 C14 N4 O16'
_cell_volume   481.25535744
_cell_formula_units_Z   2
loop_
 _symmetry_equiv_pos_site_id
 _symmetry_equiv_pos_as_xyz
  1  'x, y, z'
loop_
 _atom_site_type_symbol
 _atom_site_label
 _atom_site_symmetry_multiplicity
 _atom_site_fract_x
 _atom_site_fract_y
 _atom_site_fract_z
 _atom_site_occupancy
  Dy  Dy0  1  0.57159000  0.37477000  0.22611000  1.0
  Dy  Dy1  1  0.42842000  0.62523000  0.77389000  1.0
  H  H2  1  0.60779000  0.96369000  0.03682000  1.0
  H  H3  1  0.05503000  0.82234000  0.60641000  1.0
  H  H4  1  0.35125000  0.06419000  0.39053000  1.0
  H  H5  1  0.48294000  0.94090000  0.33574000  1.0
  H  H6  1  0.07871000  0.61772000  0.17645000  1.0
  H  H7  1  0.10558000  0.78772000  0.26556000  1.0
  H  H8  1  0.39221000  0.03631000  0.96318000  1.0
  H  H9  1  0.94497000  0.17766000  0.39359000  1.0
  H  H10  1  0.64874000  0.93581000  0.60947000  1.0
  H  H11  1  0.51707000  0.05911000  0.66427000  1.0
  H  H12  1  0.92131000  0.38228000  0.82356000  1.0
  H  H13  1  0.89441000  0.21228000  0.73444000  1.0
  C  C14  1  0.97471000  0.17466000  0.19554000  1.0
  C  C15  1  0.98846000  0.07524000  0.09382000  1.0
  C  C16  1  0.78191000  0.98084000  0.01760000  1.0
  C  C17  1  0.70207000  0.72240000  0.42946000  1.0
  C  C18  1  0.86023000  0.60588000  0.46801000  1.0
  C  C19  1  0.03064000  0.67815000  0.55936000  1.0
  C  C20  1  0.41180000  0.54962000  0.01495000  1.0
  C  C21  1  0.02529000  0.82534000  0.80446000  1.0
  C  C22  1  0.01153000  0.92476000  0.90617000  1.0
  C  C23  1  0.21809000  0.01916000  0.98240000  1.0
  C  C24  1  0.29793000  0.27760000  0.57054000  1.0
  C  C25  1  0.13978000  0.39412000  0.53199000  1.0
  C  C26  1  0.96936000  0.32185000  0.44064000  1.0
  C  C27  1  0.58821000  0.45038000  0.98505000  1.0
  N  N28  1  0.20895000  0.09521000  0.07669000  1.0
  N  N29  1  0.83175000  0.42864000  0.40847000  1.0
  N  N30  1  0.79104000  0.90479000  0.92331000  1.0
  N  N31  1  0.16825000  0.57136000  0.59153000  1.0
  O  O32  1  0.17389000  0.28667000  0.25422000  1.0
  O  O33  1  0.76476000  0.14534000  0.21426000  1.0
  O  O34  1  0.59691000  0.66998000  0.33449000  1.0
  O  O35  1  0.68363000  0.86194000  0.48931000  1.0
  O  O36  1  0.39450000  0.56350000  0.11031000  1.0
  O  O37  1  0.30276000  0.61169000  0.94159000  1.0
  O  O38  1  0.37812000  0.02033000  0.32123000  1.0
  O  O39  1  0.98245000  0.65931000  0.22008000  1.0
  O  O40  1  0.82611000  0.71332000  0.74578000  1.0
  O  O41  1  0.23525000  0.85466000  0.78574000  1.0
  O  O42  1  0.40309000  0.33002000  0.66551000  1.0
  O  O43  1  0.31637000  0.13806000  0.51068000  1.0
  O  O44  1  0.60550000  0.43650000  0.88969000  1.0
  O  O45  1  0.69723000  0.38830000  0.05841000  1.0
  O  O46  1  0.62187000  0.97967000  0.67877000  1.0
  O  O47  1  0.01755000  0.34069000  0.77992000  1.0
