# generated using pymatgen
data_CoH12C12(N4O)2
_symmetry_space_group_name_H-M   'P 1'
_cell_length_a   6.50998000
_cell_length_b   9.78825000
_cell_length_c   10.70150000
_cell_angle_alpha   68.93300000
_cell_angle_beta   89.99970000
_cell_angle_gamma   89.99960000
_symmetry_Int_Tables_number   1
_chemical_formula_structural   CoH12C12(N4O)2
_chemical_formula_sum   'Co2 H24 C24 N16 O4'
_cell_volume   636.33500458
_cell_formula_units_Z   2
loop_
 _symmetry_equiv_pos_site_id
 _symmetry_equiv_pos_as_xyz
  1  'x, y, z'
loop_
 _atom_site_type_symbol
 _atom_site_label
 _atom_site_symmetry_multiplicity
 _atom_site_fract_x
 _atom_site_fract_y
 _atom_site_fract_z
 _atom_site_occupancy
  Co  Co0  1  0.00000000  0.00000000  0.50000000  1.0
  Co  Co1  1  0.50000000  0.50000000  0.50000000  1.0
  H  H2  1  0.57839000  0.98253000  0.61854000  1.0
  H  H3  1  0.07839000  0.51747000  0.38146000  1.0
  H  H4  1  0.42160000  0.01746000  0.38146000  1.0
  H  H5  1  0.92160000  0.48254000  0.61855000  1.0
  H  H6  1  0.11258000  0.73865000  0.73334000  1.0
  H  H7  1  0.61258000  0.76135000  0.26667000  1.0
  H  H8  1  0.88742000  0.26136000  0.26667000  1.0
  H  H9  1  0.38742000  0.23864000  0.73333000  1.0
  H  H10  1  0.39513000  0.82175000  0.81916000  1.0
  H  H11  1  0.89514000  0.67824000  0.18083000  1.0
  H  H12  1  0.60486000  0.17824000  0.18083000  1.0
  H  H13  1  0.10485000  0.32177000  0.81917000  1.0
  H  H14  1  0.94697000  0.55952000  0.92406000  1.0
  H  H15  1  0.44698000  0.94048000  0.07595000  1.0
  H  H16  1  0.05303000  0.44049000  0.07595000  1.0
  H  H17  1  0.55303000  0.05951000  0.92405000  1.0
  H  H18  1  0.42027000  0.62337000  0.04305000  1.0
  H  H19  1  0.92029000  0.87663000  0.95695000  1.0
  H  H20  1  0.57973000  0.37662000  0.95695000  1.0
  H  H21  1  0.07972000  0.12338000  0.04305000  1.0
  H  H22  1  0.64029000  0.47934000  0.20816000  1.0
  H  H23  1  0.14030000  0.02067000  0.79184000  1.0
  H  H24  1  0.35971000  0.52066000  0.79184000  1.0
  H  H25  1  0.85971000  0.97933000  0.20816000  1.0
  C  C26  1  0.65539000  0.88789000  0.68945000  1.0
  C  C27  1  0.15540000  0.61211000  0.31055000  1.0
  C  C28  1  0.34460000  0.11210000  0.31055000  1.0
  C  C29  1  0.84460000  0.38790000  0.68945000  1.0
  C  C30  1  0.95149000  0.75183000  0.75113000  1.0
  C  C31  1  0.45150000  0.74818000  0.24887000  1.0
  C  C32  1  0.04851000  0.24818000  0.24887000  1.0
  C  C33  1  0.54851000  0.25182000  0.75113000  1.0
  C  C34  1  0.55175000  0.79403000  0.80129000  1.0
  C  C35  1  0.05176000  0.70596000  0.19871000  1.0
  C  C36  1  0.44825000  0.20596000  0.19871000  1.0
  C  C37  1  0.94824000  0.29404000  0.80129000  1.0
  C  C38  1  0.85595000  0.65142000  0.86172000  1.0
  C  C39  1  0.35595000  0.84858000  0.13828000  1.0
  C  C40  1  0.14405000  0.34859000  0.13828000  1.0
  C  C41  1  0.64405000  0.15141000  0.86172000  1.0
  C  C42  1  0.65124000  0.67148000  0.89075000  1.0
  C  C43  1  0.15124000  0.82852000  0.10925000  1.0
  C  C44  1  0.34877000  0.32852000  0.10925000  1.0
  C  C45  1  0.84877000  0.17148000  0.89075000  1.0
  C  C46  1  0.54785000  0.56624000  0.01445000  1.0
  C  C47  1  0.04786000  0.93376000  0.98555000  1.0
  C  C48  1  0.45215000  0.43376000  0.98554000  1.0
  C  C49  1  0.95214000  0.06624000  0.01445000  1.0
  N  N50  1  0.85451000  0.86923000  0.66302000  1.0
  N  N51  1  0.35451000  0.63077000  0.33698000  1.0
  N  N52  1  0.14549000  0.13077000  0.33698000  1.0
  N  N53  1  0.64549000  0.36922000  0.66302000  1.0
  N  N54  1  0.74295000  0.15733000  0.47519000  1.0
  N  N55  1  0.24295000  0.34267000  0.52481000  1.0
  N  N56  1  0.25704000  0.84267000  0.52481000  1.0
  N  N57  1  0.75704000  0.65733000  0.47519000  1.0
  N  N58  1  0.64471000  0.40763000  0.39014000  1.0
  N  N59  1  0.14470000  0.09237000  0.60986000  1.0
  N  N60  1  0.35529000  0.59236000  0.60986000  1.0
  N  N61  1  0.85530000  0.90764000  0.39014000  1.0
  N  N62  1  0.69528000  0.28108000  0.43666000  1.0
  N  N63  1  0.19528000  0.21892000  0.56334000  1.0
  N  N64  1  0.30471000  0.71892000  0.56334000  1.0
  N  N65  1  0.80471000  0.78107000  0.43666000  1.0
  O  O66  1  0.69980000  0.51763000  0.11630000  1.0
  O  O67  1  0.19981000  0.98237000  0.88370000  1.0
  O  O68  1  0.30020000  0.48236000  0.88370000  1.0
  O  O69  1  0.80020000  0.01763000  0.11630000  1.0
