# generated using pymatgen
data_LaH10C8NO10
_symmetry_space_group_name_H-M   'P 1'
_cell_length_a   6.35909000
_cell_length_b   9.82933000
_cell_length_c   10.29620000
_cell_angle_alpha   73.46130000
_cell_angle_beta   88.25100000
_cell_angle_gamma   88.05220000
_symmetry_Int_Tables_number   1
_chemical_formula_structural   LaH10C8NO10
_chemical_formula_sum   'La2 H20 C16 N2 O20'
_cell_volume   616.44167927
_cell_formula_units_Z   2
loop_
 _symmetry_equiv_pos_site_id
 _symmetry_equiv_pos_as_xyz
  1  'x, y, z'
loop_
 _atom_site_type_symbol
 _atom_site_label
 _atom_site_symmetry_multiplicity
 _atom_site_fract_x
 _atom_site_fract_y
 _atom_site_fract_z
 _atom_site_occupancy
  La  La0  1  0.74016000  0.06189000  0.72327000  1.0
  La  La1  1  0.25984000  0.93811000  0.27673000  1.0
  H  H2  1  0.05377000  0.16308000  0.92308000  1.0
  H  H3  1  0.94622000  0.83692000  0.07692000  1.0
  H  H4  1  0.18974000  0.07833000  0.84119000  1.0
  H  H5  1  0.81025000  0.92167000  0.15880000  1.0
  H  H6  1  0.09703000  0.88261000  0.61065000  1.0
  H  H7  1  0.90296000  0.11738000  0.38934000  1.0
  H  H8  1  0.20319000  0.01989000  0.63050000  1.0
  H  H9  1  0.79679000  0.98010000  0.36950000  1.0
  H  H10  1  0.72895000  0.74710000  0.95471000  1.0
  H  H11  1  0.27104000  0.25290000  0.04528000  1.0
  H  H12  1  0.93811000  0.76466000  0.86385000  1.0
  H  H13  1  0.06188000  0.23534000  0.13614000  1.0
  H  H14  1  0.40115000  0.89625000  0.94789000  1.0
  H  H15  1  0.59885000  0.10376000  0.05211000  1.0
  H  H16  1  0.30958000  0.90310000  0.80030000  1.0
  H  H17  1  0.69042000  0.09690000  0.19970000  1.0
  H  H18  1  0.54167000  0.60685000  0.78999000  1.0
  H  H19  1  0.45833000  0.39314000  0.21001000  1.0
  H  H20  1  0.77849000  0.62976000  0.38479000  1.0
  H  H21  1  0.22153000  0.37024000  0.61521000  1.0
  C  C22  1  0.62956000  0.41149000  0.74521000  1.0
  C  C23  1  0.37044000  0.58851000  0.25479000  1.0
  C  C24  1  0.60613000  0.55871000  0.71384000  1.0
  C  C25  1  0.39387000  0.44129000  0.28616000  1.0
  C  C26  1  0.66101000  0.63940000  0.58262000  1.0
  C  C27  1  0.33899000  0.36060000  0.41738000  1.0
  C  C28  1  0.73743000  0.57057000  0.48853000  1.0
  C  C29  1  0.26258000  0.42943000  0.51147000  1.0
  C  C30  1  0.76307000  0.42312000  0.53027000  1.0
  C  C31  1  0.23694000  0.57688000  0.46973000  1.0
  C  C32  1  0.55588000  0.31377000  0.87852000  1.0
  C  C33  1  0.44413000  0.68622000  0.12148000  1.0
  C  C34  1  0.63867000  0.79860000  0.54141000  1.0
  C  C35  1  0.36134000  0.20140000  0.45860000  1.0
  C  C36  1  0.84196000  0.33889000  0.43539000  1.0
  C  C37  1  0.15804000  0.66111000  0.56461000  1.0
  N  N38  1  0.71070000  0.34592000  0.65627000  1.0
  N  N39  1  0.28930000  0.65408000  0.34373000  1.0
  O  O40  1  0.61038000  0.18086000  0.89836000  1.0
  O  O41  1  0.38962000  0.81914000  0.10163000  1.0
  O  O42  1  0.44600000  0.36134000  0.95913000  1.0
  O  O43  1  0.55402000  0.63867000  0.04087000  1.0
  O  O44  1  0.66510000  0.86110000  0.63072000  1.0
  O  O45  1  0.33489000  0.13891000  0.36928000  1.0
  O  O46  1  0.60018000  0.86051000  0.41681000  1.0
  O  O47  1  0.39983000  0.13948000  0.58319000  1.0
  O  O48  1  0.87692000  0.39732000  0.31379000  1.0
  O  O49  1  0.12308000  0.60268000  0.68621000  1.0
  O  O50  1  0.86540000  0.20247000  0.49532000  1.0
  O  O51  1  0.13460000  0.79753000  0.50467000  1.0
  O  O52  1  0.05481000  0.13288000  0.83932000  1.0
  O  O53  1  0.94518000  0.86712000  0.16068000  1.0
  O  O54  1  0.09459000  0.94824000  0.67180000  1.0
  O  O55  1  0.90540000  0.05176000  0.32820000  1.0
  O  O56  1  0.84727000  0.81445000  0.91466000  1.0
  O  O57  1  0.15272000  0.18555000  0.08533000  1.0
  O  O58  1  0.40001000  0.95209000  0.84793000  1.0
  O  O59  1  0.59998000  0.04792000  0.15207000  1.0
