# generated using pymatgen
data_AlH13C18O5
_symmetry_space_group_name_H-M   'P 1'
_cell_length_a   6.60905000
_cell_length_b   23.84340000
_cell_length_c   25.31700000
_cell_angle_alpha   90.03410000
_cell_angle_beta   90.29010000
_cell_angle_gamma   89.98940000
_symmetry_Int_Tables_number   1
_chemical_formula_structural   AlH13C18O5
_chemical_formula_sum   'Al4 H52 C72 O20'
_cell_volume   3989.45722383
_cell_formula_units_Z   4
loop_
 _symmetry_equiv_pos_site_id
 _symmetry_equiv_pos_as_xyz
  1  'x, y, z'
loop_
 _atom_site_type_symbol
 _atom_site_label
 _atom_site_symmetry_multiplicity
 _atom_site_fract_x
 _atom_site_fract_y
 _atom_site_fract_z
 _atom_site_occupancy
  Al  Al0  1  0.88893000  0.99762000  0.49875000  1.0
  Al  Al1  1  0.38811000  0.00281000  0.49824000  1.0
  Al  Al2  1  0.11436000  0.49766000  0.00208000  1.0
  Al  Al3  1  0.61364000  0.50348000  0.00111000  1.0
  H  H4  1  0.12782000  0.06802000  0.52422000  1.0
  H  H5  1  0.62546000  0.92751000  0.51170000  1.0
  H  H6  1  0.37543000  0.43352000  0.97473000  1.0
  H  H7  1  0.87869000  0.56996000  0.98020000  1.0
  H  H8  1  0.52189000  0.37198000  0.09197000  1.0
  H  H9  1  0.48413000  0.29685000  0.16016000  1.0
  H  H10  1  0.13690000  0.39846000  0.14213000  1.0
  H  H11  1  0.36042000  0.10042000  0.35870000  1.0
  H  H12  1  0.97458000  0.13127000  0.40727000  1.0
  H  H13  1  0.00431000  0.20561000  0.33803000  1.0
  H  H14  1  0.03996000  0.63429000  0.91075000  1.0
  H  H15  1  0.99735000  0.70579000  0.83980000  1.0
  H  H16  1  0.63878000  0.59808000  0.85500000  1.0
  H  H17  1  0.86019000  0.90286000  0.64389000  1.0
  H  H18  1  0.46012000  0.86600000  0.58943000  1.0
  H  H19  1  0.49821000  0.79378000  0.66007000  1.0
  H  H20  1  0.62880000  0.64602000  0.10052000  1.0
  H  H21  1  0.58434000  0.72049000  0.16934000  1.0
  H  H22  1  0.05008000  0.57709000  0.14136000  1.0
  H  H23  1  0.45187000  0.92329000  0.35866000  1.0
  H  H24  1  0.87286000  0.85451000  0.39948000  1.0
  H  H25  1  0.91763000  0.77984000  0.33092000  1.0
  H  H26  1  0.54738000  0.36596000  0.91090000  1.0
  H  H27  1  0.50862000  0.29299000  0.84110000  1.0
  H  H28  1  0.14285000  0.40422000  0.85392000  1.0
  H  H29  1  0.36103000  0.09581000  0.64720000  1.0
  H  H30  1  0.95968000  0.13162000  0.59112000  1.0
  H  H31  1  0.00190000  0.20393000  0.66137000  1.0
  H  H32  1  0.26683000  0.35515000  0.22063000  1.0
  H  H33  1  0.08729000  0.32930000  0.26705000  1.0
  H  H34  1  0.19961000  0.28292000  0.22165000  1.0
  H  H35  1  0.28916000  0.21465000  0.27691000  1.0
  H  H36  1  0.40008000  0.16669000  0.23276000  1.0
  H  H37  1  0.22309000  0.14243000  0.28057000  1.0
  H  H38  1  0.76607000  0.63973000  0.77600000  1.0
  H  H39  1  0.58375000  0.66539000  0.72971000  1.0
  H  H40  1  0.70423000  0.71226000  0.77353000  1.0
  H  H41  1  0.79115000  0.78834000  0.72555000  1.0
  H  H42  1  0.90978000  0.83579000  0.76914000  1.0
  H  H43  1  0.72858000  0.86080000  0.72227000  1.0
  H  H44  1  0.85082000  0.61498000  0.21071000  1.0
  H  H45  1  0.00185000  0.63913000  0.26472000  1.0
  H  H46  1  0.88124000  0.68806000  0.22312000  1.0
  H  H47  1  0.62099000  0.81199000  0.27725000  1.0
  H  H48  1  0.50092000  0.86096000  0.23558000  1.0
  H  H49  1  0.65168000  0.88508000  0.28966000  1.0
  H  H50  1  0.21205000  0.28869000  0.77326000  1.0
  H  H51  1  0.09091000  0.33568000  0.72970000  1.0
  H  H52  1  0.27323000  0.36125000  0.77603000  1.0
  H  H53  1  0.23323000  0.13851000  0.72565000  1.0
  H  H54  1  0.41506000  0.16475000  0.77179000  1.0
  H  H55  1  0.29498000  0.21105000  0.72739000  1.0
  C  C56  1  0.63648000  0.06772000  0.57122000  1.0
  C  C57  1  0.65174000  0.06886000  0.42935000  1.0
  C  C58  1  0.14902000  0.93497000  0.42649000  1.0
  C  C59  1  0.13693000  0.92998000  0.56859000  1.0
  C  C60  1  0.86654000  0.43194000  0.92960000  1.0
  C  C61  1  0.84959000  0.43254000  0.07110000  1.0
  C  C62  1  0.35274000  0.56577000  0.07335000  1.0
  C  C63  1  0.36461000  0.57055000  0.93094000  1.0
  C  C64  1  0.83242000  0.38894000  0.11289000  1.0
  C  C65  1  0.64681000  0.36102000  0.11827000  1.0
  C  C66  1  0.62551000  0.31994000  0.15650000  1.0
  C  C67  1  0.78536000  0.30793000  0.19194000  1.0
  C  C68  1  0.97238000  0.33709000  0.18755000  1.0
  C  C69  1  0.99382000  0.37619000  0.14691000  1.0
  C  C70  1  0.75637000  0.26737000  0.23193000  1.0
  C  C71  1  0.72894000  0.23249000  0.26655000  1.0
  C  C72  1  0.70328000  0.19222000  0.30696000  1.0
  C  C73  1  0.51877000  0.16204000  0.31210000  1.0
  C  C74  1  0.50158000  0.12343000  0.35330000  1.0
  C  C75  1  0.66491000  0.11210000  0.38713000  1.0
  C  C76  1  0.84813000  0.14104000  0.38105000  1.0
  C  C77  1  0.86502000  0.18167000  0.34225000  1.0
  C  C78  1  0.34274000  0.61228000  0.88739000  1.0
  C  C79  1  0.16081000  0.64223000  0.88271000  1.0
  C  C80  1  0.13696000  0.68172000  0.84312000  1.0
  C  C81  1  0.29281000  0.69142000  0.80631000  1.0
  C  C82  1  0.47651000  0.66047000  0.80993000  1.0
  C  C83  1  0.49851000  0.62192000  0.85108000  1.0
  C  C84  1  0.26256000  0.73209000  0.76644000  1.0
  C  C85  1  0.23083000  0.76783000  0.73280000  1.0
  C  C86  1  0.20216000  0.80863000  0.69296000  1.0
  C  C87  1  0.01943000  0.83996000  0.68912000  1.0
  C  C88  1  0.99970000  0.87872000  0.64807000  1.0
  C  C89  1  0.15690000  0.88819000  0.61214000  1.0
  C  C90  1  0.33803000  0.85793000  0.61708000  1.0
  C  C91  1  0.35941000  0.81816000  0.65652000  1.0
  C  C92  1  0.34040000  0.60761000  0.11685000  1.0
  C  C93  1  0.49378000  0.64732000  0.12504000  1.0
  C  C94  1  0.46914000  0.68836000  0.16344000  1.0
  C  C95  1  0.29426000  0.68952000  0.19530000  1.0
  C  C96  1  0.14181000  0.64795000  0.18853000  1.0
  C  C97  1  0.16715000  0.60838000  0.14868000  1.0
  C  C98  1  0.26762000  0.73200000  0.23360000  1.0
  C  C99  1  0.23456000  0.76814000  0.26675000  1.0
  C  C100  1  0.20789000  0.81069000  0.30498000  1.0
  C  C101  1  0.36039000  0.85225000  0.31171000  1.0
  C  C102  1  0.33486000  0.89196000  0.35142000  1.0
  C  C103  1  0.16144000  0.89290000  0.38318000  1.0
  C  C104  1  0.00808000  0.85315000  0.37505000  1.0
  C  C105  1  0.03285000  0.81198000  0.33677000  1.0
  C  C106  1  0.84793000  0.38928000  0.88672000  1.0
  C  C107  1  0.66816000  0.35824000  0.88277000  1.0
  C  C108  1  0.64648000  0.31788000  0.84387000  1.0
  C  C109  1  0.80220000  0.30839000  0.80696000  1.0
  C  C110  1  0.98400000  0.34023000  0.80997000  1.0
  C  C111  1  0.00404000  0.37965000  0.85051000  1.0
  C  C112  1  0.77229000  0.26710000  0.76759000  1.0
  C  C113  1  0.73781000  0.23089000  0.73453000  1.0
  C  C114  1  0.70668000  0.18979000  0.69505000  1.0
  C  C115  1  0.52309000  0.15879000  0.69167000  1.0
  C  C116  1  0.50126000  0.11970000  0.65089000  1.0
  C  C117  1  0.65712000  0.10966000  0.61471000  1.0
  C  C118  1  0.83885000  0.13977000  0.61912000  1.0
  C  C119  1  0.86251000  0.17973000  0.65831000  1.0
  C  C120  1  0.14084000  0.32586000  0.22612000  1.0
  C  C121  1  0.34836000  0.17164000  0.27372000  1.0
  C  C122  1  0.64165000  0.66960000  0.77032000  1.0
  C  C123  1  0.85313000  0.83109000  0.72846000  1.0
  C  C124  1  0.95878000  0.64726000  0.22338000  1.0
  C  C125  1  0.54366000  0.85283000  0.27695000  1.0
  C  C126  1  0.14908000  0.33132000  0.77027000  1.0
  C  C127  1  0.35761000  0.16843000  0.73109000  1.0
  O  O128  1  0.80002000  0.05482000  0.54767000  1.0
  O  O129  1  0.48161000  0.06047000  0.45157000  1.0
  O  O130  1  0.31119000  0.96153000  0.43716000  1.0
  O  O131  1  0.96162000  0.94976000  0.55828000  1.0
  O  O132  1  0.98156000  0.94105000  0.45077000  1.0
  O  O133  1  0.29948000  0.94232000  0.54422000  1.0
  O  O134  1  0.46131000  0.04850000  0.55987000  1.0
  O  O135  1  0.81659000  0.04393000  0.44067000  1.0
  O  O136  1  0.13573000  0.03532000  0.50160000  1.0
  O  O137  1  0.63488000  0.96556000  0.49868000  1.0
  O  O138  1  0.04155000  0.45133000  0.94095000  1.0
  O  O139  1  0.68659000  0.45838000  0.05976000  1.0
  O  O140  1  0.51958000  0.56013000  0.04872000  1.0
  O  O141  1  0.20261000  0.55787000  0.95537000  1.0
  O  O142  1  0.19088000  0.53895000  0.06287000  1.0
  O  O143  1  0.54048000  0.55102000  0.94119000  1.0
  O  O144  1  0.70215000  0.44535000  0.95253000  1.0
  O  O145  1  0.02045000  0.44039000  0.04911000  1.0
  O  O146  1  0.36736000  0.46537000  0.99843000  1.0
  O  O147  1  0.86790000  0.53553000  0.00030000  1.0
