# generated using pymatgen
data_MnH17C20(NO)7
_symmetry_space_group_name_H-M   'P 1'
_cell_length_a   7.39469000
_cell_length_b   11.88880000
_cell_length_c   11.88870000
_cell_angle_alpha   91.88630000
_cell_angle_beta   93.87330000
_cell_angle_gamma   93.87380000
_symmetry_Int_Tables_number   1
_chemical_formula_structural   MnH17C20(NO)7
_chemical_formula_sum   'Mn2 H34 C40 N14 O14'
_cell_volume   1039.67548868
_cell_formula_units_Z   2
loop_
 _symmetry_equiv_pos_site_id
 _symmetry_equiv_pos_as_xyz
  1  'x, y, z'
loop_
 _atom_site_type_symbol
 _atom_site_label
 _atom_site_symmetry_multiplicity
 _atom_site_fract_x
 _atom_site_fract_y
 _atom_site_fract_z
 _atom_site_occupancy
  Mn  Mn0  1  0.15886000  0.95132000  0.57074000  1.0
  Mn  Mn1  1  0.65891000  0.57078000  0.95136000  1.0
  H  H2  1  0.16729000  0.28559000  0.36362000  1.0
  H  H3  1  0.66724000  0.36356000  0.28558000  1.0
  H  H4  1  0.39451000  0.32298000  0.70612000  1.0
  H  H5  1  0.89453000  0.70607000  0.32292000  1.0
  H  H6  1  0.80675000  0.19623000  0.22738000  1.0
  H  H7  1  0.30676000  0.22739000  0.19623000  1.0
  H  H8  1  0.73849000  0.82075000  0.61154000  1.0
  H  H9  1  0.23857000  0.61155000  0.82075000  1.0
  H  H10  1  0.62405000  0.89551000  0.93336000  1.0
  H  H11  1  0.12401000  0.93336000  0.89550000  1.0
  H  H12  1  0.40599000  0.88258000  0.72628000  1.0
  H  H13  1  0.90609000  0.72630000  0.88258000  1.0
  H  H14  1  0.23297000  0.78956000  0.69540000  1.0
  H  H15  1  0.73304000  0.69544000  0.78958000  1.0
  H  H16  1  0.73987000  0.24789000  0.02963000  1.0
  H  H17  1  0.23987000  0.02962000  0.24788000  1.0
  H  H18  1  0.48022000  0.09766000  0.82615000  1.0
  H  H19  1  0.98023000  0.82614000  0.09766000  1.0
  H  H20  1  0.67112000  0.19691000  0.83647000  1.0
  H  H21  1  0.17114000  0.83649000  0.19692000  1.0
  H  H22  1  0.69200000  0.84559000  0.13048000  1.0
  H  H23  1  0.19198000  0.13049000  0.84559000  1.0
  H  H24  1  0.45103000  0.60103000  0.48554000  1.0
  H  H25  1  0.95100000  0.48551000  0.60099000  1.0
  H  H26  1  0.56098000  0.07682000  0.47447000  1.0
  H  H27  1  0.06097000  0.47446000  0.07684000  1.0
  H  H28  1  0.30901000  0.75385000  0.39132000  1.0
  H  H29  1  0.80902000  0.39136000  0.75386000  1.0
  H  H30  1  0.88477000  0.91863000  0.31946000  1.0
  H  H31  1  0.38477000  0.31947000  0.91863000  1.0
  H  H32  1  0.84697000  0.05738000  0.36693000  1.0
  H  H33  1  0.34697000  0.36693000  0.05739000  1.0
  H  H34  1  0.95342000  0.14288000  0.73288000  1.0
  H  H35  1  0.45344000  0.73289000  0.14291000  1.0
  C  C36  1  0.43105000  0.46998000  0.60604000  1.0
  C  C37  1  0.93103000  0.60599000  0.46993000  1.0
  C  C38  1  0.22330000  0.16917000  0.55163000  1.0
  C  C39  1  0.72323000  0.55159000  0.16914000  1.0
  C  C40  1  0.67400000  0.07566000  0.96775000  1.0
  C  C41  1  0.17401000  0.96775000  0.07565000  1.0
  C  C42  1  0.24182000  0.33657000  0.43133000  1.0
  C  C43  1  0.74175000  0.43127000  0.33655000  1.0
  C  C44  1  0.36951000  0.35837000  0.62382000  1.0
  C  C45  1  0.86950000  0.62376000  0.35831000  1.0
  C  C46  1  0.76493000  0.13041000  0.16299000  1.0
  C  C47  1  0.26492000  0.16299000  0.13041000  1.0
  C  C48  1  0.27773000  0.29101000  0.53630000  1.0
  C  C49  1  0.77767000  0.53624000  0.29100000  1.0
  C  C50  1  0.75736000  0.90206000  0.65644000  1.0
  C  C51  1  0.25743000  0.65646000  0.90206000  1.0
  C  C52  1  0.66028000  0.96246000  0.99742000  1.0
  C  C53  1  0.16026000  0.99742000  0.96245000  1.0
  C  C54  1  0.30359000  0.44793000  0.41510000  1.0
  C  C55  1  0.80356000  0.41505000  0.44791000  1.0
  C  C56  1  0.72794000  0.15919000  0.05120000  1.0
  C  C57  1  0.22794000  0.05120000  0.15918000  1.0
  C  C58  1  0.62712000  0.10834000  0.84794000  1.0
  C  C59  1  0.12713000  0.84795000  0.10835000  1.0
  C  C60  1  0.74987000  0.01760000  0.19292000  1.0
  C  C61  1  0.24985000  0.19293000  0.01760000  1.0
  C  C62  1  0.53369000  0.54127000  0.69976000  1.0
  C  C63  1  0.03370000  0.69973000  0.54121000  1.0
  C  C64  1  0.69911000  0.93410000  0.10867000  1.0
  C  C65  1  0.19908000  0.10868000  0.93410000  1.0
  C  C66  1  0.39980000  0.51526000  0.50018000  1.0
  C  C67  1  0.89975000  0.50014000  0.51522000  1.0
  C  C68  1  0.52574000  0.99223000  0.43926000  1.0
  C  C69  1  0.02575000  0.43926000  0.99225000  1.0
  C  C70  1  0.40230000  0.82825000  0.39494000  1.0
  C  C71  1  0.90230000  0.39496000  0.82825000  1.0
  C  C72  1  0.78888000  0.98522000  0.31359000  1.0
  C  C73  1  0.28888000  0.31360000  0.98523000  1.0
  C  C74  1  0.86967000  0.06480000  0.71669000  1.0
  C  C75  1  0.36972000  0.71671000  0.06482000  1.0
  N  N76  1  0.26447000  0.49397000  0.30495000  1.0
  N  N77  1  0.76448000  0.30493000  0.49396000  1.0
  N  N78  1  0.71186000  0.04159000  0.76342000  1.0
  N  N79  1  0.21189000  0.76343000  0.04161000  1.0
  N  N80  1  0.54777000  0.83570000  0.33516000  1.0
  N  N81  1  0.04777000  0.33518000  0.83570000  1.0
  N  N82  1  0.90254000  0.97791000  0.64825000  1.0
  N  N83  1  0.40262000  0.64827000  0.97793000  1.0
  N  N84  1  0.63828000  0.93788000  0.72563000  1.0
  N  N85  1  0.13835000  0.72564000  0.93788000  1.0
  N  N86  1  0.62467000  0.94083000  0.36463000  1.0
  N  N87  1  0.12468000  0.36464000  0.94084000  1.0
  N  N88  1  0.38270000  0.92283000  0.46028000  1.0
  N  N89  1  0.88271000  0.46029000  0.92285000  1.0
  O  O90  1  0.28335000  0.12224000  0.64065000  1.0
  O  O91  1  0.78334000  0.64063000  0.12221000  1.0
  O  O92  1  0.61403000  0.63354000  0.67588000  1.0
  O  O93  1  0.11403000  0.67584000  0.63349000  1.0
  O  O94  1  0.18044000  0.43021000  0.23076000  1.0
  O  O95  1  0.68050000  0.23068000  0.43023000  1.0
  O  O96  1  0.53099000  0.49992000  0.79838000  1.0
  O  O97  1  0.03101000  0.79835000  0.49985000  1.0
  O  O98  1  0.27125000  0.87082000  0.71604000  1.0
  O  O99  1  0.77134000  0.71607000  0.87083000  1.0
  O  O100  1  0.31450000  0.59398000  0.28963000  1.0
  O  O101  1  0.81450000  0.28962000  0.59399000  1.0
  O  O102  1  0.12403000  0.11449000  0.47356000  1.0
  O  O103  1  0.62394000  0.47354000  0.11446000  1.0
