# generated using pymatgen
data_CuH15C16IN5
_symmetry_space_group_name_H-M   'P 1'
_cell_length_a   8.47804000
_cell_length_b   9.39881000
_cell_length_c   10.41900000
_cell_angle_alpha   85.88920000
_cell_angle_beta   77.22250000
_cell_angle_gamma   72.66850000
_symmetry_Int_Tables_number   1
_chemical_formula_structural   CuH15C16IN5
_chemical_formula_sum   'Cu2 H30 C32 I2 N10'
_cell_volume   772.88687075
_cell_formula_units_Z   2
loop_
 _symmetry_equiv_pos_site_id
 _symmetry_equiv_pos_as_xyz
  1  'x, y, z'
loop_
 _atom_site_type_symbol
 _atom_site_label
 _atom_site_symmetry_multiplicity
 _atom_site_fract_x
 _atom_site_fract_y
 _atom_site_fract_z
 _atom_site_occupancy
  Cu  Cu0  1  0.08302000  0.04903000  0.88260000  1.0
  Cu  Cu1  1  0.91699000  0.95097000  0.11740000  1.0
  H  H2  1  0.48894000  0.95061000  0.81282000  1.0
  H  H3  1  0.51108000  0.04938000  0.18718000  1.0
  H  H4  1  0.60050000  0.69229000  0.37743000  1.0
  H  H5  1  0.39949000  0.30771000  0.62257000  1.0
  H  H6  1  0.35198000  0.68244000  0.29048000  1.0
  H  H7  1  0.64800000  0.31756000  0.70952000  1.0
  H  H8  1  0.06370000  0.79089000  0.41034000  1.0
  H  H9  1  0.93627000  0.20912000  0.58968000  1.0
  H  H10  1  0.00458000  0.91350000  0.63208000  1.0
  H  H11  1  0.99541000  0.08650000  0.36794000  1.0
  H  H12  1  0.75421000  0.83319000  0.48129000  1.0
  H  H13  1  0.24578000  0.16680000  0.51870000  1.0
  H  H14  1  0.75738000  0.89340000  0.63780000  1.0
  H  H15  1  0.24262000  0.10659000  0.36218000  1.0
  H  H16  1  0.95782000  0.64362000  0.58335000  1.0
  H  H17  1  0.04218000  0.35637000  0.41664000  1.0
  H  H18  1  0.79314000  0.56951000  0.56889000  1.0
  H  H19  1  0.20686000  0.43048000  0.43111000  1.0
  H  H20  1  0.67155000  0.59790000  0.80491000  1.0
  H  H21  1  0.32845000  0.40210000  0.19508000  1.0
  H  H22  1  0.78787000  0.72200000  0.82206000  1.0
  H  H23  1  0.21214000  0.27800000  0.17794000  1.0
  H  H24  1  0.37987000  0.19437000  0.90891000  1.0
  H  H25  1  0.62013000  0.80563000  0.09109000  1.0
  H  H26  1  0.50927000  0.39485000  0.92479000  1.0
  H  H27  1  0.49073000  0.60515000  0.07522000  1.0
  H  H28  1  0.35462000  0.66228000  0.89370000  1.0
  H  H29  1  0.64538000  0.33773000  0.10631000  1.0
  H  H30  1  0.07381000  0.73504000  0.83632000  1.0
  H  H31  1  0.92619000  0.26497000  0.16369000  1.0
  C  C32  1  0.43857000  0.91423000  0.73775000  1.0
  C  C33  1  0.56144000  0.08576000  0.26225000  1.0
  C  C34  1  0.43715000  0.81004000  0.55375000  1.0
  C  C35  1  0.56284000  0.18996000  0.44626000  1.0
  C  C36  1  0.47210000  0.73914000  0.43304000  1.0
  C  C37  1  0.52788000  0.26086000  0.56696000  1.0
  C  C38  1  0.33323000  0.73296000  0.38545000  1.0
  C  C39  1  0.66675000  0.26705000  0.61456000  1.0
  C  C40  1  0.16652000  0.79488000  0.45561000  1.0
  C  C41  1  0.83346000  0.20512000  0.54440000  1.0
  C  C42  1  0.13241000  0.86339000  0.57684000  1.0
  C  C43  1  0.86758000  0.13661000  0.42317000  1.0
  C  C44  1  0.27019000  0.87024000  0.62634000  1.0
  C  C45  1  0.72981000  0.12975000  0.37366000  1.0
  C  C46  1  0.72383000  0.81116000  0.58754000  1.0
  C  C47  1  0.27617000  0.18884000  0.41245000  1.0
  C  C48  1  0.82312000  0.65339000  0.62011000  1.0
  C  C49  1  0.17688000  0.34660000  0.37988000  1.0
  C  C50  1  0.79176000  0.62352000  0.76869000  1.0
  C  C51  1  0.20824000  0.37648000  0.23131000  1.0
  C  C52  1  0.15518000  0.35152000  0.85769000  1.0
  C  C53  1  0.84483000  0.64848000  0.14231000  1.0
  C  C54  1  0.31472000  0.31014000  0.89062000  1.0
  C  C55  1  0.68529000  0.68986000  0.10938000  1.0
  C  C56  1  0.38476000  0.42391000  0.90040000  1.0
  C  C57  1  0.61525000  0.57609000  0.09961000  1.0
  C  C58  1  0.29878000  0.57521000  0.88036000  1.0
  C  C59  1  0.70122000  0.42480000  0.11964000  1.0
  C  C60  1  0.14137000  0.61800000  0.84731000  1.0
  C  C61  1  0.85863000  0.38200000  0.15270000  1.0
  C  C62  1  0.07261000  0.50261000  0.83488000  1.0
  C  C63  1  0.92740000  0.49740000  0.16511000  1.0
  I  I64  1  0.77889000  0.02007000  0.90497000  1.0
  I  I65  1  0.22112000  0.97992000  0.09503000  1.0
  N  N66  1  0.27566000  0.93333000  0.74180000  1.0
  N  N67  1  0.72435000  0.06667000  0.25821000  1.0
  N  N68  1  0.54095000  0.84125000  0.62691000  1.0
  N  N69  1  0.45905000  0.15874000  0.37309000  1.0
  N  N70  1  0.92361000  0.49974000  0.80601000  1.0
  N  N71  1  0.07640000  0.50026000  0.19399000  1.0
  N  N72  1  0.91270000  0.35883000  0.81033000  1.0
  N  N73  1  0.08730000  0.64117000  0.18967000  1.0
  N  N74  1  0.05009000  0.26879000  0.84242000  1.0
  N  N75  1  0.94992000  0.73121000  0.15757000  1.0
