# generated using pymatgen
data_CdH12C14(N5O3)2
_symmetry_space_group_name_H-M   'P 1'
_cell_length_a   8.42331000
_cell_length_b   8.91265000
_cell_length_c   11.92400000
_cell_angle_alpha   74.59900000
_cell_angle_beta   90.00430000
_cell_angle_gamma   89.99380000
_symmetry_Int_Tables_number   1
_chemical_formula_structural   CdH12C14(N5O3)2
_chemical_formula_sum   'Cd2 H24 C28 N20 O12'
_cell_volume   863.03721492
_cell_formula_units_Z   2
loop_
 _symmetry_equiv_pos_site_id
 _symmetry_equiv_pos_as_xyz
  1  'x, y, z'
loop_
 _atom_site_type_symbol
 _atom_site_label
 _atom_site_symmetry_multiplicity
 _atom_site_fract_x
 _atom_site_fract_y
 _atom_site_fract_z
 _atom_site_occupancy
  Cd  Cd0  1  0.50000000  0.00000000  0.99999000  1.0
  Cd  Cd1  1  0.99999000  0.50000000  0.00000000  1.0
  H  H2  1  0.08471000  0.06235000  0.22278000  1.0
  H  H3  1  0.58471000  0.43770000  0.77729000  1.0
  H  H4  1  0.91529000  0.93765000  0.77723000  1.0
  H  H5  1  0.41529000  0.56229000  0.22273000  1.0
  H  H6  1  0.05489000  0.17090000  0.39397000  1.0
  H  H7  1  0.55497000  0.32915000  0.60609000  1.0
  H  H8  1  0.94512000  0.82908000  0.60605000  1.0
  H  H9  1  0.44506000  0.67086000  0.39391000  1.0
  H  H10  1  0.56054000  0.04133000  0.42022000  1.0
  H  H11  1  0.06058000  0.45858000  0.57978000  1.0
  H  H12  1  0.43944000  0.95867000  0.57978000  1.0
  H  H13  1  0.93944000  0.54142000  0.42021000  1.0
  H  H14  1  0.59079000  0.93017000  0.25229000  1.0
  H  H15  1  0.09073000  0.56973000  0.74771000  1.0
  H  H16  1  0.40920000  0.06985000  0.74769000  1.0
  H  H17  1  0.90928000  0.43024000  0.25229000  1.0
  H  H18  1  0.22209000  0.84359000  0.14769000  1.0
  H  H19  1  0.72202000  0.65645000  0.85229000  1.0
  H  H20  1  0.77791000  0.15642000  0.85231000  1.0
  H  H21  1  0.27796000  0.34355000  0.14771000  1.0
  H  H22  1  0.31191000  0.89448000  0.24761000  1.0
  H  H23  1  0.81187000  0.60560000  0.75237000  1.0
  H  H24  1  0.68809000  0.10552000  0.75239000  1.0
  H  H25  1  0.18814000  0.39440000  0.24763000  1.0
  C  C26  1  0.85597000  0.89585000  0.14211000  1.0
  C  C27  1  0.35592000  0.60413000  0.85791000  1.0
  C  C28  1  0.14402000  0.10415000  0.85788000  1.0
  C  C29  1  0.64407000  0.39587000  0.14210000  1.0
  C  C30  1  0.84125000  0.98190000  0.22999000  1.0
  C  C31  1  0.34121000  0.51809000  0.77002000  1.0
  C  C32  1  0.15876000  0.01810000  0.77000000  1.0
  C  C33  1  0.65880000  0.48192000  0.22998000  1.0
  C  C34  1  0.97132000  0.05433000  0.26773000  1.0
  C  C35  1  0.47132000  0.44566000  0.73232000  1.0
  C  C36  1  0.02867000  0.94567000  0.73226000  1.0
  C  C37  1  0.52868000  0.55432000  0.26769000  1.0
  C  C38  1  0.95521000  0.11629000  0.36238000  1.0
  C  C39  1  0.45528000  0.38375000  0.63765000  1.0
  C  C40  1  0.04478000  0.88371000  0.63763000  1.0
  C  C41  1  0.54474000  0.61626000  0.36235000  1.0
  C  C42  1  0.80886000  0.10381000  0.41961000  1.0
  C  C43  1  0.30891000  0.39616000  0.58043000  1.0
  C  C44  1  0.19113000  0.89618000  0.58041000  1.0
  C  C45  1  0.69111000  0.60384000  0.41956000  1.0
  C  C46  1  0.67509000  0.04282000  0.37851000  1.0
  C  C47  1  0.17512000  0.45710000  0.62150000  1.0
  C  C48  1  0.32489000  0.95718000  0.62147000  1.0
  C  C49  1  0.82490000  0.54288000  0.37850000  1.0
  C  C50  1  0.69233000  0.98308000  0.28320000  1.0
  C  C51  1  0.19229000  0.51685000  0.71681000  1.0
  C  C52  1  0.30767000  0.01693000  0.71678000  1.0
  C  C53  1  0.80772000  0.48312000  0.28320000  1.0
  N  N54  1  0.73349000  0.87450000  0.07415000  1.0
  N  N55  1  0.23346000  0.62550000  0.92588000  1.0
  N  N56  1  0.26650000  0.12551000  0.92584000  1.0
  N  N57  1  0.76653000  0.37449000  0.07413000  1.0
  N  N58  1  0.78377000  0.77369000  0.01714000  1.0
  N  N59  1  0.28375000  0.72631000  0.98290000  1.0
  N  N60  1  0.21622000  0.22632000  0.98287000  1.0
  N  N61  1  0.71625000  0.27370000  0.01710000  1.0
  N  N62  1  0.93118000  0.73441000  0.04995000  1.0
  N  N63  1  0.43114000  0.76558000  0.95007000  1.0
  N  N64  1  0.06882000  0.26560000  0.95005000  1.0
  N  N65  1  0.56886000  0.23443000  0.04992000  1.0
  N  N66  1  0.98181000  0.80974000  0.12730000  1.0
  N  N67  1  0.48174000  0.69025000  0.87273000  1.0
  N  N68  1  0.01819000  0.19028000  0.87270000  1.0
  N  N69  1  0.51826000  0.30973000  0.12728000  1.0
  N  N70  1  0.79703000  0.14958000  0.52734000  1.0
  N  N71  1  0.29715000  0.35042000  0.47268000  1.0
  N  N72  1  0.20295000  0.85040000  0.47268000  1.0
  N  N73  1  0.70288000  0.64958000  0.52731000  1.0
  O  O74  1  0.89974000  0.23575000  0.55110000  1.0
  O  O75  1  0.39995000  0.26440000  0.44889000  1.0
  O  O76  1  0.10025000  0.76426000  0.44890000  1.0
  O  O77  1  0.60008000  0.73561000  0.55112000  1.0
  O  O78  1  0.68383000  0.09451000  0.59417000  1.0
  O  O79  1  0.18388000  0.40536000  0.40583000  1.0
  O  O80  1  0.31614000  0.90545000  0.40582000  1.0
  O  O81  1  0.81613000  0.59464000  0.59417000  1.0
  O  O82  1  0.32481000  0.88262000  0.16857000  1.0
  O  O83  1  0.82478000  0.61747000  0.83141000  1.0
  O  O84  1  0.67519000  0.11739000  0.83143000  1.0
  O  O85  1  0.17521000  0.38253000  0.16859000  1.0
