# generated using pymatgen
data_ZnH8C10(SeN3)2
_symmetry_space_group_name_H-M   'P 1'
_cell_length_a   8.94672000
_cell_length_b   9.24036000
_cell_length_c   9.44633000
_cell_angle_alpha   60.73500000
_cell_angle_beta   89.99950000
_cell_angle_gamma   89.99970000
_symmetry_Int_Tables_number   1
_chemical_formula_structural   ZnH8C10(SeN3)2
_chemical_formula_sum   'Zn2 H16 C20 Se4 N12'
_cell_volume   681.26425858
_cell_formula_units_Z   2
loop_
 _symmetry_equiv_pos_site_id
 _symmetry_equiv_pos_as_xyz
  1  'x, y, z'
loop_
 _atom_site_type_symbol
 _atom_site_label
 _atom_site_symmetry_multiplicity
 _atom_site_fract_x
 _atom_site_fract_y
 _atom_site_fract_z
 _atom_site_occupancy
  Zn  Zn0  1  0.50000000  0.50000000  0.00000000  1.0
  Zn  Zn1  1  0.00000000  0.00000000  0.00000000  1.0
  H  H2  1  0.74997000  0.20870000  0.08253000  1.0
  H  H3  1  0.24998000  0.29130000  0.91747000  1.0
  H  H4  1  0.25002000  0.79130000  0.91747000  1.0
  H  H5  1  0.75003000  0.70870000  0.08253000  1.0
  H  H6  1  0.55125000  0.55494000  0.65204000  1.0
  H  H7  1  0.05125000  0.94506000  0.34796000  1.0
  H  H8  1  0.94902000  0.29218000  0.65236000  1.0
  H  H9  1  0.44902000  0.20781000  0.34764000  1.0
  H  H10  1  0.44876000  0.44506000  0.34795000  1.0
  H  H11  1  0.94876000  0.05494000  0.65204000  1.0
  H  H12  1  0.05098000  0.70781000  0.34765000  1.0
  H  H13  1  0.55098000  0.79218000  0.65236000  1.0
  H  H14  1  0.75014000  0.50337000  0.49217000  1.0
  H  H15  1  0.25014000  0.99663000  0.50783000  1.0
  H  H16  1  0.24987000  0.49663000  0.50783000  1.0
  H  H17  1  0.74986000  0.00337000  0.49217000  1.0
  C  C18  1  0.76502000  0.37783000  0.24447000  1.0
  C  C19  1  0.26502000  0.12217000  0.75552000  1.0
  C  C20  1  0.73497000  0.87784000  0.24448000  1.0
  C  C21  1  0.23498000  0.62217000  0.75553000  1.0
  C  C22  1  0.75001000  0.27465000  0.95041000  1.0
  C  C23  1  0.25002000  0.22535000  0.04960000  1.0
  C  C24  1  0.24998000  0.72535000  0.04959000  1.0
  C  C25  1  0.74998000  0.77465000  0.95040000  1.0
  C  C26  1  0.64211000  0.46756000  0.71205000  1.0
  C  C27  1  0.14210000  0.03244000  0.28795000  1.0
  C  C28  1  0.85807000  0.31968000  0.71222000  1.0
  C  C29  1  0.35807000  0.18031000  0.28779000  1.0
  C  C30  1  0.35789000  0.53244000  0.28795000  1.0
  C  C31  1  0.85790000  0.96756000  0.71205000  1.0
  C  C32  1  0.14193000  0.68032000  0.28779000  1.0
  C  C33  1  0.64193000  0.81968000  0.71222000  1.0
  C  C34  1  0.75009000  0.43746000  0.62423000  1.0
  C  C35  1  0.25010000  0.06254000  0.37577000  1.0
  C  C36  1  0.24991000  0.56254000  0.37577000  1.0
  C  C37  1  0.74991000  0.93746000  0.62423000  1.0
  Se  Se38  1  0.95270000  0.34388000  0.31284000  1.0
  Se  Se39  1  0.45270000  0.15612000  0.68716000  1.0
  Se  Se40  1  0.54730000  0.84388000  0.31285000  1.0
  Se  Se41  1  0.04730000  0.65612000  0.68716000  1.0
  N  N42  1  0.63974000  0.40178000  0.19640000  1.0
  N  N43  1  0.13974000  0.09823000  0.80360000  1.0
  N  N44  1  0.86027000  0.90178000  0.19640000  1.0
  N  N45  1  0.36027000  0.59822000  0.80360000  1.0
  N  N46  1  0.64623000  0.39251000  0.87531000  1.0
  N  N47  1  0.14624000  0.10749000  0.12468000  1.0
  N  N48  1  0.85387000  0.23172000  0.87547000  1.0
  N  N49  1  0.35387000  0.26828000  0.12454000  1.0
  N  N50  1  0.35377000  0.60749000  0.12468000  1.0
  N  N51  1  0.85377000  0.89251000  0.87531000  1.0
  N  N52  1  0.14613000  0.76828000  0.12453000  1.0
  N  N53  1  0.64613000  0.73171000  0.87547000  1.0
