# generated using pymatgen
data_Zn4H25C45N2O17
_symmetry_space_group_name_H-M   'P 1'
_cell_length_a   18.23680000
_cell_length_b   18.28290000
_cell_length_c   18.26300000
_cell_angle_alpha   60.33730000
_cell_angle_beta   60.34850000
_cell_angle_gamma   60.13750000
_symmetry_Int_Tables_number   1
_chemical_formula_structural   Zn4H25C45N2O17
_chemical_formula_sum   'Zn8 H50 C90 N4 O34'
_cell_volume   4332.47742742
_cell_formula_units_Z   2
loop_
 _symmetry_equiv_pos_site_id
 _symmetry_equiv_pos_as_xyz
  1  'x, y, z'
loop_
 _atom_site_type_symbol
 _atom_site_label
 _atom_site_symmetry_multiplicity
 _atom_site_fract_x
 _atom_site_fract_y
 _atom_site_fract_z
 _atom_site_occupancy
  Zn  Zn0  1  0.20261000  0.38060000  0.20569000  1.0
  Zn  Zn1  1  0.79739000  0.61940000  0.79431000  1.0
  Zn  Zn2  1  0.37858000  0.20698000  0.20732000  1.0
  Zn  Zn3  1  0.62142000  0.79302000  0.79268000  1.0
  Zn  Zn4  1  0.20089000  0.20475000  0.21166000  1.0
  Zn  Zn5  1  0.79911000  0.79525000  0.78834000  1.0
  Zn  Zn6  1  0.20260000  0.20824000  0.38341000  1.0
  Zn  Zn7  1  0.79740000  0.79176000  0.61658000  1.0
  H  H8  1  0.85890000  0.59758000  0.46927000  1.0
  H  H9  1  0.14110000  0.40242000  0.53073000  1.0
  H  H10  1  0.96647000  0.40122000  0.65670000  1.0
  H  H11  1  0.03353000  0.59879000  0.34330000  1.0
  H  H12  1  0.85728000  0.47228000  0.07576000  1.0
  H  H13  1  0.14272000  0.52772000  0.92424000  1.0
  H  H14  1  0.92677000  0.52842000  0.14204000  1.0
  H  H15  1  0.07323000  0.47159000  0.85796000  1.0
  H  H16  1  0.97300000  0.65649000  0.97075000  1.0
  H  H17  1  0.02700000  0.34352000  0.02924000  1.0
  H  H18  1  0.06333000  0.87444000  0.61511000  1.0
  H  H19  1  0.93667000  0.12557000  0.38489000  1.0
  H  H20  1  0.99574000  0.05762000  0.59905000  1.0
  H  H21  1  0.00426000  0.94239000  0.40095000  1.0
  H  H22  1  0.84414000  0.07849000  0.57280000  1.0
  H  H23  1  0.15586000  0.92152000  0.42720000  1.0
  H  H24  1  0.60663000  0.88255000  0.15001000  1.0
  H  H25  1  0.39340000  0.11748000  0.84998000  1.0
  H  H26  1  0.45658000  0.89456000  0.26781000  1.0
  H  H27  1  0.54348000  0.10539000  0.73222000  1.0
  H  H28  1  0.41835000  0.93995000  0.39321000  1.0
  H  H29  1  0.58170000  0.06000000  0.60682000  1.0
  H  H30  1  0.67950000  0.96209000  0.28444000  1.0
  H  H31  1  0.32049000  0.03801000  0.71552000  1.0
  H  H32  1  0.71826000  0.91610000  0.15892000  1.0
  H  H33  1  0.28174000  0.08401000  0.84102000  1.0
  H  H34  1  0.64056000  0.87937000  0.45768000  1.0
  H  H35  1  0.35945000  0.12065000  0.54232000  1.0
  H  H36  1  0.07976000  0.97426000  0.23339000  1.0
  H  H37  1  0.92026000  0.02569000  0.76663000  1.0
  H  H38  1  0.20484000  0.86661000  0.29489000  1.0
  H  H39  1  0.79518000  0.13339000  0.70514000  1.0
  H  H40  1  0.35671000  0.88027000  0.21022000  1.0
  H  H41  1  0.64330000  0.11976000  0.78981000  1.0
  H  H42  1  0.25960000  0.10717000  0.00235000  1.0
  H  H43  1  0.74041000  0.89277000  0.99764000  1.0
  H  H44  1  0.10791000  0.09412000  0.08618000  1.0
  H  H45  1  0.89211000  0.90580000  0.91381000  1.0
  H  H46  1  0.44492000  0.90982000  0.98637000  1.0
  H  H47  1  0.55508000  0.09018000  0.01363000  1.0
  H  H48  1  0.05472000  0.72632000  0.15791000  1.0
  H  H49  1  0.94528000  0.27368000  0.84208000  1.0
  H  H50  1  0.27610000  0.60987000  0.96078000  1.0
  H  H51  1  0.72390000  0.39014000  0.03921000  1.0
  H  H52  1  0.31863000  0.59110000  0.18290000  1.0
  H  H53  1  0.68137000  0.40890000  0.81709000  1.0
  H  H54  1  0.15812000  0.67566000  0.24054000  1.0
  H  H55  1  0.84188000  0.32434000  0.75946000  1.0
  H  H56  1  0.43873000  0.66409000  0.96212000  1.0
  H  H57  1  0.56127000  0.33591000  0.03788000  1.0
  C  C58  1  0.38414000  0.10936000  0.39266000  1.0
  C  C59  1  0.61586000  0.89065000  0.60734000  1.0
  C  C60  1  0.11041000  0.38769000  0.10881000  1.0
  C  C61  1  0.88959000  0.61231000  0.89119000  1.0
  C  C62  1  0.38619000  0.38984000  0.11426000  1.0
  C  C63  1  0.61381000  0.61015000  0.88574000  1.0
  C  C64  1  0.10232000  0.11581000  0.39637000  1.0
  C  C65  1  0.89767000  0.88419000  0.60363000  1.0
  C  C66  1  0.38644000  0.10949000  0.11460000  1.0
  C  C67  1  0.61356000  0.89051000  0.88540000  1.0
  C  C68  1  0.11043000  0.39331000  0.38625000  1.0
  C  C69  1  0.88957000  0.60670000  0.61375000  1.0
  C  C70  1  0.95811000  0.44966000  0.51358000  1.0
  C  C71  1  0.04189000  0.55034000  0.48641000  1.0
  C  C72  1  0.92254000  0.55472000  0.48181000  1.0
  C  C73  1  0.07746000  0.44529000  0.51819000  1.0
  C  C74  1  0.94682000  0.54876000  0.55644000  1.0
  C  C75  1  0.05318000  0.45124000  0.44356000  1.0
  C  C76  1  0.98210000  0.44451000  0.58723000  1.0
  C  C77  1  0.01790000  0.55549000  0.41277000  1.0
  C  C78  1  0.95854000  0.51661000  0.07823000  1.0
  C  C79  1  0.04146000  0.48340000  0.92177000  1.0
  C  C80  1  0.92119000  0.48414000  0.04282000  1.0
  C  C81  1  0.07881000  0.51586000  0.95718000  1.0
  C  C82  1  0.94677000  0.55594000  0.94836000  1.0
  C  C83  1  0.05323000  0.44406000  0.05164000  1.0
  C  C84  1  0.98486000  0.58698000  0.98404000  1.0
  C  C85  1  0.01514000  0.41302000  0.01596000  1.0
  C  C86  1  0.99727000  0.03169000  0.55555000  1.0
  C  C87  1  0.00273000  0.96832000  0.44445000  1.0
  C  C88  1  0.03584000  0.93098000  0.56350000  1.0
  C  C89  1  0.96415000  0.06903000  0.43650000  1.0
  C  C90  1  0.95281000  0.94306000  0.54726000  1.0
  C  C91  1  0.04719000  0.05694000  0.45275000  1.0
  C  C92  1  0.91407000  0.04467000  0.53966000  1.0
  C  C93  1  0.08593000  0.95534000  0.46035000  1.0
  C  C94  1  0.50572000  0.90928000  0.27119000  1.0
  C  C95  1  0.49432000  0.09069000  0.72883000  1.0
  C  C96  1  0.48397000  0.93534000  0.34143000  1.0
  C  C97  1  0.51606000  0.06464000  0.65859000  1.0
  C  C98  1  0.54627000  0.95451000  0.34716000  1.0
  C  C99  1  0.45374000  0.04551000  0.65283000  1.0
  C  C100  1  0.63106000  0.94625000  0.28119000  1.0
  C  C101  1  0.36894000  0.05381000  0.71878000  1.0
  C  C102  1  0.65259000  0.92070000  0.21055000  1.0
  C  C103  1  0.34741000  0.07938000  0.78941000  1.0
  C  C104  1  0.59004000  0.90210000  0.20537000  1.0
  C  C105  1  0.40999000  0.09793000  0.79462000  1.0
  C  C106  1  0.57921000  0.93362000  0.47484000  1.0
  C  C107  1  0.42080000  0.06640000  0.52515000  1.0
  C  C108  1  0.55654000  0.95131000  0.55105000  1.0
  C  C109  1  0.44347000  0.04871000  0.44895000  1.0
  C  C110  1  0.47670000  0.01939000  0.57714000  1.0
  C  C111  1  0.52331000  0.98063000  0.42286000  1.0
  C  C112  1  0.21651000  0.91965000  0.23082000  1.0
  C  C113  1  0.78351000  0.08034000  0.76920000  1.0
  C  C114  1  0.30185000  0.92715000  0.18336000  1.0
  C  C115  1  0.69816000  0.07285000  0.81666000  1.0
  C  C116  1  0.31792000  0.99494000  0.10108000  1.0
  C  C117  1  0.68209000  0.00505000  0.89893000  1.0
  C  C118  1  0.24757000  0.05408000  0.06625000  1.0
  C  C119  1  0.75244000  0.94587000  0.93374000  1.0
  C  C120  1  0.16228000  0.04683000  0.11362000  1.0
  C  C121  1  0.83773000  0.95311000  0.88638000  1.0
  C  C122  1  0.14654000  0.97968000  0.19622000  1.0
  C  C123  1  0.85347000  0.02028000  0.80379000  1.0
  C  C124  1  0.46855000  0.94970000  0.99310000  1.0
  C  C125  1  0.53145000  0.05030000  0.00690000  1.0
  C  C126  1  0.55721000  0.94807000  0.94361000  1.0
  C  C127  1  0.44279000  0.05193000  0.05639000  1.0
  C  C128  1  0.59008000  0.99942000  0.95010000  1.0
  C  C129  1  0.40993000  0.00057000  0.04990000  1.0
  C  C130  1  0.16147000  0.67031000  0.05596000  1.0
  C  C131  1  0.83853000  0.32969000  0.94403000  1.0
  C  C132  1  0.25183000  0.62350000  0.02201000  1.0
  C  C133  1  0.74817000  0.37650000  0.97798000  1.0
  C  C134  1  0.30882000  0.59337000  0.06876000  1.0
  C  C135  1  0.69118000  0.40663000  0.93124000  1.0
  C  C136  1  0.27416000  0.61376000  0.14677000  1.0
  C  C137  1  0.72584000  0.38624000  0.85323000  1.0
  C  C138  1  0.18345000  0.66134000  0.17936000  1.0
  C  C139  1  0.81655000  0.33866000  0.82063000  1.0
  C  C140  1  0.12581000  0.68953000  0.13441000  1.0
  C  C141  1  0.87420000  0.31047000  0.86558000  1.0
  C  C142  1  0.46484000  0.59165000  0.97941000  1.0
  C  C143  1  0.53516000  0.40835000  0.02058000  1.0
  C  C144  1  0.55742000  0.55081000  0.94455000  1.0
  C  C145  1  0.44258000  0.44919000  0.05545000  1.0
  C  C146  1  0.59393000  0.45702000  0.96538000  1.0
  C  C147  1  0.40607000  0.54298000  0.03462000  1.0
  N  N148  1  0.90798000  0.39944000  0.52607000  1.0
  N  N149  1  0.09202000  0.60056000  0.47393000  1.0
  N  N150  1  0.10137000  0.70045000  0.00720000  1.0
  N  N151  1  0.89864000  0.29955000  0.99279000  1.0
  O  O152  1  0.24704000  0.25019000  0.25274000  1.0
  O  O153  1  0.75296000  0.74981000  0.74726000  1.0
  O  O154  1  0.29997000  0.12771000  0.43399000  1.0
  O  O155  1  0.70003000  0.87231000  0.56601000  1.0
  O  O156  1  0.13672000  0.42958000  0.12535000  1.0
  O  O157  1  0.86328000  0.57042000  0.87464000  1.0
  O  O158  1  0.42738000  0.30611000  0.12934000  1.0
  O  O159  1  0.57263000  0.69388000  0.87066000  1.0
  O  O160  1  0.12968000  0.13124000  0.31249000  1.0
  O  O161  1  0.87033000  0.86876000  0.68752000  1.0
  O  O162  1  0.42825000  0.13426000  0.13258000  1.0
  O  O163  1  0.57175000  0.86573000  0.86743000  1.0
  O  O164  1  0.14084000  0.31053000  0.42800000  1.0
  O  O165  1  0.85916000  0.68947000  0.57199000  1.0
  O  O166  1  0.30197000  0.12986000  0.14062000  1.0
  O  O167  1  0.69803000  0.87015000  0.85936000  1.0
  O  O168  1  0.12291000  0.43218000  0.30323000  1.0
  O  O169  1  0.87709000  0.56782000  0.69677000  1.0
  O  O170  1  0.30199000  0.42752000  0.14439000  1.0
  O  O171  1  0.69801000  0.57248000  0.85561000  1.0
  O  O172  1  0.11901000  0.14467000  0.43564000  1.0
  O  O173  1  0.88099000  0.85534000  0.56436000  1.0
  O  O174  1  0.42274000  0.13963000  0.30904000  1.0
  O  O175  1  0.57726000  0.86037000  0.69096000  1.0
  O  O176  1  0.12843000  0.30334000  0.13704000  1.0
  O  O177  1  0.87157000  0.69667000  0.86296000  1.0
  O  O178  1  0.84909000  0.38327000  0.59973000  1.0
  O  O179  1  0.92566000  0.37990000  0.46190000  1.0
  O  O180  1  0.15091000  0.61673000  0.40027000  1.0
  O  O181  1  0.07434000  0.62010000  0.53809000  1.0
  O  O182  1  0.02014000  0.73746000  0.04117000  1.0
  O  O183  1  0.13514000  0.68727000  0.93497000  1.0
  O  O184  1  0.86487000  0.31273000  0.06502000  1.0
  O  O185  1  0.97987000  0.26255000  0.95882000  1.0
