# generated using pymatgen
data_Ni3H30C38(N4O7)2
_symmetry_space_group_name_H-M   'P 1'
_cell_length_a   10.04590000
_cell_length_b   14.79546310
_cell_length_c   17.74260000
_cell_angle_alpha   86.71067151
_cell_angle_beta   73.63660000
_cell_angle_gamma   70.27799427
_symmetry_Int_Tables_number   1
_chemical_formula_structural   Ni3H30C38(N4O7)2
_chemical_formula_sum   'Ni6 H60 C76 N16 O28'
_cell_volume   2379.82743241
_cell_formula_units_Z   2
loop_
 _symmetry_equiv_pos_site_id
 _symmetry_equiv_pos_as_xyz
  1  'x, y, z'
loop_
 _atom_site_type_symbol
 _atom_site_label
 _atom_site_symmetry_multiplicity
 _atom_site_fract_x
 _atom_site_fract_y
 _atom_site_fract_z
 _atom_site_occupancy
  Ni  Ni0  1  0.50014000  0.50000000  0.49965000  1.0
  Ni  Ni1  1  0.99975000  0.00054000  0.00051000  1.0
  Ni  Ni2  1  0.98010000  0.28195000  0.57768000  1.0
  Ni  Ni3  1  0.33853000  0.21839000  0.92159000  1.0
  Ni  Ni4  1  0.02159000  0.71811000  0.42154000  1.0
  Ni  Ni5  1  0.66126000  0.78184000  0.07804000  1.0
  H  H6  1  0.78583000  0.19586000  0.52314000  1.0
  H  H7  1  0.00266000  0.30646000  0.97758000  1.0
  H  H8  1  0.21394000  0.80612000  0.47803000  1.0
  H  H9  1  0.99725000  0.69380000  0.02202000  1.0
  H  H10  1  0.18741000  0.38733000  0.88685000  1.0
  H  H11  1  0.96232000  0.10990000  0.61255000  1.0
  H  H12  1  0.81175000  0.61238000  0.11184000  1.0
  H  H13  1  0.03687000  0.88770000  0.38796000  1.0
  H  H14  1  0.35480000  0.38718000  0.88341000  1.0
  H  H15  1  0.12689000  0.10881000  0.61649000  1.0
  H  H16  1  0.64373000  0.61330000  0.11566000  1.0
  H  H17  1  0.87382000  0.88658000  0.38391000  1.0
  H  H18  1  0.92824000  0.47572000  0.55423000  1.0
  H  H19  1  0.45617000  0.03105000  0.94451000  1.0
  H  H20  1  0.06457000  0.53050000  0.44693000  1.0
  H  H21  1  0.54379000  0.96910000  0.05527000  1.0
  H  H22  1  0.82590000  0.43005000  0.52846000  1.0
  H  H23  1  0.28168000  0.07321000  0.97103000  1.0
  H  H24  1  0.17452000  0.57257000  0.47021000  1.0
  H  H25  1  0.71834000  0.92714000  0.02928000  1.0
  H  H26  1  0.13528000  0.32690000  0.77500000  1.0
  H  H27  1  0.73898000  0.17020000  0.72411000  1.0
  H  H28  1  0.86521000  0.67188000  0.22372000  1.0
  H  H29  1  0.26123000  0.82843000  0.27617000  1.0
  H  H30  1  0.54820000  0.36406000  0.76284000  1.0
  H  H31  1  0.17575000  0.13317000  0.73766000  1.0
  H  H32  1  0.45151000  0.63560000  0.23660000  1.0
  H  H33  1  0.82472000  0.86407000  0.26288000  1.0
  H  H34  1  0.22144000  0.99553000  0.08364000  1.0
  H  H35  1  0.79946000  0.50520000  0.41719000  1.0
  H  H36  1  0.77854000  0.00507000  0.91743000  1.0
  H  H37  1  0.20060000  0.49461000  0.58210000  1.0
  H  H38  1  0.76879000  0.11577000  0.14467000  1.0
  H  H39  1  0.52763000  0.38449000  0.35612000  1.0
  H  H40  1  0.23122000  0.88497000  0.85682000  1.0
  H  H41  1  0.47177000  0.61553000  0.64354000  1.0
  H  H42  1  0.76213000  0.17211000  0.27740000  1.0
  H  H43  1  0.70954000  0.32793000  0.22353000  1.0
  H  H44  1  0.23831000  0.82820000  0.72414000  1.0
  H  H45  1  0.28995000  0.67149000  0.77625000  1.0
  H  H46  1  0.17805000  0.24941000  0.42403000  1.0
  H  H47  1  0.34824000  0.25271000  0.07736000  1.0
  H  H48  1  0.82175000  0.75281000  0.57667000  1.0
  H  H49  1  0.65168000  0.74719000  0.92228000  1.0
  H  H50  1  0.19539000  0.18967000  0.29261000  1.0
  H  H51  1  0.17478000  0.31044000  0.20914000  1.0
  H  H52  1  0.80539000  0.81067000  0.70870000  1.0
  H  H53  1  0.82511000  0.68837000  0.79067000  1.0
  H  H54  1  0.78592000  0.13533000  0.39874000  1.0
  H  H55  1  0.81774000  0.36552000  0.10219000  1.0
  H  H56  1  0.21470000  0.86552000  0.60290000  1.0
  H  H57  1  0.18218000  0.63394000  0.89752000  1.0
  H  H58  1  0.34248000  0.97220000  0.18852000  1.0
  H  H59  1  0.00222000  0.52794000  0.31265000  1.0
  H  H60  1  0.65803000  0.02794000  0.81237000  1.0
  H  H61  1  0.99785000  0.47167000  0.68611000  1.0
  H  H62  1  0.26770000  0.04368000  0.27069000  1.0
  H  H63  1  0.08080000  0.45628000  0.23065000  1.0
  H  H64  1  0.73278000  0.95616000  0.73050000  1.0
  H  H65  1  0.91962000  0.54216000  0.76871000  1.0
  C  C66  1  0.87718000  0.19200000  0.47138000  1.0
  C  C67  1  0.03806000  0.31016000  0.02961000  1.0
  C  C68  1  0.12269000  0.80989000  0.52988000  1.0
  C  C69  1  0.96186000  0.68982000  0.97003000  1.0
  C  C70  1  0.33664000  0.34640000  0.77940000  1.0
  C  C71  1  0.96402000  0.15026000  0.72023000  1.0
  C  C72  1  0.66327000  0.65308000  0.21962000  1.0
  C  C73  1  0.03670000  0.84704000  0.28002000  1.0
  C  C74  1  0.51244000  0.34114000  0.65254000  1.0
  C  C75  1  0.00581000  0.15780000  0.84741000  1.0
  C  C76  1  0.48834000  0.65840000  0.34663000  1.0
  C  C77  1  0.99389000  0.84168000  0.15293000  1.0
  C  C78  1  0.28362000  0.31740000  0.65946000  1.0
  C  C79  1  0.76129000  0.18147000  0.83974000  1.0
  C  C80  1  0.71691000  0.68205000  0.33933000  1.0
  C  C81  1  0.23849000  0.81842000  0.16042000  1.0
  C  C82  1  0.24182000  0.33082000  0.74136000  1.0
  C  C83  1  0.81536000  0.16695000  0.75799000  1.0
  C  C84  1  0.75838000  0.66853000  0.25749000  1.0
  C  C85  1  0.18487000  0.83181000  0.24227000  1.0
  C  C86  1  0.47255000  0.35099000  0.73456000  1.0
  C  C87  1  0.05879000  0.14655000  0.76552000  1.0
  C  C88  1  0.52759000  0.64848000  0.26464000  1.0
  C  C89  1  0.94146000  0.85146000  0.23492000  1.0
  C  C90  1  0.42063000  0.32186000  0.61332000  1.0
  C  C91  1  0.85577000  0.17737000  0.88632000  1.0
  C  C92  1  0.58019000  0.67770000  0.38568000  1.0
  C  C93  1  0.14376000  0.82269000  0.11397000  1.0
  C  C94  1  0.46583000  0.31174000  0.52403000  1.0
  C  C95  1  0.80133000  0.18803000  0.97554000  1.0
  C  C96  1  0.53499000  0.68820000  0.47495000  1.0
  C  C97  1  0.19807000  0.81275000  0.02470000  1.0
  C  C98  1  0.17399000  0.30400000  0.62374000  1.0
  C  C99  1  0.60272000  0.19479000  0.87489000  1.0
  C  C100  1  0.82737000  0.69473000  0.37475000  1.0
  C  C101  1  0.39686000  0.80564000  0.12501000  1.0
  C  C102  1  0.65576000  0.35355000  0.60863000  1.0
  C  C103  1  0.11672000  0.14654000  0.89147000  1.0
  C  C104  1  0.34520000  0.64636000  0.39070000  1.0
  C  C105  1  0.88284000  0.85355000  0.10884000  1.0
  C  C106  1  0.12208000  0.03608000  0.12818000  1.0
  C  C107  1  0.78486000  0.46454000  0.37273000  1.0
  C  C108  1  0.87801000  0.96438000  0.87305000  1.0
  C  C109  1  0.21494000  0.53526000  0.62669000  1.0
  C  C110  1  0.13186000  0.06403000  0.20066000  1.0
  C  C111  1  0.89500000  0.43620000  0.30049000  1.0
  C  C112  1  0.86845000  0.93615000  0.80065000  1.0
  C  C113  1  0.10498000  0.56316000  0.69901000  1.0
  C  C114  1  0.99846000  0.11716000  0.25613000  1.0
  C  C115  1  0.86967000  0.38303000  0.24507000  1.0
  C  C116  1  0.00207000  0.88308000  0.74536000  1.0
  C  C117  1  0.13014000  0.61613000  0.75464000  1.0
  C  C118  1  0.99470000  0.15307000  0.33268000  1.0
  C  C119  1  0.97805000  0.34753000  0.16854000  1.0
  C  C120  1  0.00590000  0.84753000  0.66868000  1.0
  C  C121  1  0.02182000  0.65161000  0.83124000  1.0
  C  C122  1  0.86796000  0.10155000  0.16351000  1.0
  C  C123  1  0.63136000  0.39870000  0.33735000  1.0
  C  C124  1  0.13222000  0.89899000  0.83792000  1.0
  C  C125  1  0.36820000  0.60109000  0.66230000  1.0
  C  C126  1  0.86692000  0.13288000  0.23592000  1.0
  C  C127  1  0.73378000  0.36722000  0.26508000  1.0
  C  C128  1  0.13349000  0.86739000  0.76560000  1.0
  C  C129  1  0.26582000  0.63223000  0.73464000  1.0
  C  C130  1  0.09523000  0.22186000  0.41539000  1.0
  C  C131  1  0.22943000  0.28000000  0.08594000  1.0
  C  C132  1  0.90475000  0.78000000  0.58560000  1.0
  C  C133  1  0.77048000  0.71972000  0.91373000  1.0
  C  C134  1  0.10419000  0.18733000  0.34243000  1.0
  C  C135  1  0.13124000  0.31344000  0.15906000  1.0
  C  C136  1  0.89620000  0.81356000  0.65883000  1.0
  C  C137  1  0.86865000  0.68568000  0.84071000  1.0
  C  C138  1  0.87841000  0.15718000  0.40015000  1.0
  C  C139  1  0.93328000  0.34410000  0.10086000  1.0
  C  C140  1  0.12205000  0.84397000  0.60126000  1.0
  C  C141  1  0.06662000  0.65542000  0.89886000  1.0
  N  N142  1  0.99577000  0.05371000  0.11010000  1.0
  N  N143  1  0.65816000  0.44685000  0.39065000  1.0
  N  N144  1  0.00426000  0.94697000  0.89112000  1.0
  N  N145  1  0.34158000  0.55304000  0.60886000  1.0
  N  N146  1  0.29756000  0.35327000  0.86316000  1.0
  N  N147  1  0.01591000  0.14243000  0.63693000  1.0
  N  N148  1  0.70175000  0.64660000  0.13587000  1.0
  N  N149  1  0.98511000  0.85344000  0.36375000  1.0
  N  N150  1  0.98352000  0.22384000  0.47979000  1.0
  N  N151  1  0.18423000  0.27883000  0.02136000  1.0
  N  N152  1  0.01600000  0.77865000  0.52130000  1.0
  N  N153  1  0.81569000  0.72130000  0.97824000  1.0
  N  N154  1  0.26863000  0.03740000  0.21385000  1.0
  N  N155  1  0.01847000  0.46272000  0.28740000  1.0
  N  N156  1  0.73180000  0.96263000  0.78732000  1.0
  N  N157  1  0.98162000  0.53642000  0.71193000  1.0
  O  O158  1  0.76674000  0.30571000  0.63249000  1.0
  O  O159  1  0.20341000  0.19452000  0.86717000  1.0
  O  O160  1  0.23444000  0.69469000  0.36699000  1.0
  O  O161  1  0.79642000  0.80531000  0.13262000  1.0
  O  O162  1  0.03512000  0.34163000  0.66019000  1.0
  O  O163  1  0.54033000  0.15531000  0.83831000  1.0
  O  O164  1  0.96536000  0.65560000  0.33806000  1.0
  O  O165  1  0.45937000  0.84506000  0.16152000  1.0
  O  O166  1  0.41365000  0.38946000  0.48927000  1.0
  O  O167  1  0.79267000  0.11037000  0.01086000  1.0
  O  O168  1  0.58586000  0.61057000  0.51021000  1.0
  O  O169  1  0.20721000  0.89065000  0.99004000  1.0
  O  O170  1  0.66301000  0.40984000  0.55151000  1.0
  O  O171  1  0.12334000  0.09100000  0.94918000  1.0
  O  O172  1  0.33743000  0.58985000  0.44775000  1.0
  O  O173  1  0.87587000  0.90987000  0.05165000  1.0
  O  O174  1  0.20954000  0.25633000  0.55943000  1.0
  O  O175  1  0.52612000  0.24399000  0.93842000  1.0
  O  O176  1  0.79170000  0.74325000  0.43864000  1.0
  O  O177  1  0.47313000  0.75669000  0.06133000  1.0
  O  O178  1  0.54897000  0.23224000  0.49210000  1.0
  O  O179  1  0.77251000  0.26790000  0.00713000  1.0
  O  O180  1  0.45264000  0.76803000  0.50654000  1.0
  O  O181  1  0.22628000  0.73325000  0.99263000  1.0
  O  O182  1  0.93143000  0.42445000  0.52086000  1.0
  O  O183  1  0.37337000  0.08196000  0.97725000  1.0
  O  O184  1  0.06733000  0.58228000  0.47752000  1.0
  O  O185  1  0.62696000  0.91830000  0.02264000  1.0
