# generated using pymatgen
data_ZnH16C26N2O5
_symmetry_space_group_name_H-M   'P 1'
_cell_length_a   17.00080000
_cell_length_b   18.24000000
_cell_length_c   19.61370000
_cell_angle_alpha   89.77000000
_cell_angle_beta   89.27900000
_cell_angle_gamma   84.21520000
_symmetry_Int_Tables_number   1
_chemical_formula_structural   ZnH16C26N2O5
_chemical_formula_sum   'Zn2 H32 C52 N4 O10'
_cell_volume   6050.62694118
_cell_formula_units_Z   2
loop_
 _symmetry_equiv_pos_site_id
 _symmetry_equiv_pos_as_xyz
  1  'x, y, z'
loop_
 _atom_site_type_symbol
 _atom_site_label
 _atom_site_symmetry_multiplicity
 _atom_site_fract_x
 _atom_site_fract_y
 _atom_site_fract_z
 _atom_site_occupancy
  Zn  Zn0  1  0.50466000  0.57555000  0.50192000  1.0
  Zn  Zn1  1  0.49753000  0.42419000  0.50292000  1.0
  H  H2  1  0.73180000  0.56381000  0.41384000  1.0
  H  H3  1  0.58628000  0.16378000  0.42230000  1.0
  H  H4  1  0.41875000  0.69761000  0.57784000  1.0
  H  H5  1  0.58237000  0.30117000  0.42745000  1.0
  H  H6  1  0.37393000  0.94267000  0.52293000  1.0
  H  H7  1  0.62288000  0.05703000  0.47997000  1.0
  H  H8  1  0.37238000  0.07776000  0.52328000  1.0
  H  H9  1  0.62432000  0.92204000  0.47914000  1.0
  H  H10  1  0.87802000  0.56413000  0.39456000  1.0
  H  H11  1  0.12754000  0.43541000  0.39674000  1.0
  H  H12  1  0.08234000  0.62578000  0.52472000  1.0
  H  H13  1  0.27291000  0.43485000  0.41791000  1.0
  H  H14  1  0.91844000  0.37239000  0.52205000  1.0
  H  H15  1  0.48952000  0.38504000  0.28708000  1.0
  H  H16  1  0.49524000  0.61834000  0.71802000  1.0
  H  H17  1  0.49072000  0.38359000  0.15994000  1.0
  H  H18  1  0.49590000  0.61845000  0.84527000  1.0
  H  H19  1  0.50899000  0.61761000  0.15792000  1.0
  H  H20  1  0.50234000  0.38164000  0.84548000  1.0
  H  H21  1  0.51210000  0.61704000  0.28501000  1.0
  H  H22  1  0.50322000  0.38265000  0.71816000  1.0
  H  H23  1  0.58214000  0.58249000  0.06321000  1.0
  H  H24  1  0.58114000  0.58265000  0.93746000  1.0
  H  H25  1  0.41755000  0.41722000  0.94065000  1.0
  H  H26  1  0.17612000  0.67997000  0.57825000  1.0
  H  H27  1  0.82007000  0.31728000  0.57494000  1.0
  H  H28  1  0.41746000  0.41784000  0.06643000  1.0
  H  H29  1  0.58810000  0.68551000  0.42408000  1.0
  H  H30  1  0.40888000  0.31507000  0.57746000  1.0
  H  H31  1  0.58825000  0.82265000  0.41952000  1.0
  H  H32  1  0.40738000  0.17810000  0.58181000  1.0
  H  H33  1  0.41260000  0.83520000  0.58179000  1.0
  C  C34  1  0.49917000  0.50057000  0.63418000  1.0
  C  C35  1  0.50045000  0.43398000  0.74675000  1.0
  C  C36  1  0.50139000  0.50100000  0.29352000  1.0
  C  C37  1  0.49869000  0.50052000  0.71052000  1.0
  C  C38  1  0.54475000  0.54702000  0.03658000  1.0
  C  C39  1  0.45464000  0.45287000  0.96744000  1.0
  C  C40  1  0.54426000  0.54708000  0.96568000  1.0
  C  C41  1  0.45474000  0.45316000  0.03835000  1.0
  C  C42  1  0.49924000  0.49996000  0.92956000  1.0
  C  C43  1  0.49984000  0.50019000  0.07450000  1.0
  C  C44  1  0.55087000  0.72144000  0.45827000  1.0
  C  C45  1  0.50214000  0.50130000  0.36973000  1.0
  C  C46  1  0.44707000  0.27885000  0.54422000  1.0
  C  C47  1  0.55065000  0.79752000  0.45642000  1.0
  C  C48  1  0.44618000  0.20280000  0.54565000  1.0
  C  C49  1  0.34722000  0.51974000  0.49693000  1.0
  C  C50  1  0.65488000  0.47833000  0.49391000  1.0
  C  C51  1  0.50051000  0.84124000  0.50095000  1.0
  C  C52  1  0.49672000  0.15855000  0.50189000  1.0
  C  C53  1  0.45200000  0.80461000  0.54534000  1.0
  C  C54  1  0.54664000  0.19470000  0.45836000  1.0
  C  C55  1  0.45545000  0.72819000  0.54424000  1.0
  C  C56  1  0.49407000  0.43524000  0.18713000  1.0
  C  C57  1  0.54434000  0.27095000  0.46002000  1.0
  C  C58  1  0.42894000  0.96750000  0.51438000  1.0
  C  C59  1  0.56778000  0.03228000  0.48828000  1.0
  C  C60  1  0.42811000  0.04379000  0.51463000  1.0
  C  C61  1  0.56860000  0.95603000  0.48790000  1.0
  C  C62  1  0.49750000  0.07763000  0.50164000  1.0
  C  C63  1  0.49924000  0.92218000  0.50101000  1.0
  C  C64  1  0.25926000  0.52731000  0.48584000  1.0
  C  C65  1  0.74305000  0.47128000  0.48232000  1.0
  C  C66  1  0.23051000  0.47611000  0.44174000  1.0
  C  C67  1  0.49786000  0.56652000  0.81753000  1.0
  C  C68  1  0.77332000  0.52256000  0.43816000  1.0
  C  C69  1  0.15008000  0.47645000  0.42952000  1.0
  C  C70  1  0.85426000  0.52264000  0.42683000  1.0
  C  C71  1  0.09662000  0.53018000  0.46060000  1.0
  C  C72  1  0.90658000  0.46872000  0.45821000  1.0
  C  C73  1  0.12492000  0.58436000  0.50110000  1.0
  C  C74  1  0.87679000  0.41397000  0.49814000  1.0
  C  C75  1  0.20550000  0.58241000  0.51598000  1.0
  C  C76  1  0.79581000  0.41624000  0.51280000  1.0
  C  C77  1  0.49423000  0.43552000  0.25801000  1.0
  C  C78  1  0.50011000  0.50049000  0.14970000  1.0
  C  C79  1  0.49715000  0.56683000  0.74661000  1.0
  C  C80  1  0.22632000  0.63682000  0.56693000  1.0
  C  C81  1  0.77278000  0.36361000  0.56550000  1.0
  C  C82  1  0.49888000  0.50007000  0.85433000  1.0
  C  C83  1  0.50646000  0.56607000  0.18594000  1.0
  C  C84  1  0.49983000  0.43380000  0.81769000  1.0
  C  C85  1  0.50759000  0.56628000  0.25680000  1.0
  N  N86  1  0.01347000  0.53140000  0.45749000  1.0
  N  N87  1  0.98979000  0.46777000  0.45651000  1.0
  N  N88  1  0.50441000  0.68741000  0.50151000  1.0
  N  N89  1  0.49524000  0.31237000  0.50208000  1.0
  O  O90  1  0.48974000  0.56297000  0.60424000  1.0
  O  O91  1  0.71135000  0.36890000  0.59885000  1.0
  O  O92  1  0.48136000  0.44425000  0.40014000  1.0
  O  O93  1  0.50912000  0.43809000  0.60467000  1.0
  O  O94  1  0.52340000  0.55852000  0.39863000  1.0
  O  O95  1  0.38441000  0.57477000  0.48308000  1.0
  O  O96  1  0.61832000  0.42276000  0.48133000  1.0
  O  O97  1  0.37636000  0.45602000  0.51567000  1.0
  O  O98  1  0.62490000  0.54196000  0.51210000  1.0
  O  O99  1  0.28894000  0.63695000  0.59690000  1.0
