# generated using pymatgen
data_HgH12C15(IN2)2
_symmetry_space_group_name_H-M   'P 1'
_cell_length_a   9.91959000
_cell_length_b   12.91450000
_cell_length_c   13.55460000
_cell_angle_alpha   90.00050000
_cell_angle_beta   90.00000000
_cell_angle_gamma   96.62190000
_symmetry_Int_Tables_number   1
_chemical_formula_structural   HgH12C15(IN2)2
_chemical_formula_sum   'Hg4 H48 C60 I8 N16'
_cell_volume   1724.84881605
_cell_formula_units_Z   4
loop_
 _symmetry_equiv_pos_site_id
 _symmetry_equiv_pos_as_xyz
  1  'x, y, z'
loop_
 _atom_site_type_symbol
 _atom_site_label
 _atom_site_symmetry_multiplicity
 _atom_site_fract_x
 _atom_site_fract_y
 _atom_site_fract_z
 _atom_site_occupancy
  Hg  Hg0  1  0.84050000  0.54222000  0.81542000  1.0
  Hg  Hg1  1  0.65950000  0.95778000  0.31542000  1.0
  Hg  Hg2  1  0.15950000  0.45779000  0.18458000  1.0
  Hg  Hg3  1  0.34050000  0.04222000  0.68457000  1.0
  H  H4  1  0.03980000  0.70523000  0.65943000  1.0
  H  H5  1  0.46020000  0.79477000  0.15943000  1.0
  H  H6  1  0.96020000  0.29477000  0.34057000  1.0
  H  H7  1  0.53980000  0.20523000  0.84057000  1.0
  H  H8  1  0.57408000  0.37842000  0.43842000  1.0
  H  H9  1  0.92592000  0.12158000  0.93842000  1.0
  H  H10  1  0.42592000  0.62158000  0.56159000  1.0
  H  H11  1  0.07408000  0.87842000  0.06158000  1.0
  H  H12  1  0.63441000  0.44075000  0.60870000  1.0
  H  H13  1  0.86559000  0.05925000  0.10870000  1.0
  H  H14  1  0.36560000  0.55926000  0.39131000  1.0
  H  H15  1  0.13441000  0.94074000  0.89130000  1.0
  H  H16  1  0.90944000  0.57997000  0.31354000  1.0
  H  H17  1  0.59056000  0.92003000  0.81355000  1.0
  H  H18  1  0.09056000  0.42003000  0.68646000  1.0
  H  H19  1  0.40944000  0.07997000  0.18646000  1.0
  H  H20  1  0.71043000  0.44572000  0.29416000  1.0
  H  H21  1  0.78957000  0.05428000  0.79416000  1.0
  H  H22  1  0.28957000  0.55428000  0.70585000  1.0
  H  H23  1  0.21043000  0.94572000  0.20584000  1.0
  H  H24  1  0.82018000  0.75439000  0.38614000  1.0
  H  H25  1  0.67982000  0.74560000  0.88614000  1.0
  H  H26  1  0.17982000  0.24561000  0.61386000  1.0
  H  H27  1  0.32018000  0.25440000  0.11387000  1.0
  H  H28  1  0.30579000  0.90656000  0.45705000  1.0
  H  H29  1  0.19420000  0.59343000  0.95704000  1.0
  H  H30  1  0.69421000  0.09344000  0.54295000  1.0
  H  H31  1  0.80579000  0.40656000  0.04295000  1.0
  H  H32  1  0.12261000  0.67916000  0.39432000  1.0
  H  H33  1  0.37739000  0.82084000  0.89432000  1.0
  H  H34  1  0.87739000  0.32084000  0.60568000  1.0
  H  H35  1  0.62261000  0.17917000  0.10568000  1.0
  H  H36  1  0.16988000  0.75047000  0.50457000  1.0
  H  H37  1  0.33012000  0.74953000  0.00457000  1.0
  H  H38  1  0.83012000  0.24953000  0.49543000  1.0
  H  H39  1  0.66988000  0.25047000  0.99543000  1.0
  H  H40  1  0.97743000  0.12320000  0.29267000  1.0
  H  H41  1  0.52256000  0.37679000  0.79267000  1.0
  H  H42  1  0.02256000  0.87680000  0.70732000  1.0
  H  H43  1  0.47744000  0.62321000  0.20733000  1.0
  H  H44  1  0.37504000  0.09207000  0.41241000  1.0
  H  H45  1  0.12496000  0.40792000  0.91241000  1.0
  H  H46  1  0.62495000  0.90794000  0.58759000  1.0
  H  H47  1  0.87505000  0.59207000  0.08759000  1.0
  H  H48  1  0.21571000  0.19786000  0.33019000  1.0
  H  H49  1  0.28429000  0.30213000  0.83019000  1.0
  H  H50  1  0.78429000  0.80214000  0.66981000  1.0
  H  H51  1  0.71572000  0.69787000  0.16981000  1.0
  C  C52  1  0.80785000  0.54453000  0.55674000  1.0
  C  C53  1  0.69215000  0.95547000  0.05674000  1.0
  C  C54  1  0.19215000  0.45549000  0.44327000  1.0
  C  C55  1  0.30786000  0.04452000  0.94326000  1.0
  C  C56  1  0.97058000  0.65698000  0.61152000  1.0
  C  C57  1  0.52943000  0.84301000  0.11152000  1.0
  C  C58  1  0.02942000  0.34302000  0.38848000  1.0
  C  C59  1  0.47057000  0.15698000  0.88848000  1.0
  C  C60  1  0.88337000  0.58395000  0.47335000  1.0
  C  C61  1  0.61663000  0.91604000  0.97336000  1.0
  C  C62  1  0.11663000  0.41605000  0.52665000  1.0
  C  C63  1  0.38337000  0.08395000  0.02664000  1.0
  C  C64  1  0.66165000  0.43640000  0.44976000  1.0
  C  C65  1  0.83835000  0.06360000  0.94975000  1.0
  C  C66  1  0.33836000  0.56361000  0.55025000  1.0
  C  C67  1  0.16165000  0.93639000  0.05025000  1.0
  C  C68  1  0.69448000  0.47052000  0.54527000  1.0
  C  C69  1  0.80552000  0.02948000  0.04528000  1.0
  C  C70  1  0.30552000  0.52949000  0.45473000  1.0
  C  C71  1  0.19448000  0.97051000  0.95472000  1.0
  C  C72  1  0.85092000  0.54995000  0.37762000  1.0
  C  C73  1  0.64908000  0.95004000  0.87762000  1.0
  C  C74  1  0.14907000  0.45005000  0.62238000  1.0
  C  C75  1  0.35093000  0.04995000  0.12238000  1.0
  C  C76  1  0.73891000  0.47479000  0.36762000  1.0
  C  C77  1  0.76109000  0.02520000  0.86763000  1.0
  C  C78  1  0.26109000  0.52521000  0.63238000  1.0
  C  C79  1  0.23891000  0.97479000  0.13237000  1.0
  C  C80  1  0.10046000  0.91297000  0.40193000  1.0
  C  C81  1  0.39954000  0.58702000  0.90193000  1.0
  C  C82  1  0.89954000  0.08703000  0.59807000  1.0
  C  C83  1  0.60046000  0.41298000  0.09807000  1.0
  C  C84  1  0.00724000  0.97357000  0.35663000  1.0
  C  C85  1  0.49275000  0.52641000  0.85662000  1.0
  C  C86  1  0.99276000  0.02642000  0.64337000  1.0
  C  C87  1  0.50725000  0.47359000  0.14337000  1.0
  C  C88  1  0.90007000  0.81923000  0.38192000  1.0
  C  C89  1  0.59992000  0.68075000  0.88191000  1.0
  C  C90  1  0.09993000  0.18076000  0.61808000  1.0
  C  C91  1  0.40007000  0.31924000  0.11808000  1.0
  C  C92  1  0.23394000  0.95334000  0.42298000  1.0
  C  C93  1  0.26606000  0.54665000  0.92297000  1.0
  C  C94  1  0.76606000  0.04666000  0.57702000  1.0
  C  C95  1  0.73394000  0.45335000  0.07702000  1.0
  C  C96  1  0.08475000  0.72346000  0.45575000  1.0
  C  C97  1  0.41525000  0.77654000  0.95575000  1.0
  C  C98  1  0.91525000  0.27655000  0.54425000  1.0
  C  C99  1  0.58475000  0.22346000  0.04425000  1.0
  C  C100  1  0.04746000  0.07717000  0.33007000  1.0
  C  C101  1  0.45253000  0.42282000  0.83007000  1.0
  C  C102  1  0.95253000  0.92283000  0.66993000  1.0
  C  C103  1  0.54747000  0.57718000  0.16993000  1.0
  C  C104  1  0.27188000  0.05709000  0.39711000  1.0
  C  C105  1  0.22811000  0.44290000  0.89711000  1.0
  C  C106  1  0.72811000  0.94291000  0.60288000  1.0
  C  C107  1  0.77189000  0.55709000  0.10288000  1.0
  C  C108  1  0.18060000  0.11771000  0.35096000  1.0
  C  C109  1  0.31940000  0.38229000  0.85096000  1.0
  C  C110  1  0.81940000  0.88229000  0.64903000  1.0
  C  C111  1  0.68061000  0.61772000  0.14904000  1.0
  I  I112  1  0.97995000  0.71988000  0.88963000  1.0
  I  I113  1  0.52005000  0.78012000  0.38963000  1.0
  I  I114  1  0.02005000  0.28012000  0.11038000  1.0
  I  I115  1  0.47995000  0.21989000  0.61037000  1.0
  I  I116  1  0.83726000  0.33155000  0.81647000  1.0
  I  I117  1  0.66274000  0.16845000  0.31647000  1.0
  I  I118  1  0.16275000  0.66846000  0.18353000  1.0
  I  I119  1  0.33727000  0.83155000  0.68354000  1.0
  N  N120  1  0.98552000  0.65670000  0.51118000  1.0
  N  N121  1  0.51449000  0.84330000  0.01117000  1.0
  N  N122  1  0.01449000  0.34331000  0.48883000  1.0
  N  N123  1  0.48551000  0.15670000  0.98883000  1.0
  N  N124  1  0.86639000  0.59161000  0.64138000  1.0
  N  N125  1  0.63361000  0.90839000  0.14139000  1.0
  N  N126  1  0.13361000  0.40840000  0.35862000  1.0
  N  N127  1  0.36639000  0.09160000  0.85862000  1.0
  N  N128  1  0.02831000  0.81513000  0.41702000  1.0
  N  N129  1  0.47168000  0.68486000  0.91702000  1.0
  N  N130  1  0.97169000  0.18487000  0.58297000  1.0
  N  N131  1  0.52832000  0.31514000  0.08297000  1.0
  N  N132  1  0.88347000  0.91218000  0.34580000  1.0
  N  N133  1  0.61652000  0.58781000  0.84580000  1.0
  N  N134  1  0.11653000  0.08782000  0.65420000  1.0
  N  N135  1  0.38348000  0.41219000  0.15420000  1.0
