# generated using pymatgen
data_Ni3H7C5ClO11
_symmetry_space_group_name_H-M   'P 1'
_cell_length_a   7.42513000
_cell_length_b   11.89550000
_cell_length_c   11.89885613
_cell_angle_alpha   119.94203779
_cell_angle_beta   89.98636204
_cell_angle_gamma   89.97250000
_symmetry_Int_Tables_number   1
_chemical_formula_structural   Ni3H7C5ClO11
_chemical_formula_sum   'Ni9 H21 C15 Cl3 O33'
_cell_volume   910.70108237
_cell_formula_units_Z   3
loop_
 _symmetry_equiv_pos_site_id
 _symmetry_equiv_pos_as_xyz
  1  'x, y, z'
loop_
 _atom_site_type_symbol
 _atom_site_label
 _atom_site_symmetry_multiplicity
 _atom_site_fract_x
 _atom_site_fract_y
 _atom_site_fract_z
 _atom_site_occupancy
  Ni  Ni0  1  0.46392000  0.77255000  0.38416000  1.0
  Ni  Ni1  1  0.13000000  0.61119000  0.22687000  1.0
  Ni  Ni2  1  0.79588000  0.61623000  0.38889000  1.0
  Ni  Ni3  1  0.48679000  0.26171000  0.69921000  1.0
  Ni  Ni4  1  0.15348000  0.43715000  0.73831000  1.0
  Ni  Ni5  1  0.82028000  0.30097000  0.56286000  1.0
  Ni  Ni6  1  0.86437000  0.93084000  0.88527000  1.0
  Ni  Ni7  1  0.53044000  0.95523000  0.06966000  1.0
  Ni  Ni8  1  0.19769000  0.11492000  0.04548000  1.0
  H  H9  1  0.29038000  0.11978000  0.77283000  1.0
  H  H10  1  0.95733000  0.65304000  0.87903000  1.0
  H  H11  1  0.62506000  0.22605000  0.34689000  1.0
  H  H12  1  0.36440000  0.02892000  0.63145000  1.0
  H  H13  1  0.02946000  0.60304000  0.97089000  1.0
  H  H14  1  0.69553000  0.36826000  0.39733000  1.0
  H  H15  1  0.76604000  0.99199000  0.39639000  1.0
  H  H16  1  0.43166000  0.40288000  0.00776000  1.0
  H  H17  1  0.09911000  0.60353000  0.59555000  1.0
  H  H18  1  0.52774000  0.89260000  0.69196000  1.0
  H  H19  1  0.19653000  0.79670000  0.10571000  1.0
  H  H20  1  0.86425000  0.30944000  0.20540000  1.0
  H  H21  1  0.25955000  0.07849000  0.44650000  1.0
  H  H22  1  0.92588000  0.36811000  0.92170000  1.0
  H  H23  1  0.59262000  0.55391000  0.63252000  1.0
  H  H24  1  0.02199000  0.85787000  0.60436000  1.0
  H  H25  1  0.68957000  0.74655000  0.14134000  1.0
  H  H26  1  0.35598000  0.39514000  0.25292000  1.0
  H  H27  1  0.65967000  0.17155000  0.91066000  1.0
  H  H28  1  0.32662000  0.73969000  0.82823000  1.0
  H  H29  1  0.99231000  0.08955000  0.26057000  1.0
  C  C30  1  0.65236000  0.03197000  0.46478000  1.0
  C  C31  1  0.31857000  0.43196000  0.96789000  1.0
  C  C32  1  0.98518000  0.53546000  0.56762000  1.0
  C  C33  1  0.64427000  0.83100000  0.63943000  1.0
  C  C34  1  0.31197000  0.80780000  0.16886000  1.0
  C  C35  1  0.97889000  0.36123000  0.19296000  1.0
  C  C36  1  0.17879000  0.16748000  0.50231000  1.0
  C  C37  1  0.84519000  0.33487000  0.83274000  1.0
  C  C38  1  0.51174000  0.49790000  0.66543000  1.0
  C  C39  1  0.10395000  0.81228000  0.51520000  1.0
  C  C40  1  0.77145000  0.70303000  0.18710000  1.0
  C  C41  1  0.43788000  0.48427000  0.29653000  1.0
  C  C42  1  0.56900000  0.13190000  0.95567000  1.0
  C  C43  1  0.23576000  0.82428000  0.86822000  1.0
  C  C44  1  0.90189000  0.04464000  0.17587000  1.0
  Cl  Cl45  1  0.69918000  0.76942000  0.91120000  1.0
  Cl  Cl46  1  0.36490000  0.14223000  0.23035000  1.0
  Cl  Cl47  1  0.03263000  0.08868000  0.85749000  1.0
  O  O48  1  0.02872000  0.72080000  0.41329000  1.0
  O  O49  1  0.69637000  0.69273000  0.27875000  1.0
  O  O50  1  0.36286000  0.58630000  0.30678000  1.0
  O  O51  1  0.62311000  0.75391000  0.51655000  1.0
  O  O52  1  0.29114000  0.76162000  0.24582000  1.0
  O  O53  1  0.95859000  0.48444000  0.23972000  1.0
  O  O54  1  0.52566000  0.96184000  0.46399000  1.0
  O  O55  1  0.19242000  0.50219000  0.03792000  1.0
  O  O56  1  0.85780000  0.53684000  0.49912000  1.0
  O  O57  1  0.01881000  0.16753000  0.46772000  1.0
  O  O58  1  0.68510000  0.30061000  0.83293000  1.0
  O  O59  1  0.35168000  0.53242000  0.69988000  1.0
  O  O60  1  0.26274000  0.85188000  0.52041000  1.0
  O  O61  1  0.93024000  0.66854000  0.14735000  1.0
  O  O62  1  0.59654000  0.47896000  0.33111000  1.0
  O  O63  1  0.39315000  0.10664000  0.71502000  1.0
  O  O64  1  0.05915000  0.60800000  0.89272000  1.0
  O  O65  1  0.72630000  0.28510000  0.39201000  1.0
  O  O66  1  0.63144000  0.03641000  0.96587000  1.0
  O  O67  1  0.29796000  0.92970000  0.96370000  1.0
  O  O68  1  0.96473000  0.03432000  0.07030000  1.0
  O  O69  1  0.78810000  0.83639000  0.69644000  1.0
  O  O70  1  0.45458000  0.86160000  0.16507000  1.0
  O  O71  1  0.12048000  0.30345000  0.13709000  1.0
  O  O72  1  0.25931000  0.26233000  0.59799000  1.0
  O  O73  1  0.92594000  0.33529000  0.73762000  1.0
  O  O74  1  0.59233000  0.40201000  0.66450000  1.0
  O  O75  1  0.65463000  0.15472000  0.54490000  1.0
  O  O76  1  0.32069000  0.38918000  0.84506000  1.0
  O  O77  1  0.98805000  0.45496000  0.60996000  1.0
  O  O78  1  0.41603000  0.18261000  0.99172000  1.0
  O  O79  1  0.08264000  0.80951000  0.81774000  1.0
  O  O80  1  0.74871000  0.00891000  0.19062000  1.0
