# generated using pymatgen
data_CoH16C20N4O5
_symmetry_space_group_name_H-M   'P 1'
_cell_length_a   8.62812000
_cell_length_b   9.72676000
_cell_length_c   12.35030000
_cell_angle_alpha   70.77790000
_cell_angle_beta   87.81680000
_cell_angle_gamma   78.62440000
_symmetry_Int_Tables_number   1
_chemical_formula_structural   CoH16C20N4O5
_chemical_formula_sum   'Co2 H32 C40 N8 O10'
_cell_volume   959.06810101
_cell_formula_units_Z   2
loop_
 _symmetry_equiv_pos_site_id
 _symmetry_equiv_pos_as_xyz
  1  'x, y, z'
loop_
 _atom_site_type_symbol
 _atom_site_label
 _atom_site_symmetry_multiplicity
 _atom_site_fract_x
 _atom_site_fract_y
 _atom_site_fract_z
 _atom_site_occupancy
  Co  Co0  1  0.93923000  0.61941000  0.27303000  1.0
  Co  Co1  1  0.06077000  0.38059000  0.72697000  1.0
  H  H2  1  0.25174000  0.75810000  0.22514000  1.0
  H  H3  1  0.74826000  0.24190000  0.77485000  1.0
  H  H4  1  0.91600000  0.75686000  0.98855000  1.0
  H  H5  1  0.08399000  0.24314000  0.01145000  1.0
  H  H6  1  0.13839000  0.91901000  0.86770000  1.0
  H  H7  1  0.86161000  0.08100000  0.13230000  1.0
  H  H8  1  0.48233000  0.80502000  0.18681000  1.0
  H  H9  1  0.51767000  0.19499000  0.81318000  1.0
  H  H10  1  0.29339000  0.07038000  0.84616000  1.0
  H  H11  1  0.70661000  0.92962000  0.15384000  1.0
  H  H12  1  0.22672000  0.38629000  0.43512000  1.0
  H  H13  1  0.77328000  0.61371000  0.56489000  1.0
  H  H14  1  0.98206000  0.36009000  0.15583000  1.0
  H  H15  1  0.01794000  0.63991000  0.84418000  1.0
  H  H16  1  0.21625000  0.10683000  0.23482000  1.0
  H  H17  1  0.78375000  0.89317000  0.76518000  1.0
  H  H18  1  0.37298000  0.21995000  0.55404000  1.0
  H  H19  1  0.62703000  0.78005000  0.44596000  1.0
  H  H20  1  0.42655000  0.97060000  0.31791000  1.0
  H  H21  1  0.57345000  0.02940000  0.68210000  1.0
  H  H22  1  0.18854000  0.75822000  0.54331000  1.0
  H  H23  1  0.81146000  0.24178000  0.45669000  1.0
  H  H24  1  0.79295000  0.07386000  0.34606000  1.0
  H  H25  1  0.20705000  0.92614000  0.65394000  1.0
  H  H26  1  0.40766000  0.40445000  0.19879000  1.0
  H  H27  1  0.59234000  0.59556000  0.80122000  1.0
  H  H28  1  0.73260000  0.62207000  0.96531000  1.0
  H  H29  1  0.26740000  0.37793000  0.03469000  1.0
  H  H30  1  0.71192000  0.50908000  0.37724000  1.0
  H  H31  1  0.28808000  0.49092000  0.62276000  1.0
  H  H32  1  0.84728000  0.45119000  0.47925000  1.0
  H  H33  1  0.15272000  0.54881000  0.52075000  1.0
  C  C34  1  0.19093000  0.77857000  0.14461000  1.0
  C  C35  1  0.80908000  0.22143000  0.85539000  1.0
  C  C36  1  0.02073000  0.78088000  0.01848000  1.0
  C  C37  1  0.97927000  0.21912000  0.98152000  1.0
  C  C38  1  0.12954000  0.86032000  0.95835000  1.0
  C  C39  1  0.87046000  0.13969000  0.04165000  1.0
  C  C40  1  0.37050000  0.92913000  0.01925000  1.0
  C  C41  1  0.62949000  0.07087000  0.98075000  1.0
  C  C42  1  0.48709000  0.89248000  0.10532000  1.0
  C  C43  1  0.51290000  0.10752000  0.89468000  1.0
  C  C44  1  0.38413000  0.03707000  0.91357000  1.0
  C  C45  1  0.61587000  0.96293000  0.08642000  1.0
  C  C46  1  0.19189000  0.34666000  0.36895000  1.0
  C  C47  1  0.80811000  0.65333000  0.63105000  1.0
  C  C48  1  0.06922000  0.32745000  0.22509000  1.0
  C  C49  1  0.93078000  0.67255000  0.77492000  1.0
  C  C50  1  0.18506000  0.20253000  0.26302000  1.0
  C  C51  1  0.81494000  0.79747000  0.73698000  1.0
  C  C52  1  0.38523000  0.10867000  0.42650000  1.0
  C  C53  1  0.61477000  0.89133000  0.57351000  1.0
  C  C54  1  0.42928000  0.12524000  0.52867000  1.0
  C  C55  1  0.57073000  0.87476000  0.47133000  1.0
  C  C56  1  0.45706000  0.98365000  0.39815000  1.0
  C  C57  1  0.54294000  0.01635000  0.60185000  1.0
  C  C58  1  0.97174000  0.80541000  0.37199000  1.0
  C  C59  1  0.02826000  0.19459000  0.62801000  1.0
  C  C60  1  0.98894000  0.90573000  0.43723000  1.0
  C  C61  1  0.01106000  0.09427000  0.56277000  1.0
  C  C62  1  0.10593000  0.86388000  0.52419000  1.0
  C  C63  1  0.89407000  0.13612000  0.47581000  1.0
  C  C64  1  0.88375000  0.04270000  0.41331000  1.0
  C  C65  1  0.11625000  0.95730000  0.58668000  1.0
  C  C66  1  0.65963000  0.53114000  0.19118000  1.0
  C  C67  1  0.34038000  0.46886000  0.80882000  1.0
  C  C68  1  0.57840000  0.51457000  0.09209000  1.0
  C  C69  1  0.42160000  0.48543000  0.90791000  1.0
  C  C70  1  0.44693000  0.44564000  0.11128000  1.0
  C  C71  1  0.55308000  0.55436000  0.88872000  1.0
  C  C72  1  0.63062000  0.56872000  0.97998000  1.0
  C  C73  1  0.36938000  0.43128000  0.02002000  1.0
  N  N74  1  0.05997000  0.73133000  0.13421000  1.0
  N  N75  1  0.94004000  0.26867000  0.86579000  1.0
  N  N76  1  0.23820000  0.85805000  0.03947000  1.0
  N  N77  1  0.76180000  0.14196000  0.96053000  1.0
  N  N78  1  0.07471000  0.41581000  0.29196000  1.0
  N  N79  1  0.92529000  0.58418000  0.70804000  1.0
  N  N80  1  0.26290000  0.21534000  0.35467000  1.0
  N  N81  1  0.73710000  0.78466000  0.64534000  1.0
  O  O82  1  0.06734000  0.67890000  0.39313000  1.0
  O  O83  1  0.93266000  0.32109000  0.60686000  1.0
  O  O84  1  0.86198000  0.84305000  0.29608000  1.0
  O  O85  1  0.13803000  0.15695000  0.70392000  1.0
  O  O86  1  0.77573000  0.60060000  0.16713000  1.0
  O  O87  1  0.22427000  0.39940000  0.83287000  1.0
  O  O88  1  0.60766000  0.47891000  0.29080000  1.0
  O  O89  1  0.39234000  0.52108000  0.70920000  1.0
  O  O90  1  0.79314000  0.54086000  0.41764000  1.0
  O  O91  1  0.20686000  0.45914000  0.58236000  1.0
