# generated using pymatgen
data_ZnH12C24(NO2)2
_symmetry_space_group_name_H-M   'P 1'
_cell_length_a   9.77192000
_cell_length_b   11.16170000
_cell_length_c   11.53230000
_cell_angle_alpha   110.21900000
_cell_angle_beta   93.51850000
_cell_angle_gamma   114.24100000
_symmetry_Int_Tables_number   1
_chemical_formula_structural   ZnH12C24(NO2)2
_chemical_formula_sum   'Zn2 H24 C48 N4 O8'
_cell_volume   1045.44666718
_cell_formula_units_Z   2
loop_
 _symmetry_equiv_pos_site_id
 _symmetry_equiv_pos_as_xyz
  1  'x, y, z'
loop_
 _atom_site_type_symbol
 _atom_site_label
 _atom_site_symmetry_multiplicity
 _atom_site_fract_x
 _atom_site_fract_y
 _atom_site_fract_z
 _atom_site_occupancy
  Zn  Zn0  1  0.32327000  0.29440000  0.98150000  1.0
  Zn  Zn1  1  0.67672000  0.70560000  0.01849000  1.0
  H  H2  1  0.93010000  0.41604000  0.87614000  1.0
  H  H3  1  0.06989000  0.58397000  0.12387000  1.0
  H  H4  1  0.76873000  0.42434000  0.71316000  1.0
  H  H5  1  0.23127000  0.57567000  0.28684000  1.0
  H  H6  1  0.63262000  0.39702000  0.56833000  1.0
  H  H7  1  0.36737000  0.60295000  0.43165000  1.0
  H  H8  1  0.47447000  0.40714000  0.40316000  1.0
  H  H9  1  0.52552000  0.59284000  0.59683000  1.0
  H  H10  1  0.43584000  0.10457000  0.75977000  1.0
  H  H11  1  0.56417000  0.89544000  0.24023000  1.0
  H  H12  1  0.45954000  0.87751000  0.71705000  1.0
  H  H13  1  0.54048000  0.12250000  0.28296000  1.0
  H  H14  1  0.36335000  0.74279000  0.85393000  1.0
  H  H15  1  0.63666000  0.25722000  0.14609000  1.0
  H  H16  1  0.22403000  0.71624000  0.02738000  1.0
  H  H17  1  0.77598000  0.28377000  0.97264000  1.0
  H  H18  1  0.10402000  0.81441000  0.19469000  1.0
  H  H19  1  0.89598000  0.18560000  0.80531000  1.0
  H  H20  1  0.01506000  0.99921000  0.30191000  1.0
  H  H21  1  0.98494000  0.00079000  0.69810000  1.0
  H  H22  1  0.00346000  0.22634000  0.32099000  1.0
  H  H23  1  0.99654000  0.77366000  0.67901000  1.0
  H  H24  1  0.11900000  0.34376000  0.17593000  1.0
  H  H25  1  0.88099000  0.65624000  0.82407000  1.0
  C  C26  1  0.19068000  0.40338000  0.87883000  1.0
  C  C27  1  0.80931000  0.59662000  0.12117000  1.0
  C  C28  1  0.11920000  0.43969000  0.78602000  1.0
  C  C29  1  0.88079000  0.56031000  0.21397000  1.0
  C  C30  1  0.97405000  0.42926000  0.79455000  1.0
  C  C31  1  0.02594000  0.57074000  0.20545000  1.0
  C  C32  1  0.88292000  0.43645000  0.70160000  1.0
  C  C33  1  0.11707000  0.56355000  0.29840000  1.0
  C  C34  1  0.93791000  0.46145000  0.59902000  1.0
  C  C35  1  0.06208000  0.53853000  0.40097000  1.0
  C  C36  1  0.84194000  0.46813000  0.50084000  1.0
  C  C37  1  0.15805000  0.53185000  0.49914000  1.0
  C  C38  1  0.68677000  0.43155000  0.49801000  1.0
  C  C39  1  0.31321000  0.56843000  0.50197000  1.0
  C  C40  1  0.09370000  0.48861000  0.59488000  1.0
  C  C41  1  0.90630000  0.51138000  0.40511000  1.0
  C  C42  1  0.18639000  0.47677000  0.68887000  1.0
  C  C43  1  0.81360000  0.52323000  0.31113000  1.0
  C  C44  1  0.34422000  0.51353000  0.68602000  1.0
  C  C45  1  0.65578000  0.48648000  0.31398000  1.0
  C  C46  1  0.59644000  0.44013000  0.40550000  1.0
  C  C47  1  0.40354000  0.55985000  0.59449000  1.0
  C  C48  1  0.46405000  0.52838000  0.78619000  1.0
  C  C49  1  0.53594000  0.47163000  0.21381000  1.0
  C  C50  1  0.39075000  0.04017000  0.81433000  1.0
  C  C51  1  0.60926000  0.95984000  0.18568000  1.0
  C  C52  1  0.40376000  0.91341000  0.79112000  1.0
  C  C53  1  0.59626000  0.08660000  0.20889000  1.0
  C  C54  1  0.34903000  0.83779000  0.86537000  1.0
  C  C55  1  0.65098000  0.16222000  0.13465000  1.0
  C  C56  1  0.27721000  0.88694000  0.96071000  1.0
  C  C57  1  0.72280000  0.11307000  0.03930000  1.0
  C  C58  1  0.21652000  0.81514000  0.04148000  1.0
  C  C59  1  0.78349000  0.18487000  0.95853000  1.0
  C  C60  1  0.15002000  0.86900000  0.13334000  1.0
  C  C61  1  0.84999000  0.13100000  0.86666000  1.0
  C  C62  1  0.13735000  0.99715000  0.15113000  1.0
  C  C63  1  0.86265000  0.00285000  0.84888000  1.0
  C  C64  1  0.06585000  0.05503000  0.24230000  1.0
  C  C65  1  0.93415000  0.94497000  0.75770000  1.0
  C  C66  1  0.05828000  0.17918000  0.25227000  1.0
  C  C67  1  0.94172000  0.82082000  0.74773000  1.0
  C  C68  1  0.12215000  0.24595000  0.17156000  1.0
  C  C69  1  0.87784000  0.75405000  0.82843000  1.0
  C  C70  1  0.19726000  0.07077000  0.07304000  1.0
  C  C71  1  0.80274000  0.92923000  0.92696000  1.0
  C  C72  1  0.26857000  0.01530000  0.97677000  1.0
  C  C73  1  0.73144000  0.98471000  0.02324000  1.0
  N  N74  1  0.32603000  0.09008000  0.90511000  1.0
  N  N75  1  0.67398000  0.90992000  0.09490000  1.0
  N  N76  1  0.18923000  0.19290000  0.08483000  1.0
  N  N77  1  0.81077000  0.80710000  0.91517000  1.0
  O  O78  1  0.24494000  0.31259000  0.83093000  1.0
  O  O79  1  0.75506000  0.68742000  0.16908000  1.0
  O  O80  1  0.18614000  0.44858000  0.99345000  1.0
  O  O81  1  0.81385000  0.55142000  0.00655000  1.0
  O  O82  1  0.55457000  0.47751000  0.75522000  1.0
  O  O83  1  0.44544000  0.52250000  0.24479000  1.0
  O  O84  1  0.47310000  0.61170000  0.90186000  1.0
  O  O85  1  0.52689000  0.38830000  0.09814000  1.0
