# generated using pymatgen
data_CuPH34C21N2ClO3
_symmetry_space_group_name_H-M   'P 1'
_cell_length_a   8.28671000
_cell_length_b   9.09127000
_cell_length_c   15.73200000
_cell_angle_alpha   89.01810000
_cell_angle_beta   85.21920000
_cell_angle_gamma   79.73570000
_symmetry_Int_Tables_number   1
_chemical_formula_structural   CuPH34C21N2ClO3
_chemical_formula_sum   'Cu2 P2 H68 C42 N4 Cl2 O6'
_cell_volume   1162.16900210
_cell_formula_units_Z   2
loop_
 _symmetry_equiv_pos_site_id
 _symmetry_equiv_pos_as_xyz
  1  'x, y, z'
loop_
 _atom_site_type_symbol
 _atom_site_label
 _atom_site_symmetry_multiplicity
 _atom_site_fract_x
 _atom_site_fract_y
 _atom_site_fract_z
 _atom_site_occupancy
  Cu  Cu0  1  0.67946000  0.09728000  0.01197000  1.0
  Cu  Cu1  1  0.32054000  0.90270000  0.98803000  1.0
  P  P2  1  0.98492000  0.97553000  0.89065000  1.0
  P  P3  1  0.01507000  0.02445000  0.10934000  1.0
  H  H4  1  0.32146000  0.18662000  0.07367000  1.0
  H  H5  1  0.67856000  0.81337000  0.92633000  1.0
  H  H6  1  0.95288000  0.82756000  0.77562000  1.0
  H  H7  1  0.04712000  0.17244000  0.22437000  1.0
  H  H8  1  0.79733000  0.98617000  0.78610000  1.0
  H  H9  1  0.20267000  0.01382000  0.21389000  1.0
  H  H10  1  0.37647000  0.97532000  0.58159000  1.0
  H  H11  1  0.62355000  0.02472000  0.41842000  1.0
  H  H12  1  0.95283000  0.31967000  0.57402000  1.0
  H  H13  1  0.04716000  0.68034000  0.42598000  1.0
  H  H14  1  0.21604000  0.79425000  0.77659000  1.0
  H  H15  1  0.78397000  0.20579000  0.22342000  1.0
  H  H16  1  0.13241000  0.66755000  0.65180000  1.0
  H  H17  1  0.86753000  0.33248000  0.34823000  1.0
  H  H18  1  0.32743000  0.57635000  0.68198000  1.0
  H  H19  1  0.67252000  0.42366000  0.31804000  1.0
  H  H20  1  0.31425000  0.69547000  0.59102000  1.0
  H  H21  1  0.68569000  0.30452000  0.40899000  1.0
  H  H22  1  0.52089000  0.83471000  0.66281000  1.0
  H  H23  1  0.47912000  0.16526000  0.33718000  1.0
  H  H24  1  0.51212000  0.71474000  0.75208000  1.0
  H  H25  1  0.48788000  0.28525000  0.24790000  1.0
  H  H26  1  0.46342000  0.91196000  0.76635000  1.0
  H  H27  1  0.53663000  0.08802000  0.23363000  1.0
  H  H28  1  0.37076000  0.14648000  0.47360000  1.0
  H  H29  1  0.62925000  0.85354000  0.52641000  1.0
  H  H30  1  0.10228000  0.17328000  0.40300000  1.0
  H  H31  1  0.89774000  0.82673000  0.59699000  1.0
  H  H32  1  0.22409000  0.30947000  0.36738000  1.0
  H  H33  1  0.77592000  0.69055000  0.63262000  1.0
  H  H34  1  0.05031000  0.35987000  0.44103000  1.0
  H  H35  1  0.94970000  0.64014000  0.55897000  1.0
  H  H36  1  0.21932000  0.45568000  0.54652000  1.0
  H  H37  1  0.78066000  0.54434000  0.45348000  1.0
  H  H38  1  0.39880000  0.41267000  0.47492000  1.0
  H  H39  1  0.60119000  0.58736000  0.52509000  1.0
  H  H40  1  0.39880000  0.34192000  0.58098000  1.0
  H  H41  1  0.60118000  0.65811000  0.41903000  1.0
  H  H42  1  0.73289000  0.20453000  0.76677000  1.0
  H  H43  1  0.26710000  0.79546000  0.23323000  1.0
  H  H44  1  0.66355000  0.13929000  0.58408000  1.0
  H  H45  1  0.33643000  0.86071000  0.41592000  1.0
  H  H46  1  0.51770000  0.15811000  0.67530000  1.0
  H  H47  1  0.48228000  0.84190000  0.32470000  1.0
  H  H48  1  0.68293000  0.00438000  0.66666667  1.0
  H  H49  1  0.31705000  0.99562000  0.33329000  1.0
  H  H50  1  0.78305000  0.45147000  0.70125000  1.0
  H  H51  1  0.21695000  0.54853000  0.29875000  1.0
  H  H52  1  0.57705000  0.42143000  0.70211000  1.0
  H  H53  1  0.42294000  0.57857000  0.29789000  1.0
  H  H54  1  0.70605000  0.39969000  0.60628000  1.0
  H  H55  1  0.29394000  0.60032000  0.39372000  1.0
  H  H56  1  0.79760000  0.41952000  0.13576000  1.0
  H  H57  1  0.20243000  0.58045000  0.86424000  1.0
  H  H58  1  0.72523000  0.56879000  0.06660000  1.0
  H  H59  1  0.27480000  0.43118000  0.93340000  1.0
  H  H60  1  0.81216000  0.38751000  0.02429000  1.0
  H  H61  1  0.18785000  0.61246000  0.97571000  1.0
  H  H62  1  0.40786000  0.61292000  0.14031000  1.0
  H  H63  1  0.59215000  0.38706000  0.85969000  1.0
  H  H64  1  0.05118000  0.39208000  0.10413000  1.0
  H  H65  1  0.94884000  0.60791000  0.89586000  1.0
  H  H66  1  0.07850000  0.56630000  0.14606000  1.0
  H  H67  1  0.92153000  0.43369000  0.85393000  1.0
  H  H68  1  0.09527000  0.40519000  0.21195000  1.0
  H  H69  1  0.90475000  0.59480000  0.78805000  1.0
  H  H70  1  0.04815000  0.16083000  0.95022000  1.0
  H  H71  1  0.95185000  0.83915000  0.04978000  1.0
  C  C72  1  0.93130000  0.94973000  0.78314000  1.0
  C  C73  1  0.06871000  0.05026000  0.21685000  1.0
  C  C74  1  0.01902000  0.02300000  0.71028000  1.0
  C  C75  1  0.98098000  0.97701000  0.28972000  1.0
  C  C76  1  0.17953000  0.95827000  0.67773000  1.0
  C  C77  1  0.82047000  0.04175000  0.32228000  1.0
  C  C78  1  0.25334000  0.02595000  0.60779000  1.0
  C  C79  1  0.74666000  0.97407000  0.39222000  1.0
  C  C80  1  0.17568000  0.15661000  0.57021000  1.0
  C  C81  1  0.82432000  0.84342000  0.42979000  1.0
  C  C82  1  0.01691000  0.21886000  0.60332000  1.0
  C  C83  1  0.98307000  0.78115000  0.39668000  1.0
  C  C84  1  0.93615000  0.15399000  0.67168000  1.0
  C  C85  1  0.06384000  0.84601000  0.32832000  1.0
  C  C86  1  0.27236000  0.81346000  0.71283000  1.0
  C  C87  1  0.72764000  0.18656000  0.28717000  1.0
  C  C88  1  0.26050000  0.68073000  0.65628000  1.0
  C  C89  1  0.73946000  0.31928000  0.34374000  1.0
  C  C90  1  0.45248000  0.81999000  0.72418000  1.0
  C  C91  1  0.54754000  0.18000000  0.27581000  1.0
  C  C92  1  0.26244000  0.22919000  0.49664000  1.0
  C  C93  1  0.73756000  0.77084000  0.50337000  1.0
  C  C94  1  0.15370000  0.26950000  0.42259000  1.0
  C  C95  1  0.84631000  0.73051000  0.57741000  1.0
  C  C96  1  0.32397000  0.36758000  0.52654000  1.0
  C  C97  1  0.67601000  0.63245000  0.47347000  1.0
  C  C98  1  0.75618000  0.21650000  0.69725000  1.0
  C  C99  1  0.24381000  0.78350000  0.30275000  1.0
  C  C100  1  0.64837000  0.12415000  0.65369000  1.0
  C  C101  1  0.35161000  0.87584000  0.34631000  1.0
  C  C102  1  0.70369000  0.38149000  0.67550000  1.0
  C  C103  1  0.29630000  0.61851000  0.32450000  1.0
  C  C104  1  0.73562000  0.44801000  0.07714000  1.0
  C  C105  1  0.26440000  0.55196000  0.92286000  1.0
  C  C106  1  0.56914000  0.40761000  0.08701000  1.0
  C  C107  1  0.43089000  0.59238000  0.91299000  1.0
  C  C108  1  0.42243000  0.49740000  0.12049000  1.0
  C  C109  1  0.57760000  0.50258000  0.87951000  1.0
  C  C110  1  0.30051000  0.41053000  0.11943000  1.0
  C  C111  1  0.69951000  0.58946000  0.88057000  1.0
  C  C112  1  0.12196000  0.44507000  0.14664000  1.0
  C  C113  1  0.87806000  0.55492000  0.85336000  1.0
  N  N114  1  0.53763000  0.27272000  0.06643000  1.0
  N  N115  1  0.46238000  0.72727000  0.93357000  1.0
  N  N116  1  0.37473000  0.27676000  0.08613000  1.0
  N  N117  1  0.62529000  0.72323000  0.91387000  1.0
  Cl  Cl118  1  0.50926000  0.10123000  0.90419000  1.0
  Cl  Cl119  1  0.49073000  0.89876000  0.09581000  1.0
  O  O120  1  0.84674000  0.92995000  0.95386000  1.0
  O  O121  1  0.15325000  0.07003000  0.04614000  1.0
  O  O122  1  0.98473000  0.15137000  0.90017000  1.0
  O  O123  1  0.01527000  0.84862000  0.09982000  1.0
  O  O124  1  0.15309000  0.88508000  0.90562000  1.0
  O  O125  1  0.84690000  0.11490000  0.09438000  1.0
