# generated using pymatgen
data_AlH6C16NO13
_symmetry_space_group_name_H-M   'P 1'
_cell_length_a   6.73891000
_cell_length_b   20.01930000
_cell_length_c   20.39280000
_cell_angle_alpha   101.76200000
_cell_angle_beta   90.55680000
_cell_angle_gamma   91.29970000
_symmetry_Int_Tables_number   1
_chemical_formula_structural   AlH6C16NO13
_chemical_formula_sum   'Al4 H24 C64 N4 O52'
_cell_volume   2692.40856825
_cell_formula_units_Z   4
loop_
 _symmetry_equiv_pos_site_id
 _symmetry_equiv_pos_as_xyz
  1  'x, y, z'
loop_
 _atom_site_type_symbol
 _atom_site_label
 _atom_site_symmetry_multiplicity
 _atom_site_fract_x
 _atom_site_fract_y
 _atom_site_fract_z
 _atom_site_occupancy
  Al  Al0  1  0.78402000  0.75107000  0.25135000  1.0
  Al  Al1  1  0.21599000  0.24893000  0.74866000  1.0
  Al  Al2  1  0.28353000  0.75041000  0.24949000  1.0
  Al  Al3  1  0.71648000  0.24960000  0.75051000  1.0
  H  H4  1  0.79646000  0.58792000  0.93424000  1.0
  H  H5  1  0.20354000  0.41208000  0.06577000  1.0
  H  H6  1  0.75299000  0.92665000  0.56716000  1.0
  H  H7  1  0.24700000  0.07335000  0.43285000  1.0
  H  H8  1  0.78724000  0.40396000  0.44620000  1.0
  H  H9  1  0.21273000  0.59603000  0.55379000  1.0
  H  H10  1  0.29223000  0.09273000  0.05451000  1.0
  H  H11  1  0.70777000  0.90727000  0.94549000  1.0
  H  H12  1  0.84054000  0.46152000  0.75835000  1.0
  H  H13  1  0.15937000  0.53848000  0.24166000  1.0
  H  H14  1  0.65725000  0.04393000  0.74050000  1.0
  H  H15  1  0.34276000  0.95608000  0.25950000  1.0
  H  H16  1  0.09305000  0.21170000  0.92908000  1.0
  H  H17  1  0.90697000  0.78830000  0.07092000  1.0
  H  H18  1  0.29251000  0.27837000  0.56704000  1.0
  H  H19  1  0.70748000  0.72164000  0.43296000  1.0
  H  H20  1  0.29832000  0.42261000  0.29899000  1.0
  H  H21  1  0.70166000  0.57739000  0.70100000  1.0
  H  H22  1  0.80681000  0.07151000  0.20304000  1.0
  H  H23  1  0.19321000  0.92849000  0.79696000  1.0
  H  H24  1  0.53063000  0.66268000  0.22007000  1.0
  H  H25  1  0.46937000  0.33732000  0.77994000  1.0
  H  H26  1  0.03929000  0.83808000  0.28405000  1.0
  H  H27  1  0.96072000  0.16192000  0.71595000  1.0
  C  C28  1  0.53993000  0.82435000  0.17045000  1.0
  C  C29  1  0.46008000  0.17565000  0.82955000  1.0
  C  C30  1  0.03121000  0.67648000  0.32988000  1.0
  C  C31  1  0.96880000  0.32352000  0.67013000  1.0
  C  C32  1  0.53680000  0.83843000  0.34872000  1.0
  C  C33  1  0.46322000  0.16158000  0.65128000  1.0
  C  C34  1  0.02725000  0.66247000  0.15255000  1.0
  C  C35  1  0.97274000  0.33753000  0.84745000  1.0
  C  C36  1  0.98993000  0.39110000  0.91051000  1.0
  C  C37  1  0.01006000  0.60890000  0.08950000  1.0
  C  C38  1  0.46023000  0.10754000  0.58871000  1.0
  C  C39  1  0.53978000  0.89247000  0.41129000  1.0
  C  C40  1  0.87801000  0.57495000  0.97607000  1.0
  C  C41  1  0.12198000  0.42505000  0.02393000  1.0
  C  C42  1  0.66287000  0.93415000  0.52473000  1.0
  C  C43  1  0.33714000  0.06586000  0.47527000  1.0
  C  C44  1  0.91133000  0.62484000  0.03286000  1.0
  C  C45  1  0.08868000  0.37516000  0.96714000  1.0
  C  C46  1  0.65074000  0.88299000  0.46814000  1.0
  C  C47  1  0.34927000  0.11702000  0.53185000  1.0
  C  C48  1  0.08027000  0.54390000  0.08729000  1.0
  C  C49  1  0.91971000  0.45610000  0.91272000  1.0
  C  C50  1  0.43583000  0.95174000  0.41307000  1.0
  C  C51  1  0.56417000  0.04826000  0.58693000  1.0
  C  C52  1  0.05308000  0.49203000  0.02805000  1.0
  C  C53  1  0.94691000  0.50798000  0.97196000  1.0
  C  C54  1  0.44060000  0.00449000  0.47184000  1.0
  C  C55  1  0.55941000  0.99551000  0.52816000  1.0
  C  C56  1  0.08645000  0.46588000  0.44159000  1.0
  C  C57  1  0.91352000  0.53410000  0.55840000  1.0
  C  C58  1  0.58904000  0.03419000  0.05911000  1.0
  C  C59  1  0.41097000  0.96581000  0.94089000  1.0
  C  C60  1  0.88283000  0.44677000  0.47008000  1.0
  C  C61  1  0.11714000  0.55321000  0.52991000  1.0
  C  C62  1  0.38527000  0.05138000  0.03026000  1.0
  C  C63  1  0.61473000  0.94861000  0.96974000  1.0
  C  C64  1  0.96423000  0.36871000  0.62329000  1.0
  C  C65  1  0.03577000  0.63129000  0.37671000  1.0
  C  C66  1  0.45900000  0.13132000  0.87716000  1.0
  C  C67  1  0.54102000  0.86868000  0.12284000  1.0
  C  C68  1  0.17595000  0.47709000  0.51431000  1.0
  C  C69  1  0.82402000  0.52289000  0.48568000  1.0
  C  C70  1  0.67662000  0.02558000  0.98714000  1.0
  C  C71  1  0.32339000  0.97442000  0.01286000  1.0
  C  C72  1  0.97131000  0.45589000  0.54334000  1.0
  C  C73  1  0.02868000  0.54409000  0.45665000  1.0
  C  C74  1  0.47117000  0.04484000  0.95768000  1.0
  C  C75  1  0.52884000  0.95516000  0.04232000  1.0
  C  C76  1  0.95715000  0.40923000  0.58635000  1.0
  C  C77  1  0.04283000  0.59076000  0.41364000  1.0
  C  C78  1  0.45527000  0.09154000  0.91492000  1.0
  C  C79  1  0.54475000  0.90846000  0.08507000  1.0
  C  C80  1  0.81530000  0.47225000  0.85277000  1.0
  C  C81  1  0.18464000  0.52775000  0.14725000  1.0
  C  C82  1  0.68382000  0.04029000  0.64716000  1.0
  C  C83  1  0.31618000  0.95972000  0.35283000  1.0
  C  C84  1  0.15927000  0.30476000  0.96750000  1.0
  C  C85  1  0.84074000  0.69524000  0.03250000  1.0
  C  C86  1  0.24959000  0.18307000  0.53151000  1.0
  C  C87  1  0.75041000  0.81694000  0.46848000  1.0
  C  C88  1  0.16851000  0.42114000  0.38053000  1.0
  C  C89  1  0.83147000  0.57884000  0.61945000  1.0
  C  C90  1  0.67283000  0.07741000  0.12236000  1.0
  C  C91  1  0.32718000  0.92259000  0.87764000  1.0
  N  N92  1  0.63928000  0.54788000  0.46331000  1.0
  N  N93  1  0.36069000  0.45211000  0.53668000  1.0
  N  N94  1  0.13827000  0.94620000  0.03317000  1.0
  N  N95  1  0.86174000  0.05380000  0.96683000  1.0
  O  O96  1  0.36678000  0.81581000  0.32634000  1.0
  O  O97  1  0.63324000  0.18420000  0.67366000  1.0
  O  O98  1  0.86361000  0.68060000  0.18009000  1.0
  O  O99  1  0.13638000  0.31940000  0.81991000  1.0
  O  O100  1  0.70879000  0.80473000  0.18609000  1.0
  O  O101  1  0.29121000  0.19527000  0.81391000  1.0
  O  O102  1  0.19783000  0.68906000  0.30600000  1.0
  O  O103  1  0.80217000  0.31095000  0.69401000  1.0
  O  O104  1  0.70356000  0.82143000  0.32291000  1.0
  O  O105  1  0.29646000  0.17858000  0.67709000  1.0
  O  O106  1  0.19983000  0.68397000  0.17295000  1.0
  O  O107  1  0.80016000  0.31603000  0.82706000  1.0
  O  O108  1  0.86095000  0.69728000  0.31693000  1.0
  O  O109  1  0.13906000  0.30272000  0.68307000  1.0
  O  O110  1  0.37051000  0.81122000  0.19242000  1.0
  O  O111  1  0.62949000  0.18877000  0.80757000  1.0
  O  O112  1  0.53184000  0.70961000  0.24467000  1.0
  O  O113  1  0.46817000  0.29040000  0.75534000  1.0
  O  O114  1  0.03625000  0.79218000  0.25676000  1.0
  O  O115  1  0.96376000  0.20782000  0.74324000  1.0
  O  O116  1  0.65520000  0.49977000  0.85347000  1.0
  O  O117  1  0.92174000  0.45295000  0.79594000  1.0
  O  O118  1  0.34475000  0.50023000  0.14656000  1.0
  O  O119  1  0.07816000  0.54705000  0.20407000  1.0
  O  O120  1  0.86228000  0.03121000  0.64790000  1.0
  O  O121  1  0.56831000  0.04446000  0.70216000  1.0
  O  O122  1  0.13772000  0.96879000  0.35209000  1.0
  O  O123  1  0.43170000  0.95555000  0.29784000  1.0
  O  O124  1  0.31102000  0.29249000  0.99545000  1.0
  O  O125  1  0.03120000  0.25629000  0.93366000  1.0
  O  O126  1  0.68900000  0.70752000  0.00455000  1.0
  O  O127  1  0.96882000  0.74371000  0.06634000  1.0
  O  O128  1  0.08502000  0.18829000  0.50802000  1.0
  O  O129  1  0.36995000  0.23669000  0.56001000  1.0
  O  O130  1  0.91499000  0.81171000  0.49198000  1.0
  O  O131  1  0.63005000  0.76332000  0.43999000  1.0
  O  O132  1  0.16280000  0.35922000  0.37274000  1.0
  O  O133  1  0.24399000  0.45632000  0.33590000  1.0
  O  O134  1  0.83721000  0.64077000  0.62725000  1.0
  O  O135  1  0.75595000  0.54367000  0.66409000  1.0
  O  O136  1  0.65899000  0.13922000  0.13539000  1.0
  O  O137  1  0.75789000  0.03985000  0.16256000  1.0
  O  O138  1  0.34103000  0.86079000  0.86460000  1.0
  O  O139  1  0.24212000  0.96015000  0.83743000  1.0
  O  O140  1  0.53247000  0.58247000  0.50596000  1.0
  O  O141  1  0.60759000  0.53402000  0.40216000  1.0
  O  O142  1  0.46752000  0.41752000  0.49404000  1.0
  O  O143  1  0.39234000  0.46597000  0.59783000  1.0
  O  O144  1  0.03035000  0.91075000  0.98911000  1.0
  O  O145  1  0.10694000  0.95838000  0.09409000  1.0
  O  O146  1  0.96966000  0.08925000  0.01088000  1.0
  O  O147  1  0.89305000  0.04162000  0.90590000  1.0
