# generated using pymatgen
data_AgP2H31C29(NO2)2
_symmetry_space_group_name_H-M   'P 1'
_cell_length_a   11.01880000
_cell_length_b   11.88760000
_cell_length_c   12.90550000
_cell_angle_alpha   112.39300000
_cell_angle_beta   102.33400000
_cell_angle_gamma   105.78700000
_symmetry_Int_Tables_number   1
_chemical_formula_structural   AgP2H31C29(NO2)2
_chemical_formula_sum   'Ag2 P4 H62 C58 N4 O8'
_cell_volume   1405.15832370
_cell_formula_units_Z   2
loop_
 _symmetry_equiv_pos_site_id
 _symmetry_equiv_pos_as_xyz
  1  'x, y, z'
loop_
 _atom_site_type_symbol
 _atom_site_label
 _atom_site_symmetry_multiplicity
 _atom_site_fract_x
 _atom_site_fract_y
 _atom_site_fract_z
 _atom_site_occupancy
  Ag  Ag0  1  0.20217000  0.48474000  0.32399000  1.0
  Ag  Ag1  1  0.79783000  0.51526000  0.67601000  1.0
  P  P2  1  0.31901000  0.34642000  0.34291000  1.0
  P  P3  1  0.68099000  0.65359000  0.65709000  1.0
  P  P4  1  0.10917000  0.62825000  0.43434000  1.0
  P  P5  1  0.89083000  0.37174000  0.56567000  1.0
  H  H6  1  0.40427000  0.44884000  0.55820000  1.0
  H  H7  1  0.59573000  0.55116000  0.44180000  1.0
  H  H8  1  0.51092000  0.37428000  0.50268000  1.0
  H  H9  1  0.48908000  0.62572000  0.49732000  1.0
  H  H10  1  0.13709000  0.58869000  0.60436000  1.0
  H  H11  1  0.86291000  0.41131000  0.39565000  1.0
  H  H12  1  0.99715000  0.63343000  0.58105000  1.0
  H  H13  1  0.00285000  0.36657000  0.41895000  1.0
  H  H14  1  0.94287000  0.34426000  0.02038000  1.0
  H  H15  1  0.05713000  0.65575000  0.97962000  1.0
  H  H16  1  0.77577000  0.96851000  0.95164000  1.0
  H  H17  1  0.22423000  0.03149000  0.04836000  1.0
  H  H18  1  0.65306000  0.02727000  0.99428000  1.0
  H  H19  1  0.34695000  0.97273000  0.00572000  1.0
  H  H20  1  0.81866000  0.09048000  0.10322000  1.0
  H  H21  1  0.18134000  0.90952000  0.89678000  1.0
  H  H22  1  0.77900000  0.22961000  0.85118000  1.0
  H  H23  1  0.22100000  0.77039000  0.14882000  1.0
  H  H24  1  0.62759000  0.12938000  0.85412000  1.0
  H  H25  1  0.37241000  0.87061000  0.14588000  1.0
  H  H26  1  0.73160000  0.05461000  0.79031000  1.0
  H  H27  1  0.26840000  0.94539000  0.20969000  1.0
  H  H28  1  0.29720000  0.35236000  0.11635000  1.0
  H  H29  1  0.70280000  0.64764000  0.88365000  1.0
  H  H30  1  0.42912000  0.30728000  0.98097000  1.0
  H  H31  1  0.57088000  0.69272000  0.01903000  1.0
  H  H32  1  0.61702000  0.23967000  0.03123000  1.0
  H  H33  1  0.38298000  0.76034000  0.96877000  1.0
  H  H34  1  0.66849000  0.20376000  0.21195000  1.0
  H  H35  1  0.33151000  0.79624000  0.78805000  1.0
  H  H36  1  0.53788000  0.24621000  0.34522000  1.0
  H  H37  1  0.46212000  0.75379000  0.65478000  1.0
  H  H38  1  0.07460000  0.13688000  0.16009000  1.0
  H  H39  1  0.92540000  0.86312000  0.83991000  1.0
  H  H40  1  0.93301000  0.91646000  0.12934000  1.0
  H  H41  1  0.06699000  0.08354000  0.87066000  1.0
  H  H42  1  0.99062000  0.84791000  0.28754000  1.0
  H  H43  1  0.00938000  0.15209000  0.71246000  1.0
  H  H44  1  0.19632000  0.99576000  0.47031000  1.0
  H  H45  1  0.80368000  0.00424000  0.52969000  1.0
  H  H46  1  0.34486000  0.20863000  0.49639000  1.0
  H  H47  1  0.65514000  0.79137000  0.50361000  1.0
  H  H48  1  0.03279000  0.57130000  0.18879000  1.0
  H  H49  1  0.96721000  0.42870000  0.81121000  1.0
  H  H50  1  0.82733000  0.54854000  0.04144000  1.0
  H  H51  1  0.17267000  0.45146000  0.95856000  1.0
  H  H52  1  0.64029000  0.58951000  0.10777000  1.0
  H  H53  1  0.35972000  0.41049000  0.89223000  1.0
  H  H54  1  0.65899000  0.65830000  0.31818000  1.0
  H  H55  1  0.34101000  0.34170000  0.68182000  1.0
  H  H56  1  0.86101000  0.67742000  0.46515000  1.0
  H  H57  1  0.13899000  0.32258000  0.53486000  1.0
  H  H58  1  0.07340000  0.84550000  0.62170000  1.0
  H  H59  1  0.92660000  0.15450000  0.37830000  1.0
  H  H60  1  0.22446000  0.07896000  0.75802000  1.0
  H  H61  1  0.77554000  0.92104000  0.24198000  1.0
  H  H62  1  0.45068000  0.17123000  0.75041000  1.0
  H  H63  1  0.54932000  0.82877000  0.24959000  1.0
  H  H64  1  0.52837000  0.02663000  0.60478000  1.0
  H  H65  1  0.47163000  0.97337000  0.39522000  1.0
  H  H66  1  0.37652000  0.79080000  0.46515000  1.0
  H  H67  1  0.62348000  0.20920000  0.53485000  1.0
  C  C68  1  0.45325000  0.43362000  0.49098000  1.0
  C  C69  1  0.54675000  0.56638000  0.50902000  1.0
  C  C70  1  0.04728000  0.57276000  0.53474000  1.0
  C  C71  1  0.95272000  0.42724000  0.46526000  1.0
  C  C72  1  0.91823000  0.27264000  0.05552000  1.0
  C  C73  1  0.08177000  0.72736000  0.94448000  1.0
  C  C74  1  0.76125000  0.05601000  0.00895000  1.0
  C  C75  1  0.23875000  0.94399000  0.99106000  1.0
  C  C76  1  0.73236000  0.14268000  0.86199000  1.0
  C  C77  1  0.26764000  0.85732000  0.13801000  1.0
  C  C78  1  0.40996000  0.30416000  0.24045000  1.0
  C  C79  1  0.59004000  0.69584000  0.75955000  1.0
  C  C80  1  0.37799000  0.31876000  0.13638000  1.0
  C  C81  1  0.62201000  0.68124000  0.86362000  1.0
  C  C82  1  0.45132000  0.29321000  0.06045000  1.0
  C  C83  1  0.54868000  0.70679000  0.93955000  1.0
  C  C84  1  0.55693000  0.25389000  0.08833000  1.0
  C  C85  1  0.44306000  0.74611000  0.91167000  1.0
  C  C86  1  0.58720000  0.23613000  0.19044000  1.0
  C  C87  1  0.41280000  0.76387000  0.80956000  1.0
  C  C88  1  0.51357000  0.26064000  0.26598000  1.0
  C  C89  1  0.48643000  0.73936000  0.73402000  1.0
  C  C90  1  0.22060000  0.18723000  0.32898000  1.0
  C  C91  1  0.77940000  0.81277000  0.67101000  1.0
  C  C92  1  0.10359000  0.10352000  0.22587000  1.0
  C  C93  1  0.89641000  0.89648000  0.77413000  1.0
  C  C94  1  0.02273000  0.98116000  0.21023000  1.0
  C  C95  1  0.97727000  0.01884000  0.78977000  1.0
  C  C96  1  0.05511000  0.94241000  0.29863000  1.0
  C  C97  1  0.94489000  0.05759000  0.70137000  1.0
  C  C98  1  0.17067000  0.02523000  0.40113000  1.0
  C  C99  1  0.82933000  0.97476000  0.59886000  1.0
  C  C100  1  0.25439000  0.14648000  0.41601000  1.0
  C  C101  1  0.74561000  0.85352000  0.58399000  1.0
  C  C102  1  0.96037000  0.62463000  0.33615000  1.0
  C  C103  1  0.03963000  0.37537000  0.66386000  1.0
  C  C104  1  0.95059000  0.59040000  0.21691000  1.0
  C  C105  1  0.04941000  0.40960000  0.78309000  1.0
  C  C106  1  0.83664000  0.57917000  0.13488000  1.0
  C  C107  1  0.16336000  0.42083000  0.86512000  1.0
  C  C108  1  0.73183000  0.60269000  0.17197000  1.0
  C  C109  1  0.26817000  0.39731000  0.82803000  1.0
  C  C110  1  0.74168000  0.63966000  0.29097000  1.0
  C  C111  1  0.25832000  0.36034000  0.70903000  1.0
  C  C112  1  0.85527000  0.65006000  0.37283000  1.0
  C  C113  1  0.14473000  0.34994000  0.62717000  1.0
  C  C114  1  0.21590000  0.80198000  0.53496000  1.0
  C  C115  1  0.78409000  0.19802000  0.46504000  1.0
  C  C116  1  0.17327000  0.88357000  0.61771000  1.0
  C  C117  1  0.82672000  0.11643000  0.38228000  1.0
  C  C118  1  0.25840000  0.01549000  0.69499000  1.0
  C  C119  1  0.74160000  0.98451000  0.30501000  1.0
  C  C120  1  0.38613000  0.06730000  0.69064000  1.0
  C  C121  1  0.61387000  0.93270000  0.30936000  1.0
  C  C122  1  0.42882000  0.98653000  0.60853000  1.0
  C  C123  1  0.57118000  0.01347000  0.39147000  1.0
  C  C124  1  0.34416000  0.85423000  0.53046000  1.0
  C  C125  1  0.65584000  0.14577000  0.46954000  1.0
  N  N126  1  0.36137000  0.60862000  0.19841000  1.0
  N  N127  1  0.63863000  0.39138000  0.80160000  1.0
  N  N128  1  0.80770000  0.16213000  0.97875000  1.0
  N  N129  1  0.19230000  0.83787000  0.02125000  1.0
  O  O130  1  0.23387000  0.54071000  0.16204000  1.0
  O  O131  1  0.76613000  0.45929000  0.83796000  1.0
  O  O132  1  0.43307000  0.65321000  0.30721000  1.0
  O  O133  1  0.56693000  0.34679000  0.69279000  1.0
  O  O134  1  0.41228000  0.62862000  0.12553000  1.0
  O  O135  1  0.58773000  0.37138000  0.87447000  1.0
  O  O136  1  0.98722000  0.29420000  0.15625000  1.0
  O  O137  1  0.01278000  0.70580000  0.84375000  1.0
