# generated using pymatgen
data_Tb2Cu3H38C42(N3O17)2
_symmetry_space_group_name_H-M   'P 1'
_cell_length_a   11.41460000
_cell_length_b   13.12390000
_cell_length_c   19.04120000
_cell_angle_alpha   89.99990000
_cell_angle_beta   93.16750000
_cell_angle_gamma   90.00000000
_symmetry_Int_Tables_number   1
_chemical_formula_structural   Tb2Cu3H38C42(N3O17)2
_chemical_formula_sum   'Tb4 Cu6 H76 C84 N12 O68'
_cell_volume   2848.09145752
_cell_formula_units_Z   2
loop_
 _symmetry_equiv_pos_site_id
 _symmetry_equiv_pos_as_xyz
  1  'x, y, z'
loop_
 _atom_site_type_symbol
 _atom_site_label
 _atom_site_symmetry_multiplicity
 _atom_site_fract_x
 _atom_site_fract_y
 _atom_site_fract_z
 _atom_site_occupancy
  Tb  Tb0  1  0.13534000  0.06657000  0.35667000  1.0
  Tb  Tb1  1  0.36465000  0.56657000  0.14333000  1.0
  Tb  Tb2  1  0.86466000  0.93344000  0.64333000  1.0
  Tb  Tb3  1  0.63534000  0.43344000  0.85667000  1.0
  Cu  Cu4  1  0.65523000  0.90649000  0.32619000  1.0
  Cu  Cu5  1  0.84477000  0.40649000  0.17381000  1.0
  Cu  Cu6  1  0.34477000  0.09351000  0.67381000  1.0
  Cu  Cu7  1  0.15523000  0.59351000  0.82619000  1.0
  Cu  Cu8  1  0.50000000  0.50000000  0.50000000  1.0
  Cu  Cu9  1  0.00000000  0.00000000  0.00000000  1.0
  H  H10  1  0.07989000  0.85030000  0.32323000  1.0
  H  H11  1  0.42011000  0.35030000  0.17676000  1.0
  H  H12  1  0.92011000  0.14970000  0.67677000  1.0
  H  H13  1  0.57989000  0.64970000  0.82323000  1.0
  H  H14  1  0.96171000  0.90427000  0.34411000  1.0
  H  H15  1  0.53829000  0.40427000  0.15589000  1.0
  H  H16  1  0.03829000  0.09573000  0.65589000  1.0
  H  H17  1  0.46171000  0.59573000  0.84411000  1.0
  H  H18  1  0.18688000  0.03061000  0.50663000  1.0
  H  H19  1  0.31312000  0.53061000  0.99337000  1.0
  H  H20  1  0.81311000  0.96940000  0.49337000  1.0
  H  H21  1  0.68689000  0.46940000  0.00663000  1.0
  H  H22  1  0.07567000  0.95288000  0.49052000  1.0
  H  H23  1  0.42433000  0.45288000  0.00948000  1.0
  H  H24  1  0.92434000  0.04711000  0.50948000  1.0
  H  H25  1  0.57566000  0.54711000  0.99052000  1.0
  H  H26  1  0.70586000  0.46805000  0.33437000  1.0
  H  H27  1  0.79414000  0.96805000  0.16563000  1.0
  H  H28  1  0.29414000  0.53195000  0.66563000  1.0
  H  H29  1  0.20586000  0.03195000  0.83437000  1.0
  H  H30  1  0.14553000  0.26234000  0.43890000  1.0
  H  H31  1  0.35447000  0.76234000  0.06109000  1.0
  H  H32  1  0.85447000  0.73766000  0.56109000  1.0
  H  H33  1  0.64554000  0.23766000  0.93890000  1.0
  H  H34  1  0.01104000  0.25647000  0.40553000  1.0
  H  H35  1  0.48895000  0.75647000  0.09447000  1.0
  H  H36  1  0.98895000  0.74353000  0.59447000  1.0
  H  H37  1  0.51105000  0.24353000  0.90553000  1.0
  H  H38  1  0.88340000  0.57193000  0.35600000  1.0
  H  H39  1  0.61660000  0.07193000  0.14400000  1.0
  H  H40  1  0.11660000  0.42807000  0.64400000  1.0
  H  H41  1  0.38340000  0.92806000  0.85600000  1.0
  H  H42  1  0.18982000  0.25509000  0.31878000  1.0
  H  H43  1  0.31018000  0.75509000  0.18122000  1.0
  H  H44  1  0.81018000  0.74491000  0.68122000  1.0
  H  H45  1  0.68982000  0.24492000  0.81878000  1.0
  H  H46  1  0.19477000  0.20970000  0.24143000  1.0
  H  H47  1  0.30523000  0.70970000  0.25858000  1.0
  H  H48  1  0.80523000  0.79030000  0.75858000  1.0
  H  H49  1  0.69477000  0.29030000  0.74142000  1.0
  H  H50  1  0.86413000  0.76395000  0.35762000  1.0
  H  H51  1  0.63587000  0.26395000  0.14238000  1.0
  H  H52  1  0.13587000  0.23605000  0.64238000  1.0
  H  H53  1  0.36413000  0.73605000  0.85762000  1.0
  H  H54  1  0.24868000  0.94549000  0.25723000  1.0
  H  H55  1  0.25132000  0.44549000  0.24277000  1.0
  H  H56  1  0.75132000  0.05451000  0.74277000  1.0
  H  H57  1  0.74868000  0.55451000  0.75723000  1.0
  H  H58  1  0.34977000  0.91612000  0.31663000  1.0
  H  H59  1  0.15023000  0.41612000  0.18337000  1.0
  H  H60  1  0.65023000  0.08388000  0.68337000  1.0
  H  H61  1  0.84977000  0.58388000  0.81663000  1.0
  H  H62  1  0.57907000  0.06422000  0.49279000  1.0
  H  H63  1  0.92092000  0.56421000  0.00721000  1.0
  H  H64  1  0.42092000  0.93579000  0.50721000  1.0
  H  H65  1  0.07908000  0.43579000  0.99279000  1.0
  H  H66  1  0.75373000  0.17943000  0.50384000  1.0
  H  H67  1  0.74626000  0.67943000  0.99616000  1.0
  H  H68  1  0.24626000  0.82057000  0.49617000  1.0
  H  H69  1  0.25374000  0.32057000  0.00383000  1.0
  H  H70  1  0.72214000  0.36847000  0.50769000  1.0
  H  H71  1  0.77786000  0.86847000  0.99231000  1.0
  H  H72  1  0.27785000  0.63153000  0.49231000  1.0
  H  H73  1  0.22215000  0.13153000  0.00769000  1.0
  H  H74  1  0.60056000  0.34694000  0.32742000  1.0
  H  H75  1  0.89943000  0.84695000  0.17258000  1.0
  H  H76  1  0.39944000  0.65305000  0.67258000  1.0
  H  H77  1  0.10057000  0.15305000  0.82742000  1.0
  H  H78  1  0.42245000  0.23775000  0.30821000  1.0
  H  H79  1  0.07755000  0.73775000  0.19179000  1.0
  H  H80  1  0.57755000  0.76225000  0.69179000  1.0
  H  H81  1  0.92245000  0.26224000  0.80821000  1.0
  H  H82  1  0.44621000  0.04982000  0.30374000  1.0
  H  H83  1  0.05379000  0.54982000  0.19626000  1.0
  H  H84  1  0.55379000  0.95018000  0.69627000  1.0
  H  H85  1  0.94621000  0.45018000  0.80373000  1.0
  C  C86  1  0.58446000  0.70392000  0.33148000  1.0
  C  C87  1  0.91555000  0.20391000  0.16852000  1.0
  C  C88  1  0.41555000  0.29608000  0.66852000  1.0
  C  C89  1  0.08445000  0.79608000  0.83148000  1.0
  C  C90  1  0.58710000  0.59754000  0.32778000  1.0
  C  C91  1  0.91291000  0.09754000  0.17222000  1.0
  C  C92  1  0.41291000  0.40246000  0.67222000  1.0
  C  C93  1  0.08709000  0.90246000  0.82778000  1.0
  C  C94  1  0.69745000  0.55050000  0.33631000  1.0
  C  C95  1  0.80255000  0.05049000  0.16369000  1.0
  C  C96  1  0.30255000  0.44950000  0.66369000  1.0
  C  C97  1  0.19745000  0.94950000  0.83631000  1.0
  C  C98  1  0.79831000  0.60867000  0.34749000  1.0
  C  C99  1  0.70169000  0.10867000  0.15251000  1.0
  C  C100  1  0.20170000  0.39133000  0.65251000  1.0
  C  C101  1  0.29830000  0.89133000  0.84749000  1.0
  C  C102  1  0.78838000  0.71449000  0.34850000  1.0
  C  C103  1  0.71162000  0.21449000  0.15150000  1.0
  C  C104  1  0.21162000  0.28551000  0.65150000  1.0
  C  C105  1  0.28838000  0.78551000  0.84850000  1.0
  C  C106  1  0.47400000  0.76572000  0.33029000  1.0
  C  C107  1  0.02600000  0.26572000  0.16971000  1.0
  C  C108  1  0.52600000  0.23428000  0.66971000  1.0
  C  C109  1  0.97400000  0.73428000  0.83029000  1.0
  C  C110  1  0.47944000  0.53001000  0.31744000  1.0
  C  C111  1  0.02056000  0.03001000  0.18256000  1.0
  C  C112  1  0.52056000  0.46999000  0.68256000  1.0
  C  C113  1  0.97944000  0.96999000  0.81744000  1.0
  C  C114  1  0.44521000  0.29473000  0.49724000  1.0
  C  C115  1  0.05479000  0.79473000  0.00276000  1.0
  C  C116  1  0.55479000  0.70528000  0.50276000  1.0
  C  C117  1  0.94521000  0.20527000  0.99724000  1.0
  C  C118  1  0.45443000  0.18887000  0.49337000  1.0
  C  C119  1  0.04556000  0.68886000  0.00663000  1.0
  C  C120  1  0.54556000  0.81114000  0.50663000  1.0
  C  C121  1  0.95444000  0.31113000  0.99337000  1.0
  C  C122  1  0.56728000  0.14632000  0.49659000  1.0
  C  C123  1  0.93271000  0.64632000  0.00341000  1.0
  C  C124  1  0.43271000  0.85369000  0.50341000  1.0
  C  C125  1  0.06729000  0.35368000  0.99659000  1.0
  C  C126  1  0.66495000  0.20963000  0.50259000  1.0
  C  C127  1  0.83504000  0.70963000  0.99741000  1.0
  C  C128  1  0.33504000  0.79038000  0.49741000  1.0
  C  C129  1  0.16496000  0.29037000  0.00259000  1.0
  C  C130  1  0.64906000  0.31498000  0.50476000  1.0
  C  C131  1  0.85093000  0.81498000  0.99524000  1.0
  C  C132  1  0.35093000  0.68502000  0.49524000  1.0
  C  C133  1  0.14907000  0.18502000  0.00476000  1.0
  C  C134  1  0.33036000  0.35134000  0.49785000  1.0
  C  C135  1  0.16964000  0.85134000  0.00215000  1.0
  C  C136  1  0.66964000  0.64867000  0.50215000  1.0
  C  C137  1  0.83036000  0.14866000  0.99785000  1.0
  C  C138  1  0.34837000  0.12072000  0.48322000  1.0
  C  C139  1  0.15163000  0.62072000  0.01679000  1.0
  C  C140  1  0.65163000  0.87928000  0.51679000  1.0
  C  C141  1  0.84837000  0.37928000  0.98322000  1.0
  C  C142  1  0.72552000  0.11232000  0.33127000  1.0
  C  C143  1  0.77448000  0.61232000  0.16874000  1.0
  C  C144  1  0.27448000  0.88768000  0.66873000  1.0
  C  C145  1  0.22552000  0.38768000  0.83127000  1.0
  C  C146  1  0.72109000  0.21902000  0.33435000  1.0
  C  C147  1  0.77891000  0.71902000  0.16565000  1.0
  C  C148  1  0.27891000  0.78097000  0.66565000  1.0
  C  C149  1  0.22109000  0.28098000  0.83435000  1.0
  C  C150  1  0.60990000  0.26455000  0.32437000  1.0
  C  C151  1  0.89010000  0.76455000  0.17563000  1.0
  C  C152  1  0.39010000  0.73545000  0.67563000  1.0
  C  C153  1  0.10990000  0.23545000  0.82437000  1.0
  C  C154  1  0.51024000  0.20507000  0.31347000  1.0
  C  C155  1  0.98976000  0.70507000  0.18653000  1.0
  C  C156  1  0.48977000  0.79493000  0.68653000  1.0
  C  C157  1  0.01024000  0.29493000  0.81347000  1.0
  C  C158  1  0.52219000  0.09924000  0.31127000  1.0
  C  C159  1  0.97781000  0.59924000  0.18873000  1.0
  C  C160  1  0.47782000  0.90076000  0.68874000  1.0
  C  C161  1  0.02218000  0.40076000  0.81126000  1.0
  C  C162  1  0.83512000  0.05006000  0.33867000  1.0
  C  C163  1  0.66488000  0.55006000  0.16133000  1.0
  C  C164  1  0.16489000  0.94993000  0.66133000  1.0
  C  C165  1  0.33512000  0.44994000  0.83867000  1.0
  C  C166  1  0.82686000  0.28808000  0.35006000  1.0
  C  C167  1  0.67314000  0.78809000  0.14994000  1.0
  C  C168  1  0.17315000  0.71191000  0.64994000  1.0
  C  C169  1  0.32686000  0.21192000  0.85007000  1.0
  N  N170  1  0.68383000  0.75980000  0.33963000  1.0
  N  N171  1  0.81617000  0.25980000  0.16037000  1.0
  N  N172  1  0.31617000  0.24019000  0.66037000  1.0
  N  N173  1  0.18383000  0.74019000  0.83963000  1.0
  N  N174  1  0.54122000  0.35493000  0.50232000  1.0
  N  N175  1  0.95878000  0.85493000  0.99768000  1.0
  N  N176  1  0.45878000  0.64507000  0.49768000  1.0
  N  N177  1  0.04122000  0.14507000  0.00231000  1.0
  N  N178  1  0.62733000  0.05481000  0.31975000  1.0
  N  N179  1  0.87267000  0.55481000  0.18025000  1.0
  N  N180  1  0.37267000  0.94519000  0.68025000  1.0
  N  N181  1  0.12733000  0.44519000  0.81975000  1.0
  O  O182  1  0.48719000  0.86403000  0.32646000  1.0
  O  O183  1  0.01281000  0.36403000  0.17354000  1.0
  O  O184  1  0.51281000  0.13597000  0.67354000  1.0
  O  O185  1  0.98719000  0.63597000  0.82646000  1.0
  O  O186  1  0.04625000  0.89295000  0.35874000  1.0
  O  O187  1  0.45375000  0.39295000  0.14126000  1.0
  O  O188  1  0.95375000  0.10705000  0.64127000  1.0
  O  O189  1  0.54625000  0.60705000  0.85874000  1.0
  O  O190  1  0.37643000  0.72383000  0.33420000  1.0
  O  O191  1  0.12357000  0.22383000  0.16581000  1.0
  O  O192  1  0.62357000  0.27617000  0.66580000  1.0
  O  O193  1  0.87643000  0.77617000  0.83420000  1.0
  O  O194  1  0.11370000  0.01490000  0.47536000  1.0
  O  O195  1  0.38630000  0.51490000  0.02464000  1.0
  O  O196  1  0.88630000  0.98510000  0.52464000  1.0
  O  O197  1  0.61370000  0.48510000  0.97536000  1.0
  O  O198  1  0.09448000  0.23157000  0.39992000  1.0
  O  O199  1  0.40552000  0.73157000  0.10008000  1.0
  O  O200  1  0.90552000  0.76843000  0.60008000  1.0
  O  O201  1  0.59448000  0.26843000  0.89992000  1.0
  O  O202  1  0.46079000  0.46810000  0.36524000  1.0
  O  O203  1  0.03922000  0.96810000  0.13475000  1.0
  O  O204  1  0.53922000  0.53190000  0.63475000  1.0
  O  O205  1  0.96078000  0.03190000  0.86524000  1.0
  O  O206  1  0.42010000  0.53557000  0.25826000  1.0
  O  O207  1  0.07989000  0.03556000  0.24174000  1.0
  O  O208  1  0.57989000  0.46444000  0.74174000  1.0
  O  O209  1  0.92011000  0.96443000  0.75826000  1.0
  O  O210  1  0.22778000  0.20257000  0.29097000  1.0
  O  O211  1  0.27221000  0.70257000  0.20903000  1.0
  O  O212  1  0.77221000  0.79743000  0.70903000  1.0
  O  O213  1  0.72779000  0.29743000  0.79097000  1.0
  O  O214  1  0.33728000  0.44884000  0.50102000  1.0
  O  O215  1  0.16272000  0.94884000  0.99898000  1.0
  O  O216  1  0.66272000  0.55116000  0.49898000  1.0
  O  O217  1  0.83728000  0.05116000  0.00102000  1.0
  O  O218  1  0.27341000  0.95244000  0.30688000  1.0
  O  O219  1  0.22659000  0.45244000  0.19312000  1.0
  O  O220  1  0.72659000  0.04756000  0.69312000  1.0
  O  O221  1  0.77341000  0.54756000  0.80688000  1.0
  O  O222  1  0.23701000  0.30110000  0.49829000  1.0
  O  O223  1  0.26299000  0.80110000  0.00171000  1.0
  O  O224  1  0.76298000  0.69890000  0.50170000  1.0
  O  O225  1  0.73702000  0.19890000  0.99829000  1.0
  O  O226  1  0.31060000  0.07494000  0.53609000  1.0
  O  O227  1  0.18940000  0.57494000  0.96392000  1.0
  O  O228  1  0.68939000  0.92506000  0.46391000  1.0
  O  O229  1  0.81061000  0.42506000  0.03609000  1.0
  O  O230  1  0.30968000  0.10772000  0.41978000  1.0
  O  O231  1  0.19032000  0.60772000  0.08022000  1.0
  O  O232  1  0.69032000  0.89228000  0.58021000  1.0
  O  O233  1  0.80968000  0.39228000  0.91979000  1.0
  O  O234  1  0.82316000  0.95245000  0.33147000  1.0
  O  O235  1  0.67684000  0.45245000  0.16853000  1.0
  O  O236  1  0.17685000  0.04755000  0.66853000  1.0
  O  O237  1  0.32315000  0.54755000  0.83147000  1.0
  O  O238  1  0.93261000  0.09228000  0.35100000  1.0
  O  O239  1  0.56739000  0.59228000  0.14901000  1.0
  O  O240  1  0.06740000  0.90772000  0.64900000  1.0
  O  O241  1  0.43261000  0.40772000  0.85100000  1.0
  O  O242  1  0.85189000  0.34933000  0.30213000  1.0
  O  O243  1  0.64812000  0.84933000  0.19787000  1.0
  O  O244  1  0.14812000  0.65067000  0.69787000  1.0
  O  O245  1  0.35188000  0.15067000  0.80213000  1.0
  O  O246  1  0.87556000  0.28044000  0.41133000  1.0
  O  O247  1  0.62443000  0.78044000  0.08867000  1.0
  O  O248  1  0.12444000  0.71956000  0.58867000  1.0
  O  O249  1  0.37557000  0.21956000  0.91133000  1.0
