# generated using pymatgen
data_Zn2H22C35N10Cl
_symmetry_space_group_name_H-M   'P 1'
_cell_length_a   10.40940000
_cell_length_b   11.84060000
_cell_length_c   27.17320000
_cell_angle_alpha   90.00000000
_cell_angle_beta   90.00000000
_cell_angle_gamma   91.81210000
_symmetry_Int_Tables_number   1
_chemical_formula_structural   Zn2H22C35N10Cl
_chemical_formula_sum   'Zn8 H88 C140 N40 Cl4'
_cell_volume   3347.51822161
_cell_formula_units_Z   4
loop_
 _symmetry_equiv_pos_site_id
 _symmetry_equiv_pos_as_xyz
  1  'x, y, z'
loop_
 _atom_site_type_symbol
 _atom_site_label
 _atom_site_symmetry_multiplicity
 _atom_site_fract_x
 _atom_site_fract_y
 _atom_site_fract_z
 _atom_site_occupancy
  Zn  Zn0  1  0.34199000  0.70847000  0.19904000  1.0
  Zn  Zn1  1  0.15801000  0.29153000  0.69904000  1.0
  Zn  Zn2  1  0.65801000  0.29153000  0.80096000  1.0
  Zn  Zn3  1  0.84199000  0.70847000  0.30096000  1.0
  Zn  Zn4  1  0.20144000  0.86761000  0.00193000  1.0
  Zn  Zn5  1  0.29857000  0.13239000  0.50193000  1.0
  Zn  Zn6  1  0.79857000  0.13239000  0.99807000  1.0
  Zn  Zn7  1  0.70143000  0.86762000  0.49807000  1.0
  H  H8  1  0.22878000  0.63943000  0.01990000  1.0
  H  H9  1  0.27122000  0.36057000  0.51990000  1.0
  H  H10  1  0.77122000  0.36057000  0.98010000  1.0
  H  H11  1  0.72878000  0.63943000  0.48010000  1.0
  H  H12  1  0.17048000  0.84851000  0.17439000  1.0
  H  H13  1  0.32952000  0.15150000  0.67439000  1.0
  H  H14  1  0.82952000  0.15149000  0.82561000  1.0
  H  H15  1  0.67048000  0.84851000  0.32561000  1.0
  H  H16  1  0.21358000  0.40881000  0.19244000  1.0
  H  H17  1  0.28642000  0.59119000  0.69244000  1.0
  H  H18  1  0.78642000  0.59119000  0.80756000  1.0
  H  H19  1  0.71358000  0.40881000  0.30756000  1.0
  H  H20  1  0.13258000  0.23495000  0.14941000  1.0
  H  H21  1  0.36742000  0.76505000  0.64941000  1.0
  H  H22  1  0.86742000  0.76505000  0.85059000  1.0
  H  H23  1  0.63258000  0.23495000  0.35060000  1.0
  H  H24  1  0.09465000  0.23347000  0.05940000  1.0
  H  H25  1  0.40535000  0.76653000  0.55940000  1.0
  H  H26  1  0.90535000  0.76653000  0.94060000  1.0
  H  H27  1  0.59465000  0.23347000  0.44060000  1.0
  H  H28  1  0.13705000  0.40480000  0.00841000  1.0
  H  H29  1  0.36295000  0.59520000  0.50841000  1.0
  H  H30  1  0.86295000  0.59520000  0.99159000  1.0
  H  H31  1  0.63705000  0.40480000  0.49159000  1.0
  H  H32  1  0.36128000  0.09660000  0.02825000  1.0
  H  H33  1  0.13872000  0.90340000  0.52825000  1.0
  H  H34  1  0.63872000  0.90340000  0.97175000  1.0
  H  H35  1  0.86128000  0.09660000  0.47175000  1.0
  H  H36  1  0.43723000  0.24698000  0.08613000  1.0
  H  H37  1  0.06277000  0.75302000  0.58613000  1.0
  H  H38  1  0.56277000  0.75302000  0.91387000  1.0
  H  H39  1  0.93723000  0.24698000  0.41387000  1.0
  H  H40  1  0.46889000  0.20639000  0.17461000  1.0
  H  H41  1  0.03111000  0.79360000  0.67461000  1.0
  H  H42  1  0.53111000  0.79361000  0.82539000  1.0
  H  H43  1  0.96889000  0.20639000  0.32539000  1.0
  H  H44  1  0.43116000  0.01285000  0.20827000  1.0
  H  H45  1  0.06884000  0.98715000  0.70827000  1.0
  H  H46  1  0.56884000  0.98715000  0.79173000  1.0
  H  H47  1  0.93116000  0.01285000  0.29173000  1.0
  H  H48  1  0.34881000  0.34022000  0.32681000  1.0
  H  H49  1  0.15120000  0.65979000  0.82681000  1.0
  H  H50  1  0.65119000  0.65979000  0.67319000  1.0
  H  H51  1  0.84880000  0.34021000  0.17319000  1.0
  H  H52  1  0.39231000  0.49146000  0.26465000  1.0
  H  H53  1  0.10769000  0.50854000  0.76465000  1.0
  H  H54  1  0.60769000  0.50854000  0.73535000  1.0
  H  H55  1  0.89231000  0.49146000  0.23535000  1.0
  H  H56  1  0.08283000  0.03989000  0.11895000  1.0
  H  H57  1  0.41716000  0.96011000  0.61895000  1.0
  H  H58  1  0.91717000  0.96011000  0.88105000  1.0
  H  H59  1  0.58283000  0.03989000  0.38105000  1.0
  H  H60  1  0.89071000  0.16250000  0.11391000  1.0
  H  H61  1  0.60928000  0.83750000  0.61391000  1.0
  H  H62  1  0.10928000  0.83750000  0.88609000  1.0
  H  H63  1  0.39071000  0.16250000  0.38609000  1.0
  H  H64  1  0.14323000  0.32736000  0.37174000  1.0
  H  H65  1  0.35677000  0.67264000  0.87174000  1.0
  H  H66  1  0.85677000  0.67264000  0.62826000  1.0
  H  H67  1  0.64323000  0.32736000  0.12826000  1.0
  H  H68  1  0.97104000  0.46544000  0.35699000  1.0
  H  H69  1  0.52896000  0.53456000  0.85699000  1.0
  H  H70  1  0.02896000  0.53456000  0.64301000  1.0
  H  H71  1  0.47104000  0.46544000  0.14301000  1.0
  H  H72  1  0.69688000  0.97341000  0.22935000  1.0
  H  H73  1  0.80312000  0.02659000  0.72935000  1.0
  H  H74  1  0.30312000  0.02659000  0.77065000  1.0
  H  H75  1  0.19688000  0.97341000  0.27065000  1.0
  H  H76  1  0.70314000  0.12865000  0.16734000  1.0
  H  H77  1  0.79686000  0.87135000  0.66735000  1.0
  H  H78  1  0.29686000  0.87135000  0.83265000  1.0
  H  H79  1  0.20314000  0.12865000  0.33266000  1.0
  H  H80  1  0.77565000  0.60179000  0.12466000  1.0
  H  H81  1  0.72435000  0.39821000  0.62466000  1.0
  H  H82  1  0.22435000  0.39821000  0.87534000  1.0
  H  H83  1  0.27565000  0.60179000  0.37534000  1.0
  H  H84  1  0.98313000  0.65385000  0.08392000  1.0
  H  H85  1  0.51687000  0.34615000  0.58392000  1.0
  H  H86  1  0.01687000  0.34615000  0.91608000  1.0
  H  H87  1  0.48313000  0.65385000  0.41608000  1.0
  H  H88  1  0.60652000  0.91220000  0.07643000  1.0
  H  H89  1  0.89348000  0.08780000  0.57643000  1.0
  H  H90  1  0.39348000  0.08780000  0.92357000  1.0
  H  H91  1  0.10652000  0.91220000  0.42357000  1.0
  H  H92  1  0.59156000  0.72841000  0.12159000  1.0
  H  H93  1  0.90844000  0.27159000  0.62159000  1.0
  H  H94  1  0.40844000  0.27159000  0.87841000  1.0
  H  H95  1  0.09156000  0.72841000  0.37841000  1.0
  C  C96  1  0.22084000  0.50541000  0.12429000  1.0
  C  C97  1  0.27916000  0.49459000  0.62429000  1.0
  C  C98  1  0.77916000  0.49459000  0.87571000  1.0
  C  C99  1  0.72084000  0.50541000  0.37571000  1.0
  C  C100  1  0.19710000  0.40841000  0.15282000  1.0
  C  C101  1  0.30290000  0.59159000  0.65282000  1.0
  C  C102  1  0.80290000  0.59159000  0.84718000  1.0
  C  C103  1  0.69710000  0.40841000  0.34718000  1.0
  C  C104  1  0.15208000  0.31189000  0.12839000  1.0
  C  C105  1  0.34792000  0.68811000  0.62839000  1.0
  C  C106  1  0.84792000  0.68811000  0.87161000  1.0
  C  C107  1  0.65208000  0.31189000  0.37161000  1.0
  C  C108  1  0.13062000  0.31086000  0.07703000  1.0
  C  C109  1  0.36938000  0.68914000  0.57703000  1.0
  C  C110  1  0.86938000  0.68914000  0.92297000  1.0
  C  C111  1  0.63062000  0.31086000  0.42297000  1.0
  C  C112  1  0.15316000  0.40633000  0.04805000  1.0
  C  C113  1  0.34684000  0.59367000  0.54804000  1.0
  C  C114  1  0.84684000  0.59367000  0.95196000  1.0
  C  C115  1  0.65316000  0.40633000  0.45195000  1.0
  C  C116  1  0.19821000  0.50353000  0.07259000  1.0
  C  C117  1  0.30179000  0.49647000  0.57259000  1.0
  C  C118  1  0.80179000  0.49647000  0.92741000  1.0
  C  C119  1  0.69821000  0.50353000  0.42741000  1.0
  C  C120  1  0.26854000  0.67362000  0.09589000  1.0
  C  C121  1  0.23146000  0.32638000  0.59589000  1.0
  C  C122  1  0.73146000  0.32638000  0.90411000  1.0
  C  C123  1  0.76854000  0.67362000  0.40411000  1.0
  C  C124  1  0.30672000  0.79168000  0.09894000  1.0
  C  C125  1  0.19328000  0.20831000  0.59894000  1.0
  C  C126  1  0.69328000  0.20831000  0.90106000  1.0
  C  C127  1  0.80672000  0.79168000  0.40106000  1.0
  C  C128  1  0.35349000  0.96932000  0.08609000  1.0
  C  C129  1  0.14651000  0.03068000  0.58609000  1.0
  C  C130  1  0.64651000  0.03068000  0.91391000  1.0
  C  C131  1  0.85349000  0.96932000  0.41391000  1.0
  C  C132  1  0.37650000  0.07798000  0.06702000  1.0
  C  C133  1  0.12350000  0.92202000  0.56702000  1.0
  C  C134  1  0.62350000  0.92202000  0.93298000  1.0
  C  C135  1  0.87650000  0.07798000  0.43298000  1.0
  C  C136  1  0.41800000  0.16160000  0.09979000  1.0
  C  C137  1  0.08200000  0.83839000  0.59979000  1.0
  C  C138  1  0.58200000  0.83839000  0.90021000  1.0
  C  C139  1  0.91800000  0.16161000  0.40021000  1.0
  C  C140  1  0.43662000  0.13809000  0.15020000  1.0
  C  C141  1  0.06338000  0.86191000  0.65020000  1.0
  C  C142  1  0.56338000  0.86191000  0.84980000  1.0
  C  C143  1  0.93662000  0.13809000  0.34980000  1.0
  C  C144  1  0.41581000  0.03020000  0.16946000  1.0
  C  C145  1  0.08419000  0.96980000  0.66946000  1.0
  C  C146  1  0.58419000  0.96980000  0.83054000  1.0
  C  C147  1  0.91581000  0.03020000  0.33054000  1.0
  C  C148  1  0.37379000  0.94495000  0.13684000  1.0
  C  C149  1  0.12621000  0.05504000  0.63684000  1.0
  C  C150  1  0.62621000  0.05504000  0.86316000  1.0
  C  C151  1  0.87379000  0.94495000  0.36316000  1.0
  C  C152  1  0.27546000  0.40128000  0.31874000  1.0
  C  C153  1  0.22454000  0.59871000  0.81874000  1.0
  C  C154  1  0.72454000  0.59871000  0.68126000  1.0
  C  C155  1  0.77546000  0.40129000  0.18126000  1.0
  C  C156  1  0.30073000  0.48551000  0.28402000  1.0
  C  C157  1  0.19927000  0.51449000  0.78403000  1.0
  C  C158  1  0.69927000  0.51449000  0.71597000  1.0
  C  C159  1  0.80073000  0.48551000  0.21598000  1.0
  C  C160  1  0.20414000  0.56320000  0.27553000  1.0
  C  C161  1  0.29586000  0.43680000  0.77553000  1.0
  C  C162  1  0.79586000  0.43680000  0.72447000  1.0
  C  C163  1  0.70414000  0.56320000  0.22447000  1.0
  C  C164  1  0.08404000  0.69937000  0.25190000  1.0
  C  C165  1  0.41596000  0.30063000  0.75190000  1.0
  C  C166  1  0.91596000  0.30063000  0.74810000  1.0
  C  C167  1  0.58404000  0.69937000  0.24810000  1.0
  C  C168  1  0.02941000  0.79490000  0.22750000  1.0
  C  C169  1  0.47060000  0.20510000  0.72750000  1.0
  C  C170  1  0.97060000  0.20510000  0.77250000  1.0
  C  C171  1  0.52941000  0.79490000  0.27250000  1.0
  C  C172  1  0.99508000  0.93938000  0.17770000  1.0
  C  C173  1  0.50492000  0.06062000  0.67770000  1.0
  C  C174  1  0.00492000  0.06062000  0.82230000  1.0
  C  C175  1  0.49508000  0.93938000  0.32230000  1.0
  C  C176  1  0.00001000  0.02636000  0.14306000  1.0
  C  C177  1  0.49998000  0.97364000  0.64306000  1.0
  C  C178  1  0.99999000  0.97364000  0.85694000  1.0
  C  C179  1  0.50001000  0.02636000  0.35694000  1.0
  C  C180  1  0.89304000  0.09390000  0.14061000  1.0
  C  C181  1  0.60696000  0.90609000  0.64061000  1.0
  C  C182  1  0.10696000  0.90609000  0.85939000  1.0
  C  C183  1  0.39304000  0.09390000  0.35939000  1.0
  C  C184  1  0.15742000  0.39374000  0.34437000  1.0
  C  C185  1  0.34258000  0.60626000  0.84438000  1.0
  C  C186  1  0.84258000  0.60626000  0.65562000  1.0
  C  C187  1  0.65742000  0.39374000  0.15563000  1.0
  C  C188  1  0.06127000  0.47068000  0.33668000  1.0
  C  C189  1  0.43873000  0.52932000  0.83668000  1.0
  C  C190  1  0.93873000  0.52932000  0.66332000  1.0
  C  C191  1  0.56127000  0.47068000  0.16332000  1.0
  C  C192  1  0.08572000  0.55626000  0.30199000  1.0
  C  C193  1  0.41428000  0.44374000  0.80199000  1.0
  C  C194  1  0.91428000  0.44374000  0.69801000  1.0
  C  C195  1  0.58572000  0.55626000  0.19801000  1.0
  C  C196  1  0.88769000  0.91939000  0.20928000  1.0
  C  C197  1  0.61231000  0.08061000  0.70928000  1.0
  C  C198  1  0.11231000  0.08061000  0.79072000  1.0
  C  C199  1  0.38769000  0.91939000  0.29072000  1.0
  C  C200  1  0.78059000  0.98787000  0.20586000  1.0
  C  C201  1  0.71941000  0.01213000  0.70586000  1.0
  C  C202  1  0.21941000  0.01213000  0.79414000  1.0
  C  C203  1  0.28059000  0.98787000  0.29414000  1.0
  C  C204  1  0.78530000  0.07460000  0.17129000  1.0
  C  C205  1  0.71470000  0.92540000  0.67129000  1.0
  C  C206  1  0.21470000  0.92540000  0.82871000  1.0
  C  C207  1  0.28530000  0.07460000  0.32871000  1.0
  C  C208  1  0.78560000  0.68147000  0.10478000  1.0
  C  C209  1  0.71440000  0.31853000  0.60478000  1.0
  C  C210  1  0.21440000  0.31853000  0.89522000  1.0
  C  C211  1  0.28560000  0.68147000  0.39522000  1.0
  C  C212  1  0.90206000  0.70975000  0.08194000  1.0
  C  C213  1  0.59793000  0.29026000  0.58194000  1.0
  C  C214  1  0.09793000  0.29025000  0.91806000  1.0
  C  C215  1  0.40206000  0.70975000  0.41806000  1.0
  C  C216  1  0.91106000  0.81226000  0.05627000  1.0
  C  C217  1  0.58894000  0.18774000  0.55627000  1.0
  C  C218  1  0.08894000  0.18774000  0.94373000  1.0
  C  C219  1  0.41106000  0.81226000  0.44373000  1.0
  C  C220  1  0.96287000  0.96036000  0.01429000  1.0
  C  C221  1  0.53713000  0.03964000  0.51429000  1.0
  C  C222  1  0.03713000  0.03964000  0.98571000  1.0
  C  C223  1  0.46287000  0.96036000  0.48571000  1.0
  C  C224  1  0.80343000  0.88508000  0.05410000  1.0
  C  C225  1  0.69657000  0.11492000  0.55410000  1.0
  C  C226  1  0.19657000  0.11492000  0.94590000  1.0
  C  C227  1  0.30343000  0.88508000  0.44590000  1.0
  C  C228  1  0.68739000  0.85592000  0.07748000  1.0
  C  C229  1  0.81261000  0.14408000  0.57749000  1.0
  C  C230  1  0.31261000  0.14408000  0.92251000  1.0
  C  C231  1  0.18739000  0.85592000  0.42252000  1.0
  C  C232  1  0.68024000  0.75341000  0.10265000  1.0
  C  C233  1  0.81975000  0.24659000  0.60265000  1.0
  C  C234  1  0.31975000  0.24659000  0.89735000  1.0
  C  C235  1  0.18024000  0.75341000  0.39735000  1.0
  N  N236  1  0.26610000  0.61224000  0.13729000  1.0
  N  N237  1  0.23390000  0.38776000  0.63729000  1.0
  N  N238  1  0.73390000  0.38776000  0.86272000  1.0
  N  N239  1  0.76610000  0.61224000  0.36271000  1.0
  N  N240  1  0.22936000  0.61151000  0.05613000  1.0
  N  N241  1  0.27064000  0.38849000  0.55613000  1.0
  N  N242  1  0.77064000  0.38849000  0.94387000  1.0
  N  N243  1  0.72936000  0.61151000  0.44387000  1.0
  N  N244  1  0.34223000  0.83151000  0.14420000  1.0
  N  N245  1  0.15777000  0.16849000  0.64420000  1.0
  N  N246  1  0.65777000  0.16849000  0.85580000  1.0
  N  N247  1  0.84223000  0.83151000  0.35580000  1.0
  N  N248  1  0.31021000  0.87047000  0.06301000  1.0
  N  N249  1  0.18979000  0.12952000  0.56301000  1.0
  N  N250  1  0.68979000  0.12952000  0.93699000  1.0
  N  N251  1  0.81021000  0.87047000  0.43699000  1.0
  N  N252  1  0.19959000  0.65490000  0.24397000  1.0
  N  N253  1  0.30041000  0.34510000  0.74397000  1.0
  N  N254  1  0.80041000  0.34510000  0.75603000  1.0
  N  N255  1  0.69959000  0.65491000  0.25603000  1.0
  N  N256  1  0.08228000  0.85847000  0.19026000  1.0
  N  N257  1  0.41772000  0.14153000  0.69026000  1.0
  N  N258  1  0.91772000  0.14153000  0.80974000  1.0
  N  N259  1  0.58228000  0.85847000  0.30974000  1.0
  N  N260  1  0.01212000  0.64414000  0.28644000  1.0
  N  N261  1  0.48788000  0.35587000  0.78644000  1.0
  N  N262  1  0.98788000  0.35587000  0.71356000  1.0
  N  N263  1  0.51212000  0.64414000  0.21356000  1.0
  N  N264  1  0.91314000  0.82964000  0.24019000  1.0
  N  N265  1  0.58686000  0.17037000  0.74018000  1.0
  N  N266  1  0.08686000  0.17037000  0.75982000  1.0
  N  N267  1  0.41314000  0.82964000  0.25981000  1.0
  N  N268  1  0.01192000  0.86332000  0.03020000  1.0
  N  N269  1  0.48808000  0.13668000  0.53020000  1.0
  N  N270  1  0.98808000  0.13668000  0.96980000  1.0
  N  N271  1  0.51192000  0.86332000  0.46980000  1.0
  N  N272  1  0.84013000  0.97950000  0.02667000  1.0
  N  N273  1  0.65987000  0.02050000  0.52667000  1.0
  N  N274  1  0.15987000  0.02050000  0.97333000  1.0
  N  N275  1  0.34013000  0.97950000  0.47333000  1.0
  Cl  Cl276  1  0.24029000  0.72277000  0.95255000  1.0
  Cl  Cl277  1  0.25971000  0.27723000  0.45255000  1.0
  Cl  Cl278  1  0.75971000  0.27723000  0.04745000  1.0
  Cl  Cl279  1  0.74029000  0.72277000  0.54745000  1.0
