# generated using pymatgen
data_SnH26C18(NCl)2
_symmetry_space_group_name_H-M   'P 1'
_cell_length_a   9.17302000
_cell_length_b   9.26399000
_cell_length_c   9.36619404
_cell_angle_alpha   84.47395423
_cell_angle_beta   61.63748768
_cell_angle_gamma   80.57200000
_symmetry_Int_Tables_number   1
_chemical_formula_structural   SnH26C18(NCl)2
_chemical_formula_sum   'Sn1 H26 C18 N2 Cl2'
_cell_volume   690.76688632
_cell_formula_units_Z   1
loop_
 _symmetry_equiv_pos_site_id
 _symmetry_equiv_pos_as_xyz
  1  'x, y, z'
loop_
 _atom_site_type_symbol
 _atom_site_label
 _atom_site_symmetry_multiplicity
 _atom_site_fract_x
 _atom_site_fract_y
 _atom_site_fract_z
 _atom_site_occupancy
  Sn  Sn0  1  0.09487000  0.92401000  0.58917000  1.0
  H  H1  1  0.06344000  0.27403000  0.50616000  1.0
  H  H2  1  0.86754000  0.48774000  0.49212000  1.0
  H  H3  1  0.49079000  0.19478000  0.65679000  1.0
  H  H4  1  0.70636000  0.99433000  0.65685000  1.0
  H  H5  1  0.15280000  0.56725000  0.58400000  1.0
  H  H6  1  0.36011000  0.35193000  0.56982000  1.0
  H  H7  1  0.66986000  0.65696000  0.57559000  1.0
  H  H8  1  0.44737000  0.85741000  0.59076000  1.0
  H  H9  1  0.88097000  0.03078000  0.87636000  1.0
  H  H10  1  0.84722000  0.84640000  0.87553000  1.0
  H  H11  1  0.07221000  0.75184000  0.94621000  1.0
  H  H12  1  0.15520000  0.91994000  0.89063000  1.0
  H  H13  1  0.91050000  0.04261000  0.12360000  1.0
  H  H14  1  0.01790000  0.89446000  0.18420000  1.0
  H  H15  1  0.71225000  0.89502000  0.34943000  1.0
  H  H16  1  0.80142000  0.73562000  0.23078000  1.0
  H  H17  1  0.68921000  0.88381000  0.17326000  1.0
  H  H18  1  0.16354000  0.02944000  0.29250000  1.0
  H  H19  1  0.34331000  0.02071000  0.32157000  1.0
  H  H20  1  0.22665000  0.75758000  0.24405000  1.0
  H  H21  1  0.40696000  0.74866000  0.26856000  1.0
  H  H22  1  0.34961000  0.93056000  0.00424000  1.0
  H  H23  1  0.52736000  0.92184000  0.03278000  1.0
  H  H24  1  0.59367000  0.74839000  0.81861000  1.0
  H  H25  1  0.41259000  0.66330000  0.94621000  1.0
  H  H26  1  0.58226000  0.64479000  0.99131000  1.0
  C  C27  1  0.93548000  0.26225000  0.53602000  1.0
  C  C28  1  0.82431000  0.38096000  0.52967000  1.0
  C  C29  1  0.65946000  0.36104000  0.57342000  1.0
  C  C30  1  0.61614000  0.21917000  0.62076000  1.0
  C  C31  1  0.73522000  0.10616000  0.62250000  1.0
  C  C32  1  0.26924000  0.58047000  0.58325000  1.0
  C  C33  1  0.38644000  0.46141000  0.57494000  1.0
  C  C34  1  0.53469000  0.48459000  0.57375000  1.0
  C  C35  1  0.55808000  0.62990000  0.57679000  1.0
  C  C36  1  0.43470000  0.74310000  0.58561000  1.0
  C  C37  1  0.94195000  0.91694000  0.85133000  1.0
  C  C38  1  0.03773000  0.87165000  0.94801000  1.0
  C  C39  1  0.93824000  0.92208000  0.12447000  1.0
  C  C40  1  0.77629000  0.85577000  0.22453000  1.0
  C  C41  1  0.24805000  0.95756000  0.32977000  1.0
  C  C42  1  0.32515000  0.82108000  0.22803000  1.0
  C  C43  1  0.42920000  0.85817000  0.04757000  1.0
  C  C44  1  0.50854000  0.72150000  0.94503000  1.0
  N  N45  1  0.89225000  0.12685000  0.58138000  1.0
  N  N46  1  0.29204000  0.71921000  0.58977000  1.0
  Cl  Cl47  1  0.92963000  0.74861000  0.54304000  1.0
  Cl  Cl48  1  0.25532000  0.11034000  0.63456000  1.0
