# generated using pymatgen
data_AgH7C11(NO2)2
_symmetry_space_group_name_H-M   'P 1'
_cell_length_a   5.03316000
_cell_length_b   14.35300000
_cell_length_c   14.77310000
_cell_angle_alpha   89.99990000
_cell_angle_beta   89.99990000
_cell_angle_gamma   96.24440000
_symmetry_Int_Tables_number   1
_chemical_formula_structural   AgH7C11(NO2)2
_chemical_formula_sum   'Ag4 H28 C44 N8 O16'
_cell_volume   1060.89085152
_cell_formula_units_Z   4
loop_
 _symmetry_equiv_pos_site_id
 _symmetry_equiv_pos_as_xyz
  1  'x, y, z'
loop_
 _atom_site_type_symbol
 _atom_site_label
 _atom_site_symmetry_multiplicity
 _atom_site_fract_x
 _atom_site_fract_y
 _atom_site_fract_z
 _atom_site_occupancy
  Ag  Ag0  1  0.87797000  0.86582000  0.33717000  1.0
  Ag  Ag1  1  0.62203000  0.63418000  0.83717000  1.0
  Ag  Ag2  1  0.12203000  0.13418000  0.66283000  1.0
  Ag  Ag3  1  0.37797000  0.36582000  0.16283000  1.0
  H  H4  1  0.27397000  0.94089000  0.49644000  1.0
  H  H5  1  0.22602000  0.55911000  0.99644000  1.0
  H  H6  1  0.72602000  0.05911000  0.50356000  1.0
  H  H7  1  0.77397000  0.44089000  0.00356000  1.0
  H  H8  1  0.30367000  0.94700000  0.66474000  1.0
  H  H9  1  0.19633000  0.55300000  0.16474000  1.0
  H  H10  1  0.69633000  0.05300000  0.33526000  1.0
  H  H11  1  0.80367000  0.44700000  0.83526000  1.0
  H  H12  1  0.56689000  0.76088000  0.67343000  1.0
  H  H13  1  0.93311000  0.73912000  0.17342000  1.0
  H  H14  1  0.43311000  0.23912000  0.32658000  1.0
  H  H15  1  0.06689000  0.26088000  0.82658000  1.0
  H  H16  1  0.57703000  0.75872000  0.50367000  1.0
  H  H17  1  0.92297000  0.74128000  0.00367000  1.0
  H  H18  1  0.42296000  0.24128000  0.49633000  1.0
  H  H19  1  0.07703000  0.25872000  0.99633000  1.0
  H  H20  1  0.44121000  0.84521000  0.09704000  1.0
  H  H21  1  0.05880000  0.65480000  0.59704000  1.0
  H  H22  1  0.55880000  0.15480000  0.90296000  1.0
  H  H23  1  0.94120000  0.34520000  0.40296000  1.0
  H  H24  1  0.41460000  0.82456000  0.92800000  1.0
  H  H25  1  0.08540000  0.67544000  0.42800000  1.0
  H  H26  1  0.58540000  0.17544000  0.07200000  1.0
  H  H27  1  0.91459000  0.32456000  0.57200000  1.0
  H  H28  1  0.18393000  0.96010000  0.17256000  1.0
  H  H29  1  0.31609000  0.53991000  0.67256000  1.0
  H  H30  1  0.81609000  0.03991000  0.82744000  1.0
  H  H31  1  0.68390000  0.46009000  0.32744000  1.0
  C  C32  1  0.12214000  0.90161000  0.53826000  1.0
  C  C33  1  0.37786000  0.59839000  0.03826000  1.0
  C  C34  1  0.87786000  0.09839000  0.46174000  1.0
  C  C35  1  0.62213000  0.40161000  0.96174000  1.0
  C  C36  1  0.13601000  0.90549000  0.63227000  1.0
  C  C37  1  0.36399000  0.59451000  0.13227000  1.0
  C  C38  1  0.86399000  0.09451000  0.36773000  1.0
  C  C39  1  0.63600000  0.40549000  0.86773000  1.0
  C  C40  1  0.93305000  0.85512000  0.68241000  1.0
  C  C41  1  0.56695000  0.64488000  0.18241000  1.0
  C  C42  1  0.06695000  0.14488000  0.31759000  1.0
  C  C43  1  0.43305000  0.35512000  0.81759000  1.0
  C  C44  1  0.72738000  0.80134000  0.63632000  1.0
  C  C45  1  0.77262000  0.69866000  0.13632000  1.0
  C  C46  1  0.27262000  0.19866000  0.36368000  1.0
  C  C47  1  0.22738000  0.30134000  0.86368000  1.0
  C  C48  1  0.73135000  0.80085000  0.54212000  1.0
  C  C49  1  0.76865000  0.69915000  0.04212000  1.0
  C  C50  1  0.26865000  0.19915000  0.45788000  1.0
  C  C51  1  0.23135000  0.30085000  0.95788000  1.0
  C  C52  1  0.92666000  0.85807000  0.78293000  1.0
  C  C53  1  0.57334000  0.64193000  0.28293000  1.0
  C  C54  1  0.07334000  0.14192000  0.21707000  1.0
  C  C55  1  0.42666000  0.35808000  0.71707000  1.0
  C  C56  1  0.31533000  0.88681000  0.05718000  1.0
  C  C57  1  0.18468000  0.61319000  0.55718000  1.0
  C  C58  1  0.68468000  0.11319000  0.94282000  1.0
  C  C59  1  0.81532000  0.38681000  0.44282000  1.0
  C  C60  1  0.30042000  0.87411000  0.96235000  1.0
  C  C61  1  0.19958000  0.62589000  0.46235000  1.0
  C  C62  1  0.69959000  0.12589000  0.03765000  1.0
  C  C63  1  0.80041000  0.37411000  0.53765000  1.0
  C  C64  1  0.14047000  0.92646000  0.91252000  1.0
  C  C65  1  0.35953000  0.57354000  0.41252000  1.0
  C  C66  1  0.85955000  0.07354000  0.08748000  1.0
  C  C67  1  0.64046000  0.42646000  0.58748000  1.0
  C  C68  1  0.99073000  0.99421000  0.95177000  1.0
  C  C69  1  0.50927000  0.50579000  0.45177000  1.0
  C  C70  1  0.00929000  0.00580000  0.04823000  1.0
  C  C71  1  0.49072000  0.49421000  0.54823000  1.0
  C  C72  1  0.17212000  0.95089000  0.09950000  1.0
  C  C73  1  0.32789000  0.54912000  0.59950000  1.0
  C  C74  1  0.82789000  0.04912000  0.90050000  1.0
  C  C75  1  0.67211000  0.45088000  0.40050000  1.0
  N  N76  1  0.92352000  0.85085000  0.49341000  1.0
  N  N77  1  0.57648000  0.64915000  0.99341000  1.0
  N  N78  1  0.07647000  0.14915000  0.50659000  1.0
  N  N79  1  0.42352000  0.35085000  0.00659000  1.0
  N  N80  1  0.45480000  0.87751000  0.30301000  1.0
  N  N81  1  0.04519000  0.62249000  0.80301000  1.0
  N  N82  1  0.54519000  0.12249000  0.69699000  1.0
  N  N83  1  0.95481000  0.37751000  0.19699000  1.0
  O  O84  1  0.75263000  0.81574000  0.82956000  1.0
  O  O85  1  0.74737000  0.68426000  0.32956000  1.0
  O  O86  1  0.24737000  0.18426000  0.17044000  1.0
  O  O87  1  0.25263000  0.31574000  0.67044000  1.0
  O  O88  1  0.13403000  0.91598000  0.81769000  1.0
  O  O89  1  0.36597000  0.58402000  0.31769000  1.0
  O  O90  1  0.86598000  0.08402000  0.18231000  1.0
  O  O91  1  0.63403000  0.41598000  0.68231000  1.0
  O  O92  1  0.34585000  0.94803000  0.33058000  1.0
  O  O93  1  0.15415000  0.55197000  0.83058000  1.0
  O  O94  1  0.65414000  0.05197000  0.66942000  1.0
  O  O95  1  0.84585000  0.44803000  0.16942000  1.0
  O  O96  1  0.29851000  0.80700000  0.28002000  1.0
  O  O97  1  0.20149000  0.69300000  0.78002000  1.0
  O  O98  1  0.70149000  0.19300000  0.71998000  1.0
  O  O99  1  0.79851000  0.30700000  0.21998000  1.0
