# generated using pymatgen
data_CuH5C6NClO
_symmetry_space_group_name_H-M   'P 1'
_cell_length_a   3.73643000
_cell_length_b   13.02640000
_cell_length_c   14.46190000
_cell_angle_alpha   108.50900000
_cell_angle_beta   89.99740000
_cell_angle_gamma   89.99840000
_symmetry_Int_Tables_number   1
_chemical_formula_structural   CuH5C6NClO
_chemical_formula_sum   'Cu4 H20 C24 N4 Cl4 O4'
_cell_volume   667.48324059
_cell_formula_units_Z   4
loop_
 _symmetry_equiv_pos_site_id
 _symmetry_equiv_pos_as_xyz
  1  'x, y, z'
loop_
 _atom_site_type_symbol
 _atom_site_label
 _atom_site_symmetry_multiplicity
 _atom_site_fract_x
 _atom_site_fract_y
 _atom_site_fract_z
 _atom_site_occupancy
  Cu  Cu0  1  0.91957000  0.57340000  0.82567000  1.0
  Cu  Cu1  1  0.41956000  0.42658000  0.67433000  1.0
  Cu  Cu2  1  0.08046000  0.42658000  0.17433000  1.0
  Cu  Cu3  1  0.58045000  0.57343000  0.32567000  1.0
  H  H4  1  0.76803000  0.74055000  0.79007000  1.0
  H  H5  1  0.26820000  0.25943000  0.70992000  1.0
  H  H6  1  0.23184000  0.25942000  0.20993000  1.0
  H  H7  1  0.73186000  0.74060000  0.29007000  1.0
  H  H8  1  0.69332000  0.95854000  0.03834000  1.0
  H  H9  1  0.19328000  0.04147000  0.46165000  1.0
  H  H10  1  0.30671000  0.04145000  0.96167000  1.0
  H  H11  1  0.80671000  0.95855000  0.53834000  1.0
  H  H12  1  0.95116000  0.93115000  0.18945000  1.0
  H  H13  1  0.45108000  0.06885000  0.31052000  1.0
  H  H14  1  0.04882000  0.06882000  0.81055000  1.0
  H  H15  1  0.54891000  0.93117000  0.68947000  1.0
  H  H16  1  0.22284000  0.75026000  0.17545000  1.0
  H  H17  1  0.72277000  0.24975000  0.32453000  1.0
  H  H18  1  0.77718000  0.24972000  0.82455000  1.0
  H  H19  1  0.27720000  0.75028000  0.67547000  1.0
  H  H20  1  0.22735000  0.60574000  0.01520000  1.0
  H  H21  1  0.72733000  0.39425000  0.48480000  1.0
  H  H22  1  0.77268000  0.39424000  0.98480000  1.0
  H  H23  1  0.27265000  0.60577000  0.51520000  1.0
  C  C24  1  0.82994000  0.79686000  0.94824000  1.0
  C  C25  1  0.33000000  0.20312000  0.55175000  1.0
  C  C26  1  0.17004000  0.20312000  0.05177000  1.0
  C  C27  1  0.67000000  0.79689000  0.44823000  1.0
  C  C28  1  0.69079000  0.80823000  0.85661000  1.0
  C  C29  1  0.19090000  0.19175000  0.64339000  1.0
  C  C30  1  0.30915000  0.19175000  0.14340000  1.0
  C  C31  1  0.80912000  0.80827000  0.35661000  1.0
  C  C32  1  0.81541000  0.88192000  0.03603000  1.0
  C  C33  1  0.31541000  0.11807000  0.46396000  1.0
  C  C34  1  0.18459000  0.11806000  0.96399000  1.0
  C  C35  1  0.68460000  0.88195000  0.53603000  1.0
  C  C36  1  0.95740000  0.86677000  0.11963000  1.0
  C  C37  1  0.45736000  0.13323000  0.38035000  1.0
  C  C38  1  0.04261000  0.13322000  0.88038000  1.0
  C  C39  1  0.54264000  0.86679000  0.61964000  1.0
  C  C40  1  0.10686000  0.76632000  0.11247000  1.0
  C  C41  1  0.60683000  0.23368000  0.38752000  1.0
  C  C42  1  0.89316000  0.23366000  0.88754000  1.0
  C  C43  1  0.39318000  0.76634000  0.61248000  1.0
  C  C44  1  0.11144000  0.68477000  0.02276000  1.0
  C  C45  1  0.61143000  0.31522000  0.47723000  1.0
  C  C46  1  0.88859000  0.31522000  0.97724000  1.0
  C  C47  1  0.38855000  0.68480000  0.52277000  1.0
  N  N48  1  0.97696000  0.69887000  0.94106000  1.0
  N  N49  1  0.47700000  0.30111000  0.55893000  1.0
  N  N50  1  0.02303000  0.30111000  0.05894000  1.0
  N  N51  1  0.52298000  0.69890000  0.44106000  1.0
  Cl  Cl52  1  0.45193000  0.45761000  0.84038000  1.0
  Cl  Cl53  1  0.95194000  0.54237000  0.65962000  1.0
  Cl  Cl54  1  0.54806000  0.54237000  0.15961000  1.0
  Cl  Cl55  1  0.04808000  0.45765000  0.34039000  1.0
  O  O56  1  0.49971000  0.88323000  0.85159000  1.0
  O  O57  1  0.99980000  0.11676000  0.64841000  1.0
  O  O58  1  0.50027000  0.11676000  0.14843000  1.0
  O  O59  1  0.00024000  0.88325000  0.35158000  1.0
