# generated using pymatgen
data_CdH20C28N2O5
_symmetry_space_group_name_H-M   'P 1'
_cell_length_a   10.26130000
_cell_length_b   14.65960000
_cell_length_c   18.18160000
_cell_angle_alpha   90.00010000
_cell_angle_beta   90.00020000
_cell_angle_gamma   102.70500000
_symmetry_Int_Tables_number   1
_chemical_formula_structural   CdH20C28N2O5
_chemical_formula_sum   'Cd4 H80 C112 N8 O20'
_cell_volume   2668.03003276
_cell_formula_units_Z   4
loop_
 _symmetry_equiv_pos_site_id
 _symmetry_equiv_pos_as_xyz
  1  'x, y, z'
loop_
 _atom_site_type_symbol
 _atom_site_label
 _atom_site_symmetry_multiplicity
 _atom_site_fract_x
 _atom_site_fract_y
 _atom_site_fract_z
 _atom_site_occupancy
  Cd  Cd0  1  0.92804000  0.64656000  0.99621000  1.0
  Cd  Cd1  1  0.57197000  0.85344000  0.49622000  1.0
  Cd  Cd2  1  0.07196000  0.35344000  0.00378000  1.0
  Cd  Cd3  1  0.42804000  0.14656000  0.50378000  1.0
  H  H4  1  0.22049000  0.71034000  0.08521000  1.0
  H  H5  1  0.27951000  0.78966000  0.58521000  1.0
  H  H6  1  0.77951000  0.28966000  0.91479000  1.0
  H  H7  1  0.72048000  0.21034000  0.41478000  1.0
  H  H8  1  0.33030000  0.82482000  0.18192000  1.0
  H  H9  1  0.16970000  0.67519000  0.68191000  1.0
  H  H10  1  0.66970000  0.17518000  0.81808000  1.0
  H  H11  1  0.83029000  0.32482000  0.31808000  1.0
  H  H12  1  0.19938000  0.93449000  0.23665000  1.0
  H  H13  1  0.30061000  0.56551000  0.73665000  1.0
  H  H14  1  0.80062000  0.06551000  0.76334000  1.0
  H  H15  1  0.69938000  0.43449000  0.26334000  1.0
  H  H16  1  0.98204000  0.98347000  0.24620000  1.0
  H  H17  1  0.51795000  0.51654000  0.74621000  1.0
  H  H18  1  0.01795000  0.01653000  0.75379000  1.0
  H  H19  1  0.48204000  0.48348000  0.25380000  1.0
  H  H20  1  0.74768000  0.96730000  0.20710000  1.0
  H  H21  1  0.75231000  0.53270000  0.70711000  1.0
  H  H22  1  0.25231000  0.03270000  0.79290000  1.0
  H  H23  1  0.24769000  0.46731000  0.29291000  1.0
  H  H24  1  0.55931000  0.89382000  0.12300000  1.0
  H  H25  1  0.94069000  0.60618000  0.62301000  1.0
  H  H26  1  0.44068000  0.10617000  0.87699000  1.0
  H  H27  1  0.05932000  0.39383000  0.37700000  1.0
  H  H28  1  0.47287000  0.77638000  0.02340000  1.0
  H  H29  1  0.02713000  0.72362000  0.52340000  1.0
  H  H30  1  0.52713000  0.22361000  0.97660000  1.0
  H  H31  1  0.97287000  0.27638000  0.47660000  1.0
  H  H32  1  0.62625000  0.67872000  0.97404000  1.0
  H  H33  1  0.87375000  0.82127000  0.47405000  1.0
  H  H34  1  0.37375000  0.32127000  0.02595000  1.0
  H  H35  1  0.12626000  0.17873000  0.52595000  1.0
  H  H36  1  0.08993000  0.19286000  0.66128000  1.0
  H  H37  1  0.41007000  0.30714000  0.16128000  1.0
  H  H38  1  0.91007000  0.80715000  0.33872000  1.0
  H  H39  1  0.58993000  0.69285000  0.83871000  1.0
  H  H40  1  0.88362000  0.13454000  0.58893000  1.0
  H  H41  1  0.61638000  0.36546000  0.08893000  1.0
  H  H42  1  0.11638000  0.86546000  0.41107000  1.0
  H  H43  1  0.38362000  0.63454000  0.91107000  1.0
  H  H44  1  0.71829000  0.36066000  0.66689000  1.0
  H  H45  1  0.78171000  0.13934000  0.16689000  1.0
  H  H46  1  0.28171000  0.63934000  0.33311000  1.0
  H  H47  1  0.21830000  0.86067000  0.83311000  1.0
  H  H48  1  0.92433000  0.42056000  0.74155000  1.0
  H  H49  1  0.57567000  0.07944000  0.24155000  1.0
  H  H50  1  0.07567000  0.57944000  0.25845000  1.0
  H  H51  1  0.42434000  0.92057000  0.75845000  1.0
  H  H52  1  0.28406000  0.44445000  0.86602000  1.0
  H  H53  1  0.21594000  0.05556000  0.36602000  1.0
  H  H54  1  0.71593000  0.55555000  0.13398000  1.0
  H  H55  1  0.78407000  0.94444000  0.63398000  1.0
  H  H56  1  0.49533000  0.51681000  0.92917000  1.0
  H  H57  1  0.00468000  0.98320000  0.42917000  1.0
  H  H58  1  0.50466000  0.48319000  0.07083000  1.0
  H  H59  1  0.99534000  0.01680000  0.57083000  1.0
  H  H60  1  0.70940000  0.35974000  0.79471000  1.0
  H  H61  1  0.79060000  0.14026000  0.29472000  1.0
  H  H62  1  0.29059000  0.64026000  0.20529000  1.0
  H  H63  1  0.20941000  0.85973000  0.70529000  1.0
  H  H64  1  0.49900000  0.28561000  0.72944000  1.0
  H  H65  1  0.00099000  0.21439000  0.22944000  1.0
  H  H66  1  0.50099000  0.71439000  0.27056000  1.0
  H  H67  1  0.99901000  0.78561000  0.77056000  1.0
  H  H68  1  0.27250000  0.27134000  0.70634000  1.0
  H  H69  1  0.22749000  0.22866000  0.20633000  1.0
  H  H70  1  0.72749000  0.72865000  0.29367000  1.0
  H  H71  1  0.77251000  0.77134000  0.79366000  1.0
  H  H72  1  0.12790000  0.40257000  0.79087000  1.0
  H  H73  1  0.37210000  0.09744000  0.29087000  1.0
  H  H74  1  0.87210000  0.59744000  0.20913000  1.0
  H  H75  1  0.62790000  0.90257000  0.70913000  1.0
  H  H76  1  0.00363000  0.52588000  0.10205000  1.0
  H  H77  1  0.49636000  0.97412000  0.60206000  1.0
  H  H78  1  0.99636000  0.47412000  0.89794000  1.0
  H  H79  1  0.50364000  0.02588000  0.39795000  1.0
  H  H80  1  0.87189000  0.46959000  0.06398000  1.0
  H  H81  1  0.62810000  0.03041000  0.56398000  1.0
  H  H82  1  0.12811000  0.53041000  0.93602000  1.0
  H  H83  1  0.37189000  0.96960000  0.43602000  1.0
  C  C84  1  0.16813000  0.75981000  0.11011000  1.0
  C  C85  1  0.33187000  0.74019000  0.61011000  1.0
  C  C86  1  0.83187000  0.24018000  0.88989000  1.0
  C  C87  1  0.66813000  0.25981000  0.38988000  1.0
  C  C88  1  0.22883000  0.82433000  0.16394000  1.0
  C  C89  1  0.27117000  0.67567000  0.66394000  1.0
  C  C90  1  0.77117000  0.17566000  0.83606000  1.0
  C  C91  1  0.72882000  0.32433000  0.33606000  1.0
  C  C92  1  0.15654000  0.88412000  0.19427000  1.0
  C  C93  1  0.34346000  0.61588000  0.69427000  1.0
  C  C94  1  0.84346000  0.11588000  0.80573000  1.0
  C  C95  1  0.65654000  0.38412000  0.30573000  1.0
  C  C96  1  0.02342000  0.87864000  0.17119000  1.0
  C  C97  1  0.47658000  0.62136000  0.67119000  1.0
  C  C98  1  0.97658000  0.12135000  0.82881000  1.0
  C  C99  1  0.52342000  0.37865000  0.32881000  1.0
  C  C100  1  0.94014000  0.93447000  0.20305000  1.0
  C  C101  1  0.55985000  0.56553000  0.70305000  1.0
  C  C102  1  0.05986000  0.06552000  0.79695000  1.0
  C  C103  1  0.44014000  0.43448000  0.29696000  1.0
  C  C104  1  0.81074000  0.92556000  0.18108000  1.0
  C  C105  1  0.68926000  0.57444000  0.68108000  1.0
  C  C106  1  0.18926000  0.07443000  0.81892000  1.0
  C  C107  1  0.31074000  0.42557000  0.31893000  1.0
  C  C108  1  0.75512000  0.86132000  0.12416000  1.0
  C  C109  1  0.74488000  0.63868000  0.62417000  1.0
  C  C110  1  0.24488000  0.13867000  0.87583000  1.0
  C  C111  1  0.25512000  0.36133000  0.37584000  1.0
  C  C112  1  0.62240000  0.85069000  0.09888000  1.0
  C  C113  1  0.87759000  0.64931000  0.59889000  1.0
  C  C114  1  0.37760000  0.14930000  0.90111000  1.0
  C  C115  1  0.12240000  0.35070000  0.40112000  1.0
  C  C116  1  0.57447000  0.78639000  0.04435000  1.0
  C  C117  1  0.92552000  0.71360000  0.54436000  1.0
  C  C118  1  0.42553000  0.21359000  0.95565000  1.0
  C  C119  1  0.07448000  0.28640000  0.45565000  1.0
  C  C120  1  0.65975000  0.73219000  0.01571000  1.0
  C  C121  1  0.84024000  0.76780000  0.51571000  1.0
  C  C122  1  0.34025000  0.26780000  0.98429000  1.0
  C  C123  1  0.15976000  0.23219000  0.48429000  1.0
  C  C124  1  0.83468000  0.80432000  0.09125000  1.0
  C  C125  1  0.66531000  0.69568000  0.59125000  1.0
  C  C126  1  0.16531000  0.19567000  0.90875000  1.0
  C  C127  1  0.33469000  0.30433000  0.40875000  1.0
  C  C128  1  0.97097000  0.81210000  0.11600000  1.0
  C  C129  1  0.52902000  0.68790000  0.61600000  1.0
  C  C130  1  0.02902000  0.18790000  0.88400000  1.0
  C  C131  1  0.47097000  0.31210000  0.38400000  1.0
  C  C132  1  0.02358000  0.31261000  0.70573000  1.0
  C  C133  1  0.47642000  0.18739000  0.20573000  1.0
  C  C134  1  0.97642000  0.68740000  0.29427000  1.0
  C  C135  1  0.52359000  0.81261000  0.79427000  1.0
  C  C136  1  0.01036000  0.23145000  0.66202000  1.0
  C  C137  1  0.48964000  0.26855000  0.16202000  1.0
  C  C138  1  0.98964000  0.76856000  0.33798000  1.0
  C  C139  1  0.51036000  0.73144000  0.83797000  1.0
  C  C140  1  0.89483000  0.19793000  0.62184000  1.0
  C  C141  1  0.60517000  0.30208000  0.12184000  1.0
  C  C142  1  0.10517000  0.80208000  0.37816000  1.0
  C  C143  1  0.39483000  0.69792000  0.87816000  1.0
  C  C144  1  0.78827000  0.24383000  0.62393000  1.0
  C  C145  1  0.71173000  0.25617000  0.12393000  1.0
  C  C146  1  0.21173000  0.75617000  0.37607000  1.0
  C  C147  1  0.28828000  0.74383000  0.87607000  1.0
  C  C148  1  0.80123000  0.32532000  0.66608000  1.0
  C  C149  1  0.69877000  0.17468000  0.16608000  1.0
  C  C150  1  0.19877000  0.67468000  0.33392000  1.0
  C  C151  1  0.30123000  0.82532000  0.83392000  1.0
  C  C152  1  0.91667000  0.35889000  0.70667000  1.0
  C  C153  1  0.58333000  0.14111000  0.20667000  1.0
  C  C154  1  0.08333000  0.64111000  0.29333000  1.0
  C  C155  1  0.41668000  0.85890000  0.79333000  1.0
  C  C156  1  0.37633000  0.36106000  0.79154000  1.0
  C  C157  1  0.12368000  0.13895000  0.29154000  1.0
  C  C158  1  0.62367000  0.63894000  0.20846000  1.0
  C  C159  1  0.87633000  0.86105000  0.70846000  1.0
  C  C160  1  0.37685000  0.42548000  0.84948000  1.0
  C  C161  1  0.12315000  0.07453000  0.34948000  1.0
  C  C162  1  0.62315000  0.57452000  0.15052000  1.0
  C  C163  1  0.87686000  0.92547000  0.65052000  1.0
  C  C164  1  0.49508000  0.46632000  0.88514000  1.0
  C  C165  1  0.00492000  0.03368000  0.38514000  1.0
  C  C166  1  0.50490000  0.53368000  0.11486000  1.0
  C  C167  1  0.99510000  0.96632000  0.61486000  1.0
  C  C168  1  0.61668000  0.44500000  0.86411000  1.0
  C  C169  1  0.88332000  0.05501000  0.36411000  1.0
  C  C170  1  0.38331000  0.55500000  0.13589000  1.0
  C  C171  1  0.11669000  0.94499000  0.63590000  1.0
  C  C172  1  0.61514000  0.37695000  0.80982000  1.0
  C  C173  1  0.88485000  0.12305000  0.30983000  1.0
  C  C174  1  0.38485000  0.62305000  0.19017000  1.0
  C  C175  1  0.11515000  0.87694000  0.69018000  1.0
  C  C176  1  0.49734000  0.33533000  0.77406000  1.0
  C  C177  1  0.00266000  0.16467000  0.27406000  1.0
  C  C178  1  0.50266000  0.66467000  0.22593000  1.0
  C  C179  1  0.99735000  0.83532000  0.72594000  1.0
  C  C180  1  0.74829000  0.49785000  0.89419000  1.0
  C  C181  1  0.75171000  0.00215000  0.39420000  1.0
  C  C182  1  0.25170000  0.50214000  0.10581000  1.0
  C  C183  1  0.24830000  0.99786000  0.60581000  1.0
  C  C184  1  0.66215000  0.20511000  0.58323000  1.0
  C  C185  1  0.83786000  0.29489000  0.08323000  1.0
  C  C186  1  0.33785000  0.79490000  0.41677000  1.0
  C  C187  1  0.16215000  0.70511000  0.91677000  1.0
  C  C188  1  0.25874000  0.32303000  0.74735000  1.0
  C  C189  1  0.24126000  0.17698000  0.24735000  1.0
  C  C190  1  0.74125000  0.67697000  0.25265000  1.0
  C  C191  1  0.75875000  0.82302000  0.75265000  1.0
  C  C192  1  0.14028000  0.34917000  0.75100000  1.0
  C  C193  1  0.35972000  0.15083000  0.25100000  1.0
  C  C194  1  0.85972000  0.65083000  0.24900000  1.0
  C  C195  1  0.64029000  0.84917000  0.74900000  1.0
  N  N196  1  0.78543000  0.74145000  0.03812000  1.0
  N  N197  1  0.71457000  0.75855000  0.53812000  1.0
  N  N198  1  0.21457000  0.25855000  0.96188000  1.0
  N  N199  1  0.28543000  0.24145000  0.46188000  1.0
  N  N200  1  0.04389000  0.75453000  0.08670000  1.0
  N  N201  1  0.45611000  0.74547000  0.58670000  1.0
  N  N202  1  0.95611000  0.24547000  0.91330000  1.0
  N  N203  1  0.54389000  0.25453000  0.41330000  1.0
  O  O204  1  0.85359000  0.48114000  0.86637000  1.0
  O  O205  1  0.64641000  0.01886000  0.36638000  1.0
  O  O206  1  0.14640000  0.51886000  0.13362000  1.0
  O  O207  1  0.35360000  0.98114000  0.63363000  1.0
  O  O208  1  0.74278000  0.55847000  0.94435000  1.0
  O  O209  1  0.75723000  0.94153000  0.44436000  1.0
  O  O210  1  0.25722000  0.44152000  0.05565000  1.0
  O  O211  1  0.24278000  0.05847000  0.55565000  1.0
  O  O212  1  0.55832000  0.23640000  0.59681000  1.0
  O  O213  1  0.94168000  0.26359000  0.09681000  1.0
  O  O214  1  0.44168000  0.76361000  0.40319000  1.0
  O  O215  1  0.05833000  0.73640000  0.90319000  1.0
  O  O216  1  0.66281000  0.14093000  0.53501000  1.0
  O  O217  1  0.83719000  0.35907000  0.03501000  1.0
  O  O218  1  0.33719000  0.85908000  0.46500000  1.0
  O  O219  1  0.16282000  0.64093000  0.96499000  1.0
  O  O220  1  0.91249000  0.53235000  0.08485000  1.0
  O  O221  1  0.58750000  0.96765000  0.58485000  1.0
  O  O222  1  0.08750000  0.46765000  0.91514000  1.0
  O  O223  1  0.41250000  0.03235000  0.41514000  1.0
