# generated using pymatgen
data_CdH12(C9N7)2
_symmetry_space_group_name_H-M   'P 1'
_cell_length_a   7.56963000
_cell_length_b   9.76592000
_cell_length_c   13.74610000
_cell_angle_alpha   94.62820000
_cell_angle_beta   89.99920000
_cell_angle_gamma   89.99990000
_symmetry_Int_Tables_number   1
_chemical_formula_structural   CdH12(C9N7)2
_chemical_formula_sum   'Cd2 H24 C36 N28'
_cell_volume   1012.85876085
_cell_formula_units_Z   2
loop_
 _symmetry_equiv_pos_site_id
 _symmetry_equiv_pos_as_xyz
  1  'x, y, z'
loop_
 _atom_site_type_symbol
 _atom_site_label
 _atom_site_symmetry_multiplicity
 _atom_site_fract_x
 _atom_site_fract_y
 _atom_site_fract_z
 _atom_site_occupancy
  Cd  Cd0  1  0.99998000  0.99999000  0.00000000  1.0
  Cd  Cd1  1  0.50002000  0.00000000  0.50000000  1.0
  H  H2  1  0.99278000  0.68093000  0.13634000  1.0
  H  H3  1  0.49278000  0.31907000  0.36366000  1.0
  H  H4  1  0.00722000  0.31906000  0.86366000  1.0
  H  H5  1  0.50721000  0.68093000  0.63634000  1.0
  H  H6  1  0.01154000  0.86064000  0.27479000  1.0
  H  H7  1  0.51155000  0.13937000  0.22521000  1.0
  H  H8  1  0.98846000  0.13936000  0.72521000  1.0
  H  H9  1  0.48845000  0.86064000  0.77480000  1.0
  H  H10  1  0.93682000  0.79674000  0.44423000  1.0
  H  H11  1  0.43683000  0.20326000  0.05577000  1.0
  H  H12  1  0.06318000  0.20326000  0.55577000  1.0
  H  H13  1  0.56317000  0.79674000  0.94423000  1.0
  H  H14  1  0.82957000  0.39439000  0.34379000  1.0
  H  H15  1  0.32956000  0.60561000  0.15621000  1.0
  H  H16  1  0.17043000  0.60560000  0.65620000  1.0
  H  H17  1  0.67044000  0.39439000  0.84379000  1.0
  H  H18  1  0.01949000  0.24371000  0.21005000  1.0
  H  H19  1  0.51949000  0.75629000  0.28995000  1.0
  H  H20  1  0.98051000  0.75628000  0.78995000  1.0
  H  H21  1  0.48052000  0.24371000  0.71006000  1.0
  H  H22  1  0.75954000  0.52475000  0.03688000  1.0
  H  H23  1  0.25955000  0.47526000  0.46312000  1.0
  H  H24  1  0.24045000  0.47525000  0.96312000  1.0
  H  H25  1  0.74045000  0.52475000  0.53688000  1.0
  C  C26  1  0.95823000  0.65736000  0.21021000  1.0
  C  C27  1  0.45824000  0.34264000  0.28979000  1.0
  C  C28  1  0.04177000  0.34263000  0.78978000  1.0
  C  C29  1  0.54176000  0.65736000  0.71022000  1.0
  C  C30  1  0.97051000  0.75700000  0.28809000  1.0
  C  C31  1  0.47052000  0.24300000  0.21191000  1.0
  C  C32  1  0.02949000  0.24299000  0.71191000  1.0
  C  C33  1  0.52948000  0.75700000  0.78810000  1.0
  C  C34  1  0.93032000  0.72084000  0.38170000  1.0
  C  C35  1  0.43033000  0.27916000  0.11830000  1.0
  C  C36  1  0.06968000  0.27915000  0.61829000  1.0
  C  C37  1  0.56967000  0.72084000  0.88171000  1.0
  C  C38  1  0.86948000  0.49704000  0.32612000  1.0
  C  C39  1  0.36948000  0.50296000  0.17388000  1.0
  C  C40  1  0.13051000  0.50295000  0.67388000  1.0
  C  C41  1  0.63052000  0.49704000  0.82612000  1.0
  C  C42  1  0.90683000  0.52517000  0.23001000  1.0
  C  C43  1  0.40683000  0.47484000  0.26999000  1.0
  C  C44  1  0.09317000  0.47483000  0.76999000  1.0
  C  C45  1  0.59317000  0.52516000  0.73001000  1.0
  C  C46  1  0.95775000  0.28886000  0.14895000  1.0
  C  C47  1  0.45776000  0.71115000  0.35105000  1.0
  C  C48  1  0.04224000  0.71114000  0.85105000  1.0
  C  C49  1  0.54225000  0.28886000  0.64896000  1.0
  C  C50  1  0.82562000  0.43384000  0.06030000  1.0
  C  C51  1  0.32562000  0.56617000  0.43970000  1.0
  C  C52  1  0.17438000  0.56616000  0.93970000  1.0
  C  C53  1  0.67438000  0.43384000  0.56030000  1.0
  C  C54  1  0.67235000  0.07543000  0.86198000  1.0
  C  C55  1  0.17238000  0.92456000  0.63802000  1.0
  C  C56  1  0.32762000  0.92456000  0.13803000  1.0
  C  C57  1  0.82767000  0.07546000  0.36198000  1.0
  C  C58  1  0.37312000  0.10254000  0.88081000  1.0
  C  C59  1  0.87315000  0.89746000  0.61918000  1.0
  C  C60  1  0.62684000  0.89745000  0.11919000  1.0
  C  C61  1  0.12689000  0.10255000  0.38081000  1.0
  N  N62  1  0.88028000  0.59385000  0.40080000  1.0
  N  N63  1  0.38028000  0.40615000  0.09920000  1.0
  N  N64  1  0.11972000  0.40614000  0.59920000  1.0
  N  N65  1  0.61972000  0.59385000  0.90080000  1.0
  N  N66  1  0.89428000  0.42048000  0.15183000  1.0
  N  N67  1  0.39428000  0.57952000  0.34817000  1.0
  N  N68  1  0.10572000  0.57951000  0.84817000  1.0
  N  N69  1  0.60572000  0.42048000  0.65183000  1.0
  N  N70  1  0.84534000  0.31825000  0.00514000  1.0
  N  N71  1  0.34535000  0.68176000  0.49486000  1.0
  N  N72  1  0.15465000  0.68174000  0.99486000  1.0
  N  N73  1  0.65466000  0.31825000  0.50515000  1.0
  N  N74  1  0.92947000  0.22726000  0.06146000  1.0
  N  N75  1  0.42949000  0.77274000  0.43854000  1.0
  N  N76  1  0.07051000  0.77273000  0.93854000  1.0
  N  N77  1  0.57053000  0.22726000  0.56147000  1.0
  N  N78  1  0.81135000  0.02145000  0.86700000  1.0
  N  N79  1  0.31139000  0.97854000  0.63300000  1.0
  N  N80  1  0.18861000  0.97854000  0.13300000  1.0
  N  N81  1  0.68865000  0.02147000  0.36700000  1.0
  N  N82  1  0.52619000  0.14095000  0.85073000  1.0
  N  N83  1  0.02622000  0.85905000  0.64927000  1.0
  N  N84  1  0.47377000  0.85905000  0.14927000  1.0
  N  N85  1  0.97382000  0.14096000  0.35073000  1.0
  N  N86  1  0.22786000  0.07900000  0.90522000  1.0
  N  N87  1  0.72789000  0.92099000  0.59477000  1.0
  N  N88  1  0.77209000  0.92099000  0.09478000  1.0
  N  N89  1  0.27214000  0.07900000  0.40522000  1.0
