# generated using pymatgen
data_MnH12C19N12
_symmetry_space_group_name_H-M   'P 1'
_cell_length_a   7.47911000
_cell_length_b   12.17150000
_cell_length_c   12.61660000
_cell_angle_alpha   65.27830000
_cell_angle_beta   82.82410000
_cell_angle_gamma   88.20800000
_symmetry_Int_Tables_number   1
_chemical_formula_structural   MnH12C19N12
_chemical_formula_sum   'Mn2 H24 C38 N24'
_cell_volume   1034.80098790
_cell_formula_units_Z   2
loop_
 _symmetry_equiv_pos_site_id
 _symmetry_equiv_pos_as_xyz
  1  'x, y, z'
loop_
 _atom_site_type_symbol
 _atom_site_label
 _atom_site_symmetry_multiplicity
 _atom_site_fract_x
 _atom_site_fract_y
 _atom_site_fract_z
 _atom_site_occupancy
  Mn  Mn0  1  0.00000000  0.00000000  0.00000000  1.0
  Mn  Mn1  1  0.00000000  0.50000000  0.00000000  1.0
  H  H2  1  0.03910000  0.27542000  0.90138000  1.0
  H  H3  1  0.96089000  0.72458000  0.09862000  1.0
  H  H4  1  0.03381000  0.45908000  0.71249000  1.0
  H  H5  1  0.96619000  0.54092000  0.28751000  1.0
  H  H6  1  0.01679000  0.22039000  0.53883000  1.0
  H  H7  1  0.98321000  0.77961000  0.46117000  1.0
  H  H8  1  0.02339000  0.04561000  0.73612000  1.0
  H  H9  1  0.97661000  0.95439000  0.26388000  1.0
  H  H10  1  0.29808000  0.90768000  0.68241000  1.0
  H  H11  1  0.70193000  0.09232000  0.31758000  1.0
  H  H12  1  0.26272000  0.71460000  0.86630000  1.0
  H  H13  1  0.73729000  0.28540000  0.13370000  1.0
  H  H14  1  0.75674000  0.84487000  0.63081000  1.0
  H  H15  1  0.24326000  0.15512000  0.36920000  1.0
  H  H16  1  0.73900000  0.66030000  0.82173000  1.0
  H  H17  1  0.26101000  0.33971000  0.17828000  1.0
  H  H18  1  0.49369000  0.89575000  0.20430000  1.0
  H  H19  1  0.50631000  0.10425000  0.79569000  1.0
  H  H20  1  0.47975000  0.66900000  0.29263000  1.0
  H  H21  1  0.52026000  0.33101000  0.70736000  1.0
  H  H22  1  0.47609000  0.67424000  0.63249000  1.0
  H  H23  1  0.52390000  0.32576000  0.36751000  1.0
  H  H24  1  0.49655000  0.90158000  0.52973000  1.0
  H  H25  1  0.50343000  0.09842000  0.47026000  1.0
  C  C26  1  0.62419000  0.12191000  0.05558000  1.0
  C  C27  1  0.37580000  0.87809000  0.94442000  1.0
  C  C28  1  0.31811000  0.12756000  0.06587000  1.0
  C  C29  1  0.68189000  0.87245000  0.93414000  1.0
  C  C30  1  0.03302000  0.26718000  0.81929000  1.0
  C  C31  1  0.96698000  0.73282000  0.18071000  1.0
  C  C32  1  0.02815000  0.36897000  0.71476000  1.0
  C  C33  1  0.97184000  0.63103000  0.28524000  1.0
  C  C34  1  0.02017000  0.35341000  0.61120000  1.0
  C  C35  1  0.97983000  0.64659000  0.38880000  1.0
  C  C36  1  0.01950000  0.23546000  0.61784000  1.0
  C  C37  1  0.98050000  0.76454000  0.38216000  1.0
  C  C38  1  0.02446000  0.13868000  0.72652000  1.0
  C  C39  1  0.97554000  0.86132000  0.27348000  1.0
  C  C40  1  0.62813000  0.55369000  0.12883000  1.0
  C  C41  1  0.37185000  0.44630000  0.87119000  1.0
  C  C42  1  0.32783000  0.56405000  0.11376000  1.0
  C  C43  1  0.67217000  0.43594000  0.88625000  1.0
  C  C44  1  0.17566000  0.85142000  0.70765000  1.0
  C  C45  1  0.82434000  0.14857000  0.29235000  1.0
  C  C46  1  0.15496000  0.74620000  0.81070000  1.0
  C  C47  1  0.84504000  0.25380000  0.18930000  1.0
  C  C48  1  0.03288000  0.88662000  0.63886000  1.0
  C  C49  1  0.96712000  0.11338000  0.36114000  1.0
  C  C50  1  0.87212000  0.81654000  0.67977000  1.0
  C  C51  1  0.12789000  0.18345000  0.32024000  1.0
  C  C52  1  0.86249000  0.71508000  0.78534000  1.0
  C  C53  1  0.13752000  0.28492000  0.21466000  1.0
  C  C54  1  0.49170000  0.84417000  0.29910000  1.0
  C  C55  1  0.50829000  0.15583000  0.70089000  1.0
  C  C56  1  0.48521000  0.71827000  0.34712000  1.0
  C  C57  1  0.51479000  0.28173000  0.65287000  1.0
  C  C58  1  0.48167000  0.65552000  0.46936000  1.0
  C  C59  1  0.51832000  0.34449000  0.53063000  1.0
  C  C60  1  0.48181000  0.72166000  0.53721000  1.0
  C  C61  1  0.51818000  0.27834000  0.46278000  1.0
  C  C62  1  0.49232000  0.84752000  0.47939000  1.0
  C  C63  1  0.50767000  0.15248000  0.52060000  1.0
  N  N64  1  0.76907000  0.08313000  0.04736000  1.0
  N  N65  1  0.23093000  0.91688000  0.95263000  1.0
  N  N66  1  0.47253000  0.17254000  0.06640000  1.0
  N  N67  1  0.52747000  0.82746000  0.93360000  1.0
  N  N68  1  0.17196000  0.09341000  0.06630000  1.0
  N  N69  1  0.82803000  0.90660000  0.93370000  1.0
  N  N70  1  0.03270000  0.15360000  0.82579000  1.0
  N  N71  1  0.96730000  0.84640000  0.17422000  1.0
  N  N72  1  0.01903000  0.44904000  0.49894000  1.0
  N  N73  1  0.98097000  0.55096000  0.50106000  1.0
  N  N74  1  0.78279000  0.54941000  0.09837000  1.0
  N  N75  1  0.21722000  0.45058000  0.90164000  1.0
  N  N76  1  0.46239000  0.55705000  0.17100000  1.0
  N  N77  1  0.53761000  0.44294000  0.82901000  1.0
  N  N78  1  0.19628000  0.56884000  0.06935000  1.0
  N  N79  1  0.80372000  0.43116000  0.93066000  1.0
  N  N80  1  0.00106000  0.67911000  0.85042000  1.0
  N  N81  1  0.99894000  0.32090000  0.14958000  1.0
  N  N82  1  0.05781000  0.99358000  0.53539000  1.0
  N  N83  1  0.94220000  0.00641000  0.46461000  1.0
  N  N84  1  0.49688000  0.90943000  0.36255000  1.0
  N  N85  1  0.50311000  0.09058000  0.63744000  1.0
  N  N86  1  0.47090000  0.52772000  0.53099000  1.0
  N  N87  1  0.52911000  0.47229000  0.46899000  1.0
