# generated using pymatgen
data_ZnH16C18(N2O3)3
_symmetry_space_group_name_H-M   'P 1'
_cell_length_a   9.51842000
_cell_length_b   10.90340000
_cell_length_c   11.25900000
_cell_angle_alpha   100.16100000
_cell_angle_beta   100.81200000
_cell_angle_gamma   111.91900000
_symmetry_Int_Tables_number   1
_chemical_formula_structural   ZnH16C18(N2O3)3
_chemical_formula_sum   'Zn2 H32 C36 N12 O18'
_cell_volume   1025.10488461
_cell_formula_units_Z   2
loop_
 _symmetry_equiv_pos_site_id
 _symmetry_equiv_pos_as_xyz
  1  'x, y, z'
loop_
 _atom_site_type_symbol
 _atom_site_label
 _atom_site_symmetry_multiplicity
 _atom_site_fract_x
 _atom_site_fract_y
 _atom_site_fract_z
 _atom_site_occupancy
  Zn  Zn0  1  0.29947000  0.67948000  0.11959000  1.0
  Zn  Zn1  1  0.70053000  0.32052000  0.88041000  1.0
  H  H2  1  0.05326000  0.87839000  0.00322000  1.0
  H  H3  1  0.94674000  0.12160000  0.99678000  1.0
  H  H4  1  0.90590000  0.70558000  0.96537000  1.0
  H  H5  1  0.09409000  0.29441000  0.03463000  1.0
  H  H6  1  0.53922000  0.70441000  0.66049000  1.0
  H  H7  1  0.46078000  0.29559000  0.33951000  1.0
  H  H8  1  0.52638000  0.75169000  0.81650000  1.0
  H  H9  1  0.47362000  0.24831000  0.18351000  1.0
  H  H10  1  0.73969000  0.66774000  0.79327000  1.0
  H  H11  1  0.26031000  0.33226000  0.20673000  1.0
  H  H12  1  0.83949000  0.81846000  0.74751000  1.0
  H  H13  1  0.16051000  0.18154000  0.25249000  1.0
  H  H14  1  0.63411000  0.02026000  0.92508000  1.0
  H  H15  1  0.36589000  0.97974000  0.07492000  1.0
  H  H16  1  0.63247000  0.86759000  0.08997000  1.0
  H  H17  1  0.36753000  0.13241000  0.91004000  1.0
  H  H18  1  0.71121000  0.10365000  0.24616000  1.0
  H  H19  1  0.28879000  0.89635000  0.75385000  1.0
  H  H20  1  0.00828000  0.81831000  0.19815000  1.0
  H  H21  1  0.99172000  0.18169000  0.80185000  1.0
  H  H22  1  0.94381000  0.94833000  0.17480000  1.0
  H  H23  1  0.05620000  0.05167000  0.82519000  1.0
  H  H24  1  0.80916000  0.59000000  0.20046000  1.0
  H  H25  1  0.19084000  0.41000000  0.79954000  1.0
  H  H26  1  0.13137000  0.29533000  0.55847000  1.0
  H  H27  1  0.86863000  0.70467000  0.44153000  1.0
  H  H28  1  0.66267000  0.15891000  0.59972000  1.0
  H  H29  1  0.33734000  0.84110000  0.40028000  1.0
  H  H30  1  0.60714000  0.88270000  0.54198000  1.0
  H  H31  1  0.39286000  0.11730000  0.45802000  1.0
  H  H32  1  0.48608000  0.49066000  0.18374000  1.0
  H  H33  1  0.51392000  0.50934000  0.81626000  1.0
  C  C34  1  0.93229000  0.81446000  0.00372000  1.0
  C  C35  1  0.06771000  0.18553000  0.99627000  1.0
  C  C36  1  0.60022000  0.77880000  0.75270000  1.0
  C  C37  1  0.39978000  0.22120000  0.24730000  1.0
  C  C38  1  0.75780000  0.77542000  0.80291000  1.0
  C  C39  1  0.24220000  0.22458000  0.19709000  1.0
  C  C40  1  0.63807000  0.02258000  0.83006000  1.0
  C  C41  1  0.36193000  0.97742000  0.16994000  1.0
  C  C42  1  0.63467000  0.77841000  0.11832000  1.0
  C  C43  1  0.36534000  0.22160000  0.88168000  1.0
  C  C44  1  0.02712000  0.41121000  0.30435000  1.0
  C  C45  1  0.97288000  0.58879000  0.69564000  1.0
  C  C46  1  0.09223000  0.53235000  0.25038000  1.0
  C  C47  1  0.90777000  0.46765000  0.74962000  1.0
  C  C48  1  0.82524000  0.18870000  0.29480000  1.0
  C  C49  1  0.17476000  0.81130000  0.70520000  1.0
  C  C50  1  0.92114000  0.84047000  0.13797000  1.0
  C  C51  1  0.07886000  0.15953000  0.86203000  1.0
  C  C52  1  0.77733000  0.28401000  0.11562000  1.0
  C  C53  1  0.22267000  0.71598000  0.88438000  1.0
  C  C54  1  0.88023000  0.29853000  0.24242000  1.0
  C  C55  1  0.11976000  0.70147000  0.75758000  1.0
  C  C56  1  0.11248000  0.40563000  0.41844000  1.0
  C  C57  1  0.88752000  0.59437000  0.58156000  1.0
  C  C58  1  0.72218000  0.62988000  0.17558000  1.0
  C  C59  1  0.27783000  0.37012000  0.82442000  1.0
  C  C60  1  0.06074000  0.29623000  0.47095000  1.0
  C  C61  1  0.93926000  0.70377000  0.52905000  1.0
  C  C62  1  0.64802000  0.08879000  0.65828000  1.0
  C  C63  1  0.35198000  0.91121000  0.34172000  1.0
  C  C64  1  0.62053000  0.95281000  0.62869000  1.0
  C  C65  1  0.37947000  0.04719000  0.37131000  1.0
  C  C66  1  0.56412000  0.58286000  0.16612000  1.0
  C  C67  1  0.43589000  0.41714000  0.83388000  1.0
  C  C68  1  0.91589000  0.18827000  0.40687000  1.0
  C  C69  1  0.08411000  0.81173000  0.59313000  1.0
  N  N70  1  0.26837000  0.51589000  0.48820000  1.0
  N  N71  1  0.73162000  0.48411000  0.51180000  1.0
  N  N72  1  0.86044000  0.06931000  0.45733000  1.0
  N  N73  1  0.13957000  0.93069000  0.54267000  1.0
  N  N74  1  0.51083000  0.67626000  0.13021000  1.0
  N  N75  1  0.48917000  0.32374000  0.86979000  1.0
  N  N76  1  0.76493000  0.75426000  0.14581000  1.0
  N  N77  1  0.23508000  0.24574000  0.85420000  1.0
  N  N78  1  0.65897000  0.13117000  0.78411000  1.0
  N  N79  1  0.34103000  0.86883000  0.21589000  1.0
  N  N80  1  0.61545000  0.91303000  0.73813000  1.0
  N  N81  1  0.38455000  0.08697000  0.26188000  1.0
  O  O82  1  0.04077000  0.62133000  0.26566000  1.0
  O  O83  1  0.95923000  0.37867000  0.73434000  1.0
  O  O84  1  0.19996000  0.53032000  0.19675000  1.0
  O  O85  1  0.80004000  0.46968000  0.80325000  1.0
  O  O86  1  0.29589000  0.63460000  0.48121000  1.0
  O  O87  1  0.70411000  0.36541000  0.51879000  1.0
  O  O88  1  0.36289000  0.48297000  0.55181000  1.0
  O  O89  1  0.63711000  0.51703000  0.44819000  1.0
  O  O90  1  0.82113000  0.85137000  0.93174000  1.0
  O  O91  1  0.17886000  0.14863000  0.06826000  1.0
  O  O92  1  0.84235000  0.36567000  0.05239000  1.0
  O  O93  1  0.15765000  0.63433000  0.94761000  1.0
  O  O94  1  0.63929000  0.19179000  0.07924000  1.0
  O  O95  1  0.36071000  0.80821000  0.92076000  1.0
  O  O96  1  0.93632000  0.07783000  0.56296000  1.0
  O  O97  1  0.06369000  0.92218000  0.43704000  1.0
  O  O98  1  0.74124000  0.96641000  0.39016000  1.0
  O  O99  1  0.25877000  0.03359000  0.60984000  1.0
