# generated using pymatgen
data_Lu2CuH16C24(N2O5)4
_symmetry_space_group_name_H-M   'P 1'
_cell_length_a   6.00349000
_cell_length_b   12.05020000
_cell_length_c   21.66310000
_cell_angle_alpha   90.00020000
_cell_angle_beta   90.00030000
_cell_angle_gamma   87.57130000
_symmetry_Int_Tables_number   1
_chemical_formula_structural   Lu2CuH16C24(N2O5)4
_chemical_formula_sum   'Lu4 Cu2 H32 C48 N16 O40'
_cell_volume   1565.77141980
_cell_formula_units_Z   2
loop_
 _symmetry_equiv_pos_site_id
 _symmetry_equiv_pos_as_xyz
  1  'x, y, z'
loop_
 _atom_site_type_symbol
 _atom_site_label
 _atom_site_symmetry_multiplicity
 _atom_site_fract_x
 _atom_site_fract_y
 _atom_site_fract_z
 _atom_site_occupancy
  Lu  Lu0  1  0.97921000  0.56629000  0.34144000  1.0
  Lu  Lu1  1  0.52077000  0.93371000  0.84144000  1.0
  Lu  Lu2  1  0.02074000  0.43372000  0.65856000  1.0
  Lu  Lu3  1  0.47923000  0.06630000  0.15856000  1.0
  Cu  Cu4  1  0.50000000  0.99999000  0.50000000  1.0
  Cu  Cu5  1  0.00002000  0.50000000  0.00000000  1.0
  H  H6  1  0.39242000  0.58232000  0.40978000  1.0
  H  H7  1  0.20903000  0.65103000  0.45308000  1.0
  H  H8  1  0.11754000  0.34403000  0.36823000  1.0
  H  H9  1  0.93482000  0.35465000  0.42147000  1.0
  H  H10  1  0.62438000  0.89817000  0.29332000  1.0
  H  H11  1  0.46427000  0.73550000  0.34993000  1.0
  H  H12  1  0.31607000  0.12758000  0.38832000  1.0
  H  H13  1  0.00196000  0.08685000  0.31514000  1.0
  H  H14  1  0.10759000  0.91769000  0.90978000  1.0
  H  H15  1  0.29096000  0.84897000  0.95308000  1.0
  H  H16  1  0.38246000  0.15596000  0.86823000  1.0
  H  H17  1  0.56518000  0.14536000  0.92148000  1.0
  H  H18  1  0.87561000  0.60183000  0.79332000  1.0
  H  H19  1  0.03574000  0.76450000  0.84993000  1.0
  H  H20  1  0.18392000  0.37241000  0.88831000  1.0
  H  H21  1  0.49801000  0.41314000  0.81514000  1.0
  H  H22  1  0.60758000  0.41768000  0.59022000  1.0
  H  H23  1  0.79095000  0.34897000  0.54692000  1.0
  H  H24  1  0.88245000  0.65596000  0.63177000  1.0
  H  H25  1  0.06518000  0.64536000  0.57853000  1.0
  H  H26  1  0.37560000  0.10182000  0.70668000  1.0
  H  H27  1  0.53571000  0.26449000  0.65007000  1.0
  H  H28  1  0.68395000  0.87242000  0.61169000  1.0
  H  H29  1  0.99807000  0.91315000  0.68486000  1.0
  H  H30  1  0.89240000  0.08231000  0.09022000  1.0
  H  H31  1  0.70903000  0.15103000  0.04692000  1.0
  H  H32  1  0.61753000  0.84404000  0.13176000  1.0
  H  H33  1  0.43482000  0.85464000  0.07852000  1.0
  H  H34  1  0.12438000  0.39816000  0.20668000  1.0
  H  H35  1  0.96426000  0.23550000  0.15006000  1.0
  H  H36  1  0.81611000  0.62759000  0.11168000  1.0
  H  H37  1  0.50200000  0.58686000  0.18486000  1.0
  C  C38  1  0.86316000  0.73025000  0.22708000  1.0
  C  C39  1  0.06360000  0.78943000  0.25004000  1.0
  C  C40  1  0.13717000  0.88894000  0.22511000  1.0
  C  C41  1  0.00021000  0.96963000  0.18551000  1.0
  C  C42  1  0.46039000  0.86818000  0.28179000  1.0
  C  C43  1  0.37437000  0.77692000  0.31226000  1.0
  C  C44  1  0.79221000  0.79065000  0.42346000  1.0
  C  C45  1  0.95759000  0.87957000  0.41224000  1.0
  C  C46  1  0.13562000  0.89922000  0.45181000  1.0
  C  C47  1  0.20219000  0.83289000  0.50869000  1.0
  C  C48  1  0.21362000  0.05610000  0.39432000  1.0
  C  C49  1  0.03744000  0.03302000  0.35470000  1.0
  C  C50  1  0.63683000  0.76976000  0.72708000  1.0
  C  C51  1  0.43639000  0.71057000  0.75004000  1.0
  C  C52  1  0.36283000  0.61106000  0.72511000  1.0
  C  C53  1  0.49979000  0.53039000  0.68551000  1.0
  C  C54  1  0.03960000  0.63183000  0.78179000  1.0
  C  C55  1  0.12562000  0.72308000  0.81226000  1.0
  C  C56  1  0.70778000  0.70934000  0.92345000  1.0
  C  C57  1  0.54239000  0.62041000  0.91224000  1.0
  C  C58  1  0.36437000  0.60078000  0.95181000  1.0
  C  C59  1  0.29785000  0.66710000  0.00868000  1.0
  C  C60  1  0.28638000  0.44389000  0.89432000  1.0
  C  C61  1  0.46256000  0.46696000  0.85469000  1.0
  C  C62  1  0.13683000  0.26975000  0.77292000  1.0
  C  C63  1  0.93639000  0.21056000  0.74996000  1.0
  C  C64  1  0.86280000  0.11107000  0.77489000  1.0
  C  C65  1  0.99980000  0.03038000  0.81449000  1.0
  C  C66  1  0.53959000  0.13182000  0.71821000  1.0
  C  C67  1  0.62561000  0.22307000  0.68774000  1.0
  C  C68  1  0.20779000  0.20935000  0.57654000  1.0
  C  C69  1  0.04241000  0.12042000  0.58776000  1.0
  C  C70  1  0.86439000  0.10078000  0.54819000  1.0
  C  C71  1  0.79783000  0.16711000  0.49132000  1.0
  C  C72  1  0.78640000  0.94391000  0.60569000  1.0
  C  C73  1  0.96258000  0.96698000  0.64530000  1.0
  C  C74  1  0.36314000  0.23025000  0.27292000  1.0
  C  C75  1  0.56358000  0.28943000  0.24996000  1.0
  C  C76  1  0.63715000  0.38893000  0.27489000  1.0
  C  C77  1  0.50018000  0.46961000  0.31448000  1.0
  C  C78  1  0.96040000  0.36817000  0.21820000  1.0
  C  C79  1  0.87437000  0.27692000  0.18774000  1.0
  C  C80  1  0.29224000  0.29066000  0.07654000  1.0
  C  C81  1  0.45766000  0.37960000  0.08776000  1.0
  C  C82  1  0.63564000  0.39922000  0.04819000  1.0
  C  C83  1  0.70217000  0.33289000  0.99132000  1.0
  C  C84  1  0.71364000  0.55609000  0.10568000  1.0
  C  C85  1  0.53746000  0.53303000  0.14530000  1.0
  N  N86  1  0.18207000  0.73503000  0.29425000  1.0
  N  N87  1  0.34363000  0.92212000  0.23768000  1.0
  N  N88  1  0.91166000  0.94564000  0.36321000  1.0
  N  N89  1  0.25903000  0.98825000  0.44165000  1.0
  N  N90  1  0.31792000  0.76498000  0.79425000  1.0
  N  N91  1  0.15638000  0.57789000  0.73769000  1.0
  N  N92  1  0.58832000  0.55435000  0.86321000  1.0
  N  N93  1  0.24098000  0.51174000  0.94164000  1.0
  N  N94  1  0.81790000  0.26497000  0.70576000  1.0
  N  N95  1  0.65636000  0.07789000  0.76232000  1.0
  N  N96  1  0.08836000  0.05436000  0.63679000  1.0
  N  N97  1  0.74098000  0.01175000  0.55836000  1.0
  N  N98  1  0.68206000  0.23502000  0.20575000  1.0
  N  N99  1  0.84362000  0.42212000  0.26232000  1.0
  N  N100  1  0.41169000  0.44565000  0.13680000  1.0
  N  N101  1  0.75904000  0.48825000  0.05835000  1.0
  O  O102  1  0.80572000  0.64875000  0.26060000  1.0
  O  O103  1  0.23440000  0.60587000  0.41522000  1.0
  O  O104  1  0.77421000  0.75971000  0.17727000  1.0
  O  O105  1  0.01158000  0.39696000  0.38921000  1.0
  O  O106  1  0.10608000  0.01838000  0.14337000  1.0
  O  O107  1  0.79727000  0.98885000  0.19945000  1.0
  O  O108  1  0.62842000  0.81799000  0.45621000  1.0
  O  O109  1  0.82185000  0.69822000  0.39536000  1.0
  O  O110  1  0.13093000  0.73664000  0.51532000  1.0
  O  O111  1  0.32565000  0.88361000  0.54666000  1.0
  O  O112  1  0.69428000  0.85125000  0.76060000  1.0
  O  O113  1  0.26560000  0.89413000  0.91522000  1.0
  O  O114  1  0.72576000  0.74029000  0.67727000  1.0
  O  O115  1  0.48841000  0.10305000  0.88921000  1.0
  O  O116  1  0.39393000  0.48163000  0.64337000  1.0
  O  O117  1  0.70272000  0.51116000  0.69945000  1.0
  O  O118  1  0.87155000  0.68200000  0.95621000  1.0
  O  O119  1  0.67816000  0.80178000  0.89535000  1.0
  O  O120  1  0.36909000  0.76335000  0.01532000  1.0
  O  O121  1  0.17440000  0.61639000  0.04665000  1.0
  O  O122  1  0.19425000  0.35125000  0.73939000  1.0
  O  O123  1  0.76559000  0.39413000  0.58479000  1.0
  O  O124  1  0.22579000  0.24029000  0.82273000  1.0
  O  O125  1  0.98840000  0.60304000  0.61079000  1.0
  O  O126  1  0.89393000  0.98163000  0.85663000  1.0
  O  O127  1  0.20273000  0.01116000  0.80055000  1.0
  O  O128  1  0.37156000  0.18202000  0.54378000  1.0
  O  O129  1  0.17817000  0.30179000  0.60465000  1.0
  O  O130  1  0.86910000  0.26335000  0.48468000  1.0
  O  O131  1  0.67437000  0.11639000  0.45335000  1.0
  O  O132  1  0.30573000  0.14875000  0.23939000  1.0
  O  O133  1  0.73439000  0.10588000  0.08479000  1.0
  O  O134  1  0.27424000  0.25971000  0.32273000  1.0
  O  O135  1  0.51158000  0.89696000  0.11079000  1.0
  O  O136  1  0.60605000  0.51837000  0.35663000  1.0
  O  O137  1  0.29728000  0.48883000  0.30055000  1.0
  O  O138  1  0.12848000  0.31799000  0.04377000  1.0
  O  O139  1  0.32183000  0.19823000  0.10466000  1.0
  O  O140  1  0.63093000  0.23665000  0.98467000  1.0
  O  O141  1  0.82562000  0.38361000  0.95335000  1.0
