# generated using pymatgen
data_CuH5C5N3ClO2
_symmetry_space_group_name_H-M   'P 1'
_cell_length_a   3.69216000
_cell_length_b   13.15820000
_cell_length_c   15.30880000
_cell_angle_alpha   90.00030000
_cell_angle_beta   90.00010000
_cell_angle_gamma   91.60400000
_symmetry_Int_Tables_number   1
_chemical_formula_structural   CuH5C5N3ClO2
_chemical_formula_sum   'Cu4 H20 C20 N12 Cl4 O8'
_cell_volume   743.44345015
_cell_formula_units_Z   4
loop_
 _symmetry_equiv_pos_site_id
 _symmetry_equiv_pos_as_xyz
  1  'x, y, z'
loop_
 _atom_site_type_symbol
 _atom_site_label
 _atom_site_symmetry_multiplicity
 _atom_site_fract_x
 _atom_site_fract_y
 _atom_site_fract_z
 _atom_site_occupancy
  Cu  Cu0  1  0.82963000  0.08478000  0.97870000  1.0
  Cu  Cu1  1  0.17037000  0.41522000  0.47870000  1.0
  Cu  Cu2  1  0.17037000  0.91522000  0.02130000  1.0
  Cu  Cu3  1  0.82962000  0.58479000  0.52130000  1.0
  H  H4  1  0.15444000  0.01343000  0.81805000  1.0
  H  H5  1  0.84554000  0.48657000  0.31805000  1.0
  H  H6  1  0.84558000  0.98657000  0.18195000  1.0
  H  H7  1  0.15444000  0.51344000  0.68195000  1.0
  H  H8  1  0.85016000  0.36710000  0.75068000  1.0
  H  H9  1  0.14983000  0.13290000  0.25068000  1.0
  H  H10  1  0.14984000  0.63289000  0.24932000  1.0
  H  H11  1  0.85016000  0.86710000  0.74932000  1.0
  H  H12  1  0.63455000  0.26571000  0.96794000  1.0
  H  H13  1  0.36544000  0.23429000  0.46794000  1.0
  H  H14  1  0.36546000  0.73430000  0.03206000  1.0
  H  H15  1  0.63455000  0.76571000  0.53206000  1.0
  H  H16  1  0.61389000  0.37142000  0.89777000  1.0
  H  H17  1  0.38611000  0.12858000  0.39777000  1.0
  H  H18  1  0.38611000  0.62858000  0.10223000  1.0
  H  H19  1  0.61388000  0.87142000  0.60223000  1.0
  H  H20  1  0.15567000  0.26512000  0.63644000  1.0
  H  H21  1  0.84432000  0.23488000  0.13644000  1.0
  H  H22  1  0.84433000  0.73489000  0.36356000  1.0
  H  H23  1  0.15567000  0.76511000  0.86356000  1.0
  C  C24  1  0.08954000  0.09132000  0.80151000  1.0
  C  C25  1  0.91045000  0.40868000  0.30151000  1.0
  C  C26  1  0.91048000  0.90868000  0.19849000  1.0
  C  C27  1  0.08954000  0.59132000  0.69849000  1.0
  C  C28  1  0.92476000  0.28907000  0.76302000  1.0
  C  C29  1  0.07524000  0.21092000  0.26302000  1.0
  C  C30  1  0.07524000  0.71093000  0.23698000  1.0
  C  C31  1  0.92476000  0.78908000  0.73698000  1.0
  C  C32  1  0.09032000  0.23286000  0.70004000  1.0
  C  C33  1  0.90967000  0.26714000  0.20003000  1.0
  C  C34  1  0.90969000  0.76714000  0.29996000  1.0
  C  C35  1  0.09032000  0.73286000  0.79997000  1.0
  C  C36  1  0.17456000  0.13163000  0.71951000  1.0
  C  C37  1  0.82544000  0.36837000  0.21951000  1.0
  C  C38  1  0.82546000  0.86837000  0.28049000  1.0
  C  C39  1  0.17456000  0.63163000  0.78049000  1.0
  C  C40  1  0.84629000  0.24500000  0.84584000  1.0
  C  C41  1  0.15369000  0.25500000  0.34584000  1.0
  C  C42  1  0.15371000  0.75500000  0.15416000  1.0
  C  C43  1  0.84630000  0.74500000  0.65416000  1.0
  N  N44  1  0.92842000  0.14576000  0.86364000  1.0
  N  N45  1  0.07157000  0.35424000  0.36363000  1.0
  N  N46  1  0.07159000  0.85425000  0.13637000  1.0
  N  N47  1  0.92842000  0.64576000  0.63636000  1.0
  N  N48  1  0.35039000  0.07060000  0.65582000  1.0
  N  N49  1  0.64961000  0.42940000  0.15581000  1.0
  N  N50  1  0.64962000  0.92940000  0.34419000  1.0
  N  N51  1  0.35040000  0.57060000  0.84418000  1.0
  N  N52  1  0.68977000  0.29837000  0.90895000  1.0
  N  N53  1  0.31022000  0.20162000  0.40895000  1.0
  N  N54  1  0.31023000  0.70163000  0.09105000  1.0
  N  N55  1  0.68976000  0.79838000  0.59105000  1.0
  Cl  Cl56  1  0.34089000  0.09849000  0.06867000  1.0
  Cl  Cl57  1  0.65911000  0.40151000  0.56867000  1.0
  Cl  Cl58  1  0.65912000  0.90151000  0.93133000  1.0
  Cl  Cl59  1  0.34088000  0.59849000  0.43133000  1.0
  O  O60  1  0.43663000  0.10915000  0.58421000  1.0
  O  O61  1  0.56337000  0.39085000  0.08421000  1.0
  O  O62  1  0.56337000  0.89084000  0.41579000  1.0
  O  O63  1  0.43664000  0.60915000  0.91579000  1.0
  O  O64  1  0.41377000  0.97975000  0.67540000  1.0
  O  O65  1  0.58623000  0.52025000  0.17540000  1.0
  O  O66  1  0.58624000  0.02025000  0.32460000  1.0
  O  O67  1  0.41378000  0.47975000  0.82460000  1.0
