# generated using pymatgen
data_ZnH17C28NO7
_symmetry_space_group_name_H-M   'P 1'
_cell_length_a   16.90680000
_cell_length_b   18.33140000
_cell_length_c   19.45910000
_cell_angle_alpha   90.02600000
_cell_angle_beta   90.28560000
_cell_angle_gamma   94.95480000
_symmetry_Int_Tables_number   1
_chemical_formula_structural   ZnH17C28NO7
_chemical_formula_sum   'Zn2 H34 C56 N2 O14'
_cell_volume   6008.25417521
_cell_formula_units_Z   2
loop_
 _symmetry_equiv_pos_site_id
 _symmetry_equiv_pos_as_xyz
  1  'x, y, z'
loop_
 _atom_site_type_symbol
 _atom_site_label
 _atom_site_symmetry_multiplicity
 _atom_site_fract_x
 _atom_site_fract_y
 _atom_site_fract_z
 _atom_site_occupancy
  Zn  Zn0  1  0.49474000  0.42017000  0.49109000  1.0
  Zn  Zn1  1  0.49857000  0.57701000  0.48589000  1.0
  H  H2  1  0.26203000  0.59888000  0.50300000  1.0
  H  H3  1  0.72937000  0.40302000  0.58884000  1.0
  H  H4  1  0.36922000  0.46263000  0.93812000  1.0
  H  H5  1  0.63580000  0.53029000  0.03923000  1.0
  H  H6  1  0.38799000  0.45930000  0.06377000  1.0
  H  H7  1  0.61740000  0.53257000  0.91349000  1.0
  H  H8  1  0.58091000  0.31215000  0.56820000  1.0
  H  H9  1  0.42254000  0.68861000  0.40273000  1.0
  H  H10  1  0.58677000  0.17599000  0.57154000  1.0
  H  H11  1  0.41785000  0.82445000  0.40250000  1.0
  H  H12  1  0.40113000  0.15946000  0.41729000  1.0
  H  H13  1  0.58569000  0.83410000  0.57154000  1.0
  H  H14  1  0.40308000  0.29613000  0.42116000  1.0
  H  H15  1  0.58079000  0.69761000  0.56584000  1.0
  H  H16  1  0.48222000  0.06691000  0.38216000  1.0
  H  H17  1  0.51549000  0.93083000  0.59958000  1.0
  H  H18  1  0.48620000  0.93293000  0.37929000  1.0
  H  H19  1  0.51264000  0.06494000  0.60227000  1.0
  H  H20  1  0.74424000  0.63152000  0.53711000  1.0
  H  H21  1  0.24741000  0.36458000  0.51877000  1.0
  H  H22  1  0.00851000  0.58901000  0.59596000  1.0
  H  H23  1  0.99537000  0.42284000  0.58240000  1.0
  H  H24  1  0.54728000  0.59925000  0.70000000  1.0
  H  H25  1  0.45991000  0.39525000  0.27829000  1.0
  H  H26  1  0.56380000  0.59629000  0.82693000  1.0
  H  H27  1  0.44876000  0.39292000  0.15070000  1.0
  H  H28  1  0.39199000  0.40779000  0.83509000  1.0
  H  H29  1  0.60212000  0.59361000  0.14171000  1.0
  H  H30  1  0.06257000  0.34812000  0.62123000  1.0
  H  H31  1  0.95731000  0.67255000  0.58110000  1.0
  H  H32  1  0.83819000  0.36298000  0.63554000  1.0
  H  H33  1  0.15975000  0.65314000  0.54062000  1.0
  H  H34  1  0.33849000  0.41023000  0.65015000  1.0
  H  H35  1  0.64732000  0.60273000  0.32808000  1.0
  C  C36  1  0.52916000  0.49912000  0.35834000  1.0
  C  C37  1  0.46414000  0.50521000  0.61953000  1.0
  C  C38  1  0.51385000  0.55751000  0.73058000  1.0
  C  C39  1  0.49058000  0.43845000  0.24749000  1.0
  C  C40  1  0.52338000  0.55511000  0.80149000  1.0
  C  C41  1  0.48405000  0.43777000  0.17621000  1.0
  C  C42  1  0.48056000  0.50097000  0.84104000  1.0
  C  C43  1  0.52313000  0.49377000  0.13634000  1.0
  C  C44  1  0.42703000  0.45057000  0.80687000  1.0
  C  C45  1  0.57020000  0.54925000  0.17039000  1.0
  C  C46  1  0.41752000  0.45176000  0.73539000  1.0
  C  C47  1  0.57617000  0.55138000  0.24216000  1.0
  C  C48  1  0.46243000  0.50531000  0.69652000  1.0
  C  C49  1  0.53484000  0.49581000  0.28144000  1.0
  C  C50  1  0.42819000  0.47624000  0.95994000  1.0
  C  C51  1  0.57696000  0.51612000  0.01727000  1.0
  C  C52  1  0.43882000  0.47434000  0.03081000  1.0
  C  C53  1  0.56644000  0.51762000  0.94633000  1.0
  C  C54  1  0.51328000  0.49447000  0.06094000  1.0
  C  C55  1  0.49179000  0.49808000  0.91622000  1.0
  C  C56  1  0.54212000  0.27557000  0.53613000  1.0
  C  C57  1  0.45733000  0.72343000  0.43927000  1.0
  C  C58  1  0.34459000  0.48436000  0.47655000  1.0
  C  C59  1  0.64435000  0.50682000  0.53172000  1.0
  C  C60  1  0.54463000  0.20010000  0.53766000  1.0
  C  C61  1  0.45573000  0.79898000  0.43923000  1.0
  C  C62  1  0.49470000  0.15585000  0.49384000  1.0
  C  C63  1  0.50141000  0.84153000  0.48751000  1.0
  C  C64  1  0.44281000  0.19104000  0.45099000  1.0
  C  C65  1  0.54740000  0.80428000  0.53396000  1.0
  C  C66  1  0.44326000  0.26678000  0.45280000  1.0
  C  C67  1  0.54567000  0.72851000  0.53095000  1.0
  C  C68  1  0.48831000  0.03707000  0.43009000  1.0
  C  C69  1  0.50946000  0.96053000  0.55155000  1.0
  C  C70  1  0.49042000  0.96148000  0.42851000  1.0
  C  C71  1  0.50783000  0.03621000  0.55314000  1.0
  C  C72  1  0.50065000  0.92183000  0.48923000  1.0
  C  C73  1  0.49687000  0.07568000  0.49245000  1.0
  C  C74  1  0.26209000  0.48196000  0.50485000  1.0
  C  C75  1  0.72808000  0.51566000  0.55810000  1.0
  C  C76  1  0.22827000  0.54766000  0.51730000  1.0
  C  C77  1  0.76447000  0.45569000  0.58435000  1.0
  C  C78  1  0.15406000  0.54850000  0.54758000  1.0
  C  C79  1  0.84440000  0.46210000  0.60268000  1.0
  C  C80  1  0.10871000  0.48241000  0.56579000  1.0
  C  C81  1  0.89291000  0.52865000  0.59269000  1.0
  C  C82  1  0.14652000  0.41632000  0.55601000  1.0
  C  C83  1  0.85257000  0.59074000  0.57245000  1.0
  C  C84  1  0.22101000  0.41629000  0.52516000  1.0
  C  C85  1  0.77186000  0.58346000  0.55509000  1.0
  C  C86  1  0.02527000  0.47776000  0.58413000  1.0
  C  C87  1  0.97914000  0.53411000  0.59456000  1.0
  C  C88  1  0.10992000  0.34507000  0.58192000  1.0
  C  C89  1  0.89333000  0.66559000  0.56693000  1.0
  C  C90  1  0.35703000  0.39798000  0.70348000  1.0
  C  C91  1  0.62898000  0.61149000  0.27403000  1.0
  N  N92  1  0.49259000  0.30847000  0.49422000  1.0
  N  N93  1  0.50129000  0.68867000  0.48453000  1.0
  O  O94  1  0.52553000  0.43859000  0.39071000  1.0
  O  O95  1  0.47271000  0.56714000  0.58991000  1.0
  O  O96  1  0.52504000  0.56240000  0.38447000  1.0
  O  O97  1  0.46059000  0.44268000  0.59041000  1.0
  O  O98  1  0.37454000  0.42379000  0.46716000  1.0
  O  O99  1  0.61386000  0.56531000  0.51462000  1.0
  O  O100  1  0.37999000  0.54793000  0.46691000  1.0
  O  O101  1  0.61078000  0.44197000  0.52744000  1.0
  O  O102  1  0.13075000  0.28535000  0.56456000  1.0
  O  O103  1  0.85989000  0.71941000  0.54906000  1.0
  O  O104  1  0.87911000  0.40323000  0.62960000  1.0
  O  O105  1  0.12267000  0.61418000  0.55854000  1.0
  O  O106  1  0.32695000  0.34398000  0.73388000  1.0
  O  O107  1  0.65325000  0.66711000  0.24291000  1.0
