# generated using pymatgen
data_CdH16C20N4O5
_symmetry_space_group_name_H-M   'P 1'
_cell_length_a   14.93630000
_cell_length_b   17.79310000
_cell_length_c   17.93140000
_cell_angle_alpha   90.00090000
_cell_angle_beta   89.99840000
_cell_angle_gamma   89.99970000
_symmetry_Int_Tables_number   1
_chemical_formula_structural   CdH16C20N4O5
_chemical_formula_sum   'Cd8 H128 C160 N32 O40'
_cell_volume   4765.50408177
_cell_formula_units_Z   8
loop_
 _symmetry_equiv_pos_site_id
 _symmetry_equiv_pos_as_xyz
  1  'x, y, z'
loop_
 _atom_site_type_symbol
 _atom_site_label
 _atom_site_symmetry_multiplicity
 _atom_site_fract_x
 _atom_site_fract_y
 _atom_site_fract_z
 _atom_site_occupancy
  Cd  Cd0  1  0.84421000  0.48390000  0.44571000  1.0
  Cd  Cd1  1  0.65580000  0.01610000  0.94571000  1.0
  Cd  Cd2  1  0.34419000  0.01610000  0.55429000  1.0
  Cd  Cd3  1  0.15580000  0.48389000  0.05429000  1.0
  Cd  Cd4  1  0.15580000  0.51610000  0.55429000  1.0
  Cd  Cd5  1  0.34420000  0.98390000  0.05430000  1.0
  Cd  Cd6  1  0.65581000  0.98390000  0.44571000  1.0
  Cd  Cd7  1  0.84420000  0.51611000  0.94570000  1.0
  H  H8  1  0.02304000  0.51607000  0.39731000  1.0
  H  H9  1  0.47698000  0.98391000  0.89731000  1.0
  H  H10  1  0.52302000  0.98392000  0.60269000  1.0
  H  H11  1  0.97697000  0.51607000  0.10269000  1.0
  H  H12  1  0.97698000  0.48392000  0.60269000  1.0
  H  H13  1  0.52302000  0.01609000  0.10270000  1.0
  H  H14  1  0.47698000  0.01608000  0.39731000  1.0
  H  H15  1  0.02303000  0.48393000  0.89731000  1.0
  H  H16  1  0.02404000  0.43863000  0.43570000  1.0
  H  H17  1  0.47596000  0.06136000  0.93569000  1.0
  H  H18  1  0.52403000  0.06136000  0.56431000  1.0
  H  H19  1  0.97596000  0.43863000  0.06430000  1.0
  H  H20  1  0.97596000  0.56136000  0.56432000  1.0
  H  H21  1  0.52404000  0.93864000  0.06432000  1.0
  H  H22  1  0.47597000  0.93864000  0.43569000  1.0
  H  H23  1  0.02404000  0.56136000  0.93570000  1.0
  H  H24  1  0.16001000  0.08546000  0.44051000  1.0
  H  H25  1  0.33999000  0.41454000  0.94051000  1.0
  H  H26  1  0.66001000  0.41454000  0.55948000  1.0
  H  H27  1  0.83999000  0.08545000  0.05949000  1.0
  H  H28  1  0.83998000  0.91455000  0.55949000  1.0
  H  H29  1  0.66001000  0.58546000  0.05948000  1.0
  H  H30  1  0.33999000  0.58545000  0.44051000  1.0
  H  H31  1  0.16002000  0.91454000  0.94052000  1.0
  H  H32  1  0.19931000  0.87613000  0.54459000  1.0
  H  H33  1  0.30068000  0.62387000  0.04462000  1.0
  H  H34  1  0.69932000  0.62387000  0.45540000  1.0
  H  H35  1  0.80069000  0.87612000  0.95539000  1.0
  H  H36  1  0.80069000  0.12388000  0.45540000  1.0
  H  H37  1  0.69932000  0.37613000  0.95540000  1.0
  H  H38  1  0.30069000  0.37613000  0.54460000  1.0
  H  H39  1  0.19931000  0.12388000  0.04460000  1.0
  H  H40  1  0.01491000  0.99400000  0.40694000  1.0
  H  H41  1  0.48508000  0.50600000  0.90694000  1.0
  H  H42  1  0.51492000  0.50600000  0.59306000  1.0
  H  H43  1  0.98508000  0.99400000  0.09306000  1.0
  H  H44  1  0.98507000  0.00600000  0.59307000  1.0
  H  H45  1  0.51491000  0.49400000  0.09306000  1.0
  H  H46  1  0.48508000  0.49399000  0.40694000  1.0
  H  H47  1  0.01493000  0.00599000  0.90694000  1.0
  H  H48  1  0.08633000  0.80490000  0.57650000  1.0
  H  H49  1  0.41367000  0.69510000  0.07650000  1.0
  H  H50  1  0.58634000  0.69510000  0.42350000  1.0
  H  H51  1  0.91367000  0.80489000  0.92351000  1.0
  H  H52  1  0.91369000  0.19510000  0.42351000  1.0
  H  H53  1  0.58633000  0.30490000  0.92350000  1.0
  H  H54  1  0.41367000  0.30490000  0.57649000  1.0
  H  H55  1  0.08632000  0.19511000  0.07649000  1.0
  H  H56  1  0.96879000  0.88093000  0.36966000  1.0
  H  H57  1  0.53122000  0.61907000  0.86967000  1.0
  H  H58  1  0.46879000  0.61907000  0.63034000  1.0
  H  H59  1  0.03122000  0.88095000  0.13034000  1.0
  H  H60  1  0.03122000  0.11906000  0.63034000  1.0
  H  H61  1  0.46879000  0.38093000  0.13033000  1.0
  H  H62  1  0.53122000  0.38093000  0.36967000  1.0
  H  H63  1  0.96878000  0.11906000  0.86965000  1.0
  H  H64  1  0.88183000  0.76068000  0.36328000  1.0
  H  H65  1  0.61817000  0.73932000  0.86328000  1.0
  H  H66  1  0.38183000  0.73932000  0.63672000  1.0
  H  H67  1  0.11817000  0.76069000  0.13673000  1.0
  H  H68  1  0.11817000  0.23932000  0.63673000  1.0
  H  H69  1  0.38184000  0.26068000  0.13673000  1.0
  H  H70  1  0.61817000  0.26068000  0.36328000  1.0
  H  H71  1  0.88184000  0.23932000  0.86326000  1.0
  H  H72  1  0.00255000  0.68608000  0.56658000  1.0
  H  H73  1  0.49743000  0.81392000  0.06658000  1.0
  H  H74  1  0.50256000  0.81392000  0.43342000  1.0
  H  H75  1  0.99743000  0.68607000  0.93344000  1.0
  H  H76  1  0.99745000  0.31392000  0.43342000  1.0
  H  H77  1  0.50256000  0.18608000  0.93342000  1.0
  H  H78  1  0.49744000  0.18608000  0.56658000  1.0
  H  H79  1  0.00256000  0.31392000  0.06657000  1.0
  H  H80  1  0.83049000  0.56047000  0.26838000  1.0
  H  H81  1  0.66950000  0.93954000  0.76838000  1.0
  H  H82  1  0.33049000  0.93953000  0.73161000  1.0
  H  H83  1  0.16950000  0.56046000  0.23162000  1.0
  H  H84  1  0.16951000  0.43953000  0.73162000  1.0
  H  H85  1  0.33049000  0.06047000  0.23163000  1.0
  H  H86  1  0.66951000  0.06047000  0.26839000  1.0
  H  H87  1  0.83049000  0.43954000  0.76837000  1.0
  H  H88  1  0.74843000  0.34600000  0.34080000  1.0
  H  H89  1  0.75157000  0.15400000  0.84080000  1.0
  H  H90  1  0.24842000  0.15400000  0.65920000  1.0
  H  H91  1  0.25159000  0.34600000  0.15920000  1.0
  H  H92  1  0.25159000  0.65400000  0.65921000  1.0
  H  H93  1  0.24842000  0.84600000  0.15920000  1.0
  H  H94  1  0.75159000  0.84600000  0.34079000  1.0
  H  H95  1  0.74842000  0.65400000  0.84080000  1.0
  H  H96  1  0.78724000  0.47486000  0.14381000  1.0
  H  H97  1  0.71274000  0.02515000  0.64381000  1.0
  H  H98  1  0.28724000  0.02514000  0.85619000  1.0
  H  H99  1  0.21275000  0.47486000  0.35620000  1.0
  H  H100  1  0.21275000  0.52514000  0.85619000  1.0
  H  H101  1  0.28724000  0.97486000  0.35620000  1.0
  H  H102  1  0.71276000  0.97487000  0.14381000  1.0
  H  H103  1  0.78724000  0.52515000  0.64380000  1.0
  H  H104  1  0.62482000  0.29522000  0.26096000  1.0
  H  H105  1  0.87518000  0.20477000  0.76095000  1.0
  H  H106  1  0.12481000  0.20477000  0.73904000  1.0
  H  H107  1  0.37519000  0.29523000  0.23903000  1.0
  H  H108  1  0.37519000  0.70477000  0.73904000  1.0
  H  H109  1  0.12481000  0.79522000  0.23903000  1.0
  H  H110  1  0.87519000  0.79523000  0.26095000  1.0
  H  H111  1  0.62482000  0.70476000  0.76097000  1.0
  H  H112  1  0.82724000  0.35171000  0.09881000  1.0
  H  H113  1  0.67275000  0.14830000  0.59882000  1.0
  H  H114  1  0.32723000  0.14829000  0.90118000  1.0
  H  H115  1  0.17276000  0.35171000  0.40118000  1.0
  H  H116  1  0.17276000  0.64830000  0.90119000  1.0
  H  H117  1  0.32723000  0.85171000  0.40118000  1.0
  H  H118  1  0.67277000  0.85171000  0.09881000  1.0
  H  H119  1  0.82723000  0.64830000  0.59882000  1.0
  H  H120  1  0.58577000  0.18028000  0.18770000  1.0
  H  H121  1  0.91424000  0.31971000  0.68770000  1.0
  H  H122  1  0.08577000  0.31973000  0.81230000  1.0
  H  H123  1  0.41424000  0.18028000  0.31229000  1.0
  H  H124  1  0.41424000  0.81972000  0.81230000  1.0
  H  H125  1  0.08577000  0.68027000  0.31229000  1.0
  H  H126  1  0.91423000  0.68028000  0.18770000  1.0
  H  H127  1  0.58576000  0.81972000  0.68773000  1.0
  H  H128  1  0.77996000  0.24131000  0.02226000  1.0
  H  H129  1  0.72003000  0.25870000  0.52228000  1.0
  H  H130  1  0.27997000  0.25869000  0.97773000  1.0
  H  H131  1  0.22004000  0.24130000  0.47772000  1.0
  H  H132  1  0.22004000  0.75870000  0.97773000  1.0
  H  H133  1  0.27996000  0.74130000  0.47772000  1.0
  H  H134  1  0.72004000  0.74131000  0.02227000  1.0
  H  H135  1  0.77995000  0.75870000  0.52227000  1.0
  C  C136  1  0.14657000  0.02785000  0.45672000  1.0
  C  C137  1  0.35342000  0.47214000  0.95673000  1.0
  C  C138  1  0.64658000  0.47214000  0.54327000  1.0
  C  C139  1  0.85342000  0.02785000  0.04327000  1.0
  C  C140  1  0.85341000  0.97215000  0.54327000  1.0
  C  C141  1  0.64658000  0.52786000  0.04328000  1.0
  C  C142  1  0.35342000  0.52785000  0.45673000  1.0
  C  C143  1  0.14658000  0.97214000  0.95673000  1.0
  C  C144  1  0.16843000  0.92103000  0.51280000  1.0
  C  C145  1  0.33157000  0.57896000  0.01281000  1.0
  C  C146  1  0.66844000  0.57896000  0.48719000  1.0
  C  C147  1  0.83157000  0.92103000  0.98719000  1.0
  C  C148  1  0.83157000  0.07897000  0.48719000  1.0
  C  C149  1  0.66843000  0.42103000  0.98720000  1.0
  C  C150  1  0.33157000  0.42104000  0.51281000  1.0
  C  C151  1  0.16843000  0.07897000  0.01281000  1.0
  C  C152  1  0.07478000  0.98312000  0.43913000  1.0
  C  C153  1  0.42521000  0.51687000  0.93913000  1.0
  C  C154  1  0.57479000  0.51687000  0.56087000  1.0
  C  C155  1  0.92522000  0.98312000  0.06086000  1.0
  C  C156  1  0.92522000  0.01688000  0.56087000  1.0
  C  C157  1  0.57478000  0.48313000  0.06086000  1.0
  C  C158  1  0.42522000  0.48312000  0.43913000  1.0
  C  C159  1  0.07478000  0.01687000  0.93913000  1.0
  C  C160  1  0.03422000  0.85002000  0.47301000  1.0
  C  C161  1  0.46578000  0.64997000  0.97301000  1.0
  C  C162  1  0.53422000  0.64997000  0.52699000  1.0
  C  C163  1  0.96578000  0.85002000  0.02699000  1.0
  C  C164  1  0.96579000  0.14998000  0.52699000  1.0
  C  C165  1  0.53422000  0.35002000  0.02699000  1.0
  C  C166  1  0.46579000  0.35002000  0.47301000  1.0
  C  C167  1  0.03421000  0.14998000  0.97300000  1.0
  C  C168  1  0.04188000  0.79580000  0.52923000  1.0
  C  C169  1  0.45811000  0.70419000  0.02923000  1.0
  C  C170  1  0.54189000  0.70419000  0.47077000  1.0
  C  C171  1  0.95810000  0.79579000  0.97078000  1.0
  C  C172  1  0.95813000  0.20420000  0.47078000  1.0
  C  C173  1  0.54188000  0.29580000  0.97077000  1.0
  C  C174  1  0.45812000  0.29580000  0.52923000  1.0
  C  C175  1  0.04188000  0.20420000  0.02922000  1.0
  C  C176  1  0.97508000  0.83892000  0.41352000  1.0
  C  C177  1  0.52493000  0.66108000  0.91353000  1.0
  C  C178  1  0.47508000  0.66108000  0.58648000  1.0
  C  C179  1  0.02492000  0.83893000  0.08648000  1.0
  C  C180  1  0.02493000  0.16108000  0.58648000  1.0
  C  C181  1  0.47508000  0.33892000  0.08647000  1.0
  C  C182  1  0.52493000  0.33892000  0.41353000  1.0
  C  C183  1  0.97508000  0.16108000  0.91352000  1.0
  C  C184  1  0.92724000  0.77218000  0.40930000  1.0
  C  C185  1  0.57276000  0.72782000  0.90930000  1.0
  C  C186  1  0.42724000  0.72782000  0.59070000  1.0
  C  C187  1  0.07276000  0.77218000  0.09071000  1.0
  C  C188  1  0.07277000  0.22782000  0.59071000  1.0
  C  C189  1  0.42724000  0.27218000  0.09070000  1.0
  C  C190  1  0.57276000  0.27218000  0.40930000  1.0
  C  C191  1  0.92724000  0.22782000  0.90929000  1.0
  C  C192  1  0.99423000  0.72889000  0.52382000  1.0
  C  C193  1  0.50577000  0.77112000  0.02382000  1.0
  C  C194  1  0.49423000  0.77111000  0.47617000  1.0
  C  C195  1  0.00577000  0.72888000  0.97619000  1.0
  C  C196  1  0.00578000  0.27111000  0.47618000  1.0
  C  C197  1  0.49422000  0.22889000  0.97618000  1.0
  C  C198  1  0.50578000  0.22889000  0.52382000  1.0
  C  C199  1  0.99422000  0.27112000  0.02381000  1.0
  C  C200  1  0.93772000  0.71577000  0.46294000  1.0
  C  C201  1  0.56227000  0.78423000  0.96294000  1.0
  C  C202  1  0.43773000  0.78423000  0.53706000  1.0
  C  C203  1  0.06226000  0.71576000  0.03709000  1.0
  C  C204  1  0.06227000  0.28424000  0.53707000  1.0
  C  C205  1  0.43772000  0.21577000  0.03706000  1.0
  C  C206  1  0.56228000  0.21577000  0.46293000  1.0
  C  C207  1  0.93774000  0.28424000  0.96292000  1.0
  C  C208  1  0.89046000  0.64232000  0.45182000  1.0
  C  C209  1  0.60954000  0.85768000  0.95182000  1.0
  C  C210  1  0.39044000  0.85768000  0.54816000  1.0
  C  C211  1  0.10953000  0.64230000  0.04819000  1.0
  C  C212  1  0.10954000  0.35768000  0.54819000  1.0
  C  C213  1  0.39045000  0.14232000  0.04817000  1.0
  C  C214  1  0.60956000  0.14232000  0.45183000  1.0
  C  C215  1  0.89046000  0.35769000  0.95181000  1.0
  C  C216  1  0.80614000  0.50320000  0.26455000  1.0
  C  C217  1  0.69386000  0.99680000  0.76455000  1.0
  C  C218  1  0.30613000  0.99680000  0.73544000  1.0
  C  C219  1  0.19386000  0.50320000  0.23545000  1.0
  C  C220  1  0.19387000  0.49680000  0.73545000  1.0
  C  C221  1  0.30613000  0.00320000  0.23546000  1.0
  C  C222  1  0.69387000  0.00320000  0.26456000  1.0
  C  C223  1  0.80614000  0.49680000  0.76454000  1.0
  C  C224  1  0.76221000  0.39388000  0.30515000  1.0
  C  C225  1  0.73778000  0.10613000  0.80515000  1.0
  C  C226  1  0.26221000  0.10613000  0.69485000  1.0
  C  C227  1  0.23780000  0.39388000  0.19485000  1.0
  C  C228  1  0.23780000  0.60613000  0.69485000  1.0
  C  C229  1  0.26220000  0.89388000  0.19485000  1.0
  C  C230  1  0.73780000  0.89387000  0.30515000  1.0
  C  C231  1  0.76221000  0.60613000  0.80515000  1.0
  C  C232  1  0.78473000  0.46157000  0.20268000  1.0
  C  C233  1  0.71526000  0.03843000  0.70269000  1.0
  C  C234  1  0.28473000  0.03843000  0.79731000  1.0
  C  C235  1  0.21527000  0.46157000  0.29732000  1.0
  C  C236  1  0.21527000  0.53843000  0.79731000  1.0
  C  C237  1  0.28472000  0.96157000  0.29732000  1.0
  C  C238  1  0.71527000  0.96157000  0.20269000  1.0
  C  C239  1  0.78473000  0.53843000  0.70268000  1.0
  C  C240  1  0.72962000  0.32927000  0.18520000  1.0
  C  C241  1  0.77038000  0.17073000  0.68520000  1.0
  C  C242  1  0.22962000  0.17073000  0.81480000  1.0
  C  C243  1  0.27038000  0.32927000  0.31479000  1.0
  C  C244  1  0.27039000  0.67073000  0.81480000  1.0
  C  C245  1  0.22962000  0.82926000  0.31479000  1.0
  C  C246  1  0.77039000  0.82927000  0.18520000  1.0
  C  C247  1  0.72962000  0.67073000  0.68521000  1.0
  C  C248  1  0.66098000  0.28182000  0.20997000  1.0
  C  C249  1  0.83902000  0.21818000  0.70996000  1.0
  C  C250  1  0.16098000  0.21818000  0.79003000  1.0
  C  C251  1  0.33903000  0.28183000  0.29003000  1.0
  C  C252  1  0.33902000  0.71818000  0.79004000  1.0
  C  C253  1  0.16097000  0.78182000  0.29004000  1.0
  C  C254  1  0.83902000  0.78181000  0.20996000  1.0
  C  C255  1  0.66097000  0.71818000  0.70998000  1.0
  C  C256  1  0.77350000  0.31490000  0.11781000  1.0
  C  C257  1  0.72649000  0.18511000  0.61782000  1.0
  C  C258  1  0.27350000  0.18510000  0.88218000  1.0
  C  C259  1  0.22650000  0.31490000  0.38218000  1.0
  C  C260  1  0.22650000  0.68510000  0.88219000  1.0
  C  C261  1  0.27349000  0.81489000  0.38218000  1.0
  C  C262  1  0.72651000  0.81490000  0.11781000  1.0
  C  C263  1  0.77349000  0.68510000  0.61781000  1.0
  C  C264  1  0.63801000  0.21848000  0.16849000  1.0
  C  C265  1  0.86199000  0.28152000  0.66850000  1.0
  C  C266  1  0.13801000  0.28152000  0.83151000  1.0
  C  C267  1  0.36199000  0.21848000  0.33150000  1.0
  C  C268  1  0.36200000  0.78152000  0.83151000  1.0
  C  C269  1  0.13801000  0.71848000  0.33150000  1.0
  C  C270  1  0.86199000  0.71848000  0.16849000  1.0
  C  C271  1  0.63800000  0.78152000  0.66851000  1.0
  C  C272  1  0.74742000  0.25319000  0.07535000  1.0
  C  C273  1  0.75258000  0.24683000  0.57536000  1.0
  C  C274  1  0.24742000  0.24682000  0.92464000  1.0
  C  C275  1  0.25259000  0.25318000  0.42464000  1.0
  C  C276  1  0.25258000  0.74682000  0.92464000  1.0
  C  C277  1  0.24741000  0.75318000  0.42464000  1.0
  C  C278  1  0.75258000  0.75318000  0.07536000  1.0
  C  C279  1  0.74741000  0.74682000  0.57536000  1.0
  C  C280  1  0.68051000  0.20402000  0.10038000  1.0
  C  C281  1  0.81949000  0.29599000  0.60039000  1.0
  C  C282  1  0.18051000  0.29599000  0.89961000  1.0
  C  C283  1  0.31949000  0.20401000  0.39961000  1.0
  C  C284  1  0.31950000  0.79598000  0.89962000  1.0
  C  C285  1  0.18051000  0.70401000  0.39961000  1.0
  C  C286  1  0.81949000  0.70401000  0.10038000  1.0
  C  C287  1  0.68049000  0.79599000  0.60040000  1.0
  C  C288  1  0.65581000  0.13668000  0.05414000  1.0
  C  C289  1  0.84420000  0.36333000  0.55415000  1.0
  C  C290  1  0.15582000  0.36333000  0.94586000  1.0
  C  C291  1  0.34419000  0.13667000  0.44584000  1.0
  C  C292  1  0.34419000  0.86333000  0.94585000  1.0
  C  C293  1  0.15581000  0.63666000  0.44584000  1.0
  C  C294  1  0.84418000  0.63667000  0.05414000  1.0
  C  C295  1  0.65580000  0.86335000  0.55417000  1.0
  N  N296  1  0.20431000  0.98820000  0.50230000  1.0
  N  N297  1  0.29569000  0.51180000  0.00230000  1.0
  N  N298  1  0.70432000  0.51180000  0.49770000  1.0
  N  N299  1  0.79569000  0.98820000  0.99770000  1.0
  N  N300  1  0.79569000  0.01180000  0.49770000  1.0
  N  N301  1  0.70431000  0.48820000  0.99770000  1.0
  N  N302  1  0.29569000  0.48820000  0.50230000  1.0
  N  N303  1  0.20431000  0.01180000  0.00230000  1.0
  N  N304  1  0.08885000  0.91514000  0.47551000  1.0
  N  N305  1  0.41115000  0.58485000  0.97552000  1.0
  N  N306  1  0.58885000  0.58485000  0.52448000  1.0
  N  N307  1  0.91115000  0.91514000  0.02449000  1.0
  N  N308  1  0.91116000  0.08486000  0.52448000  1.0
  N  N309  1  0.58885000  0.41515000  0.02448000  1.0
  N  N310  1  0.41115000  0.41514000  0.47552000  1.0
  N  N311  1  0.08885000  0.08486000  0.97552000  1.0
  N  N312  1  0.79202000  0.46029000  0.32772000  1.0
  N  N313  1  0.70797000  0.03971000  0.82772000  1.0
  N  N314  1  0.29202000  0.03971000  0.67227000  1.0
  N  N315  1  0.20798000  0.46029000  0.17228000  1.0
  N  N316  1  0.20798000  0.53971000  0.67227000  1.0
  N  N317  1  0.29202000  0.96029000  0.17228000  1.0
  N  N318  1  0.70799000  0.96029000  0.32773000  1.0
  N  N319  1  0.79202000  0.53971000  0.82772000  1.0
  N  N320  1  0.75614000  0.39211000  0.22902000  1.0
  N  N321  1  0.74386000  0.10789000  0.72902000  1.0
  N  N322  1  0.25614000  0.10789000  0.77098000  1.0
  N  N323  1  0.24387000  0.39211000  0.27098000  1.0
  N  N324  1  0.24386000  0.60789000  0.77098000  1.0
  N  N325  1  0.25613000  0.89211000  0.27098000  1.0
  N  N326  1  0.74386000  0.89211000  0.22902000  1.0
  N  N327  1  0.75614000  0.60789000  0.72902000  1.0
  O  O328  1  0.90216000  0.59118000  0.50217000  1.0
  O  O329  1  0.59784000  0.90883000  0.00217000  1.0
  O  O330  1  0.40216000  0.90883000  0.49782000  1.0
  O  O331  1  0.09784000  0.59116000  0.99784000  1.0
  O  O332  1  0.09786000  0.40882000  0.49784000  1.0
  O  O333  1  0.40216000  0.09117000  0.99783000  1.0
  O  O334  1  0.59784000  0.09117000  0.50217000  1.0
  O  O335  1  0.90216000  0.40883000  0.00216000  1.0
  O  O336  1  0.84216000  0.63245000  0.39520000  1.0
  O  O337  1  0.65781000  0.86756000  0.89519000  1.0
  O  O338  1  0.34215000  0.86756000  0.60479000  1.0
  O  O339  1  0.15781000  0.63242000  0.10483000  1.0
  O  O340  1  0.15782000  0.36757000  0.60482000  1.0
  O  O341  1  0.34216000  0.13244000  0.10481000  1.0
  O  O342  1  0.65786000  0.13244000  0.39520000  1.0
  O  O343  1  0.84219000  0.36757000  0.89517000  1.0
  O  O344  1  0.61293000  0.08330000  0.08415000  1.0
  O  O345  1  0.88709000  0.41670000  0.58416000  1.0
  O  O346  1  0.11294000  0.41671000  0.91585000  1.0
  O  O347  1  0.38708000  0.08330000  0.41583000  1.0
  O  O348  1  0.38709000  0.91671000  0.91584000  1.0
  O  O349  1  0.11292000  0.58329000  0.41583000  1.0
  O  O350  1  0.88706000  0.58329000  0.08414000  1.0
  O  O351  1  0.61288000  0.91670000  0.58419000  1.0
  O  O352  1  0.68259000  0.13684000  0.98610000  1.0
  O  O353  1  0.81741000  0.36317000  0.48611000  1.0
  O  O354  1  0.18260000  0.36316000  0.01390000  1.0
  O  O355  1  0.31742000  0.13683000  0.51389000  1.0
  O  O356  1  0.31741000  0.86317000  0.01389000  1.0
  O  O357  1  0.18258000  0.63683000  0.51389000  1.0
  O  O358  1  0.81741000  0.63684000  0.98610000  1.0
  O  O359  1  0.68257000  0.86318000  0.48613000  1.0
  O  O360  1  0.98861000  0.46871000  0.39912000  1.0
  O  O361  1  0.51140000  0.03128000  0.89911000  1.0
  O  O362  1  0.48860000  0.03129000  0.60088000  1.0
  O  O363  1  0.01139000  0.46871000  0.10088000  1.0
  O  O364  1  0.01139000  0.53129000  0.60089000  1.0
  O  O365  1  0.48861000  0.96872000  0.10089000  1.0
  O  O366  1  0.51140000  0.96872000  0.39912000  1.0
  O  O367  1  0.98861000  0.53129000  0.89912000  1.0
