# generated using pymatgen
data_CdH16C16N4O7
_symmetry_space_group_name_H-M   'P 1'
_cell_length_a   8.10654000
_cell_length_b   11.34370000
_cell_length_c   22.10480000
_cell_angle_alpha   90.00020000
_cell_angle_beta   90.00020000
_cell_angle_gamma   93.00610000
_symmetry_Int_Tables_number   1
_chemical_formula_structural   CdH16C16N4O7
_chemical_formula_sum   'Cd4 H64 C64 N16 O28'
_cell_volume   2029.91958119
_cell_formula_units_Z   4
loop_
 _symmetry_equiv_pos_site_id
 _symmetry_equiv_pos_as_xyz
  1  'x, y, z'
loop_
 _atom_site_type_symbol
 _atom_site_label
 _atom_site_symmetry_multiplicity
 _atom_site_fract_x
 _atom_site_fract_y
 _atom_site_fract_z
 _atom_site_occupancy
  Cd  Cd0  1  0.79007000  0.34958000  0.96414000  1.0
  Cd  Cd1  1  0.70991000  0.15042000  0.46414000  1.0
  Cd  Cd2  1  0.20993000  0.65042000  0.03585000  1.0
  Cd  Cd3  1  0.29008000  0.84959000  0.53586000  1.0
  H  H4  1  0.52719000  0.78584000  0.89738000  1.0
  H  H5  1  0.97280000  0.71414000  0.39738000  1.0
  H  H6  1  0.47281000  0.21415000  0.10262000  1.0
  H  H7  1  0.02720000  0.28585000  0.60262000  1.0
  H  H8  1  0.32436000  0.77571000  0.88899000  1.0
  H  H9  1  0.17564000  0.72428000  0.38899000  1.0
  H  H10  1  0.67564000  0.22429000  0.11101000  1.0
  H  H11  1  0.82437000  0.27572000  0.61101000  1.0
  H  H12  1  0.20664000  0.59754000  0.85543000  1.0
  H  H13  1  0.29336000  0.90245000  0.35543000  1.0
  H  H14  1  0.79336000  0.40246000  0.14457000  1.0
  H  H15  1  0.70663000  0.09754000  0.64457000  1.0
  H  H16  1  0.74434000  0.52949000  0.76555000  1.0
  H  H17  1  0.75565000  0.97051000  0.26555000  1.0
  H  H18  1  0.25566000  0.47051000  0.23445000  1.0
  H  H19  1  0.24434000  0.02949000  0.73445000  1.0
  H  H20  1  0.83656000  0.66537000  0.68067000  1.0
  H  H21  1  0.66344000  0.83462000  0.18067000  1.0
  H  H22  1  0.16345000  0.33463000  0.31933000  1.0
  H  H23  1  0.33656000  0.16537000  0.81933000  1.0
  H  H24  1  0.11377000  0.77034000  0.68577000  1.0
  H  H25  1  0.38623000  0.72965000  0.18577000  1.0
  H  H26  1  0.88623000  0.22965000  0.31423000  1.0
  H  H27  1  0.61377000  0.27035000  0.81423000  1.0
  H  H28  1  0.74766000  0.71989000  0.88914000  1.0
  H  H29  1  0.75233000  0.78011000  0.38913000  1.0
  H  H30  1  0.25233000  0.28012000  0.11086000  1.0
  H  H31  1  0.24768000  0.21988000  0.61087000  1.0
  H  H32  1  0.16616000  0.96702000  0.89099000  1.0
  H  H33  1  0.33384000  0.53298000  0.39099000  1.0
  H  H34  1  0.83384000  0.03299000  0.10901000  1.0
  H  H35  1  0.66616000  0.46702000  0.60901000  1.0
  H  H36  1  0.06284000  0.06196000  0.79718000  1.0
  H  H37  1  0.43716000  0.43803000  0.29718000  1.0
  H  H38  1  0.93717000  0.93804000  0.20282000  1.0
  H  H39  1  0.56284000  0.56197000  0.70282000  1.0
  H  H40  1  0.80597000  0.98030000  0.74757000  1.0
  H  H41  1  0.69403000  0.51969000  0.24757000  1.0
  H  H42  1  0.19404000  0.01970000  0.25242000  1.0
  H  H43  1  0.30597000  0.48030000  0.75243000  1.0
  H  H44  1  0.46913000  0.26691000  0.92916000  1.0
  H  H45  1  0.03085000  0.23309000  0.42917000  1.0
  H  H46  1  0.53087000  0.73309000  0.07083000  1.0
  H  H47  1  0.96914000  0.76691000  0.57083000  1.0
  H  H48  1  0.42608000  0.37820000  0.96720000  1.0
  H  H49  1  0.07391000  0.12181000  0.46721000  1.0
  H  H50  1  0.57392000  0.62180000  0.03279000  1.0
  H  H51  1  0.92609000  0.87820000  0.53279000  1.0
  H  H52  1  0.80077000  0.59009000  0.99495000  1.0
  H  H53  1  0.69923000  0.90992000  0.49495000  1.0
  H  H54  1  0.19923000  0.40992000  0.00505000  1.0
  H  H55  1  0.30077000  0.09009000  0.50505000  1.0
  H  H56  1  0.81814000  0.52375000  0.05472000  1.0
  H  H57  1  0.68187000  0.97625000  0.55472000  1.0
  H  H58  1  0.18186000  0.47625000  0.94528000  1.0
  H  H59  1  0.31812000  0.02375000  0.44528000  1.0
  H  H60  1  0.85861000  0.22102000  0.85513000  1.0
  H  H61  1  0.64139000  0.27898000  0.35513000  1.0
  H  H62  1  0.14138000  0.77897000  0.14487000  1.0
  H  H63  1  0.35861000  0.72103000  0.64487000  1.0
  H  H64  1  0.86679000  0.12505000  0.90790000  1.0
  H  H65  1  0.63322000  0.37496000  0.40789000  1.0
  H  H66  1  0.13321000  0.87495000  0.09210000  1.0
  H  H67  1  0.36678000  0.62505000  0.59210000  1.0
  C  C68  1  0.34926000  0.73957000  0.76626000  1.0
  C  C69  1  0.15074000  0.76043000  0.26626000  1.0
  C  C70  1  0.65074000  0.26043000  0.23374000  1.0
  C  C71  1  0.84927000  0.23957000  0.73374000  1.0
  C  C72  1  0.60389000  0.80672000  0.78521000  1.0
  C  C73  1  0.89610000  0.69328000  0.28521000  1.0
  C  C74  1  0.39610000  0.19328000  0.21479000  1.0
  C  C75  1  0.10390000  0.30672000  0.71479000  1.0
  C  C76  1  0.18047000  0.68877000  0.76998000  1.0
  C  C77  1  0.31952000  0.81122000  0.26998000  1.0
  C  C78  1  0.81953000  0.31122000  0.23002000  1.0
  C  C79  1  0.68048000  0.18878000  0.73002000  1.0
  C  C80  1  0.12598000  0.61434000  0.81738000  1.0
  C  C81  1  0.37402000  0.88565000  0.31738000  1.0
  C  C82  1  0.87402000  0.38566000  0.18262000  1.0
  C  C83  1  0.62598000  0.11434000  0.68262000  1.0
  C  C84  1  0.96757000  0.55968000  0.81568000  1.0
  C  C85  1  0.53242000  0.94031000  0.31568000  1.0
  C  C86  1  0.03242000  0.44032000  0.18432000  1.0
  C  C87  1  0.46758000  0.05968000  0.68432000  1.0
  C  C88  1  0.86591000  0.57493000  0.76552000  1.0
  C  C89  1  0.63409000  0.92506000  0.26553000  1.0
  C  C90  1  0.13409000  0.42507000  0.23447000  1.0
  C  C91  1  0.36591000  0.07494000  0.73448000  1.0
  C  C92  1  0.91901000  0.64926000  0.71842000  1.0
  C  C93  1  0.58098000  0.85074000  0.21842000  1.0
  C  C94  1  0.08099000  0.35074000  0.28158000  1.0
  C  C95  1  0.41902000  0.14926000  0.78158000  1.0
  C  C96  1  0.07367000  0.70831000  0.72106000  1.0
  C  C97  1  0.42633000  0.79169000  0.22106000  1.0
  C  C98  1  0.92634000  0.29169000  0.27893000  1.0
  C  C99  1  0.57367000  0.20831000  0.77894000  1.0
  C  C100  1  0.90228000  0.48794000  0.86785000  1.0
  C  C101  1  0.59769000  0.01206000  0.36785000  1.0
  C  C102  1  0.09772000  0.51206000  0.13215000  1.0
  C  C103  1  0.40230000  0.98794000  0.63215000  1.0
  C  C104  1  0.75445000  0.84929000  0.81620000  1.0
  C  C105  1  0.74554000  0.65071000  0.31620000  1.0
  C  C106  1  0.24555000  0.15072000  0.18380000  1.0
  C  C107  1  0.25446000  0.34929000  0.68380000  1.0
  C  C108  1  0.81106000  0.79797000  0.86954000  1.0
  C  C109  1  0.68893000  0.70203000  0.36954000  1.0
  C  C110  1  0.18893000  0.20203000  0.13046000  1.0
  C  C111  1  0.31108000  0.29797000  0.63046000  1.0
  C  C112  1  0.96016000  0.83938000  0.89575000  1.0
  C  C113  1  0.53983000  0.66062000  0.39575000  1.0
  C  C114  1  0.03983000  0.16063000  0.10425000  1.0
  C  C115  1  0.46017000  0.33938000  0.60425000  1.0
  C  C116  1  0.05072000  0.93516000  0.86990000  1.0
  C  C117  1  0.44928000  0.56484000  0.36989000  1.0
  C  C118  1  0.94927000  0.06483000  0.13010000  1.0
  C  C119  1  0.55073000  0.43517000  0.63010000  1.0
  C  C120  1  0.99403000  0.98676000  0.81706000  1.0
  C  C121  1  0.50596000  0.51324000  0.31706000  1.0
  C  C122  1  0.00597000  0.01324000  0.18294000  1.0
  C  C123  1  0.49403000  0.48676000  0.68294000  1.0
  C  C124  1  0.84895000  0.94299000  0.78967000  1.0
  C  C125  1  0.65105000  0.55700000  0.28967000  1.0
  C  C126  1  0.15105000  0.05701000  0.21033000  1.0
  C  C127  1  0.34896000  0.44299000  0.71033000  1.0
  C  C128  1  0.02810000  0.77385000  0.94812000  1.0
  C  C129  1  0.47189000  0.72614000  0.44811000  1.0
  C  C130  1  0.97189000  0.22615000  0.05189000  1.0
  C  C131  1  0.52812000  0.27386000  0.55189000  1.0
  N  N132  1  0.42641000  0.76492000  0.71383000  1.0
  N  N133  1  0.07359000  0.73508000  0.21383000  1.0
  N  N134  1  0.57360000  0.23508000  0.28617000  1.0
  N  N135  1  0.92641000  0.26491000  0.78617000  1.0
  N  N136  1  0.58368000  0.80592000  0.72527000  1.0
  N  N137  1  0.91632000  0.69408000  0.22527000  1.0
  N  N138  1  0.41632000  0.19408000  0.27473000  1.0
  N  N139  1  0.08368000  0.30592000  0.77473000  1.0
  N  N140  1  0.45923000  0.76469000  0.81231000  1.0
  N  N141  1  0.04076000  0.73530000  0.31231000  1.0
  N  N142  1  0.54076000  0.23531000  0.18769000  1.0
  N  N143  1  0.95924000  0.26469000  0.68769000  1.0
  N  N144  1  0.43355000  0.74276000  0.87396000  1.0
  N  N145  1  0.06644000  0.75723000  0.37396000  1.0
  N  N146  1  0.56644000  0.25724000  0.12604000  1.0
  N  N147  1  0.93357000  0.24277000  0.62604000  1.0
  O  O148  1  0.00206000  0.45911000  0.90983000  1.0
  O  O149  1  0.49791000  0.04090000  0.40983000  1.0
  O  O150  1  0.99794000  0.54089000  0.09017000  1.0
  O  O151  1  0.50207000  0.95910000  0.59017000  1.0
  O  O152  1  0.74911000  0.45872000  0.87023000  1.0
  O  O153  1  0.75087000  0.04128000  0.37024000  1.0
  O  O154  1  0.25088000  0.54128000  0.12976000  1.0
  O  O155  1  0.24912000  0.95872000  0.62976000  1.0
  O  O156  1  0.18462000  0.78660000  0.95783000  1.0
  O  O157  1  0.31538000  0.71340000  0.45783000  1.0
  O  O158  1  0.81538000  0.21340000  0.04217000  1.0
  O  O159  1  0.68462000  0.28660000  0.54217000  1.0
  O  O160  1  0.93400000  0.70687000  0.97996000  1.0
  O  O161  1  0.56602000  0.79314000  0.47996000  1.0
  O  O162  1  0.06600000  0.29314000  0.02004000  1.0
  O  O163  1  0.43400000  0.20686000  0.52004000  1.0
  O  O164  1  0.80774000  0.19334000  0.89531000  1.0
  O  O165  1  0.69226000  0.30666000  0.39531000  1.0
  O  O166  1  0.19226000  0.80666000  0.10469000  1.0
  O  O167  1  0.30774000  0.69334000  0.60469000  1.0
  O  O168  1  0.49999000  0.31067000  0.96563000  1.0
  O  O169  1  0.00000000  0.18934000  0.46563000  1.0
  O  O170  1  0.50001000  0.68934000  0.03436000  1.0
  O  O171  1  0.99999000  0.81066000  0.53436000  1.0
  O  O172  1  0.74108000  0.52701000  0.01918000  1.0
  O  O173  1  0.75892000  0.97299000  0.51917000  1.0
  O  O174  1  0.25892000  0.47299000  0.98082000  1.0
  O  O175  1  0.24107000  0.02702000  0.48083000  1.0
