# generated using pymatgen
data_AlH10C16O5
_symmetry_space_group_name_H-M   'P 1'
_cell_length_a   6.68554000
_cell_length_b   22.42290000
_cell_length_c   23.82140000
_cell_angle_alpha   112.81600000
_cell_angle_beta   89.95020000
_cell_angle_gamma   89.79830000
_symmetry_Int_Tables_number   1
_chemical_formula_structural   AlH10C16O5
_chemical_formula_sum   'Al4 H40 C64 O20'
_cell_volume   3291.59991038
_cell_formula_units_Z   4
loop_
 _symmetry_equiv_pos_site_id
 _symmetry_equiv_pos_as_xyz
  1  'x, y, z'
loop_
 _atom_site_type_symbol
 _atom_site_label
 _atom_site_symmetry_multiplicity
 _atom_site_fract_x
 _atom_site_fract_y
 _atom_site_fract_z
 _atom_site_occupancy
  Al  Al0  1  0.10141000  0.49940000  0.49879000  1.0
  Al  Al1  1  0.60137000  0.50080000  0.50157000  1.0
  Al  Al2  1  0.70772000  0.00067000  0.00128000  1.0
  Al  Al3  1  0.20775000  0.99908000  0.99839000  1.0
  H  H4  1  0.62672000  0.10537000  0.89905000  1.0
  H  H5  1  0.60740000  0.17144000  0.83590000  1.0
  H  H6  1  0.25017000  0.16732000  0.82209000  1.0
  H  H7  1  0.26683000  0.10278000  0.88687000  1.0
  H  H8  1  0.18680000  0.26695000  0.82199000  1.0
  H  H9  1  0.16614000  0.33133000  0.75894000  1.0
  H  H10  1  0.62246000  0.23298000  0.67775000  1.0
  H  H11  1  0.64271000  0.16872000  0.74094000  1.0
  H  H12  1  0.55858000  0.33266000  0.67772000  1.0
  H  H13  1  0.54225000  0.39711000  0.61282000  1.0
  H  H14  1  0.18232000  0.39451000  0.60075000  1.0
  H  H15  1  0.20143000  0.32856000  0.66406000  1.0
  H  H16  1  0.14388000  0.32305000  0.34864000  1.0
  H  H17  1  0.53454000  0.37184000  0.32701000  1.0
  H  H18  1  0.29724000  0.22288000  0.27227000  1.0
  H  H19  1  0.51296000  0.27734000  0.22766000  1.0
  H  H20  1  0.27576000  0.12836000  0.17289000  1.0
  H  H21  1  0.66619000  0.17696000  0.15134000  1.0
  H  H22  1  0.64236000  0.67583000  0.65077000  1.0
  H  H23  1  0.03212000  0.63003000  0.67386000  1.0
  H  H24  1  0.79746000  0.77550000  0.72666000  1.0
  H  H25  1  0.01308000  0.72450000  0.77347000  1.0
  H  H26  1  0.77815000  0.87002000  0.82620000  1.0
  H  H27  1  0.16814000  0.82402000  0.84932000  1.0
  H  H28  1  0.12860000  0.89422000  0.10013000  1.0
  H  H29  1  0.10867000  0.82846000  0.16352000  1.0
  H  H30  1  0.75106000  0.83259000  0.17827000  1.0
  H  H31  1  0.76832000  0.89689000  0.11332000  1.0
  H  H32  1  0.68922000  0.73311000  0.17859000  1.0
  H  H33  1  0.66791000  0.66881000  0.24166000  1.0
  H  H34  1  0.11981000  0.76696000  0.32166000  1.0
  H  H35  1  0.14078000  0.83113000  0.25848000  1.0
  H  H36  1  0.05794000  0.66730000  0.32181000  1.0
  H  H37  1  0.04090000  0.60294000  0.38672000  1.0
  H  H38  1  0.68049000  0.60583000  0.40006000  1.0
  H  H39  1  0.70036000  0.67166000  0.33672000  1.0
  H  H40  1  0.35513000  0.41494000  0.47479000  1.0
  H  H41  1  0.85278000  0.58517000  0.52345000  1.0
  H  H42  1  0.45346000  0.08503000  0.02510000  1.0
  H  H43  1  0.95582000  0.91484000  0.97658000  1.0
  C  C44  1  0.34767000  0.59204000  0.59699000  1.0
  C  C45  1  0.35203000  0.56279000  0.43679000  1.0
  C  C46  1  0.84996000  0.40820000  0.40325000  1.0
  C  C47  1  0.85346000  0.43746000  0.56351000  1.0
  C  C48  1  0.76211000  0.11937000  0.88187000  1.0
  C  C49  1  0.75244000  0.15574000  0.84618000  1.0
  C  C50  1  0.92755000  0.17423000  0.82438000  1.0
  C  C51  1  0.11300000  0.15470000  0.83969000  1.0
  C  C52  1  0.12329000  0.11832000  0.87548000  1.0
  C  C53  1  0.94773000  0.10042000  0.89704000  1.0
  C  C54  1  0.06405000  0.25850000  0.78972000  1.0
  C  C55  1  0.05242000  0.29489000  0.75403000  1.0
  C  C56  1  0.89264000  0.28724000  0.71345000  1.0
  C  C57  1  0.74488000  0.24151000  0.71014000  1.0
  C  C58  1  0.75642000  0.20516000  0.74587000  1.0
  C  C59  1  0.91616000  0.21282000  0.78647000  1.0
  C  C60  1  0.69581000  0.34528000  0.66015000  1.0
  C  C61  1  0.68565000  0.38158000  0.62431000  1.0
  C  C62  1  0.86127000  0.39947000  0.60278000  1.0
  C  C63  1  0.04689000  0.38055000  0.61797000  1.0
  C  C64  1  0.05642000  0.34425000  0.65373000  1.0
  C  C65  1  0.88127000  0.32580000  0.67552000  1.0
  C  C66  1  0.84115000  0.35206000  0.34353000  1.0
  C  C67  1  0.96876000  0.14798000  0.15645000  1.0
  C  C68  1  0.16074000  0.21344000  0.24515000  1.0
  C  C69  1  0.14909000  0.16103000  0.19058000  1.0
  C  C70  1  0.80420000  0.18811000  0.17773000  1.0
  C  C71  1  0.81391000  0.24354000  0.23267000  1.0
  C  C72  1  0.99601000  0.25654000  0.26727000  1.0
  C  C73  1  0.00578000  0.31194000  0.32226000  1.0
  C  C74  1  0.66102000  0.33908000  0.30934000  1.0
  C  C75  1  0.64934000  0.28670000  0.25478000  1.0
  C  C76  1  0.33912000  0.64834000  0.65661000  1.0
  C  C77  1  0.47106000  0.85167000  0.84343000  1.0
  C  C78  1  0.66142000  0.78548000  0.75418000  1.0
  C  C79  1  0.65093000  0.83788000  0.80883000  1.0
  C  C80  1  0.30586000  0.81224000  0.82258000  1.0
  C  C81  1  0.31448000  0.75683000  0.76759000  1.0
  C  C82  1  0.49606000  0.74309000  0.73248000  1.0
  C  C83  1  0.50455000  0.68768000  0.67747000  1.0
  C  C84  1  0.15933000  0.66214000  0.69123000  1.0
  C  C85  1  0.14903000  0.71449000  0.74590000  1.0
  C  C86  1  0.26377000  0.88034000  0.11763000  1.0
  C  C87  1  0.25375000  0.84413000  0.15344000  1.0
  C  C88  1  0.42859000  0.82574000  0.17561000  1.0
  C  C89  1  0.61407000  0.84519000  0.16047000  1.0
  C  C90  1  0.62471000  0.88144000  0.12456000  1.0
  C  C91  1  0.44940000  0.89926000  0.10266000  1.0
  C  C92  1  0.56543000  0.74157000  0.21065000  1.0
  C  C93  1  0.55337000  0.70521000  0.24635000  1.0
  C  C94  1  0.39223000  0.71283000  0.28662000  1.0
  C  C95  1  0.24350000  0.75848000  0.28955000  1.0
  C  C96  1  0.25550000  0.79480000  0.25381000  1.0
  C  C97  1  0.41671000  0.78722000  0.21358000  1.0
  C  C98  1  0.19492000  0.65480000  0.33969000  1.0
  C  C99  1  0.18438000  0.61854000  0.37557000  1.0
  C  C100  1  0.35970000  0.60077000  0.39748000  1.0
  C  C101  1  0.54532000  0.61974000  0.38259000  1.0
  C  C102  1  0.55528000  0.65597000  0.34679000  1.0
  C  C103  1  0.38043000  0.67432000  0.32462000  1.0
  C  C104  1  0.45698000  0.93716000  0.06327000  1.0
  C  C105  1  0.46202000  0.90797000  0.90304000  1.0
  C  C106  1  0.95555000  0.06246000  0.93636000  1.0
  C  C107  1  0.95973000  0.09180000  0.09676000  1.0
  O  O108  1  0.51974000  0.54937000  0.45457000  1.0
  O  O109  1  0.18053000  0.56962000  0.57233000  1.0
  O  O110  1  0.02102000  0.45105000  0.54593000  1.0
  O  O111  1  0.18050000  0.54742000  0.45038000  1.0
  O  O112  1  0.02174000  0.42856000  0.42547000  1.0
  O  O113  1  0.51980000  0.57130000  0.57476000  1.0
  O  O114  1  0.35247000  0.46174000  0.49189000  1.0
  O  O115  1  0.68237000  0.43082000  0.42801000  1.0
  O  O116  1  0.68174000  0.45269000  0.54972000  1.0
  O  O117  1  0.85157000  0.53843000  0.50836000  1.0
  O  O118  1  0.28980000  0.92856000  0.92526000  1.0
  O  O119  1  0.62850000  0.95254000  0.04964000  1.0
  O  O120  1  0.78780000  0.07149000  0.07458000  1.0
  O  O121  1  0.62906000  0.93051000  0.92770000  1.0
  O  O122  1  0.78798000  0.04894000  0.95400000  1.0
  O  O123  1  0.28930000  0.95053000  0.04547000  1.0
  O  O124  1  0.45660000  0.03824000  0.00813000  1.0
  O  O125  1  0.12720000  0.04720000  0.95018000  1.0
  O  O126  1  0.12716000  0.06910000  0.07197000  1.0
  O  O127  1  0.95752000  0.96158000  0.99169000  1.0
