# generated using pymatgen
data_CdH12C18(N3O2)2
_symmetry_space_group_name_H-M   'P 1'
_cell_length_a   9.20413000
_cell_length_b   11.16500000
_cell_length_c   11.16500000
_cell_angle_alpha   91.49990000
_cell_angle_beta   99.93840000
_cell_angle_gamma   99.93850000
_symmetry_Int_Tables_number   1
_chemical_formula_structural   CdH12C18(N3O2)2
_chemical_formula_sum   'Cd2 H24 C36 N12 O8'
_cell_volume   1111.33107960
_cell_formula_units_Z   2
loop_
 _symmetry_equiv_pos_site_id
 _symmetry_equiv_pos_as_xyz
  1  'x, y, z'
loop_
 _atom_site_type_symbol
 _atom_site_label
 _atom_site_symmetry_multiplicity
 _atom_site_fract_x
 _atom_site_fract_y
 _atom_site_fract_z
 _atom_site_occupancy
  Cd  Cd0  1  0.00000000  0.50000000  0.50000000  1.0
  Cd  Cd1  1  0.50000000  0.50000000  0.50000000  1.0
  H  H2  1  0.91977000  0.74541000  0.31566000  1.0
  H  H3  1  0.18540000  0.48931000  0.25323000  1.0
  H  H4  1  0.02414000  0.73879000  0.94246000  1.0
  H  H5  1  0.32197000  0.50673000  0.10937000  1.0
  H  H6  1  0.11129000  0.70961000  0.74387000  1.0
  H  H7  1  0.40745000  0.48074000  0.91262000  1.0
  H  H8  1  0.58023000  0.68434000  0.25459000  1.0
  H  H9  1  0.31461000  0.74677000  0.51069000  1.0
  H  H10  1  0.47585000  0.05754000  0.26121000  1.0
  H  H11  1  0.17803000  0.89063000  0.49327000  1.0
  H  H12  1  0.38871000  0.25613000  0.29038000  1.0
  H  H13  1  0.09255000  0.08738000  0.51926000  1.0
  H  H14  1  0.08023000  0.25459000  0.68433000  1.0
  H  H15  1  0.81460000  0.51069000  0.74677000  1.0
  H  H16  1  0.97585000  0.26121000  0.05754000  1.0
  H  H17  1  0.67803000  0.49328000  0.89063000  1.0
  H  H18  1  0.88871000  0.29039000  0.25613000  1.0
  H  H19  1  0.59255000  0.51926000  0.08738000  1.0
  H  H20  1  0.41977000  0.31566000  0.74541000  1.0
  H  H21  1  0.68540000  0.25323000  0.48931000  1.0
  H  H22  1  0.52414000  0.94246000  0.73879000  1.0
  H  H23  1  0.82197000  0.10937000  0.50673000  1.0
  H  H24  1  0.61129000  0.74387000  0.70962000  1.0
  H  H25  1  0.90745000  0.91262000  0.48074000  1.0
  C  C26  1  0.98739000  0.69425000  0.27122000  1.0
  C  C27  1  0.12211000  0.56301000  0.24160000  1.0
  C  C28  1  0.16597000  0.62366000  0.03593000  1.0
  C  C29  1  0.10824000  0.68286000  0.93444000  1.0
  C  C30  1  0.27492000  0.55128000  0.02979000  1.0
  C  C31  1  0.15778000  0.66715000  0.82513000  1.0
  C  C32  1  0.32379000  0.53736000  0.91992000  1.0
  C  C33  1  0.26536000  0.59385000  0.81656000  1.0
  C  C34  1  0.31390000  0.57426000  0.69686000  1.0
  C  C35  1  0.51261000  0.72878000  0.30575000  1.0
  C  C36  1  0.37789000  0.75840000  0.43699000  1.0
  C  C37  1  0.33403000  0.96407000  0.37634000  1.0
  C  C38  1  0.39176000  0.06556000  0.31713000  1.0
  C  C39  1  0.22508000  0.97021000  0.44872000  1.0
  C  C40  1  0.34222000  0.17487000  0.33285000  1.0
  C  C41  1  0.17621000  0.08008000  0.46264000  1.0
  C  C42  1  0.23464000  0.18344000  0.40615000  1.0
  C  C43  1  0.18610000  0.30314000  0.42574000  1.0
  C  C44  1  0.01260000  0.30575000  0.72878000  1.0
  C  C45  1  0.87789000  0.43700000  0.75840000  1.0
  C  C46  1  0.83403000  0.37634000  0.96407000  1.0
  C  C47  1  0.89176000  0.31714000  0.06556000  1.0
  C  C48  1  0.72508000  0.44872000  0.97021000  1.0
  C  C49  1  0.84222000  0.33285000  0.17487000  1.0
  C  C50  1  0.67621000  0.46264000  0.08008000  1.0
  C  C51  1  0.73464000  0.40615000  0.18344000  1.0
  C  C52  1  0.68610000  0.42574000  0.30314000  1.0
  C  C53  1  0.48739000  0.27122000  0.69425000  1.0
  C  C54  1  0.62211000  0.24160000  0.56301000  1.0
  C  C55  1  0.66597000  0.03593000  0.62366000  1.0
  C  C56  1  0.60824000  0.93444000  0.68286000  1.0
  C  C57  1  0.77491000  0.02979000  0.55128000  1.0
  C  C58  1  0.65778000  0.82513000  0.66715000  1.0
  C  C59  1  0.82379000  0.91992000  0.53736000  1.0
  C  C60  1  0.76536000  0.81656000  0.59385000  1.0
  C  C61  1  0.81390000  0.69686000  0.57426000  1.0
  N  N62  1  0.04611000  0.59898000  0.32277000  1.0
  N  N63  1  0.02273000  0.71892000  0.16332000  1.0
  N  N64  1  0.10947000  0.63415000  0.14548000  1.0
  N  N65  1  0.45389000  0.67723000  0.40102000  1.0
  N  N66  1  0.47728000  0.83667000  0.28108000  1.0
  N  N67  1  0.39053000  0.85452000  0.36585000  1.0
  N  N68  1  0.95389000  0.40102000  0.67723000  1.0
  N  N69  1  0.97727000  0.28108000  0.83667000  1.0
  N  N70  1  0.89053000  0.36585000  0.85452000  1.0
  N  N71  1  0.54611000  0.32277000  0.59898000  1.0
  N  N72  1  0.52272000  0.16333000  0.71892000  1.0
  N  N73  1  0.60947000  0.14548000  0.63415000  1.0
  O  O74  1  0.43462000  0.53325000  0.69721000  1.0
  O  O75  1  0.23210000  0.60160000  0.60092000  1.0
  O  O76  1  0.06538000  0.30279000  0.46675000  1.0
  O  O77  1  0.26790000  0.39908000  0.39840000  1.0
  O  O78  1  0.56538000  0.46675000  0.30279000  1.0
  O  O79  1  0.76790000  0.39840000  0.39908000  1.0
  O  O80  1  0.93462000  0.69721000  0.53325000  1.0
  O  O81  1  0.73210000  0.60092000  0.60160000  1.0
