# generated using pymatgen
data_Cu2MoH16C20(NO)4
_symmetry_space_group_name_H-M   'P 1'
_cell_length_a   9.93376000
_cell_length_b   9.93389000
_cell_length_c   14.30520000
_cell_angle_alpha   98.83980000
_cell_angle_beta   98.83960000
_cell_angle_gamma   116.37000000
_symmetry_Int_Tables_number   1
_chemical_formula_structural   Cu2MoH16C20(NO)4
_chemical_formula_sum   'Cu4 Mo2 H32 C40 N8 O8'
_cell_volume   1209.83366574
_cell_formula_units_Z   2
loop_
 _symmetry_equiv_pos_site_id
 _symmetry_equiv_pos_as_xyz
  1  'x, y, z'
loop_
 _atom_site_type_symbol
 _atom_site_label
 _atom_site_symmetry_multiplicity
 _atom_site_fract_x
 _atom_site_fract_y
 _atom_site_fract_z
 _atom_site_occupancy
  Cu  Cu0  1  0.05986000  0.14464000  0.18684000  1.0
  Cu  Cu1  1  0.14463000  0.05986000  0.68684000  1.0
  Cu  Cu2  1  0.94014000  0.85536000  0.81316000  1.0
  Cu  Cu3  1  0.85537000  0.94014000  0.31316000  1.0
  Mo  Mo4  1  0.77255000  0.22746000  0.25000000  1.0
  Mo  Mo5  1  0.22745000  0.77254000  0.75001000  1.0
  H  H6  1  0.57106000  0.82138000  0.93210000  1.0
  H  H7  1  0.82137000  0.57106000  0.43210000  1.0
  H  H8  1  0.42894000  0.17862000  0.06790000  1.0
  H  H9  1  0.17862000  0.42894000  0.56790000  1.0
  H  H10  1  0.78149000  0.05801000  0.05097000  1.0
  H  H11  1  0.05801000  0.78149000  0.55095000  1.0
  H  H12  1  0.21851000  0.94199000  0.94903000  1.0
  H  H13  1  0.94199000  0.21851000  0.44905000  1.0
  H  H14  1  0.67210000  0.39095000  0.90437000  1.0
  H  H15  1  0.39095000  0.67210000  0.40437000  1.0
  H  H16  1  0.32791000  0.60905000  0.09562000  1.0
  H  H17  1  0.60905000  0.32789000  0.59562000  1.0
  H  H18  1  0.04359000  0.84001000  0.11341000  1.0
  H  H19  1  0.84001000  0.04359000  0.61341000  1.0
  H  H20  1  0.95641000  0.15999000  0.88659000  1.0
  H  H21  1  0.15998000  0.95643000  0.38660000  1.0
  H  H22  1  0.44542000  0.14965000  0.79761000  1.0
  H  H23  1  0.14964000  0.44544000  0.29761000  1.0
  H  H24  1  0.55459000  0.85033000  0.20239000  1.0
  H  H25  1  0.85034000  0.55457000  0.70239000  1.0
  H  H26  1  0.18379000  0.37505000  0.75780000  1.0
  H  H27  1  0.37503000  0.18378000  0.25781000  1.0
  H  H28  1  0.81622000  0.62494000  0.24220000  1.0
  H  H29  1  0.62497000  0.81624000  0.74220000  1.0
  H  H30  1  0.39408000  0.62252000  0.86196000  1.0
  H  H31  1  0.62251000  0.39408000  0.36197000  1.0
  H  H32  1  0.60592000  0.37747000  0.13804000  1.0
  H  H33  1  0.37750000  0.60594000  0.63803000  1.0
  H  H34  1  0.84459000  0.59185000  0.00089000  1.0
  H  H35  1  0.59186000  0.84459000  0.50089000  1.0
  H  H36  1  0.15541000  0.40815000  0.99911000  1.0
  H  H37  1  0.40815000  0.15542000  0.49911000  1.0
  C  C38  1  0.67192000  0.81665000  0.97146000  1.0
  C  C39  1  0.81665000  0.67194000  0.47145000  1.0
  C  C40  1  0.32807000  0.18335000  0.02854000  1.0
  C  C41  1  0.18335000  0.32805000  0.52855000  1.0
  C  C42  1  0.55517000  0.53154000  0.89474000  1.0
  C  C43  1  0.53156000  0.55516000  0.39474000  1.0
  C  C44  1  0.44484000  0.46845000  0.10526000  1.0
  C  C45  1  0.46845000  0.44484000  0.60526000  1.0
  C  C46  1  0.78995000  0.95136000  0.03652000  1.0
  C  C47  1  0.95136000  0.78996000  0.53651000  1.0
  C  C48  1  0.21004000  0.04864000  0.96348000  1.0
  C  C49  1  0.04863000  0.21004000  0.46348000  1.0
  C  C50  1  0.56642000  0.39440000  0.87441000  1.0
  C  C51  1  0.39441000  0.56642000  0.37442000  1.0
  C  C52  1  0.43359000  0.60559000  0.12559000  1.0
  C  C53  1  0.60558000  0.43357000  0.62558000  1.0
  C  C54  1  0.93631000  0.82989000  0.07239000  1.0
  C  C55  1  0.82989000  0.93631000  0.57238000  1.0
  C  C56  1  0.06369000  0.17011000  0.92762000  1.0
  C  C57  1  0.17011000  0.06370000  0.42762000  1.0
  C  C58  1  0.44111000  0.25831000  0.81510000  1.0
  C  C59  1  0.25831000  0.44111000  0.31511000  1.0
  C  C60  1  0.55891000  0.74167000  0.18489000  1.0
  C  C61  1  0.74168000  0.55888000  0.68489000  1.0
  C  C62  1  0.29253000  0.38175000  0.79330000  1.0
  C  C63  1  0.38174000  0.29253000  0.29330000  1.0
  C  C64  1  0.70748000  0.61824000  0.20671000  1.0
  C  C65  1  0.61826000  0.70748000  0.70670000  1.0
  C  C66  1  0.41233000  0.52119000  0.85259000  1.0
  C  C67  1  0.52120000  0.41234000  0.35258000  1.0
  C  C68  1  0.58767000  0.47880000  0.14741000  1.0
  C  C69  1  0.47881000  0.58767000  0.64741000  1.0
  C  C70  1  0.82327000  0.69088000  0.00856000  1.0
  C  C71  1  0.69087000  0.82328000  0.50857000  1.0
  C  C72  1  0.17673000  0.30913000  0.99144000  1.0
  C  C73  1  0.30914000  0.17674000  0.49143000  1.0
  C  C74  1  0.68413000  0.67946000  0.95781000  1.0
  C  C75  1  0.67946000  0.68412000  0.45782000  1.0
  C  C76  1  0.31588000  0.32053000  0.04219000  1.0
  C  C77  1  0.32054000  0.31588000  0.54218000  1.0
  N  N78  1  0.92000000  0.95894000  0.08899000  1.0
  N  N79  1  0.95895000  0.92003000  0.58898000  1.0
  N  N80  1  0.07999000  0.04106000  0.91101000  1.0
  N  N81  1  0.04104000  0.07998000  0.41103000  1.0
  N  N82  1  0.30464000  0.25048000  0.77393000  1.0
  N  N83  1  0.25047000  0.30466000  0.27393000  1.0
  N  N84  1  0.69537000  0.74951000  0.22607000  1.0
  N  N85  1  0.74952000  0.69534000  0.72607000  1.0
  O  O86  1  0.92623000  0.25848000  0.18954000  1.0
  O  O87  1  0.25847000  0.92622000  0.68955000  1.0
  O  O88  1  0.07376000  0.74152000  0.81047000  1.0
  O  O89  1  0.74153000  0.07377000  0.31045000  1.0
  O  O90  1  0.59892000  0.17397000  0.16314000  1.0
  O  O91  1  0.17398000  0.59892000  0.66316000  1.0
  O  O92  1  0.40109000  0.82604000  0.83685000  1.0
  O  O93  1  0.82601000  0.40108000  0.33685000  1.0
