# generated using pymatgen
data_NiH20C24(N5O3)2
_symmetry_space_group_name_H-M   'P 1'
_cell_length_a   15.57790000
_cell_length_b   15.57790000
_cell_length_c   16.98450000
_cell_angle_alpha   107.25200000
_cell_angle_beta   107.25300000
_cell_angle_gamma   97.67520000
_symmetry_Int_Tables_number   1
_chemical_formula_structural   NiH20C24(N5O3)2
_chemical_formula_sum   'Ni4 H80 C96 N40 O24'
_cell_volume   3646.53424968
_cell_formula_units_Z   4
loop_
 _symmetry_equiv_pos_site_id
 _symmetry_equiv_pos_as_xyz
  1  'x, y, z'
loop_
 _atom_site_type_symbol
 _atom_site_label
 _atom_site_symmetry_multiplicity
 _atom_site_fract_x
 _atom_site_fract_y
 _atom_site_fract_z
 _atom_site_occupancy
  Ni  Ni0  1  0.39977000  0.60023000  0.75001000  1.0
  Ni  Ni1  1  0.59993000  0.40007000  0.24999000  1.0
  Ni  Ni2  1  0.00089000  0.99911000  0.75000000  1.0
  Ni  Ni3  1  0.00109000  0.99891000  0.25000000  1.0
  H  H4  1  0.33096000  0.73603000  0.86415000  1.0
  H  H5  1  0.73594000  0.32918000  0.36264000  1.0
  H  H6  1  0.67081000  0.26406000  0.13735000  1.0
  H  H7  1  0.26397000  0.66905000  0.63586000  1.0
  H  H8  1  0.18348000  0.75722000  0.88890000  1.0
  H  H9  1  0.75565000  0.18148000  0.38713000  1.0
  H  H10  1  0.81851000  0.24435000  0.11286000  1.0
  H  H11  1  0.24277000  0.81652000  0.61111000  1.0
  H  H12  1  0.04884000  0.48557000  0.69070000  1.0
  H  H13  1  0.48374000  0.04856000  0.18907000  1.0
  H  H14  1  0.95143000  0.51625000  0.31092000  1.0
  H  H15  1  0.51442000  0.95117000  0.80931000  1.0
  H  H16  1  0.20181000  0.47591000  0.67411000  1.0
  H  H17  1  0.47493000  0.20196000  0.17327000  1.0
  H  H18  1  0.79804000  0.52506000  0.32673000  1.0
  H  H19  1  0.52408000  0.79820000  0.82591000  1.0
  H  H20  1  0.01614000  0.70500000  0.84533000  1.0
  H  H21  1  0.70240000  0.01398000  0.34356000  1.0
  H  H22  1  0.98602000  0.29760000  0.15642000  1.0
  H  H23  1  0.29499000  0.98387000  0.65467000  1.0
  H  H24  1  0.60491000  0.70438000  0.85632000  1.0
  H  H25  1  0.70419000  0.60583000  0.35645000  1.0
  H  H26  1  0.39416000  0.29581000  0.14354000  1.0
  H  H27  1  0.29563000  0.39509000  0.64369000  1.0
  H  H28  1  0.76059000  0.68785000  0.85087000  1.0
  H  H29  1  0.68743000  0.76093000  0.34982000  1.0
  H  H30  1  0.23906000  0.31256000  0.15017000  1.0
  H  H31  1  0.31215000  0.23942000  0.64913000  1.0
  H  H32  1  0.61871000  0.45778000  0.60462000  1.0
  H  H33  1  0.45687000  0.61764000  0.10415000  1.0
  H  H34  1  0.38235000  0.54312000  0.39584000  1.0
  H  H35  1  0.54222000  0.38128000  0.89538000  1.0
  H  H36  1  0.46985000  0.48608000  0.61964000  1.0
  H  H37  1  0.48539000  0.46920000  0.12033000  1.0
  H  H38  1  0.53080000  0.51460000  0.37966000  1.0
  H  H39  1  0.51393000  0.53015000  0.88037000  1.0
  H  H40  1  0.78698000  0.49778000  0.66078000  1.0
  H  H41  1  0.49882000  0.78592000  0.15805000  1.0
  H  H42  1  0.21409000  0.50116000  0.34195000  1.0
  H  H43  1  0.50222000  0.21302000  0.83922000  1.0
  H  H44  1  0.17396000  0.14742000  0.82016000  1.0
  H  H45  1  0.13644000  0.16275000  0.29484000  1.0
  H  H46  1  0.83725000  0.86355000  0.20515000  1.0
  H  H47  1  0.85258000  0.82604000  0.67983000  1.0
  H  H48  1  0.34405000  0.17611000  0.90303000  1.0
  H  H49  1  0.16344000  0.33166000  0.37832000  1.0
  H  H50  1  0.66834000  0.83656000  0.12167000  1.0
  H  H51  1  0.82389000  0.65595000  0.59696000  1.0
  H  H52  1  0.28868000  0.90293000  0.91600000  1.0
  H  H53  1  0.90974000  0.26716000  0.42610000  1.0
  H  H54  1  0.73284000  0.09027000  0.07390000  1.0
  H  H55  1  0.09708000  0.71132000  0.58401000  1.0
  H  H56  1  0.11891000  0.88831000  0.83775000  1.0
  H  H57  1  0.89766000  0.09797000  0.34824000  1.0
  H  H58  1  0.90203000  0.10233000  0.15176000  1.0
  H  H59  1  0.11170000  0.88109000  0.66226000  1.0
  H  H60  1  0.47463000  0.12216000  0.97489000  1.0
  H  H61  1  0.11449000  0.45903000  0.46203000  1.0
  H  H62  1  0.54097000  0.88551000  0.03798000  1.0
  H  H63  1  0.87784000  0.52537000  0.52511000  1.0
  H  H64  1  0.82153000  0.03554000  0.77681000  1.0
  H  H65  1  0.02642000  0.82868000  0.28145000  1.0
  H  H66  1  0.17132000  0.97359000  0.21855000  1.0
  H  H67  1  0.96447000  0.17848000  0.72319000  1.0
  H  H68  1  0.66025000  0.03137000  0.68340000  1.0
  H  H69  1  0.02165000  0.66858000  0.18535000  1.0
  H  H70  1  0.33142000  0.97835000  0.31465000  1.0
  H  H71  1  0.96864000  0.33976000  0.81660000  1.0
  H  H72  1  0.74016000  0.93366000  0.45509000  1.0
  H  H73  1  0.94313000  0.75955000  0.96206000  1.0
  H  H74  1  0.24046000  0.05688000  0.53794000  1.0
  H  H75  1  0.06635000  0.25984000  0.04491000  1.0
  H  H76  1  0.89621000  0.94520000  0.55697000  1.0
  H  H77  1  0.95728000  0.91485000  0.06622000  1.0
  H  H78  1  0.08515000  0.04272000  0.43378000  1.0
  H  H79  1  0.05480000  0.10379000  0.94303000  1.0
  H  H80  1  0.58045000  0.94565000  0.43067000  1.0
  H  H81  1  0.94780000  0.59635000  0.93406000  1.0
  H  H82  1  0.40366000  0.05221000  0.56594000  1.0
  H  H83  1  0.05436000  0.41956000  0.06933000  1.0
  C  C84  1  0.26705000  0.68182000  0.82783000  1.0
  C  C85  1  0.68115000  0.26570000  0.32627000  1.0
  C  C86  1  0.73429000  0.31884000  0.17373000  1.0
  C  C87  1  0.31818000  0.73296000  0.67218000  1.0
  C  C88  1  0.18491000  0.69344000  0.84087000  1.0
  C  C89  1  0.69210000  0.18335000  0.33912000  1.0
  C  C90  1  0.81665000  0.30790000  0.16087000  1.0
  C  C91  1  0.30655000  0.81509000  0.65914000  1.0
  C  C92  1  0.10378000  0.62251000  0.79174000  1.0
  C  C93  1  0.62072000  0.10258000  0.29015000  1.0
  C  C94  1  0.89741000  0.37928000  0.20984000  1.0
  C  C95  1  0.37747000  0.89622000  0.70826000  1.0
  C  C96  1  0.11013000  0.54198000  0.73113000  1.0
  C  C97  1  0.54045000  0.10958000  0.22967000  1.0
  C  C98  1  0.89041000  0.45955000  0.27032000  1.0
  C  C99  1  0.45801000  0.88988000  0.76887000  1.0
  C  C100  1  0.19506000  0.53628000  0.72210000  1.0
  C  C101  1  0.53528000  0.19472000  0.22092000  1.0
  C  C102  1  0.80527000  0.46471000  0.27908000  1.0
  C  C103  1  0.46371000  0.80496000  0.77792000  1.0
  C  C104  1  0.01736000  0.63610000  0.80428000  1.0
  C  C105  1  0.63359000  0.01604000  0.30290000  1.0
  C  C106  1  0.98396000  0.36640000  0.19708000  1.0
  C  C107  1  0.36389000  0.98264000  0.69573000  1.0
  C  C108  1  0.61136000  0.65166000  0.80111000  1.0
  C  C109  1  0.65089000  0.61166000  0.30126000  1.0
  C  C110  1  0.38833000  0.34911000  0.19873000  1.0
  C  C111  1  0.34834000  0.38865000  0.69890000  1.0
  C  C112  1  0.69771000  0.64072000  0.79899000  1.0
  C  C113  1  0.63957000  0.69789000  0.29886000  1.0
  C  C114  1  0.30210000  0.36043000  0.20113000  1.0
  C  C115  1  0.35928000  0.30230000  0.70102000  1.0
  C  C116  1  0.70254000  0.56862000  0.72868000  1.0
  C  C117  1  0.56729000  0.70207000  0.22832000  1.0
  C  C118  1  0.29793000  0.43270000  0.27167000  1.0
  C  C119  1  0.43138000  0.29746000  0.77133000  1.0
  C  C120  1  0.61892000  0.51282000  0.66213000  1.0
  C  C121  1  0.51178000  0.61824000  0.16194000  1.0
  C  C122  1  0.38176000  0.48821000  0.33805000  1.0
  C  C123  1  0.48718000  0.38108000  0.83787000  1.0
  C  C124  1  0.53565000  0.52926000  0.66945000  1.0
  C  C125  1  0.52843000  0.53525000  0.16976000  1.0
  C  C126  1  0.46474000  0.47157000  0.33023000  1.0
  C  C127  1  0.47075000  0.46436000  0.83056000  1.0
  C  C128  1  0.78975000  0.54970000  0.72193000  1.0
  C  C129  1  0.54821000  0.78893000  0.22073000  1.0
  C  C130  1  0.21107000  0.45178000  0.27926000  1.0
  C  C131  1  0.45030000  0.21025000  0.77807000  1.0
  C  C132  1  0.20229000  0.09535000  0.84315000  1.0
  C  C133  1  0.08839000  0.18899000  0.32537000  1.0
  C  C134  1  0.81101000  0.91161000  0.17463000  1.0
  C  C135  1  0.90465000  0.79771000  0.65685000  1.0
  C  C136  1  0.29647000  0.11070000  0.88838000  1.0
  C  C137  1  0.10215000  0.28262000  0.37086000  1.0
  C  C138  1  0.71738000  0.89785000  0.12914000  1.0
  C  C139  1  0.88930000  0.70353000  0.61162000  1.0
  C  C140  1  0.32991000  0.04062000  0.91499000  1.0
  C  C141  1  0.03664000  0.31332000  0.40689000  1.0
  C  C142  1  0.68668000  0.96336000  0.09311000  1.0
  C  C143  1  0.95938000  0.67008000  0.58501000  1.0
  C  C144  1  0.26523000  0.95839000  0.89574000  1.0
  C  C145  1  0.96088000  0.24597000  0.39749000  1.0
  C  C146  1  0.75403000  0.03912000  0.10251000  1.0
  C  C147  1  0.04161000  0.73477000  0.60427000  1.0
  C  C148  1  0.17214000  0.94930000  0.85163000  1.0
  C  C149  1  0.95250000  0.15315000  0.35321000  1.0
  C  C150  1  0.84685000  0.04750000  0.14679000  1.0
  C  C151  1  0.05070000  0.82786000  0.64837000  1.0
  C  C152  1  0.42903000  0.05474000  0.95994000  1.0
  C  C153  1  0.04971000  0.41216000  0.45193000  1.0
  C  C154  1  0.58784000  0.95029000  0.04807000  1.0
  C  C155  1  0.94527000  0.57097000  0.54006000  1.0
  C  C156  1  0.79998000  0.01528000  0.70537000  1.0
  C  C157  1  0.01113000  0.80988000  0.21080000  1.0
  C  C158  1  0.19012000  0.98887000  0.28920000  1.0
  C  C159  1  0.98473000  0.20002000  0.79462000  1.0
  C  C160  1  0.71123000  0.01209000  0.65370000  1.0
  C  C161  1  0.00687000  0.72176000  0.15730000  1.0
  C  C162  1  0.27824000  0.99314000  0.34270000  1.0
  C  C163  1  0.98792000  0.28877000  0.84629000  1.0
  C  C164  1  0.68721000  0.98245000  0.56151000  1.0
  C  C165  1  0.98225000  0.70085000  0.06577000  1.0
  C  C166  1  0.29914000  0.01776000  0.43424000  1.0
  C  C167  1  0.01755000  0.31280000  0.93848000  1.0
  C  C168  1  0.75449000  0.95730000  0.52588000  1.0
  C  C169  1  0.96297000  0.77108000  0.03227000  1.0
  C  C170  1  0.22892000  0.03704000  0.46774000  1.0
  C  C171  1  0.04270000  0.24552000  0.97412000  1.0
  C  C172  1  0.84223000  0.96355000  0.58251000  1.0
  C  C173  1  0.96981000  0.85829000  0.08969000  1.0
  C  C174  1  0.14171000  0.03019000  0.41032000  1.0
  C  C175  1  0.03645000  0.15778000  0.91749000  1.0
  C  C176  1  0.59589000  0.97688000  0.50195000  1.0
  C  C177  1  0.97590000  0.60984000  0.00520000  1.0
  C  C178  1  0.39017000  0.02411000  0.49481000  1.0
  C  C179  1  0.02312000  0.40412000  0.99806000  1.0
  N  N180  1  0.27263000  0.60483000  0.76904000  1.0
  N  N181  1  0.60424000  0.27199000  0.26788000  1.0
  N  N182  1  0.72800000  0.39576000  0.23212000  1.0
  N  N183  1  0.39516000  0.72738000  0.73098000  1.0
  N  N184  1  0.53086000  0.59700000  0.73778000  1.0
  N  N185  1  0.59643000  0.53097000  0.23823000  1.0
  N  N186  1  0.46902000  0.40357000  0.26176000  1.0
  N  N187  1  0.40300000  0.46915000  0.76222000  1.0
  N  N188  1  0.32686000  0.53689000  0.54533000  1.0
  N  N189  1  0.54352000  0.33077000  0.04690000  1.0
  N  N190  1  0.66922000  0.45647000  0.45309000  1.0
  N  N191  1  0.46312000  0.67314000  0.95468000  1.0
  N  N192  1  0.94306000  0.56944000  0.76562000  1.0
  N  N193  1  0.56615000  0.94235000  0.26514000  1.0
  N  N194  1  0.05765000  0.43385000  0.23485000  1.0
  N  N195  1  0.43055000  0.05695000  0.73438000  1.0
  N  N196  1  0.86797000  0.59482000  0.78476000  1.0
  N  N197  1  0.59040000  0.86714000  0.28454000  1.0
  N  N198  1  0.13285000  0.40960000  0.21545000  1.0
  N  N199  1  0.40517000  0.13203000  0.71524000  1.0
  N  N200  1  0.14067000  0.01629000  0.82480000  1.0
  N  N201  1  0.01474000  0.12509000  0.31621000  1.0
  N  N202  1  0.87491000  0.98526000  0.18379000  1.0
  N  N203  1  0.98371000  0.85933000  0.67520000  1.0
  N  N204  1  0.86480000  0.99171000  0.67051000  1.0
  N  N205  1  0.99343000  0.87738000  0.17739000  1.0
  N  N206  1  0.12262000  0.00657000  0.32261000  1.0
  N  N207  1  0.00829000  0.13520000  0.82949000  1.0
  N  N208  1  0.93370000  0.89162000  0.86775000  1.0
  N  N209  1  0.87731000  0.91837000  0.37671000  1.0
  N  N210  1  0.08163000  0.12269000  0.12329000  1.0
  N  N211  1  0.10838000  0.06630000  0.63225000  1.0
  N  N212  1  0.46131000  0.98878000  0.98072000  1.0
  N  N213  1  0.98621000  0.44311000  0.47863000  1.0
  N  N214  1  0.55689000  0.01379000  0.02137000  1.0
  N  N215  1  0.01122000  0.53868000  0.51929000  1.0
  N  N216  1  0.53471000  0.00815000  0.53227000  1.0
  N  N217  1  0.00293000  0.54691000  0.03512000  1.0
  N  N218  1  0.45309000  0.99709000  0.46489000  1.0
  N  N219  1  0.99185000  0.46529000  0.96774000  1.0
  O  O220  1  0.32045000  0.52581000  0.61695000  1.0
  O  O221  1  0.52766000  0.32244000  0.11605000  1.0
  O  O222  1  0.67756000  0.47233000  0.38394000  1.0
  O  O223  1  0.47420000  0.67956000  0.88306000  1.0
  O  O224  1  0.38993000  0.59880000  0.55012000  1.0
  O  O225  1  0.60354000  0.39732000  0.05471000  1.0
  O  O226  1  0.60266000  0.39646000  0.44527000  1.0
  O  O227  1  0.40121000  0.61007000  0.94989000  1.0
  O  O228  1  0.26686000  0.48254000  0.47348000  1.0
  O  O229  1  0.49538000  0.26869000  0.97376000  1.0
  O  O230  1  0.73131000  0.50459000  0.52623000  1.0
  O  O231  1  0.51747000  0.73314000  0.02653000  1.0
  O  O232  1  0.93195000  0.95868000  0.83709000  1.0
  O  O233  1  0.95173000  0.92166000  0.35943000  1.0
  O  O234  1  0.07834000  0.04826000  0.14057000  1.0
  O  O235  1  0.04132000  0.06804000  0.66291000  1.0
  O  O236  1  0.99556000  0.84734000  0.86585000  1.0
  O  O237  1  0.83857000  0.98584000  0.37919000  1.0
  O  O238  1  0.01416000  0.16144000  0.12082000  1.0
  O  O239  1  0.15265000  0.00443000  0.63415000  1.0
  O  O240  1  0.87271000  0.87328000  0.89851000  1.0
  O  O241  1  0.84238000  0.84901000  0.39048000  1.0
  O  O242  1  0.15099000  0.15762000  0.10952000  1.0
  O  O243  1  0.12673000  0.12730000  0.60149000  1.0
