# generated using pymatgen
data_BaH6C2N10O3
_symmetry_space_group_name_H-M   'P 1'
_cell_length_a   8.46065000
_cell_length_b   9.05223401
_cell_length_c   9.05230000
_cell_angle_alpha   60.24728014
_cell_angle_beta   65.00300000
_cell_angle_gamma   65.00125478
_symmetry_Int_Tables_number   1
_chemical_formula_structural   BaH6C2N10O3
_chemical_formula_sum   'Ba2 H12 C4 N20 O6'
_cell_volume   525.17493533
_cell_formula_units_Z   2
loop_
 _symmetry_equiv_pos_site_id
 _symmetry_equiv_pos_as_xyz
  1  'x, y, z'
loop_
 _atom_site_type_symbol
 _atom_site_label
 _atom_site_symmetry_multiplicity
 _atom_site_fract_x
 _atom_site_fract_y
 _atom_site_fract_z
 _atom_site_occupancy
  Ba  Ba0  1  0.75000000  0.91371000  0.08629000  1.0
  Ba  Ba1  1  0.25000000  0.08630000  0.91370000  1.0
  H  H2  1  0.80463000  0.47667000  0.40810000  1.0
  H  H3  1  0.30462000  0.40816000  0.47672000  1.0
  H  H4  1  0.19536000  0.52333000  0.59190000  1.0
  H  H5  1  0.69539000  0.59184000  0.52328000  1.0
  H  H6  1  0.46146000  0.73384000  0.18311000  1.0
  H  H7  1  0.96146000  0.18312000  0.73383000  1.0
  H  H8  1  0.53854000  0.26617000  0.81688000  1.0
  H  H9  1  0.03854000  0.81689000  0.26616000  1.0
  H  H10  1  0.35273000  0.82590000  0.32362000  1.0
  H  H11  1  0.85272000  0.32363000  0.82589000  1.0
  H  H12  1  0.64727000  0.17411000  0.67637000  1.0
  H  H13  1  0.14728000  0.67638000  0.17410000  1.0
  C  C14  1  0.32057000  0.91302000  0.56753000  1.0
  C  C15  1  0.82057000  0.56754000  0.91302000  1.0
  C  C16  1  0.67942000  0.08699000  0.43245000  1.0
  C  C17  1  0.17943000  0.43245000  0.08700000  1.0
  N  N18  1  0.48377000  0.95633000  0.47287000  1.0
  N  N19  1  0.98378000  0.47286000  0.95634000  1.0
  N  N20  1  0.51622000  0.04367000  0.52712000  1.0
  N  N21  1  0.01623000  0.52712000  0.04367000  1.0
  N  N22  1  0.26704000  0.82381000  0.52221000  1.0
  N  N23  1  0.76703000  0.52222000  0.82381000  1.0
  N  N24  1  0.73295000  0.17620000  0.47778000  1.0
  N  N25  1  0.23297000  0.47778000  0.17619000  1.0
  N  N26  1  0.10746000  0.80302000  0.63616000  1.0
  N  N27  1  0.60745000  0.63617000  0.80304000  1.0
  N  N28  1  0.89253000  0.19698000  0.36384000  1.0
  N  N29  1  0.39256000  0.36383000  0.19696000  1.0
  N  N30  1  0.06479000  0.87747000  0.74894000  1.0
  N  N31  1  0.56478000  0.74895000  0.87748000  1.0
  N  N32  1  0.93521000  0.12254000  0.25105000  1.0
  N  N33  1  0.43522000  0.25105000  0.12252000  1.0
  N  N34  1  0.19607000  0.94750000  0.70855000  1.0
  N  N35  1  0.69607000  0.70856000  0.94750000  1.0
  N  N36  1  0.80393000  0.05250000  0.29144000  1.0
  N  N37  1  0.30393000  0.29143000  0.05251000  1.0
  O  O38  1  0.75000000  0.59775000  0.40220000  1.0
  O  O39  1  0.25000000  0.40225000  0.59780000  1.0
  O  O40  1  0.41216000  0.84810000  0.19312000  1.0
  O  O41  1  0.91217000  0.19312000  0.84810000  1.0
  O  O42  1  0.58784000  0.15191000  0.80688000  1.0
  O  O43  1  0.08783000  0.80688000  0.15190000  1.0
