# generated using pymatgen
data_AgH4C11S3N2(OF)3
_symmetry_space_group_name_H-M   'P 1'
_cell_length_a   9.79446000
_cell_length_b   9.79495000
_cell_length_c   9.83746000
_cell_angle_alpha   80.12530000
_cell_angle_beta   67.54160000
_cell_angle_gamma   77.69420000
_symmetry_Int_Tables_number   1
_chemical_formula_structural   AgH4C11S3N2(OF)3
_chemical_formula_sum   'Ag2 H8 C22 S6 N4 O6 F6'
_cell_volume   847.90042306
_cell_formula_units_Z   2
loop_
 _symmetry_equiv_pos_site_id
 _symmetry_equiv_pos_as_xyz
  1  'x, y, z'
loop_
 _atom_site_type_symbol
 _atom_site_label
 _atom_site_symmetry_multiplicity
 _atom_site_fract_x
 _atom_site_fract_y
 _atom_site_fract_z
 _atom_site_occupancy
  Ag  Ag0  1  0.98843000  0.38007000  0.84965000  1.0
  Ag  Ag1  1  0.01156000  0.61994000  0.15035000  1.0
  H  H2  1  0.47261000  0.52038000  0.77693000  1.0
  H  H3  1  0.52738000  0.47961000  0.22307000  1.0
  H  H4  1  0.68417000  0.67713000  0.64624000  1.0
  H  H5  1  0.31582000  0.32287000  0.35376000  1.0
  H  H6  1  0.85025000  0.82256000  0.48083000  1.0
  H  H7  1  0.14976000  0.17743000  0.51916000  1.0
  H  H8  1  0.98360000  0.00778000  0.26493000  1.0
  H  H9  1  0.01641000  0.99221000  0.73507000  1.0
  C  C10  1  0.24845000  0.55286000  0.65643000  1.0
  C  C11  1  0.75155000  0.44713000  0.34356000  1.0
  C  C12  1  0.36841000  0.62505000  0.61816000  1.0
  C  C13  1  0.63160000  0.37494000  0.38183000  1.0
  C  C14  1  0.47698000  0.59814000  0.68292000  1.0
  C  C15  1  0.52301000  0.40185000  0.31707000  1.0
  C  C16  1  0.58954000  0.68103000  0.61256000  1.0
  C  C17  1  0.41045000  0.31897000  0.38744000  1.0
  C  C18  1  0.56787000  0.77164000  0.49405000  1.0
  C  C19  1  0.43213000  0.22836000  0.50595000  1.0
  C  C20  1  0.66592000  0.86702000  0.39738000  1.0
  C  C21  1  0.33407000  0.13298000  0.60262000  1.0
  C  C22  1  0.80417000  0.88153000  0.39938000  1.0
  C  C23  1  0.19583000  0.11847000  0.60061000  1.0
  C  C24  1  0.87444000  0.98047000  0.28727000  1.0
  C  C25  1  0.12556000  0.01953000  0.71273000  1.0
  C  C26  1  0.78874000  0.04243000  0.20069000  1.0
  C  C27  1  0.21126000  0.95756000  0.79931000  1.0
  C  C28  1  0.82596000  0.14454000  0.08054000  1.0
  C  C29  1  0.17403000  0.85546000  0.91947000  1.0
  C  C30  1  0.61710000  0.72830000  0.97875000  1.0
  C  C31  1  0.38291000  0.27170000  0.02125000  1.0
  S  S32  1  0.40621000  0.75429000  0.47103000  1.0
  S  S33  1  0.59379000  0.24570000  0.52896000  1.0
  S  S34  1  0.62324000  0.97680000  0.25776000  1.0
  S  S35  1  0.37676000  0.02321000  0.74225000  1.0
  S  S36  1  0.81923000  0.74363000  0.87941000  1.0
  S  S37  1  0.18077000  0.25638000  0.12059000  1.0
  N  N38  1  0.15236000  0.48669000  0.68900000  1.0
  N  N39  1  0.84764000  0.51331000  0.31099000  1.0
  N  N40  1  0.85886000  0.23090000  0.98120000  1.0
  N  N41  1  0.14114000  0.76910000  0.01880000  1.0
  O  O42  1  0.89039000  0.62198000  0.95340000  1.0
  O  O43  1  0.10961000  0.37803000  0.04660000  1.0
  O  O44  1  0.83132000  0.87929000  0.91074000  1.0
  O  O45  1  0.16868000  0.12072000  0.08928000  1.0
  O  O46  1  0.84467000  0.72985000  0.72617000  1.0
  O  O47  1  0.15532000  0.27018000  0.27383000  1.0
  F  F48  1  0.52578000  0.83958000  0.93984000  1.0
  F  F49  1  0.47421000  0.16042000  0.06017000  1.0
  F  F50  1  0.58682000  0.60942000  0.94897000  1.0
  F  F51  1  0.41320000  0.39058000  0.05102000  1.0
  F  F52  1  0.57952000  0.71982000  0.12811000  1.0
  F  F53  1  0.42048000  0.28017000  0.87190000  1.0
