# generated using pymatgen
data_HgHC7N4
_symmetry_space_group_name_H-M   'P 1'
_cell_length_a   5.68060000
_cell_length_b   9.87517000
_cell_length_c   13.53480000
_cell_angle_alpha   88.31070000
_cell_angle_beta   89.99740000
_cell_angle_gamma   89.99680000
_symmetry_Int_Tables_number   1
_chemical_formula_structural   HgHC7N4
_chemical_formula_sum   'Hg4 H4 C28 N16'
_cell_volume   758.93020687
_cell_formula_units_Z   4
loop_
 _symmetry_equiv_pos_site_id
 _symmetry_equiv_pos_as_xyz
  1  'x, y, z'
loop_
 _atom_site_type_symbol
 _atom_site_label
 _atom_site_symmetry_multiplicity
 _atom_site_fract_x
 _atom_site_fract_y
 _atom_site_fract_z
 _atom_site_occupancy
  Hg  Hg0  1  0.10716000  0.11409000  0.99199000  1.0
  Hg  Hg1  1  0.60718000  0.38592000  0.50799000  1.0
  Hg  Hg2  1  0.89284000  0.88591000  0.00800000  1.0
  Hg  Hg3  1  0.39284000  0.61408000  0.49200000  1.0
  H  H4  1  0.60608000  0.66299000  0.77874000  1.0
  H  H5  1  0.10618000  0.83705000  0.72124000  1.0
  H  H6  1  0.39390000  0.33703000  0.22127000  1.0
  H  H7  1  0.89384000  0.16293000  0.27875000  1.0
  C  C8  1  0.38344000  0.38807000  0.90761000  1.0
  C  C9  1  0.88346000  0.11198000  0.59239000  1.0
  C  C10  1  0.61656000  0.61194000  0.09240000  1.0
  C  C11  1  0.11657000  0.88802000  0.40761000  1.0
  C  C12  1  0.25589000  0.61584000  0.89570000  1.0
  C  C13  1  0.75596000  0.88422000  0.60429000  1.0
  C  C14  1  0.74409000  0.38417000  0.10432000  1.0
  C  C15  1  0.24406000  0.11579000  0.39570000  1.0
  C  C16  1  0.95961000  0.54199000  0.70441000  1.0
  C  C17  1  0.45964000  0.95804000  0.79557000  1.0
  C  C18  1  0.04034000  0.45801000  0.29559000  1.0
  C  C19  1  0.54037000  0.04194000  0.20443000  1.0
  C  C20  1  0.83109000  0.34189000  0.79649000  1.0
  C  C21  1  0.33109000  0.15813000  0.70349000  1.0
  C  C22  1  0.16887000  0.65811000  0.20351000  1.0
  C  C23  1  0.66893000  0.84185000  0.29651000  1.0
  C  C24  1  0.79306000  0.47921000  0.76855000  1.0
  C  C25  1  0.29310000  0.02082000  0.73142000  1.0
  C  C26  1  0.20689000  0.52080000  0.23145000  1.0
  C  C27  1  0.70692000  0.97916000  0.26858000  1.0
  C  C28  1  0.60760000  0.55674000  0.80325000  1.0
  C  C29  1  0.10767000  0.94329000  0.69672000  1.0
  C  C30  1  0.39238000  0.44328000  0.19676000  1.0
  C  C31  1  0.89236000  0.05669000  0.30328000  1.0
  C  C32  1  0.42300000  0.51842000  0.86733000  1.0
  C  C33  1  0.92307000  0.98163000  0.63264000  1.0
  C  C34  1  0.57699000  0.48160000  0.13268000  1.0
  C  C35  1  0.07696000  0.01837000  0.36735000  1.0
  N  N36  1  0.34199000  0.28368000  0.94670000  1.0
  N  N37  1  0.84199000  0.21638000  0.55331000  1.0
  N  N38  1  0.65799000  0.71634000  0.05331000  1.0
  N  N39  1  0.15802000  0.78362000  0.44669000  1.0
  N  N40  1  0.11329000  0.69453000  0.91839000  1.0
  N  N41  1  0.61336000  0.80552000  0.58162000  1.0
  N  N42  1  0.88670000  0.30549000  0.08161000  1.0
  N  N43  1  0.38666000  0.19449000  0.41837000  1.0
  N  N44  1  0.09575000  0.59814000  0.65283000  1.0
  N  N45  1  0.59578000  0.90189000  0.84715000  1.0
  N  N46  1  0.90424000  0.40185000  0.34716000  1.0
  N  N47  1  0.40424000  0.09809000  0.15285000  1.0
  N  N48  1  0.86357000  0.22848000  0.82016000  1.0
  N  N49  1  0.36361000  0.27156000  0.67984000  1.0
  N  N50  1  0.13642000  0.77154000  0.17983000  1.0
  N  N51  1  0.63639000  0.72842000  0.32017000  1.0
