# generated using pymatgen
data_HgH17C21(NO2)3
_symmetry_space_group_name_H-M   'P 1'
_cell_length_a   8.79968000
_cell_length_b   10.51420000
_cell_length_c   10.99440000
_cell_angle_alpha   90.00000000
_cell_angle_beta   89.99980000
_cell_angle_gamma   104.18300000
_symmetry_Int_Tables_number   1
_chemical_formula_structural   HgH17C21(NO2)3
_chemical_formula_sum   'Hg2 H34 C42 N6 O12'
_cell_volume   986.21263940
_cell_formula_units_Z   2
loop_
 _symmetry_equiv_pos_site_id
 _symmetry_equiv_pos_as_xyz
  1  'x, y, z'
loop_
 _atom_site_type_symbol
 _atom_site_label
 _atom_site_symmetry_multiplicity
 _atom_site_fract_x
 _atom_site_fract_y
 _atom_site_fract_z
 _atom_site_occupancy
  Hg  Hg0  1  0.75000000  0.25000000  0.05584000  1.0
  Hg  Hg1  1  0.25000000  0.75000000  0.94416000  1.0
  H  H2  1  0.04954000  0.48312000  0.11238000  1.0
  H  H3  1  0.45046000  0.01688000  0.11237000  1.0
  H  H4  1  0.95046000  0.51688000  0.88763000  1.0
  H  H5  1  0.54954000  0.98312000  0.88763000  1.0
  H  H6  1  0.14931000  0.66984000  0.25336000  1.0
  H  H7  1  0.35070000  0.83016000  0.25336000  1.0
  H  H8  1  0.85070000  0.33016000  0.74664000  1.0
  H  H9  1  0.64930000  0.16984000  0.74664000  1.0
  H  H10  1  0.99340000  0.69289000  0.43905000  1.0
  H  H11  1  0.50660000  0.80711000  0.43905000  1.0
  H  H12  1  0.00661000  0.30711000  0.56095000  1.0
  H  H13  1  0.49340000  0.19289000  0.56095000  1.0
  H  H14  1  0.65362000  0.34243000  0.32476000  1.0
  H  H15  1  0.84638000  0.15757000  0.32476000  1.0
  H  H16  1  0.34639000  0.65758000  0.67524000  1.0
  H  H17  1  0.15362000  0.84242000  0.67524000  1.0
  H  H18  1  0.70474000  0.53864000  0.75541000  1.0
  H  H19  1  0.79526000  0.96135000  0.75541000  1.0
  H  H20  1  0.29526000  0.46135000  0.24458000  1.0
  H  H21  1  0.20474000  0.03864000  0.24459000  1.0
  H  H22  1  0.75000000  0.75000000  0.87182000  1.0
  H  H23  1  0.24999000  0.25000000  0.12818000  1.0
  H  H24  1  0.05173000  0.99673000  0.84882000  1.0
  H  H25  1  0.44827000  0.50327000  0.84882000  1.0
  H  H26  1  0.94827000  0.00327000  0.15118000  1.0
  H  H27  1  0.55173000  0.49674000  0.15118000  1.0
  H  H28  1  0.20917000  0.12654000  0.90480000  1.0
  H  H29  1  0.29082000  0.37346000  0.90480000  1.0
  H  H30  1  0.79082000  0.87346000  0.09520000  1.0
  H  H31  1  0.70918000  0.62655000  0.09520000  1.0
  H  H32  1  0.10910000  0.14573000  0.76670000  1.0
  H  H33  1  0.39090000  0.35427000  0.76670000  1.0
  H  H34  1  0.89090000  0.85427000  0.23330000  1.0
  H  H35  1  0.60911000  0.64573000  0.23329000  1.0
  C  C36  1  0.98328000  0.49678000  0.19302000  1.0
  C  C37  1  0.51673000  0.00323000  0.19302000  1.0
  C  C38  1  0.01673000  0.50322000  0.80698000  1.0
  C  C39  1  0.48327000  0.99677000  0.80698000  1.0
  C  C40  1  0.03852000  0.60041000  0.27296000  1.0
  C  C41  1  0.46148000  0.89959000  0.27296000  1.0
  C  C42  1  0.96149000  0.39959000  0.72704000  1.0
  C  C43  1  0.53852000  0.10041000  0.72704000  1.0
  C  C44  1  0.95141000  0.61190000  0.37622000  1.0
  C  C45  1  0.54859000  0.88810000  0.37622000  1.0
  C  C46  1  0.04859000  0.38810000  0.62378000  1.0
  C  C47  1  0.45141000  0.11190000  0.62378000  1.0
  C  C48  1  0.81112000  0.51705000  0.39772000  1.0
  C  C49  1  0.68888000  0.98295000  0.39772000  1.0
  C  C50  1  0.18889000  0.48295000  0.60228000  1.0
  C  C51  1  0.31112000  0.01706000  0.60228000  1.0
  C  C52  1  0.76333000  0.41662000  0.31221000  1.0
  C  C53  1  0.73667000  0.08338000  0.31221000  1.0
  C  C54  1  0.23668000  0.58338000  0.68779000  1.0
  C  C55  1  0.26333000  0.91662000  0.68779000  1.0
  C  C56  1  0.71587000  0.51374000  0.51021000  1.0
  C  C57  1  0.78413000  0.98626000  0.51020000  1.0
  C  C58  1  0.28413000  0.48625000  0.48979000  1.0
  C  C59  1  0.21587000  0.01375000  0.48980000  1.0
  C  C60  1  0.73137000  0.63808000  0.58080000  1.0
  C  C61  1  0.76863000  0.86192000  0.58079000  1.0
  C  C62  1  0.26863000  0.36192000  0.41920000  1.0
  C  C63  1  0.23137000  0.13808000  0.41920000  1.0
  C  C64  1  0.72549000  0.63265000  0.70819000  1.0
  C  C65  1  0.77451000  0.86735000  0.70819000  1.0
  C  C66  1  0.27451000  0.36735000  0.29181000  1.0
  C  C67  1  0.22548000  0.13265000  0.29181000  1.0
  C  C68  1  0.75000000  0.75000000  0.77283000  1.0
  C  C69  1  0.24999000  0.25000000  0.22717000  1.0
  C  C70  1  0.97748000  0.15841000  0.92702000  1.0
  C  C71  1  0.52251000  0.34158000  0.92702000  1.0
  C  C72  1  0.02251000  0.84158000  0.07298000  1.0
  C  C73  1  0.47749000  0.65842000  0.07298000  1.0
  C  C74  1  0.09555000  0.10309000  0.85859000  1.0
  C  C75  1  0.40445000  0.39691000  0.85859000  1.0
  C  C76  1  0.90445000  0.89691000  0.14141000  1.0
  C  C77  1  0.59555000  0.60310000  0.14141000  1.0
  N  N78  1  0.84704000  0.40743000  0.21233000  1.0
  N  N79  1  0.65296000  0.09257000  0.21233000  1.0
  N  N80  1  0.15297000  0.59257000  0.78767000  1.0
  N  N81  1  0.34704000  0.90743000  0.78767000  1.0
  N  N82  1  0.75000000  0.75000000  0.51708000  1.0
  N  N83  1  0.25000000  0.25000000  0.48292000  1.0
  O  O84  1  0.63001000  0.40971000  0.54713000  1.0
  O  O85  1  0.87000000  0.09029000  0.54713000  1.0
  O  O86  1  0.36999000  0.59028000  0.45287000  1.0
  O  O87  1  0.13001000  0.90972000  0.45287000  1.0
  O  O88  1  0.02532000  0.25228000  0.00174000  1.0
  O  O89  1  0.47467000  0.24772000  0.00174000  1.0
  O  O90  1  0.97467000  0.74772000  0.99826000  1.0
  O  O91  1  0.52533000  0.75229000  0.99826000  1.0
  O  O92  1  0.83170000  0.10886000  0.90630000  1.0
  O  O93  1  0.66830000  0.39113000  0.90631000  1.0
  O  O94  1  0.16830000  0.89113000  0.09369000  1.0
  O  O95  1  0.33171000  0.60888000  0.09369000  1.0
