# generated using pymatgen
data_UPH4(CO2)3
_symmetry_space_group_name_H-M   'P 1'
_cell_length_a   6.92156000
_cell_length_b   15.34930000
_cell_length_c   15.35154612
_cell_angle_alpha   87.08136684
_cell_angle_beta   76.96008764
_cell_angle_gamma   76.97470000
_symmetry_Int_Tables_number   1
_chemical_formula_structural   UPH4(CO2)3
_chemical_formula_sum   'U8 P8 H32 C24 O48'
_cell_volume   1548.02608612
_cell_formula_units_Z   8
loop_
 _symmetry_equiv_pos_site_id
 _symmetry_equiv_pos_as_xyz
  1  'x, y, z'
loop_
 _atom_site_type_symbol
 _atom_site_label
 _atom_site_symmetry_multiplicity
 _atom_site_fract_x
 _atom_site_fract_y
 _atom_site_fract_z
 _atom_site_occupancy
  U  U0  1  0.80854000  0.06051000  0.46181000  1.0
  U  U1  1  0.33086000  0.93954000  0.53817000  1.0
  U  U2  1  0.72954000  0.46178000  0.93956000  1.0
  U  U3  1  0.13104000  0.53819000  0.06045000  1.0
  U  U4  1  0.38933000  0.19981000  0.19919000  1.0
  U  U5  1  0.78820000  0.80019000  0.80082000  1.0
  U  U6  1  0.41144000  0.19913000  0.80029000  1.0
  U  U7  1  0.41121000  0.80088000  0.19972000  1.0
  P  P8  1  0.81929000  0.22766000  0.29106000  1.0
  P  P9  1  0.33803000  0.77239000  0.70894000  1.0
  P  P10  1  0.88949000  0.29098000  0.77245000  1.0
  P  P11  1  0.95332000  0.70903000  0.22754000  1.0
  P  P12  1  0.58305000  0.55803000  0.13282000  1.0
  P  P13  1  0.27374000  0.44197000  0.86722000  1.0
  P  P14  1  0.28414000  0.13290000  0.44203000  1.0
  P  P15  1  0.85897000  0.86716000  0.55796000  1.0
  H  H16  1  0.74394000  0.36476000  0.15771000  1.0
  H  H17  1  0.26663000  0.63528000  0.84235000  1.0
  H  H18  1  0.09866000  0.15773000  0.63537000  1.0
  H  H19  1  0.89133000  0.84232000  0.36467000  1.0
  H  H20  1  0.68100000  0.35332000  0.44361000  1.0
  H  H21  1  0.47747000  0.64675000  0.55639000  1.0
  H  H22  1  0.87442000  0.44359000  0.64681000  1.0
  H  H23  1  0.96670000  0.55635000  0.35307000  1.0
  H  H24  1  0.59643000  0.18666000  0.99733000  1.0
  H  H25  1  0.78049000  0.81317000  0.00266000  1.0
  H  H26  1  0.40641000  0.99724000  0.81324000  1.0
  H  H27  1  0.21722000  0.00283000  0.18675000  1.0
  H  H28  1  0.70561000  0.25317000  0.03274000  1.0
  H  H29  1  0.99171000  0.74674000  0.96719000  1.0
  H  H30  1  0.26160000  0.03274000  0.74686000  1.0
  H  H31  1  0.04140000  0.96735000  0.25313000  1.0
  H  H32  1  0.25455000  0.22568000  0.01786000  1.0
  H  H33  1  0.49812000  0.77422000  0.98220000  1.0
  H  H34  1  0.72770000  0.01777000  0.77423000  1.0
  H  H35  1  0.52012000  0.98214000  0.22577000  1.0
  H  H36  1  0.15966000  0.31423000  0.07907000  1.0
  H  H37  1  0.55295000  0.68569000  0.92097000  1.0
  H  H38  1  0.76125000  0.07906000  0.68572000  1.0
  H  H39  1  0.52627000  0.92086000  0.31428000  1.0
  H  H40  1  0.55200000  0.52058000  0.44950000  1.0
  H  H41  1  0.52155000  0.47947000  0.55053000  1.0
  H  H42  1  0.99686000  0.44945000  0.47950000  1.0
  H  H43  1  0.92863000  0.55041000  0.52034000  1.0
  H  H44  1  0.50848000  0.60615000  0.31528000  1.0
  H  H45  1  0.42994000  0.39389000  0.68480000  1.0
  H  H46  1  0.17517000  0.31532000  0.39394000  1.0
  H  H47  1  0.88547000  0.68464000  0.60599000  1.0
  C  C48  1  0.72397000  0.34796000  0.29998000  1.0
  C  C49  1  0.37198000  0.65208000  0.70005000  1.0
  C  C50  1  0.97571000  0.29995000  0.65217000  1.0
  C  C51  1  0.92841000  0.70004000  0.34781000  1.0
  C  C52  1  0.70229000  0.39806000  0.22235000  1.0
  C  C53  1  0.32284000  0.60198000  0.77770000  1.0
  C  C54  1  0.07535000  0.22236000  0.60206000  1.0
  C  C55  1  0.89981000  0.77767000  0.39794000  1.0
  C  C56  1  0.66743000  0.39199000  0.38283000  1.0
  C  C57  1  0.44202000  0.60805000  0.61718000  1.0
  C  C58  1  0.94895000  0.38281000  0.60814000  1.0
  C  C59  1  0.94135000  0.61714000  0.39178000  1.0
  C  C60  1  0.62363000  0.49080000  0.22785000  1.0
  C  C61  1  0.34234000  0.50924000  0.77221000  1.0
  C  C62  1  0.14831000  0.22786000  0.50931000  1.0
  C  C63  1  0.88567000  0.77214000  0.49068000  1.0
  C  C64  1  0.59358000  0.48450000  0.38686000  1.0
  C  C65  1  0.46463000  0.51555000  0.61317000  1.0
  C  C66  1  0.01847000  0.38685000  0.51561000  1.0
  C  C67  1  0.92273000  0.61307000  0.48429000  1.0
  C  C68  1  0.56960000  0.53422000  0.31053000  1.0
  C  C69  1  0.41428000  0.46582000  0.68952000  1.0
  C  C70  1  0.11911000  0.31055000  0.46589000  1.0
  C  C71  1  0.89651000  0.68942000  0.53406000  1.0
  O  O72  1  0.77536000  0.18977000  0.38875000  1.0
  O  O73  1  0.35433000  0.81024000  0.61122000  1.0
  O  O74  1  0.83557000  0.38867000  0.81034000  1.0
  O  O75  1  0.03501000  0.61134000  0.18964000  1.0
  O  O76  1  0.84912000  0.00200000  0.35640000  1.0
  O  O77  1  0.20768000  0.99798000  0.64365000  1.0
  O  O78  1  0.79413000  0.35636000  0.99810000  1.0
  O  O79  1  0.14918000  0.64359000  0.00188000  1.0
  O  O80  1  0.77793000  0.11022000  0.57015000  1.0
  O  O81  1  0.45829000  0.88982000  0.42982000  1.0
  O  O82  1  0.65192000  0.57011000  0.88976000  1.0
  O  O83  1  0.11179000  0.42989000  0.11028000  1.0
  O  O84  1  0.65908000  0.93740000  0.55408000  1.0
  O  O85  1  0.15065000  0.06265000  0.44580000  1.0
  O  O86  1  0.78683000  0.55414000  0.06257000  1.0
  O  O87  1  0.40341000  0.44580000  0.93745000  1.0
  O  O88  1  0.02178000  0.92092000  0.51259000  1.0
  O  O89  1  0.45518000  0.07917000  0.48748000  1.0
  O  O90  1  0.46563000  0.51262000  0.07911000  1.0
  O  O91  1  0.05723000  0.48744000  0.92092000  1.0
  O  O92  1  0.70813000  0.19147000  0.22996000  1.0
  O  O93  1  0.12934000  0.80858000  0.76988000  1.0
  O  O94  1  0.06186000  0.22990000  0.80858000  1.0
  O  O95  1  0.10072000  0.77012000  0.19135000  1.0
  O  O96  1  0.04979000  0.20657000  0.25530000  1.0
  O  O97  1  0.51131000  0.79357000  0.74489000  1.0
  O  O98  1  0.69483000  0.25515000  0.79360000  1.0
  O  O99  1  0.74394000  0.74481000  0.20647000  1.0
  O  O100  1  0.36509000  0.16184000  0.34851000  1.0
  O  O101  1  0.87503000  0.83825000  0.65151000  1.0
  O  O102  1  0.28623000  0.34844000  0.83836000  1.0
  O  O103  1  0.47343000  0.65161000  0.16166000  1.0
  O  O104  1  0.63467000  0.20389000  0.05076000  1.0
  O  O105  1  0.88939000  0.79596000  0.94920000  1.0
  O  O106  1  0.31458000  0.05069000  0.79613000  1.0
  O  O107  1  0.16176000  0.94937000  0.20391000  1.0
  O  O108  1  0.34533000  0.31732000  0.22290000  1.0
  O  O109  1  0.88530000  0.68272000  0.77700000  1.0
  O  O110  1  0.43183000  0.22297000  0.68281000  1.0
  O  O111  1  0.33778000  0.77699000  0.31718000  1.0
  O  O112  1  0.20182000  0.24842000  0.07987000  1.0
  O  O113  1  0.53008000  0.75151000  0.92019000  1.0
  O  O114  1  0.71826000  0.07980000  0.75153000  1.0
  O  O115  1  0.55009000  0.92012000  0.24846000  1.0
  O  O116  1  0.42353000  0.08082000  0.17255000  1.0
  O  O117  1  0.67677000  0.91919000  0.82753000  1.0
  O  O118  1  0.40396000  0.17243000  0.91926000  1.0
  O  O119  1  0.49623000  0.82755000  0.08077000  1.0
