# generated using pymatgen
data_NaCuH18C16N2ClO6
_symmetry_space_group_name_H-M   'P 1'
_cell_length_a   7.35446000
_cell_length_b   11.04630000
_cell_length_c   11.12740000
_cell_angle_alpha   78.87410000
_cell_angle_beta   88.97230000
_cell_angle_gamma   88.32050000
_symmetry_Int_Tables_number   1
_chemical_formula_structural   NaCuH18C16N2ClO6
_chemical_formula_sum   'Na2 Cu2 H36 C32 N4 Cl2 O12'
_cell_volume   886.54474605
_cell_formula_units_Z   2
loop_
 _symmetry_equiv_pos_site_id
 _symmetry_equiv_pos_as_xyz
  1  'x, y, z'
loop_
 _atom_site_type_symbol
 _atom_site_label
 _atom_site_symmetry_multiplicity
 _atom_site_fract_x
 _atom_site_fract_y
 _atom_site_fract_z
 _atom_site_occupancy
  Na  Na0  1  0.00001000  0.00000000  0.00000000  1.0
  Na  Na1  1  0.50001000  0.00000000  0.00000000  1.0
  Cu  Cu2  1  0.75457000  0.88169000  0.83619000  1.0
  Cu  Cu3  1  0.24544000  0.11831000  0.16382000  1.0
  H  H4  1  0.91838000  0.93644000  0.63721000  1.0
  H  H5  1  0.08163000  0.06356000  0.36279000  1.0
  H  H6  1  0.58750000  0.68898000  0.82345000  1.0
  H  H7  1  0.41251000  0.31101000  0.17656000  1.0
  H  H8  1  0.90352000  0.25804000  0.88552000  1.0
  H  H9  1  0.09649000  0.74196000  0.11446000  1.0
  H  H10  1  0.98150000  0.43606000  0.72235000  1.0
  H  H11  1  0.01849000  0.56394000  0.27762000  1.0
  H  H12  1  0.90701000  0.43262000  0.50286000  1.0
  H  H13  1  0.09295000  0.56737000  0.49712000  1.0
  H  H14  1  0.77326000  0.24579000  0.45269000  1.0
  H  H15  1  0.22669000  0.75420000  0.54731000  1.0
  H  H16  1  0.53788000  0.02393000  0.63801000  1.0
  H  H17  1  0.46212000  0.97605000  0.36200000  1.0
  H  H18  1  0.67513000  0.04925000  0.50232000  1.0
  H  H19  1  0.32486000  0.95073000  0.49768000  1.0
  H  H20  1  0.58034000  0.81153000  0.60135000  1.0
  H  H21  1  0.41968000  0.18846000  0.39865000  1.0
  H  H22  1  0.78564000  0.81088000  0.51371000  1.0
  H  H23  1  0.21438000  0.18911000  0.48630000  1.0
  H  H24  1  0.94523000  0.69297000  0.70013000  1.0
  H  H25  1  0.05478000  0.30703000  0.29988000  1.0
  H  H26  1  0.75302000  0.61089000  0.66833000  1.0
  H  H27  1  0.24701000  0.38911000  0.33169000  1.0
  H  H28  1  0.95873000  0.64310000  0.91743000  1.0
  H  H29  1  0.04127000  0.35691000  0.08258000  1.0
  H  H30  1  0.80772000  0.52293000  0.90589000  1.0
  H  H31  1  0.19229000  0.47708000  0.09413000  1.0
  H  H32  1  0.70650000  0.42875000  0.09352000  1.0
  H  H33  1  0.29349000  0.57126000  0.90649000  1.0
  H  H34  1  0.58528000  0.42941000  0.30360000  1.0
  H  H35  1  0.41470000  0.57059000  0.69641000  1.0
  H  H36  1  0.53144000  0.63067000  0.37154000  1.0
  H  H37  1  0.46855000  0.36934000  0.62847000  1.0
  H  H38  1  0.61412000  0.82612000  0.23296000  1.0
  H  H39  1  0.38589000  0.17389000  0.76705000  1.0
  C  C40  1  0.79803000  0.14949000  0.76282000  1.0
  C  C41  1  0.20197000  0.85051000  0.23716000  1.0
  C  C42  1  0.87556000  0.25632000  0.78996000  1.0
  C  C43  1  0.12444000  0.74368000  0.21002000  1.0
  C  C44  1  0.91614000  0.35674000  0.69812000  1.0
  C  C45  1  0.08384000  0.64326000  0.30184000  1.0
  C  C46  1  0.87825000  0.35430000  0.57590000  1.0
  C  C47  1  0.12172000  0.64570000  0.42408000  1.0
  C  C48  1  0.80249000  0.24900000  0.54773000  1.0
  C  C49  1  0.19748000  0.75099000  0.45225000  1.0
  C  C50  1  0.76162000  0.14660000  0.63849000  1.0
  C  C51  1  0.23836000  0.85340000  0.36150000  1.0
  C  C52  1  0.67814000  0.03639000  0.60272000  1.0
  C  C53  1  0.32185000  0.96360000  0.39728000  1.0
  C  C54  1  0.72956000  0.81022000  0.60623000  1.0
  C  C55  1  0.27046000  0.18977000  0.39378000  1.0
  C  C56  1  0.79577000  0.69619000  0.69601000  1.0
  C  C57  1  0.20425000  0.30381000  0.30400000  1.0
  C  C58  1  0.81447000  0.61829000  0.92158000  1.0
  C  C59  1  0.18554000  0.38171000  0.07844000  1.0
  C  C60  1  0.73035000  0.62548000  0.04453000  1.0
  C  C61  1  0.26965000  0.37452000  0.95548000  1.0
  C  C62  1  0.68484000  0.51608000  0.12453000  1.0
  C  C63  1  0.31515000  0.48393000  0.87547000  1.0
  C  C64  1  0.61566000  0.51597000  0.24222000  1.0
  C  C65  1  0.38434000  0.48404000  0.75778000  1.0
  C  C66  1  0.58867000  0.62841000  0.28079000  1.0
  C  C67  1  0.41133000  0.37160000  0.71921000  1.0
  C  C68  1  0.63226000  0.73815000  0.20310000  1.0
  C  C69  1  0.36775000  0.26185000  0.79690000  1.0
  C  C70  1  0.70413000  0.73967000  0.08428000  1.0
  C  C71  1  0.29587000  0.26034000  0.91573000  1.0
  N  N72  1  0.78200000  0.92094000  0.65317000  1.0
  N  N73  1  0.21800000  0.07906000  0.34683000  1.0
  N  N74  1  0.72471000  0.70471000  0.81981000  1.0
  N  N75  1  0.27530000  0.29529000  0.18020000  1.0
  Cl  Cl76  1  0.24560000  0.87663000  0.78350000  1.0
  Cl  Cl77  1  0.75441000  0.12337000  0.21651000  1.0
  O  O78  1  0.76260000  0.05500000  0.85507000  1.0
  O  O79  1  0.23740000  0.94500000  0.14493000  1.0
  O  O80  1  0.74554000  0.84918000  0.01494000  1.0
  O  O81  1  0.25447000  0.15082000  0.98507000  1.0
  O  O82  1  0.40694000  0.92261000  0.83320000  1.0
  O  O83  1  0.59306000  0.07738000  0.16682000  1.0
  O  O84  1  0.29444000  0.76309000  0.74136000  1.0
  O  O85  1  0.70556000  0.23693000  0.25863000  1.0
  O  O86  1  0.17725000  0.96981000  0.68190000  1.0
  O  O87  1  0.82277000  0.03022000  0.31811000  1.0
  O  O88  1  0.10555000  0.85123000  0.87984000  1.0
  O  O89  1  0.89443000  0.14876000  0.12016000  1.0
