# generated using pymatgen
data_CoH14C20N2O5
_symmetry_space_group_name_H-M   'P 1'
_cell_length_a   7.44997000
_cell_length_b   10.18310000
_cell_length_c   10.19820000
_cell_angle_alpha   87.75510000
_cell_angle_beta   89.33160000
_cell_angle_gamma   88.93830000
_symmetry_Int_Tables_number   1
_chemical_formula_structural   CoH14C20N2O5
_chemical_formula_sum   'Co2 H28 C40 N4 O10'
_cell_volume   772.90126224
_cell_formula_units_Z   2
loop_
 _symmetry_equiv_pos_site_id
 _symmetry_equiv_pos_as_xyz
  1  'x, y, z'
loop_
 _atom_site_type_symbol
 _atom_site_label
 _atom_site_symmetry_multiplicity
 _atom_site_fract_x
 _atom_site_fract_y
 _atom_site_fract_z
 _atom_site_occupancy
  Co  Co0  1  0.50000000  0.00000000  0.00000000  1.0
  Co  Co1  1  0.00000000  0.00000000  0.00000000  1.0
  H  H2  1  0.75245000  0.92848000  0.18248000  1.0
  H  H3  1  0.74432000  0.81704000  0.07174000  1.0
  H  H4  1  0.24755000  0.07152000  0.81752000  1.0
  H  H5  1  0.25568000  0.18296000  0.92826000  1.0
  H  H6  1  0.11883000  0.58684000  0.14124000  1.0
  H  H7  1  0.38121000  0.85752000  0.41417000  1.0
  H  H8  1  0.88118000  0.41316000  0.85876000  1.0
  H  H9  1  0.61876000  0.14248000  0.58583000  1.0
  H  H10  1  0.11960000  0.34374000  0.11433000  1.0
  H  H11  1  0.38253000  0.88461000  0.65687000  1.0
  H  H12  1  0.88040000  0.65626000  0.88568000  1.0
  H  H13  1  0.61745000  0.11538000  0.34313000  1.0
  H  H14  1  0.43591000  0.25508000  0.74437000  1.0
  H  H15  1  0.06424000  0.25546000  0.74522000  1.0
  H  H16  1  0.56408000  0.74492000  0.25563000  1.0
  H  H17  1  0.93576000  0.74455000  0.25478000  1.0
  H  H18  1  0.60596000  0.38357000  0.57373000  1.0
  H  H19  1  0.89314000  0.42711000  0.61661000  1.0
  H  H20  1  0.39404000  0.61642000  0.42627000  1.0
  H  H21  1  0.10686000  0.57290000  0.38339000  1.0
  H  H22  1  0.63933000  0.62537000  0.59191000  1.0
  H  H23  1  0.85943000  0.40966000  0.37502000  1.0
  H  H24  1  0.36068000  0.37463000  0.40810000  1.0
  H  H25  1  0.14057000  0.59034000  0.62498000  1.0
  H  H26  1  0.49359000  0.73987000  0.77593000  1.0
  H  H27  1  0.00550000  0.22514000  0.26069000  1.0
  H  H28  1  0.50642000  0.26013000  0.22407000  1.0
  H  H29  1  0.99450000  0.77487000  0.73931000  1.0
  C  C30  1  0.26927000  0.77205000  0.98155000  1.0
  C  C31  1  0.22945000  0.01828000  0.22922000  1.0
  C  C32  1  0.73073000  0.22794000  0.01845000  1.0
  C  C33  1  0.77054000  0.98173000  0.77078000  1.0
  C  C34  1  0.27806000  0.62523000  0.96764000  1.0
  C  C35  1  0.22106000  0.03187000  0.37580000  1.0
  C  C36  1  0.72194000  0.37477000  0.03236000  1.0
  C  C37  1  0.77894000  0.96813000  0.62420000  1.0
  C  C38  1  0.19001000  0.54463000  0.05874000  1.0
  C  C39  1  0.30996000  0.94029000  0.45633000  1.0
  C  C40  1  0.80999000  0.45537000  0.94125000  1.0
  C  C41  1  0.69002000  0.05971000  0.54367000  1.0
  C  C42  1  0.18947000  0.40786000  0.04338000  1.0
  C  C43  1  0.31154000  0.95572000  0.59286000  1.0
  C  C44  1  0.81053000  0.59214000  0.95662000  1.0
  C  C45  1  0.68845000  0.04427000  0.40714000  1.0
  C  C46  1  0.35839000  0.42536000  0.85264000  1.0
  C  C47  1  0.14155000  0.14711000  0.57526000  1.0
  C  C48  1  0.64161000  0.57464000  0.14736000  1.0
  C  C49  1  0.85844000  0.85289000  0.42474000  1.0
  C  C50  1  0.44508000  0.36160000  0.74765000  1.0
  C  C51  1  0.05461000  0.25237000  0.63880000  1.0
  C  C52  1  0.55493000  0.63840000  0.25235000  1.0
  C  C53  1  0.94539000  0.74764000  0.36120000  1.0
  C  C54  1  0.54103000  0.43323000  0.65454000  1.0
  C  C55  1  0.95814000  0.34601000  0.56712000  1.0
  C  C56  1  0.45897000  0.56677000  0.34547000  1.0
  C  C57  1  0.04186000  0.65399000  0.43288000  1.0
  C  C58  1  0.55813000  0.57051000  0.66404000  1.0
  C  C59  1  0.94086000  0.33692000  0.42989000  1.0
  C  C60  1  0.44188000  0.42949000  0.33596000  1.0
  C  C61  1  0.05914000  0.66308000  0.57011000  1.0
  C  C62  1  0.47567000  0.63509000  0.76540000  1.0
  C  C63  1  0.02347000  0.23530000  0.36548000  1.0
  C  C64  1  0.52433000  0.36490000  0.23460000  1.0
  C  C65  1  0.97653000  0.76471000  0.63452000  1.0
  C  C66  1  0.37161000  0.56527000  0.86161000  1.0
  C  C67  1  0.12775000  0.13838000  0.43550000  1.0
  C  C68  1  0.62840000  0.43473000  0.13839000  1.0
  C  C69  1  0.87225000  0.86162000  0.56449000  1.0
  N  N70  1  0.26585000  0.34957000  0.94288000  1.0
  N  N71  1  0.23500000  0.05651000  0.65103000  1.0
  N  N72  1  0.73415000  0.65042000  0.05713000  1.0
  N  N73  1  0.76499000  0.94349000  0.34897000  1.0
  O  O74  1  0.11405000  0.82052000  0.00462000  1.0
  O  O75  1  0.38441000  0.99593000  0.18107000  1.0
  O  O76  1  0.88595000  0.17948000  0.99538000  1.0
  O  O77  1  0.61559000  0.00407000  0.81893000  1.0
  O  O78  1  0.42008000  0.82866000  0.96845000  1.0
  O  O79  1  0.07813000  0.03109000  0.17219000  1.0
  O  O80  1  0.57993000  0.17133000  0.03155000  1.0
  O  O81  1  0.92187000  0.96891000  0.82781000  1.0
  O  O82  1  0.74778000  0.91594000  0.08381000  1.0
  O  O83  1  0.25222000  0.08406000  0.91619000  1.0
