# generated using pymatgen
data_Mg3H8C14(NO5)2
_symmetry_space_group_name_H-M   'P 1'
_cell_length_a   11.04600000
_cell_length_b   11.11606000
_cell_length_c   11.11607855
_cell_angle_alpha   72.87128404
_cell_angle_beta   78.81026451
_cell_angle_gamma   78.81012452
_symmetry_Int_Tables_number   1
_chemical_formula_structural   Mg3H8C14(NO5)2
_chemical_formula_sum   'Mg6 H16 C28 N4 O20'
_cell_volume   1265.86597877
_cell_formula_units_Z   2
loop_
 _symmetry_equiv_pos_site_id
 _symmetry_equiv_pos_as_xyz
  1  'x, y, z'
loop_
 _atom_site_type_symbol
 _atom_site_label
 _atom_site_symmetry_multiplicity
 _atom_site_fract_x
 _atom_site_fract_y
 _atom_site_fract_z
 _atom_site_occupancy
  C  C0  1  0.22755500  0.20129000  0.41808000  1.0
  C  C1  1  0.28284500  0.07471500  0.43464500  1.0
  C  C2  1  0.21961500  0.99018000  0.40806000  1.0
  C  C3  1  0.10487000  0.03699000  0.36387000  1.0
  C  C4  1  0.05538500  0.16440000  0.35204000  1.0
  C  C5  1  0.29054000  0.30054000  0.43998000  1.0
  C  C6  1  0.27188500  0.85062000  0.42780000  1.0
  C  C7  1  0.72755500  0.41808500  0.20128500  1.0
  C  C8  1  0.78284500  0.43466000  0.07471000  1.0
  C  C9  1  0.71961500  0.40807000  0.99018000  1.0
  C  C10  1  0.60488000  0.36388000  0.03699000  1.0
  C  C11  1  0.55538500  0.35204000  0.16440000  1.0
  C  C12  1  0.79054000  0.43999000  0.30054000  1.0
  C  C13  1  0.77188000  0.42780500  0.85061500  1.0
  C  C14  1  0.27244500  0.58192000  0.79871000  1.0
  C  C15  1  0.21716000  0.56534500  0.92528500  1.0
  C  C16  1  0.28039000  0.59193500  0.00981500  1.0
  C  C17  1  0.39512500  0.63612500  0.96300500  1.0
  C  C18  1  0.44461000  0.64796000  0.83560000  1.0
  C  C19  1  0.20946000  0.56001500  0.69946500  1.0
  C  C20  1  0.22812500  0.57219500  0.14938500  1.0
  C  C21  1  0.77244500  0.79870500  0.58192500  1.0
  C  C22  1  0.71715500  0.92528500  0.56535500  1.0
  C  C23  1  0.78038000  0.00982000  0.59195000  1.0
  C  C24  1  0.89512000  0.96300500  0.63613500  1.0
  C  C25  1  0.94461000  0.83560500  0.64796500  1.0
  C  C26  1  0.70946500  0.69946000  0.56002000  1.0
  C  C27  1  0.72812000  0.14937500  0.57220500  1.0
  H  H28  1  0.37322000  0.04267000  0.46778000  1.0
  H  H29  1  0.05545500  0.97309500  0.34044500  1.0
  H  H30  1  0.96530500  0.20399500  0.31954500  1.0
  H  H31  1  0.52349500  0.39385000  0.69316000  1.0
  H  H32  1  0.97650500  0.30683000  0.60615000  1.0
  H  H33  1  0.87321500  0.46779500  0.04267500  1.0
  H  H34  1  0.55546000  0.34045500  0.97309500  1.0
  H  H35  1  0.46531500  0.31954500  0.20400500  1.0
  H  H36  1  0.12678500  0.53220500  0.95732500  1.0
  H  H37  1  0.44454000  0.65955500  0.02690500  1.0
  H  H38  1  0.53468500  0.68046000  0.79600000  1.0
  H  H39  1  0.62678000  0.95732500  0.53221500  1.0
  H  H40  1  0.94453500  0.02690500  0.65956500  1.0
  H  H41  1  0.03468500  0.79600000  0.68045000  1.0
  H  H42  1  0.47650500  0.60614500  0.30683500  1.0
  H  H43  1  0.02349500  0.69316000  0.39385000  1.0
  Mg  Mg44  1  0.04281000  0.44966500  0.37676500  1.0
  Mg  Mg45  1  0.75000000  0.40570000  0.59430000  1.0
  Mg  Mg46  1  0.54281500  0.37676500  0.44966500  1.0
  Mg  Mg47  1  0.45719000  0.62323500  0.55033500  1.0
  Mg  Mg48  1  0.95719000  0.55033500  0.62323500  1.0
  Mg  Mg49  1  0.25000000  0.59430000  0.40570000  1.0
  N  N50  1  0.11442500  0.24518000  0.37972000  1.0
  N  N51  1  0.61443000  0.37972000  0.24518000  1.0
  N  N52  1  0.38557500  0.62028000  0.75482000  1.0
  N  N53  1  0.88557000  0.75481500  0.62028500  1.0
  O  O54  1  0.22191000  0.40734000  0.43806000  1.0
  O  O55  1  0.40334500  0.27407500  0.45539500  1.0
  O  O56  1  0.36320000  0.80864000  0.48935000  1.0
  O  O57  1  0.21762500  0.78708500  0.38197500  1.0
  O  O58  1  0.55280000  0.43733500  0.60603500  1.0
  O  O59  1  0.94720000  0.39396500  0.56266500  1.0
  O  O60  1  0.72191500  0.43805500  0.40734500  1.0
  O  O61  1  0.90334000  0.45540500  0.27408500  1.0
  O  O62  1  0.86319500  0.48936500  0.80864500  1.0
  O  O63  1  0.71762500  0.38198000  0.78709000  1.0
  O  O64  1  0.27809000  0.56194500  0.59265500  1.0
  O  O65  1  0.09666000  0.54460500  0.72591500  1.0
  O  O66  1  0.13681000  0.51063500  0.19135500  1.0
  O  O67  1  0.28237500  0.61801500  0.21291500  1.0
  O  O68  1  0.77808500  0.59265500  0.56194500  1.0
  O  O69  1  0.59665500  0.72591000  0.54461000  1.0
  O  O70  1  0.63680500  0.19135000  0.51064000  1.0
  O  O71  1  0.78237500  0.21291000  0.61802000  1.0
  O  O72  1  0.44720500  0.56266000  0.39396000  1.0
  O  O73  1  0.05280000  0.60604000  0.43734000  1.0
