# generated using pymatgen
data_NaH18C15NO4
_symmetry_space_group_name_H-M   'P 1'
_cell_length_a   6.27631000
_cell_length_b   6.64070000
_cell_length_c   18.61807300
_cell_angle_alpha   81.11113647
_cell_angle_beta   85.50383649
_cell_angle_gamma   71.34990000
_symmetry_Int_Tables_number   1
_chemical_formula_structural   NaH18C15NO4
_chemical_formula_sum   'Na2 H36 C30 N2 O8'
_cell_volume   726.05836200
_cell_formula_units_Z   2
loop_
 _symmetry_equiv_pos_site_id
 _symmetry_equiv_pos_as_xyz
  1  'x, y, z'
loop_
 _atom_site_type_symbol
 _atom_site_label
 _atom_site_symmetry_multiplicity
 _atom_site_fract_x
 _atom_site_fract_y
 _atom_site_fract_z
 _atom_site_occupancy
  Na  Na0  1  0.11782000  0.23269000  0.47478000  1.0
  Na  Na1  1  0.88215000  0.76733000  0.52522000  1.0
  H  H2  1  0.05947000  0.61838000  0.39066000  1.0
  H  H3  1  0.94050000  0.38165000  0.60935000  1.0
  H  H4  1  0.81634000  0.59920000  0.38513000  1.0
  H  H5  1  0.18364000  0.40082000  0.61487000  1.0
  H  H6  1  0.71845000  0.22865000  0.56471000  1.0
  H  H7  1  0.28154000  0.77137000  0.43529000  1.0
  H  H8  1  0.64210000  0.21214000  0.48686000  1.0
  H  H9  1  0.35789000  0.78787000  0.51314000  1.0
  H  H10  1  0.95203000  0.63714000  0.18517000  1.0
  H  H11  1  0.04794000  0.36284000  0.81484000  1.0
  H  H12  1  0.26697000  0.31625000  0.22516000  1.0
  H  H13  1  0.73300000  0.68375000  0.77486000  1.0
  H  H14  1  0.20495000  0.03454000  0.32306000  1.0
  H  H15  1  0.79505000  0.96547000  0.67695000  1.0
  H  H16  1  0.82561000  0.09425000  0.38376000  1.0
  H  H17  1  0.17440000  0.90573000  0.61625000  1.0
  H  H18  1  0.38333000  0.73265000  0.26750000  1.0
  H  H19  1  0.61664000  0.26738000  0.73250000  1.0
  H  H20  1  0.51519000  0.42280000  0.05397000  1.0
  H  H21  1  0.48482000  0.57718000  0.94603000  1.0
  H  H22  1  0.78554000  0.29902000  0.15449000  1.0
  H  H23  1  0.21441000  0.70099000  0.84551000  1.0
  H  H24  1  0.79040000  0.97513000  0.24150000  1.0
  H  H25  1  0.20961000  0.02488000  0.75851000  1.0
  H  H26  1  0.30227000  0.67615000  0.14631000  1.0
  H  H27  1  0.69771000  0.32386000  0.85369000  1.0
  H  H28  1  0.26813000  0.80937000  0.05542000  1.0
  H  H29  1  0.73190000  0.19063000  0.94458000  1.0
  H  H30  1  0.07068000  0.91141000  0.12391000  1.0
  H  H31  1  0.92934000  0.08860000  0.87609000  1.0
  H  H32  1  0.22140000  0.39124000  0.99020000  1.0
  H  H33  1  0.77864000  0.60874000  0.00978000  1.0
  H  H34  1  0.04613000  0.24878000  0.03874000  1.0
  H  H35  1  0.95391000  0.75120000  0.96125000  1.0
  H  H36  1  0.26107000  0.12126000  0.97865000  1.0
  H  H37  1  0.73898000  0.87870000  0.02135000  1.0
  C  C38  1  0.67706000  0.40407000  0.32337000  1.0
  C  C39  1  0.32296000  0.59594000  0.67664000  1.0
  C  C40  1  0.70856000  0.55742000  0.26356000  1.0
  C  C41  1  0.29144000  0.44259000  0.73645000  1.0
  C  C42  1  0.92561000  0.52073000  0.22997000  1.0
  C  C43  1  0.07437000  0.47928000  0.77004000  1.0
  C  C44  1  0.10177000  0.33843000  0.25202000  1.0
  C  C45  1  0.89821000  0.66157000  0.74798000  1.0
  C  C46  1  0.06802000  0.18050000  0.30715000  1.0
  C  C47  1  0.93198000  0.81949000  0.69285000  1.0
  C  C48  1  0.85705000  0.21480000  0.34124000  1.0
  C  C49  1  0.14295000  0.78521000  0.65877000  1.0
  C  C50  1  0.46453000  0.43924000  0.36871000  1.0
  C  C51  1  0.53548000  0.56080000  0.63128000  1.0
  C  C52  1  0.53704000  0.90564000  0.18625000  1.0
  C  C53  1  0.46296000  0.09435000  0.81375000  1.0
  C  C54  1  0.39060000  0.96843000  0.12732000  1.0
  C  C55  1  0.60941000  0.03155000  0.87268000  1.0
  C  C56  1  0.38037000  0.15941000  0.08017000  1.0
  C  C57  1  0.61964000  0.84058000  0.91982000  1.0
  C  C58  1  0.52352000  0.27561000  0.09049000  1.0
  C  C59  1  0.47648000  0.72437000  0.90951000  1.0
  C  C60  1  0.67481000  0.20735000  0.14698000  1.0
  C  C61  1  0.32519000  0.79264000  0.85302000  1.0
  C  C62  1  0.67955000  0.02430000  0.19547000  1.0
  C  C63  1  0.32044000  0.97568000  0.80454000  1.0
  C  C64  1  0.25097000  0.83371000  0.11301000  1.0
  C  C65  1  0.74904000  0.16627000  0.88700000  1.0
  C  C66  1  0.21926000  0.23464000  0.01879000  1.0
  C  C67  1  0.78078000  0.76533000  0.98120000  1.0
  N  N68  1  0.53025000  0.72819000  0.23803000  1.0
  N  N69  1  0.46973000  0.27181000  0.76197000  1.0
  O  O70  1  0.91779000  0.61409000  0.41960000  1.0
  O  O71  1  0.08220000  0.38589000  0.58041000  1.0
  O  O72  1  0.76534000  0.15049000  0.52240000  1.0
  O  O73  1  0.23465000  0.84953000  0.47760000  1.0
  O  O74  1  0.44840000  0.29722000  0.42124000  1.0
  O  O75  1  0.55163000  0.70280000  0.57875000  1.0
  O  O76  1  0.30536000  0.61922000  0.35419000  1.0
  O  O77  1  0.69466000  0.38081000  0.64579000  1.0
