# generated using pymatgen
data_NaH7C4O7
_symmetry_space_group_name_H-M   'P 1'
_cell_length_a   7.18866000
_cell_length_b   8.62602000
_cell_length_c   10.66170000
_cell_angle_alpha   90.00020000
_cell_angle_beta   90.00000000
_cell_angle_gamma   89.99980000
_symmetry_Int_Tables_number   1
_chemical_formula_structural   NaH7C4O7
_chemical_formula_sum   'Na4 H28 C16 O28'
_cell_volume   661.12695197
_cell_formula_units_Z   4
loop_
 _symmetry_equiv_pos_site_id
 _symmetry_equiv_pos_as_xyz
  1  'x, y, z'
loop_
 _atom_site_type_symbol
 _atom_site_label
 _atom_site_symmetry_multiplicity
 _atom_site_fract_x
 _atom_site_fract_y
 _atom_site_fract_z
 _atom_site_occupancy
  Na  Na0  1  0.91213000  0.28987000  0.56549000  1.0
  Na  Na1  1  0.58787000  0.71013000  0.06548000  1.0
  Na  Na2  1  0.08787000  0.78986000  0.93451000  1.0
  Na  Na3  1  0.41213000  0.21014000  0.43452000  1.0
  H  H4  1  0.93860000  0.94179000  0.56597000  1.0
  H  H5  1  0.56140000  0.05821000  0.06597000  1.0
  H  H6  1  0.06140000  0.44179000  0.93403000  1.0
  H  H7  1  0.43860000  0.55821000  0.43403000  1.0
  H  H8  1  0.78570000  0.98719000  0.46228000  1.0
  H  H9  1  0.71430000  0.01281000  0.96228000  1.0
  H  H10  1  0.21430000  0.48719000  0.03772000  1.0
  H  H11  1  0.28570000  0.51281000  0.53772000  1.0
  H  H12  1  0.75933000  0.55926000  0.86110000  1.0
  H  H13  1  0.74067000  0.44074000  0.36110000  1.0
  H  H14  1  0.24068000  0.05926000  0.63890000  1.0
  H  H15  1  0.25933000  0.94075000  0.13890000  1.0
  H  H16  1  0.58843000  0.49904000  0.58564000  1.0
  H  H17  1  0.91157000  0.50096000  0.08564000  1.0
  H  H18  1  0.41157000  0.99904000  0.91436000  1.0
  H  H19  1  0.08843000  0.00096000  0.41436000  1.0
  H  H20  1  0.27033000  0.78808000  0.66078000  1.0
  H  H21  1  0.22967000  0.21192000  0.16079000  1.0
  H  H22  1  0.72966000  0.28808000  0.83921000  1.0
  H  H23  1  0.77033000  0.71192000  0.33921000  1.0
  H  H24  1  0.75099000  0.86020000  0.75453000  1.0
  H  H25  1  0.74901000  0.13981000  0.25453000  1.0
  H  H26  1  0.24900000  0.36020000  0.74547000  1.0
  H  H27  1  0.25100000  0.63980000  0.24547000  1.0
  H  H28  1  0.72779000  0.72579000  0.55481000  1.0
  H  H29  1  0.77221000  0.27421000  0.05481000  1.0
  H  H30  1  0.27221000  0.22578000  0.94519000  1.0
  H  H31  1  0.22779000  0.77421000  0.44519000  1.0
  C  C32  1  0.49297000  0.73614000  0.76039000  1.0
  C  C33  1  0.00703000  0.26386000  0.26040000  1.0
  C  C34  1  0.50703000  0.23614000  0.73961000  1.0
  C  C35  1  0.99297000  0.76386000  0.23960000  1.0
  C  C36  1  0.70564000  0.73839000  0.75507000  1.0
  C  C37  1  0.79436000  0.26161000  0.25507000  1.0
  C  C38  1  0.29436000  0.23839000  0.74493000  1.0
  C  C39  1  0.20564000  0.76161000  0.24493000  1.0
  C  C40  1  0.99050000  0.65949000  0.63163000  1.0
  C  C41  1  0.50950000  0.34050000  0.13163000  1.0
  C  C42  1  0.00949000  0.15949000  0.86837000  1.0
  C  C43  1  0.49051000  0.84051000  0.36837000  1.0
  C  C44  1  0.77693000  0.65750000  0.63565000  1.0
  C  C45  1  0.72307000  0.34249000  0.13565000  1.0
  C  C46  1  0.22307000  0.15750000  0.86435000  1.0
  C  C47  1  0.27693000  0.84250000  0.36435000  1.0
  O  O48  1  0.78358000  0.67075000  0.86538000  1.0
  O  O49  1  0.71642000  0.32925000  0.36539000  1.0
  O  O50  1  0.21642000  0.17075000  0.63461000  1.0
  O  O51  1  0.28358000  0.82925000  0.13462000  1.0
  O  O52  1  0.07737000  0.53593000  0.61115000  1.0
  O  O53  1  0.42263000  0.46407000  0.11115000  1.0
  O  O54  1  0.92263000  0.03593000  0.88885000  1.0
  O  O55  1  0.57737000  0.96407000  0.38885000  1.0
  O  O56  1  0.40700000  0.68683000  0.85224000  1.0
  O  O57  1  0.09300000  0.31317000  0.35225000  1.0
  O  O58  1  0.59299000  0.18684000  0.64775000  1.0
  O  O59  1  0.90700000  0.81316000  0.14776000  1.0
  O  O60  1  0.90528000  0.02017000  0.50184000  1.0
  O  O61  1  0.59472000  0.97983000  0.00184000  1.0
  O  O62  1  0.09472000  0.52017000  0.99816000  1.0
  O  O63  1  0.40528000  0.47983000  0.49816000  1.0
  O  O64  1  0.41673000  0.79283000  0.65752000  1.0
  O  O65  1  0.08327000  0.20717000  0.15753000  1.0
  O  O66  1  0.58326000  0.29284000  0.84248000  1.0
  O  O67  1  0.91673000  0.70717000  0.34248000  1.0
  O  O68  1  0.71356000  0.50284000  0.62864000  1.0
  O  O69  1  0.78644000  0.49715000  0.12864000  1.0
  O  O70  1  0.28644000  0.00284000  0.87136000  1.0
  O  O71  1  0.21356000  0.99715000  0.37136000  1.0
  O  O72  1  0.06519000  0.79371000  0.64932000  1.0
  O  O73  1  0.43481000  0.20629000  0.14932000  1.0
  O  O74  1  0.93480000  0.29371000  0.85068000  1.0
  O  O75  1  0.56520000  0.70629000  0.35068000  1.0
