# generated using pymatgen
data_Cd3H38(C27O11)2
_symmetry_space_group_name_H-M   'P 1'
_cell_length_a   8.22434000
_cell_length_b   8.28454000
_cell_length_c   18.69970000
_cell_angle_alpha   98.39160000
_cell_angle_beta   98.66220000
_cell_angle_gamma   106.01500000
_symmetry_Int_Tables_number   1
_chemical_formula_structural   Cd3H38(C27O11)2
_chemical_formula_sum   'Cd3 H38 C54 O22'
_cell_volume   1186.88340238
_cell_formula_units_Z   1
loop_
 _symmetry_equiv_pos_site_id
 _symmetry_equiv_pos_as_xyz
  1  'x, y, z'
loop_
 _atom_site_type_symbol
 _atom_site_label
 _atom_site_symmetry_multiplicity
 _atom_site_fract_x
 _atom_site_fract_y
 _atom_site_fract_z
 _atom_site_occupancy
  Cd  Cd0  1  0.50000000  0.49999000  0.50000000  1.0
  Cd  Cd1  1  0.05259000  0.22928000  0.49003000  1.0
  Cd  Cd2  1  0.94740000  0.77069000  0.50997000  1.0
  H  H3  1  0.65824000  0.83209000  0.44191000  1.0
  H  H4  1  0.34176000  0.16790000  0.55809000  1.0
  H  H5  1  0.65621000  0.88863000  0.52870000  1.0
  H  H6  1  0.34379000  0.11137000  0.47130000  1.0
  H  H7  1  0.70117000  0.22649000  0.45932000  1.0
  H  H8  1  0.29883000  0.77348000  0.54068000  1.0
  H  H9  1  0.77275000  0.30415000  0.54132000  1.0
  H  H10  1  0.22724000  0.69582000  0.45867000  1.0
  H  H11  1  0.44783000  0.59048000  0.97681000  1.0
  H  H12  1  0.55217000  0.40953000  0.02320000  1.0
  H  H13  1  0.07032000  0.57498000  0.11572000  1.0
  H  H14  1  0.92968000  0.42503000  0.88429000  1.0
  H  H15  1  0.17717000  0.96895000  0.98656000  1.0
  H  H16  1  0.82282000  0.03107000  0.01345000  1.0
  H  H17  1  0.15143000  0.57601000  0.85659000  1.0
  H  H18  1  0.84856000  0.42401000  0.14341000  1.0
  H  H19  1  0.10262000  0.45729000  0.72235000  1.0
  H  H20  1  0.89738000  0.54271000  0.27765000  1.0
  H  H21  1  0.55228000  0.84986000  0.70431000  1.0
  H  H22  1  0.44772000  0.15012000  0.29569000  1.0
  H  H23  1  0.59962000  0.97235000  0.83951000  1.0
  H  H24  1  0.40037000  0.02764000  0.16048000  1.0
  H  H25  1  0.06987000  0.18031000  0.11062000  1.0
  H  H26  1  0.93013000  0.81971000  0.88938000  1.0
  H  H27  1  0.01481000  0.17076000  0.23878000  1.0
  H  H28  1  0.98518000  0.82924000  0.76121000  1.0
  H  H29  1  0.42892000  0.64065000  0.32228000  1.0
  H  H30  1  0.57109000  0.35933000  0.67773000  1.0
  H  H31  1  0.48113000  0.64982000  0.19532000  1.0
  H  H32  1  0.51889000  0.35017000  0.80469000  1.0
  H  H33  1  0.20507000  0.83719000  0.20213000  1.0
  H  H34  1  0.79493000  0.16284000  0.79787000  1.0
  H  H35  1  0.13551000  0.87159000  0.32676000  1.0
  H  H36  1  0.86449000  0.12842000  0.67324000  1.0
  H  H37  1  0.63690000  0.90184000  0.23554000  1.0
  H  H38  1  0.36309000  0.09816000  0.76446000  1.0
  H  H39  1  0.70339000  0.86709000  0.10883000  1.0
  H  H40  1  0.29661000  0.13291000  0.89117000  1.0
  C  C41  1  0.31538000  0.78132000  0.97553000  1.0
  C  C42  1  0.68462000  0.21870000  0.02447000  1.0
  C  C43  1  0.35154000  0.63966000  0.99838000  1.0
  C  C44  1  0.64847000  0.36036000  0.00162000  1.0
  C  C45  1  0.26434000  0.56908000  0.05045000  1.0
  C  C46  1  0.73565000  0.43094000  0.94955000  1.0
  C  C47  1  0.14097000  0.63479000  0.07708000  1.0
  C  C48  1  0.85902000  0.36522000  0.92292000  1.0
  C  C49  1  0.11153000  0.77829000  0.05401000  1.0
  C  C50  1  0.88848000  0.22173000  0.94599000  1.0
  C  C51  1  0.19850000  0.85470000  0.00314000  1.0
  C  C52  1  0.80150000  0.14532000  0.99686000  1.0
  C  C53  1  0.37776000  0.78187000  0.85506000  1.0
  C  C54  1  0.62223000  0.21813000  0.14493000  1.0
  C  C55  1  0.23899000  0.63528000  0.82316000  1.0
  C  C56  1  0.76099000  0.36472000  0.17683000  1.0
  C  C57  1  0.21189000  0.56949000  0.74810000  1.0
  C  C58  1  0.78810000  0.43051000  0.25190000  1.0
  C  C59  1  0.32322000  0.64605000  0.70460000  1.0
  C  C60  1  0.67678000  0.35395000  0.29540000  1.0
  C  C61  1  0.46407000  0.79166000  0.73789000  1.0
  C  C62  1  0.53593000  0.20833000  0.26211000  1.0
  C  C63  1  0.49136000  0.85973000  0.81257000  1.0
  C  C64  1  0.50862000  0.14027000  0.18743000  1.0
  C  C65  1  0.29608000  0.56996000  0.62486000  1.0
  C  C66  1  0.70392000  0.43004000  0.37515000  1.0
  C  C67  1  0.27534000  0.41786000  0.14651000  1.0
  C  C68  1  0.72466000  0.58215000  0.85349000  1.0
  C  C69  1  0.14740000  0.27933000  0.15755000  1.0
  C  C70  1  0.85259000  0.72068000  0.84244000  1.0
  C  C71  1  0.11776000  0.27419000  0.22881000  1.0
  C  C72  1  0.88223000  0.72581000  0.77118000  1.0
  C  C73  1  0.21550000  0.40508000  0.28840000  1.0
  C  C74  1  0.78450000  0.59491000  0.71160000  1.0
  C  C75  1  0.34821000  0.54046000  0.27631000  1.0
  C  C76  1  0.65179000  0.45952000  0.72370000  1.0
  C  C77  1  0.37819000  0.54654000  0.20548000  1.0
  C  C78  1  0.62182000  0.45345000  0.79452000  1.0
  C  C79  1  0.18178000  0.40104000  0.36440000  1.0
  C  C80  1  0.81822000  0.59894000  0.63560000  1.0
  C  C81  1  0.95697000  0.84903000  0.14782000  1.0
  C  C82  1  0.04303000  0.15098000  0.85218000  1.0
  C  C83  1  0.07984000  0.85010000  0.20877000  1.0
  C  C84  1  0.92017000  0.14992000  0.79124000  1.0
  C  C85  1  0.04075000  0.86911000  0.27876000  1.0
  C  C86  1  0.95926000  0.13090000  0.72125000  1.0
  C  C87  1  0.88010000  0.88529000  0.28869000  1.0
  C  C88  1  0.11990000  0.11472000  0.71131000  1.0
  C  C89  1  0.75922000  0.88387000  0.22710000  1.0
  C  C90  1  0.24078000  0.11613000  0.77290000  1.0
  C  C91  1  0.79616000  0.86572000  0.15679000  1.0
  C  C92  1  0.20384000  0.13428000  0.84321000  1.0
  C  C93  1  0.83715000  0.90041000  0.36339000  1.0
  C  C94  1  0.16285000  0.09958000  0.63661000  1.0
  O  O95  1  0.40877000  0.86263000  0.92785000  1.0
  O  O96  1  0.59123000  0.13738000  0.07215000  1.0
  O  O97  1  0.30053000  0.43020000  0.07475000  1.0
  O  O98  1  0.69948000  0.56982000  0.92524000  1.0
  O  O99  1  0.98804000  0.84655000  0.07702000  1.0
  O  O100  1  0.01197000  0.15347000  0.92298000  1.0
  O  O101  1  0.41014000  0.64417000  0.58962000  1.0
  O  O102  1  0.58987000  0.35582000  0.41039000  1.0
  O  O103  1  0.16592000  0.44046000  0.59643000  1.0
  O  O104  1  0.83407000  0.55953000  0.40357000  1.0
  O  O105  1  0.27733000  0.52523000  0.41669000  1.0
  O  O106  1  0.72267000  0.47475000  0.58331000  1.0
  O  O107  1  0.06325000  0.27623000  0.37464000  1.0
  O  O108  1  0.93675000  0.72376000  0.62536000  1.0
  O  O109  1  0.96400000  0.94004000  0.41936000  1.0
  O  O110  1  0.03601000  0.05993000  0.58064000  1.0
  O  O111  1  0.68008000  0.87182000  0.36874000  1.0
  O  O112  1  0.31992000  0.12815000  0.63126000  1.0
  O  O113  1  0.65744000  0.79126000  0.49274000  1.0
  O  O114  1  0.34255000  0.20873000  0.50726000  1.0
  O  O115  1  0.77276000  0.20694000  0.50279000  1.0
  O  O116  1  0.22724000  0.79304000  0.49721000  1.0
