# generated using pymatgen
data_ZnH5C12(N2O)2
_symmetry_space_group_name_H-M   'P 1'
_cell_length_a   15.63810000
_cell_length_b   15.97060000
_cell_length_c   17.88718452
_cell_angle_alpha   105.01000246
_cell_angle_beta   104.01818224
_cell_angle_gamma   113.20100000
_symmetry_Int_Tables_number   1
_chemical_formula_structural   ZnH5C12(N2O)2
_chemical_formula_sum   'Zn4 H20 C48 N16 O8'
_cell_volume   3655.61686049
_cell_formula_units_Z   4
loop_
 _symmetry_equiv_pos_site_id
 _symmetry_equiv_pos_as_xyz
  1  'x, y, z'
loop_
 _atom_site_type_symbol
 _atom_site_label
 _atom_site_symmetry_multiplicity
 _atom_site_fract_x
 _atom_site_fract_y
 _atom_site_fract_z
 _atom_site_occupancy
  Zn  Zn0  1  0.62848000  0.63201000  0.48513000  1.0
  Zn  Zn1  1  0.36590000  0.36623000  0.50633000  1.0
  Zn  Zn2  1  0.50706000  0.61983000  0.61875000  1.0
  Zn  Zn3  1  0.48994000  0.37968000  0.37773000  1.0
  H  H4  1  0.86076000  0.81337000  0.63083000  1.0
  H  H5  1  0.67189000  0.62232000  0.76818000  1.0
  H  H6  1  0.64217000  0.32072000  0.47263000  1.0
  H  H7  1  0.48068000  0.30384000  0.63725000  1.0
  H  H8  1  0.82165000  0.63977000  0.61076000  1.0
  H  H9  1  0.44262000  0.14294000  0.29643000  1.0
  H  H10  1  0.13228000  0.17270000  0.44707000  1.0
  H  H11  1  0.71923000  0.61086000  0.02715000  1.0
  H  H12  1  0.24324000  0.99426000  0.08482000  1.0
  H  H13  1  0.33379000  0.13792000  0.49689000  1.0
  H  H14  1  0.56044000  0.74738000  0.82751000  1.0
  H  H15  1  0.15440000  0.34849000  0.51895000  1.0
  H  H16  1  0.75801000  0.82078000  0.45279000  1.0
  H  H17  1  0.34894000  0.68459000  0.53378000  1.0
  H  H18  1  0.33586000  0.36320000  0.21817000  1.0
  H  H19  1  0.50724000  0.69930000  0.36512000  1.0
  H  H20  1  0.52856000  0.36304000  0.19428000  1.0
  H  H21  1  0.34193000  0.65492000  0.69544000  1.0
  H  H22  1  0.61415000  0.38243000  0.96813000  1.0
  H  H23  1  0.95608000  0.04882000  0.99074000  1.0
  C  C24  1  0.80370000  0.79908000  0.65755000  1.0
  C  C25  1  0.47649000  0.68689000  0.41193000  1.0
  C  C26  1  0.56534000  0.43828000  0.24118000  1.0
  C  C27  1  0.36308000  0.15638000  0.45080000  1.0
  C  C28  1  0.31083000  0.57915000  0.65128000  1.0
  C  C29  1  0.62598000  0.52783000  0.23629000  1.0
  C  C30  1  0.20970000  0.50188000  0.61226000  1.0
  C  C31  1  0.40891000  0.71540000  0.43524000  1.0
  C  C32  1  0.21180000  0.26501000  0.24825000  1.0
  C  C33  1  0.86036000  0.47244000  0.58287000  1.0
  C  C34  1  0.94489000  0.48039000  0.60001000  1.0
  C  C35  1  0.38230000  0.09738000  0.39033000  1.0
  C  C36  1  0.03723000  0.48967000  0.61187000  1.0
  C  C37  1  0.12079000  0.49984000  0.61700000  1.0
  C  C38  1  0.37144000  0.00345000  0.38130000  1.0
  C  C39  1  0.61639000  0.54722000  0.72377000  1.0
  C  C40  1  0.36535000  0.92533000  0.38416000  1.0
  C  C41  1  0.36774000  0.84518000  0.39392000  1.0
  C  C42  1  0.37832000  0.77871000  0.40996000  1.0
  C  C43  1  0.62729000  0.45029000  0.81214000  1.0
  C  C44  1  0.64804000  0.45373000  0.96252000  1.0
  C  C45  1  0.68353000  0.53891000  0.03129000  1.0
  C  C46  1  0.59485000  0.45799000  0.73516000  1.0
  C  C47  1  0.67012000  0.53807000  0.10560000  1.0
  C  C48  1  0.64437000  0.45187000  0.88322000  1.0
  C  C49  1  0.65245000  0.53746000  0.16856000  1.0
  C  C50  1  0.14035000  0.18928000  0.17025000  1.0
  C  C51  1  0.67200000  0.40049000  0.50031000  1.0
  C  C52  1  0.02756000  0.05068000  0.01912000  1.0
  C  C53  1  0.04620000  0.98511000  0.96775000  1.0
  C  C54  1  0.97473000  0.92767000  0.88429000  1.0
  C  C55  1  0.08918000  0.12152000  0.10069000  1.0
  C  C56  1  0.90504000  0.88475000  0.81576000  1.0
  C  C57  1  0.77038000  0.47623000  0.55617000  1.0
  C  C58  1  0.51890000  0.38389000  0.65710000  1.0
  C  C59  1  0.76334000  0.56402000  0.57052000  1.0
  C  C60  1  0.41842000  0.15811000  0.34803000  1.0
  C  C61  1  0.71631000  0.79061000  0.73863000  1.0
  C  C62  1  0.81684000  0.83078000  0.74256000  1.0
  C  C63  1  0.14365000  0.20426000  0.35274000  1.0
  C  C64  1  0.13379000  0.96767000  0.99260000  1.0
  C  C65  1  0.68153000  0.79736000  0.80756000  1.0
  C  C66  1  0.71214000  0.70867000  0.35022000  1.0
  C  C67  1  0.65198000  0.60096000  0.31541000  1.0
  C  C68  1  0.21537000  0.42228000  0.56102000  1.0
  C  C69  1  0.39514000  0.67939000  0.49812000  1.0
  C  C70  1  0.30557000  0.34309000  0.26330000  1.0
  C  C71  1  0.21454000  0.27474000  0.33008000  1.0
  N  N72  1  0.70426000  0.74358000  0.60797000  1.0
  N  N73  1  0.55566000  0.52746000  0.64679000  1.0
  N  N74  1  0.61340000  0.44163000  0.48204000  1.0
  N  N75  1  0.49579000  0.42696000  0.60578000  1.0
  N  N76  1  0.66960000  0.54187000  0.52505000  1.0
  N  N77  1  0.42026000  0.24513000  0.38132000  1.0
  N  N78  1  0.65073000  0.73789000  0.65746000  1.0
  N  N79  1  0.60991000  0.55638000  0.36187000  1.0
  N  N80  1  0.31110000  0.44960000  0.56927000  1.0
  N  N81  1  0.45211000  0.63566000  0.51170000  1.0
  N  N82  1  0.36073000  0.39385000  0.34735000  1.0
  N  N83  1  0.30403000  0.35276000  0.38755000  1.0
  N  N84  1  0.50219000  0.64067000  0.45887000  1.0
  N  N85  1  0.55727000  0.45744000  0.31645000  1.0
  N  N86  1  0.37045000  0.54707000  0.62528000  1.0
  N  N87  1  0.38606000  0.24386000  0.44511000  1.0
  O  O88  1  0.06266000  0.13200000  0.30509000  1.0
  O  O89  1  0.18164000  0.22623000  0.43831000  1.0
  O  O90  1  0.15099000  0.91355000  0.94354000  1.0
  O  O91  1  0.19233000  0.01586000  0.07648000  1.0
  O  O92  1  0.73423000  0.84111000  0.88238000  1.0
  O  O93  1  0.57717000  0.74426000  0.77785000  1.0
  O  O94  1  0.74951000  0.76148000  0.31612000  1.0
  O  O95  1  0.72245000  0.74847000  0.43367000  1.0
