# generated using pymatgen
data_ZnH28C28(N2O3)2
_symmetry_space_group_name_H-M   'P 1'
_cell_length_a   9.33264000
_cell_length_b   11.47630000
_cell_length_c   13.09000000
_cell_angle_alpha   89.99930000
_cell_angle_beta   89.99880000
_cell_angle_gamma   82.04020000
_symmetry_Int_Tables_number   1
_chemical_formula_structural   ZnH28C28(N2O3)2
_chemical_formula_sum   'Zn2 H56 C56 N8 O12'
_cell_volume   1388.48612180
_cell_formula_units_Z   2
loop_
 _symmetry_equiv_pos_site_id
 _symmetry_equiv_pos_as_xyz
  1  'x, y, z'
loop_
 _atom_site_type_symbol
 _atom_site_label
 _atom_site_symmetry_multiplicity
 _atom_site_fract_x
 _atom_site_fract_y
 _atom_site_fract_z
 _atom_site_occupancy
  Zn  Zn0  1  0.23092000  0.85130000  0.00720000  1.0
  Zn  Zn1  1  0.76908000  0.14870000  0.50720000  1.0
  H  H2  1  0.01620000  0.07668000  0.02438000  1.0
  H  H3  1  0.98380000  0.92332000  0.52438000  1.0
  H  H4  1  0.00699000  0.29375000  0.01043000  1.0
  H  H5  1  0.99300000  0.70625000  0.51043000  1.0
  H  H6  1  0.47147000  0.23666000  0.97007000  1.0
  H  H7  1  0.52853000  0.76334000  0.47007000  1.0
  H  H8  1  0.46175000  0.02300000  0.99431000  1.0
  H  H9  1  0.53826000  0.97700000  0.49431000  1.0
  H  H10  1  0.01866000  0.45513000  0.92800000  1.0
  H  H11  1  0.98133000  0.54487000  0.42799000  1.0
  H  H12  1  0.02228000  0.67191000  0.93777000  1.0
  H  H13  1  0.97772000  0.32809000  0.43776000  1.0
  H  H14  1  0.44002000  0.62783000  0.04939000  1.0
  H  H15  1  0.55998000  0.37216000  0.54940000  1.0
  H  H16  1  0.45729000  0.40972000  0.04329000  1.0
  H  H17  1  0.54270000  0.59028000  0.54329000  1.0
  H  H18  1  0.29358000  0.97875000  0.77301000  1.0
  H  H19  1  0.70642000  0.02124000  0.27301000  1.0
  H  H20  1  0.45861000  0.87116000  0.87435000  1.0
  H  H21  1  0.54138000  0.12884000  0.37435000  1.0
  H  H22  1  0.38976000  0.74892000  0.86054000  1.0
  H  H23  1  0.61025000  0.25108000  0.36053000  1.0
  H  H24  1  0.24844000  0.85595000  0.62223000  1.0
  H  H25  1  0.75157000  0.14404000  0.12222000  1.0
  H  H26  1  0.43127000  0.83312000  0.66407000  1.0
  H  H27  1  0.56873000  0.16687000  0.16406000  1.0
  H  H28  1  0.08782000  0.69872000  0.66132000  1.0
  H  H29  1  0.91219000  0.30127000  0.16132000  1.0
  H  H30  1  0.08170000  0.48348000  0.68064000  1.0
  H  H31  1  0.91830000  0.51651000  0.18065000  1.0
  H  H32  1  0.53094000  0.43364000  0.76479000  1.0
  H  H33  1  0.46905000  0.56635000  0.26478000  1.0
  H  H34  1  0.54023000  0.64478000  0.73531000  1.0
  H  H35  1  0.45977000  0.35520000  0.23529000  1.0
  H  H36  1  0.38982000  0.27895000  0.74982000  1.0
  H  H37  1  0.61017000  0.72104000  0.24982000  1.0
  H  H38  1  0.20780000  0.95381000  0.25646000  1.0
  H  H39  1  0.79220000  0.04620000  0.75648000  1.0
  H  H40  1  0.03576000  0.93645000  0.15627000  1.0
  H  H41  1  0.96423000  0.06354000  0.65627000  1.0
  H  H42  1  0.05400000  0.79218000  0.15059000  1.0
  H  H43  1  0.94600000  0.20782000  0.65059000  1.0
  H  H44  1  0.21595000  0.83227000  0.39686000  1.0
  H  H45  1  0.78405000  0.16776000  0.89686000  1.0
  H  H46  1  0.04711000  0.82650000  0.33926000  1.0
  H  H47  1  0.95288000  0.17352000  0.83926000  1.0
  H  H48  1  0.29106000  0.66494000  0.48418000  1.0
  H  H49  1  0.70895000  0.33508000  0.98417000  1.0
  H  H50  1  0.32568000  0.44887000  0.50574000  1.0
  H  H51  1  0.67434000  0.55116000  0.00571000  1.0
  H  H52  1  0.14374000  0.41221000  0.20767000  1.0
  H  H53  1  0.85628000  0.58779000  0.70763000  1.0
  H  H54  1  0.10179000  0.62613000  0.18818000  1.0
  H  H55  1  0.89821000  0.37387000  0.68815000  1.0
  H  H56  1  0.20265000  0.25798000  0.32421000  1.0
  H  H57  1  0.79739000  0.74203000  0.82417000  1.0
  C  C58  1  0.11483000  0.11606000  0.01378000  1.0
  C  C59  1  0.88516000  0.88394000  0.51377000  1.0
  C  C60  1  0.11040000  0.23705000  0.00550000  1.0
  C  C61  1  0.88959000  0.76295000  0.50550000  1.0
  C  C62  1  0.23930000  0.28468000  0.99131000  1.0
  C  C63  1  0.76070000  0.71532000  0.49130000  1.0
  C  C64  1  0.36850000  0.20612000  0.98612000  1.0
  C  C65  1  0.63150000  0.79388000  0.48612000  1.0
  C  C66  1  0.36321000  0.08649000  0.99653000  1.0
  C  C67  1  0.63679000  0.91351000  0.49653000  1.0
  C  C68  1  0.23797000  0.41293000  0.98668000  1.0
  C  C69  1  0.76203000  0.58707000  0.48667000  1.0
  C  C70  1  0.11446000  0.48894000  0.95637000  1.0
  C  C71  1  0.88554000  0.51106000  0.45636000  1.0
  C  C72  1  0.11559000  0.60970000  0.96109000  1.0
  C  C73  1  0.88440000  0.39029000  0.46108000  1.0
  C  C74  1  0.35035000  0.58512000  0.02148000  1.0
  C  C75  1  0.64965000  0.41487000  0.52148000  1.0
  C  C76  1  0.35887000  0.46363000  0.01762000  1.0
  C  C77  1  0.64113000  0.53637000  0.51762000  1.0
  C  C78  1  0.10984000  0.89246000  0.80336000  1.0
  C  C79  1  0.89016000  0.10752000  0.30335000  1.0
  C  C80  1  0.27525000  0.88659000  0.78289000  1.0
  C  C81  1  0.72475000  0.11340000  0.28288000  1.0
  C  C82  1  0.32055000  0.81816000  0.68367000  1.0
  C  C83  1  0.67945000  0.18183000  0.18367000  1.0
  C  C84  1  0.31505000  0.68812000  0.69515000  1.0
  C  C85  1  0.68495000  0.31188000  0.19515000  1.0
  C  C86  1  0.18578000  0.64011000  0.68178000  1.0
  C  C87  1  0.81422000  0.35988000  0.18178000  1.0
  C  C88  1  0.18110000  0.52051000  0.69411000  1.0
  C  C89  1  0.81890000  0.47949000  0.19411000  1.0
  C  C90  1  0.30463000  0.44357000  0.72426000  1.0
  C  C91  1  0.69537000  0.55641000  0.22425000  1.0
  C  C92  1  0.43398000  0.49080000  0.74044000  1.0
  C  C93  1  0.56602000  0.50919000  0.24043000  1.0
  C  C94  1  0.43770000  0.61072000  0.72473000  1.0
  C  C95  1  0.56229000  0.38927000  0.22472000  1.0
  C  C96  1  0.37100000  0.82012000  0.20495000  1.0
  C  C97  1  0.62899000  0.17988000  0.70495000  1.0
  C  C98  1  0.21191000  0.86052000  0.23491000  1.0
  C  C99  1  0.78808000  0.13949000  0.73491000  1.0
  C  C100  1  0.16403000  0.79759000  0.33031000  1.0
  C  C101  1  0.83597000  0.20243000  0.83031000  1.0
  C  C102  1  0.19398000  0.66462000  0.33480000  1.0
  C  C103  1  0.80603000  0.33539000  0.83478000  1.0
  C  C104  1  0.25894000  0.61014000  0.42249000  1.0
  C  C105  1  0.74108000  0.38988000  0.92248000  1.0
  C  C106  1  0.28017000  0.48837000  0.43520000  1.0
  C  C107  1  0.71985000  0.51165000  0.93518000  1.0
  C  C108  1  0.23772000  0.41638000  0.35792000  1.0
  C  C109  1  0.76231000  0.58364000  0.85789000  1.0
  C  C110  1  0.17615000  0.46795000  0.26859000  1.0
  C  C111  1  0.82386000  0.53207000  0.76856000  1.0
  C  C112  1  0.15355000  0.59020000  0.25812000  1.0
  C  C113  1  0.84645000  0.40981000  0.75810000  1.0
  N  N114  1  0.23888000  0.04153000  0.00981000  1.0
  N  N115  1  0.76112000  0.95846000  0.50981000  1.0
  N  N116  1  0.23056000  0.65758000  0.99475000  1.0
  N  N117  1  0.76944000  0.34242000  0.49475000  1.0
  N  N118  1  0.36285000  0.83783000  0.87092000  1.0
  N  N119  1  0.63715000  0.16217000  0.37092000  1.0
  N  N120  1  0.11044000  0.86210000  0.14723000  1.0
  N  N121  1  0.88956000  0.13789000  0.64723000  1.0
  O  O122  1  0.06757000  0.87526000  0.89452000  1.0
  O  O123  1  0.93242000  0.12474000  0.39452000  1.0
  O  O124  1  0.02725000  0.91631000  0.72799000  1.0
  O  O125  1  0.97275000  0.08368000  0.22799000  1.0
  O  O126  1  0.29183000  0.32869000  0.73624000  1.0
  O  O127  1  0.70816000  0.67130000  0.23623000  1.0
  O  O128  1  0.40554000  0.81708000  0.11068000  1.0
  O  O129  1  0.59446000  0.18291000  0.61068000  1.0
  O  O130  1  0.45909000  0.79628000  0.27804000  1.0
  O  O131  1  0.54091000  0.20371000  0.77805000  1.0
  O  O132  1  0.25939000  0.29643000  0.37335000  1.0
  O  O133  1  0.74065000  0.70358000  0.87331000  1.0
