# generated using pymatgen
data_AlH7C17IO9
_symmetry_space_group_name_H-M   'P 1'
_cell_length_a   6.71805000
_cell_length_b   21.38250000
_cell_length_c   25.39420000
_cell_angle_alpha   96.33580000
_cell_angle_beta   89.90280000
_cell_angle_gamma   89.78740000
_symmetry_Int_Tables_number   1
_chemical_formula_structural   AlH7C17IO9
_chemical_formula_sum   'Al4 H28 C68 I4 O36'
_cell_volume   3625.53051018
_cell_formula_units_Z   4
loop_
 _symmetry_equiv_pos_site_id
 _symmetry_equiv_pos_as_xyz
  1  'x, y, z'
loop_
 _atom_site_type_symbol
 _atom_site_label
 _atom_site_symmetry_multiplicity
 _atom_site_fract_x
 _atom_site_fract_y
 _atom_site_fract_z
 _atom_site_occupancy
  Al  Al0  1  0.26050000  0.24756000  0.24907000  1.0
  Al  Al1  1  0.73105000  0.74726000  0.74543000  1.0
  Al  Al2  1  0.75973000  0.24542000  0.24765000  1.0
  Al  Al3  1  0.23133000  0.74740000  0.74896000  1.0
  H  H4  1  0.27604000  0.89617000  0.66112000  1.0
  H  H5  1  0.73600000  0.09478000  0.33258000  1.0
  H  H6  1  0.77817000  0.59908000  0.83636000  1.0
  H  H7  1  0.24378000  0.41022000  0.16729000  1.0
  H  H8  1  0.73950000  0.89821000  0.52766000  1.0
  H  H9  1  0.23205000  0.11122000  0.47748000  1.0
  H  H10  1  0.23787000  0.60394000  0.97003000  1.0
  H  H11  1  0.78531000  0.40152000  0.03367000  1.0
  H  H12  1  0.07569000  0.88954000  0.02930000  1.0
  H  H13  1  0.91691000  0.09607000  0.97275000  1.0
  H  H14  1  0.58036000  0.60428000  0.46510000  1.0
  H  H15  1  0.41063000  0.39953000  0.52287000  1.0
  H  H16  1  0.33924000  0.99254000  0.03452000  1.0
  H  H17  1  0.65375000  0.99296000  0.96715000  1.0
  H  H18  1  0.83857000  0.49936000  0.46015000  1.0
  H  H19  1  0.15285000  0.50452000  0.52832000  1.0
  H  H20  1  0.53573000  0.01579000  0.55096000  1.0
  H  H21  1  0.38639000  0.00728000  0.38267000  1.0
  H  H22  1  0.04164000  0.50070000  0.96407000  1.0
  H  H23  1  0.95868000  0.52478000  0.13316000  1.0
  H  H24  1  0.65871000  0.71642000  0.58208000  1.0
  H  H25  1  0.48236000  0.13083000  0.39179000  1.0
  H  H26  1  0.15620000  0.78180000  0.91205000  1.0
  H  H27  1  0.09439000  0.31156000  0.13954000  1.0
  H  H28  1  0.50483000  0.17017000  0.21873000  1.0
  H  H29  1  0.48071000  0.83061000  0.75237000  1.0
  H  H30  1  0.00581000  0.32505000  0.27336000  1.0
  H  H31  1  0.97932000  0.66863000  0.75927000  1.0
  C  C32  1  0.51648000  0.32382000  0.32424000  1.0
  C  C33  1  0.47766000  0.67131000  0.67029000  1.0
  C  C34  1  0.00993000  0.16917000  0.17187000  1.0
  C  C35  1  0.97417000  0.82479000  0.82396000  1.0
  C  C36  1  0.50723000  0.31974000  0.18114000  1.0
  C  C37  1  0.48612000  0.67872000  0.81653000  1.0
  C  C38  1  0.01221000  0.17793000  0.31718000  1.0
  C  C39  1  0.98647000  0.81579000  0.67820000  1.0
  C  C40  1  0.17191000  0.93861000  0.59378000  1.0
  C  C41  1  0.82811000  0.05805000  0.40471000  1.0
  C  C42  1  0.67558000  0.56202000  0.90633000  1.0
  C  C43  1  0.35152000  0.44704000  0.09749000  1.0
  C  C44  1  0.15698000  0.89708000  0.63224000  1.0
  C  C45  1  0.84441000  0.09741000  0.36455000  1.0
  C  C46  1  0.65868000  0.59991000  0.86538000  1.0
  C  C47  1  0.36126000  0.40777000  0.13770000  1.0
  C  C48  1  0.99721000  0.85581000  0.63368000  1.0
  C  C49  1  0.99939000  0.14042000  0.36332000  1.0
  C  C50  1  0.49705000  0.64051000  0.86212000  1.0
  C  C51  1  0.51453000  0.36399000  0.13969000  1.0
  C  C52  1  0.84937000  0.85448000  0.59430000  1.0
  C  C53  1  0.13780000  0.14652000  0.40506000  1.0
  C  C54  1  0.34830000  0.64361000  0.90153000  1.0
  C  C55  1  0.67056000  0.36233000  0.10237000  1.0
  C  C56  1  0.85631000  0.89787000  0.55738000  1.0
  C  C57  1  0.12485000  0.10706000  0.44511000  1.0
  C  C58  1  0.35625000  0.60280000  0.94054000  1.0
  C  C59  1  0.66530000  0.40237000  0.06266000  1.0
  C  C60  1  0.01485000  0.94100000  0.55667000  1.0
  C  C61  1  0.97480000  0.06102000  0.44526000  1.0
  C  C62  1  0.51835000  0.56117000  0.94368000  1.0
  C  C63  1  0.50477000  0.44459000  0.05863000  1.0
  C  C64  1  0.00457000  0.98485000  0.51912000  1.0
  C  C65  1  0.97822000  0.02023000  0.48518000  1.0
  C  C66  1  0.51611000  0.51986000  0.98346000  1.0
  C  C67  1  0.50469000  0.48445000  0.01787000  1.0
  C  C68  1  0.87062000  0.98036000  0.03938000  1.0
  C  C69  1  0.12244000  0.00520000  0.96236000  1.0
  C  C70  1  0.37067000  0.51499000  0.45571000  1.0
  C  C71  1  0.62080000  0.48889000  0.53266000  1.0
  C  C72  1  0.04156000  0.93563000  0.01678000  1.0
  C  C73  1  0.95127000  0.04986000  0.98498000  1.0
  C  C74  1  0.54373000  0.55858000  0.47792000  1.0
  C  C75  1  0.44753000  0.44538000  0.51045000  1.0
  C  C76  1  0.96800000  0.86480000  0.87369000  1.0
  C  C77  1  0.01866000  0.12395000  0.12579000  1.0
  C  C78  1  0.47174000  0.63119000  0.62068000  1.0
  C  C79  1  0.51839000  0.36927000  0.37015000  1.0
  C  C80  1  0.80551000  0.99288000  0.98251000  1.0
  C  C81  1  0.18734000  0.99264000  0.01927000  1.0
  C  C82  1  0.30469000  0.50341000  0.51278000  1.0
  C  C83  1  0.68659000  0.50054000  0.47558000  1.0
  C  C84  1  0.97518000  0.94663000  0.95873000  1.0
  C  C85  1  0.01772000  0.03883000  0.04308000  1.0
  C  C86  1  0.47644000  0.54855000  0.53614000  1.0
  C  C87  1  0.51473000  0.45548000  0.45214000  1.0
  C  C88  1  0.96394000  0.90086000  0.91435000  1.0
  C  C89  1  0.02711000  0.08532000  0.08688000  1.0
  C  C90  1  0.46707000  0.59474000  0.58027000  1.0
  C  C91  1  0.52412000  0.40843000  0.40871000  1.0
  C  C92  1  0.35986000  0.97563000  0.59429000  1.0
  C  C93  1  0.65629000  0.01502000  0.40579000  1.0
  C  C94  1  0.86729000  0.52707000  0.91002000  1.0
  C  C95  1  0.17145000  0.48641000  0.09335000  1.0
  C  C96  1  0.68857000  0.80572000  0.58832000  1.0
  C  C97  1  0.29406000  0.19724000  0.41014000  1.0
  C  C98  1  0.18681000  0.69250000  0.90568000  1.0
  C  C99  1  0.83825000  0.31564000  0.10463000  1.0
  I  I100  1  0.67874000  0.96212000  0.10210000  1.0
  I  I101  1  0.31399000  0.02315000  0.89971000  1.0
  I  I102  1  0.17962000  0.53427000  0.39323000  1.0
  I  I103  1  0.81146000  0.47012000  0.59517000  1.0
  O  O104  1  0.67216000  0.30480000  0.20065000  1.0
  O  O105  1  0.31356000  0.69441000  0.80155000  1.0
  O  O106  1  0.18366000  0.19669000  0.30467000  1.0
  O  O107  1  0.81429000  0.80074000  0.69352000  1.0
  O  O108  1  0.34828000  0.31064000  0.30256000  1.0
  O  O109  1  0.64999000  0.68790000  0.68710000  1.0
  O  O110  1  0.83848000  0.18908000  0.18734000  1.0
  O  O111  1  0.14714000  0.80894000  0.80660000  1.0
  O  O112  1  0.33455000  0.30106000  0.19382000  1.0
  O  O113  1  0.65057000  0.69107000  0.79510000  1.0
  O  O114  1  0.84900000  0.18584000  0.29346000  1.0
  O  O115  1  0.15127000  0.80205000  0.69852000  1.0
  O  O116  1  0.17584000  0.18507000  0.19384000  1.0
  O  O117  1  0.80735000  0.81004000  0.80275000  1.0
  O  O118  1  0.68451000  0.30121000  0.30818000  1.0
  O  O119  1  0.31116000  0.68554000  0.69218000  1.0
  O  O120  1  0.50851000  0.20757000  0.24417000  1.0
  O  O121  1  0.48087000  0.78506000  0.74906000  1.0
  O  O122  1  0.00926000  0.28517000  0.25099000  1.0
  O  O123  1  0.98151000  0.70978000  0.74663000  1.0
  O  O124  1  0.46904000  0.98520000  0.63275000  1.0
  O  O125  1  0.40475000  0.99576000  0.54658000  1.0
  O  O126  1  0.64597000  0.96743000  0.42787000  1.0
  O  O127  1  0.49556000  0.03674000  0.37885000  1.0
  O  O128  1  0.97136000  0.50756000  0.87220000  1.0
  O  O129  1  0.91449000  0.52275000  0.96121000  1.0
  O  O130  1  0.10279000  0.50171000  0.05204000  1.0
  O  O131  1  0.08156000  0.50281000  0.14105000  1.0
  O  O132  1  0.51120000  0.81727000  0.58547000  1.0
  O  O133  1  0.76794000  0.74703000  0.58292000  1.0
  O  O134  1  0.25484000  0.25237000  0.42260000  1.0
  O  O135  1  0.48372000  0.17629000  0.40364000  1.0
  O  O136  1  0.00879000  0.68159000  0.90651000  1.0
  O  O137  1  0.26579000  0.75115000  0.91215000  1.0
  O  O138  1  0.83221000  0.26132000  0.08431000  1.0
  O  O139  1  0.99320000  0.34279000  0.13157000  1.0
