# generated using pymatgen
data_KVH12C7N2O9
_symmetry_space_group_name_H-M   'P 1'
_cell_length_a   6.85173000
_cell_length_b   8.26147000
_cell_length_c   23.10480000
_cell_angle_alpha   89.99980000
_cell_angle_beta   81.86620000
_cell_angle_gamma   89.99970000
_symmetry_Int_Tables_number   1
_chemical_formula_structural   KVH12C7N2O9
_chemical_formula_sum   'K4 V4 H48 C28 N8 O36'
_cell_volume   1294.69901444
_cell_formula_units_Z   4
loop_
 _symmetry_equiv_pos_site_id
 _symmetry_equiv_pos_as_xyz
  1  'x, y, z'
loop_
 _atom_site_type_symbol
 _atom_site_label
 _atom_site_symmetry_multiplicity
 _atom_site_fract_x
 _atom_site_fract_y
 _atom_site_fract_z
 _atom_site_occupancy
  K  K0  1  0.62292000  0.82890000  0.81522000  1.0
  K  K1  1  0.87708000  0.32890000  0.68478000  1.0
  K  K2  1  0.37707000  0.17110000  0.18478000  1.0
  K  K3  1  0.12293000  0.67110000  0.31522000  1.0
  V  V4  1  0.07779000  0.16149000  0.84214000  1.0
  V  V5  1  0.42221000  0.66148000  0.65787000  1.0
  V  V6  1  0.92221000  0.83851000  0.15787000  1.0
  V  V7  1  0.57779000  0.33851000  0.34213000  1.0
  H  H8  1  0.35695000  0.40335000  0.75786000  1.0
  H  H9  1  0.14305000  0.90334000  0.74214000  1.0
  H  H10  1  0.64304000  0.59665000  0.24214000  1.0
  H  H11  1  0.85694000  0.09665000  0.25786000  1.0
  H  H12  1  0.54190000  0.44714000  0.80209000  1.0
  H  H13  1  0.95810000  0.94714000  0.69791000  1.0
  H  H14  1  0.45810000  0.55286000  0.19791000  1.0
  H  H15  1  0.04190000  0.05285000  0.30209000  1.0
  H  H16  1  0.09445000  0.06077000  0.04490000  1.0
  H  H17  1  0.40555000  0.56078000  0.45510000  1.0
  H  H18  1  0.90555000  0.93923000  0.95510000  1.0
  H  H19  1  0.59445000  0.43922000  0.54490000  1.0
  H  H20  1  0.16473000  0.25602000  0.06365000  1.0
  H  H21  1  0.33527000  0.75603000  0.43635000  1.0
  H  H22  1  0.83527000  0.74398000  0.93635000  1.0
  H  H23  1  0.66473000  0.24397000  0.56365000  1.0
  H  H24  1  0.11044000  0.54060000  0.79833000  1.0
  H  H25  1  0.38956000  0.04059000  0.70167000  1.0
  H  H26  1  0.88955000  0.45940000  0.20167000  1.0
  H  H27  1  0.61044000  0.95941000  0.29833000  1.0
  H  H28  1  0.17471000  0.63301000  0.86254000  1.0
  H  H29  1  0.32529000  0.13301000  0.63746000  1.0
  H  H30  1  0.82528000  0.36699000  0.13746000  1.0
  H  H31  1  0.67471000  0.86699000  0.36254000  1.0
  H  H32  1  0.47399000  0.30411000  0.89918000  1.0
  H  H33  1  0.02602000  0.80411000  0.60082000  1.0
  H  H34  1  0.52602000  0.69590000  0.10082000  1.0
  H  H35  1  0.97398000  0.19590000  0.39918000  1.0
  H  H36  1  0.43760000  0.51550000  0.89933000  1.0
  H  H37  1  0.06240000  0.01550000  0.60067000  1.0
  H  H38  1  0.56240000  0.48450000  0.10067000  1.0
  H  H39  1  0.93760000  0.98450000  0.39933000  1.0
  H  H40  1  0.09442000  0.46215000  0.96044000  1.0
  H  H41  1  0.40559000  0.96216000  0.53957000  1.0
  H  H42  1  0.90559000  0.53785000  0.03957000  1.0
  H  H43  1  0.59442000  0.03784000  0.46043000  1.0
  H  H44  1  0.30448000  0.43874000  0.99480000  1.0
  H  H45  1  0.19553000  0.93876000  0.50520000  1.0
  H  H46  1  0.69553000  0.56125000  0.00520000  1.0
  H  H47  1  0.80448000  0.06125000  0.49480000  1.0
  H  H48  1  0.43913000  0.83547000  0.95475000  1.0
  H  H49  1  0.06088000  0.33547000  0.54526000  1.0
  H  H50  1  0.56088000  0.16453000  0.04526000  1.0
  H  H51  1  0.93911000  0.66454000  0.45475000  1.0
  H  H52  1  0.27690000  0.90758000  0.92183000  1.0
  H  H53  1  0.22311000  0.40760000  0.57817000  1.0
  H  H54  1  0.72311000  0.09241000  0.07817000  1.0
  H  H55  1  0.77690000  0.59241000  0.42184000  1.0
  C  C56  1  0.41483000  0.36864000  0.79804000  1.0
  C  C57  1  0.08518000  0.86864000  0.70196000  1.0
  C  C58  1  0.58517000  0.63136000  0.20196000  1.0
  C  C59  1  0.91483000  0.13136000  0.29804000  1.0
  C  C60  1  0.47936000  0.19297000  0.79162000  1.0
  C  C61  1  0.02065000  0.69296000  0.70838000  1.0
  C  C62  1  0.52064000  0.80703000  0.20839000  1.0
  C  C63  1  0.97935000  0.30703000  0.29162000  1.0
  C  C64  1  0.12258000  0.52031000  0.84462000  1.0
  C  C65  1  0.37742000  0.02031000  0.65538000  1.0
  C  C66  1  0.87741000  0.47969000  0.15538000  1.0
  C  C67  1  0.62258000  0.97969000  0.34462000  1.0
  C  C68  1  0.91660000  0.47783000  0.87422000  1.0
  C  C69  1  0.58340000  0.97782000  0.62578000  1.0
  C  C70  1  0.08339000  0.52217000  0.12578000  1.0
  C  C71  1  0.41660000  0.02218000  0.37422000  1.0
  C  C72  1  0.36030000  0.39857000  0.90200000  1.0
  C  C73  1  0.13970000  0.89857000  0.59800000  1.0
  C  C74  1  0.63970000  0.60143000  0.09800000  1.0
  C  C75  1  0.86030000  0.10143000  0.40200000  1.0
  C  C76  1  0.22729000  0.38758000  0.96041000  1.0
  C  C77  1  0.27271000  0.88759000  0.53959000  1.0
  C  C78  1  0.77271000  0.61242000  0.03959000  1.0
  C  C79  1  0.72730000  0.11242000  0.46041000  1.0
  C  C80  1  0.16536000  0.21572000  0.97569000  1.0
  C  C81  1  0.33464000  0.71573000  0.52431000  1.0
  C  C82  1  0.83464000  0.78428000  0.02431000  1.0
  C  C83  1  0.66536000  0.28428000  0.47569000  1.0
  N  N84  1  0.25886000  0.38317000  0.84919000  1.0
  N  N85  1  0.24114000  0.88317000  0.65080000  1.0
  N  N86  1  0.74114000  0.61683000  0.15081000  1.0
  N  N87  1  0.75886000  0.11683000  0.34919000  1.0
  N  N88  1  0.14790000  0.17239000  0.03145000  1.0
  N  N89  1  0.35211000  0.67240000  0.46855000  1.0
  N  N90  1  0.85210000  0.82762000  0.96855000  1.0
  N  N91  1  0.64789000  0.32761000  0.53145000  1.0
  O  O92  1  0.36072000  0.08884000  0.82123000  1.0
  O  O93  1  0.13928000  0.58884000  0.67877000  1.0
  O  O94  1  0.63929000  0.91116000  0.17877000  1.0
  O  O95  1  0.86072000  0.41115000  0.32123000  1.0
  O  O96  1  0.63074000  0.15157000  0.75911000  1.0
  O  O97  1  0.86926000  0.65156000  0.74089000  1.0
  O  O98  1  0.36926000  0.84843000  0.24089000  1.0
  O  O99  1  0.13075000  0.34844000  0.25911000  1.0
  O  O100  1  0.88077000  0.32508000  0.88231000  1.0
  O  O101  1  0.61923000  0.82507000  0.61769000  1.0
  O  O102  1  0.11922000  0.67493000  0.11769000  1.0
  O  O103  1  0.38077000  0.17494000  0.38231000  1.0
  O  O104  1  0.79102000  0.58579000  0.88882000  1.0
  O  O105  1  0.70899000  0.08578000  0.61118000  1.0
  O  O106  1  0.20898000  0.41421000  0.11118000  1.0
  O  O107  1  0.29101000  0.91422000  0.38882000  1.0
  O  O108  1  0.13682000  0.11644000  0.93588000  1.0
  O  O109  1  0.36318000  0.61645000  0.56411000  1.0
  O  O110  1  0.86318000  0.88356000  0.06412000  1.0
  O  O111  1  0.63683000  0.38356000  0.43588000  1.0
  O  O112  1  0.05456000  0.21599000  0.77603000  1.0
  O  O113  1  0.44544000  0.71598000  0.72397000  1.0
  O  O114  1  0.94544000  0.78401000  0.22397000  1.0
  O  O115  1  0.55455000  0.28401000  0.27603000  1.0
  O  O116  1  0.86571000  0.02416000  0.86670000  1.0
  O  O117  1  0.63429000  0.52415000  0.63329000  1.0
  O  O118  1  0.13430000  0.97583000  0.13329000  1.0
  O  O119  1  0.36570000  0.47584000  0.36671000  1.0
  O  O120  1  0.04315000  0.93662000  0.84461000  1.0
  O  O121  1  0.45685000  0.43661000  0.65539000  1.0
  O  O122  1  0.95686000  0.06339000  0.15539000  1.0
  O  O123  1  0.54314000  0.56338000  0.34461000  1.0
  O  O124  1  0.36578000  0.81419000  0.92248000  1.0
  O  O125  1  0.13421000  0.31419000  0.57752000  1.0
  O  O126  1  0.63422000  0.18581000  0.07752000  1.0
  O  O127  1  0.86578000  0.68581000  0.42248000  1.0
