# generated using pymatgen
data_ZnH22C37Br4(NO2)2
_symmetry_space_group_name_H-M   'P 1'
_cell_length_a   8.95085000
_cell_length_b   15.84890000
_cell_length_c   17.06750000
_cell_angle_alpha   115.26900000
_cell_angle_beta   90.90280000
_cell_angle_gamma   91.73400000
_symmetry_Int_Tables_number   1
_chemical_formula_structural   ZnH22C37Br4(NO2)2
_chemical_formula_sum   'Zn2 H44 C74 Br8 N4 O8'
_cell_volume   2187.43353460
_cell_formula_units_Z   2
loop_
 _symmetry_equiv_pos_site_id
 _symmetry_equiv_pos_as_xyz
  1  'x, y, z'
loop_
 _atom_site_type_symbol
 _atom_site_label
 _atom_site_symmetry_multiplicity
 _atom_site_fract_x
 _atom_site_fract_y
 _atom_site_fract_z
 _atom_site_occupancy
  Zn  Zn0  1  0.94819000  0.26885000  0.02117000  1.0
  Zn  Zn1  1  0.05182000  0.73115000  0.97884000  1.0
  H  H2  1  0.73591000  0.29807000  0.16403000  1.0
  H  H3  1  0.26407000  0.70193000  0.83596000  1.0
  H  H4  1  0.57950000  0.57766000  0.25378000  1.0
  H  H5  1  0.42050000  0.42234000  0.74622000  1.0
  H  H6  1  0.73058000  0.59436000  0.13608000  1.0
  H  H7  1  0.26942000  0.40565000  0.86392000  1.0
  H  H8  1  0.87642000  0.45969000  0.03937000  1.0
  H  H9  1  0.12358000  0.54032000  0.96063000  1.0
  H  H10  1  0.30017000  0.22898000  0.22708000  1.0
  H  H11  1  0.69981000  0.77102000  0.77291000  1.0
  H  H12  1  0.15575000  0.17522000  0.32237000  1.0
  H  H13  1  0.84424000  0.82478000  0.67763000  1.0
  H  H14  1  0.45070000  0.34597000  0.53791000  1.0
  H  H15  1  0.54930000  0.65403000  0.46209000  1.0
  H  H16  1  0.59758000  0.39533000  0.44190000  1.0
  H  H17  1  0.40241000  0.60467000  0.55810000  1.0
  H  H18  1  0.25926000  0.03501000  0.39978000  1.0
  H  H19  1  0.74074000  0.96498000  0.60023000  1.0
  H  H20  1  0.79298000  0.94346000  0.36656000  1.0
  H  H21  1  0.20702000  0.05654000  0.63343000  1.0
  H  H22  1  0.71788000  0.10678000  0.44526000  1.0
  H  H23  1  0.28213000  0.89321000  0.55473000  1.0
  H  H24  1  0.70032000  0.29079000  0.53243000  1.0
  H  H25  1  0.29968000  0.70921000  0.46757000  1.0
  H  H26  1  0.74167000  0.46357000  0.60701000  1.0
  H  H27  1  0.25834000  0.53643000  0.39298000  1.0
  H  H28  1  0.22006000  0.43417000  0.58713000  1.0
  H  H29  1  0.77995000  0.56583000  0.41287000  1.0
  H  H30  1  0.14443000  0.28842000  0.67209000  1.0
  H  H31  1  0.85558000  0.71159000  0.32791000  1.0
  H  H32  1  0.28596000  0.25167000  0.77979000  1.0
  H  H33  1  0.71404000  0.74833000  0.22021000  1.0
  H  H34  1  0.61075000  0.11231000  0.58862000  1.0
  H  H35  1  0.38925000  0.88768000  0.41138000  1.0
  H  H36  1  0.46522000  0.14420000  0.47966000  1.0
  H  H37  1  0.53478000  0.85579000  0.52034000  1.0
  H  H38  1  0.72597000  0.22308000  0.87265000  1.0
  H  H39  1  0.27402000  0.77692000  0.12736000  1.0
  H  H40  1  0.88278000  0.07701000  0.00630000  1.0
  H  H41  1  0.11723000  0.92300000  0.99370000  1.0
  H  H42  1  0.74994000  0.92815000  0.90288000  1.0
  H  H43  1  0.25007000  0.07185000  0.09713000  1.0
  H  H44  1  0.59553000  0.93136000  0.77789000  1.0
  H  H45  1  0.40447000  0.06864000  0.22212000  1.0
  C  C46  1  0.72940000  0.36423000  0.15918000  1.0
  C  C47  1  0.27058000  0.63577000  0.84081000  1.0
  C  C48  1  0.64394000  0.43602000  0.21585000  1.0
  C  C49  1  0.35605000  0.56398000  0.78415000  1.0
  C  C50  1  0.64375000  0.52076000  0.20880000  1.0
  C  C51  1  0.35625000  0.47924000  0.79120000  1.0
  C  C52  1  0.72656000  0.53012000  0.14458000  1.0
  C  C53  1  0.27343000  0.46988000  0.85542000  1.0
  C  C54  1  0.80835000  0.45547000  0.09017000  1.0
  C  C55  1  0.19165000  0.54453000  0.90984000  1.0
  C  C56  1  0.55524000  0.42613000  0.28448000  1.0
  C  C57  1  0.44475000  0.57387000  0.71552000  1.0
  C  C58  1  0.45727000  0.31265000  0.32909000  1.0
  C  C59  1  0.54272000  0.68735000  0.67091000  1.0
  C  C60  1  0.33416000  0.25147000  0.29484000  1.0
  C  C61  1  0.66584000  0.74853000  0.70515000  1.0
  C  C62  1  0.25325000  0.22265000  0.34892000  1.0
  C  C63  1  0.74675000  0.77735000  0.65108000  1.0
  C  C64  1  0.29489000  0.25518000  0.43657000  1.0
  C  C65  1  0.70511000  0.74482000  0.56343000  1.0
  C  C66  1  0.41856000  0.31808000  0.46936000  1.0
  C  C67  1  0.58144000  0.68192000  0.53064000  1.0
  C  C68  1  0.50112000  0.34706000  0.41612000  1.0
  C  C69  1  0.49888000  0.65294000  0.58388000  1.0
  C  C70  1  0.20009000  0.23141000  0.49864000  1.0
  C  C71  1  0.79991000  0.76859000  0.50136000  1.0
  C  C72  1  0.09888000  0.14280000  0.45510000  1.0
  C  C73  1  0.90113000  0.85719000  0.54490000  1.0
  C  C74  1  0.14193000  0.05145000  0.41032000  1.0
  C  C75  1  0.85807000  0.94855000  0.58968000  1.0
  C  C76  1  0.02937000  0.98102000  0.37905000  1.0
  C  C77  1  0.97064000  0.01898000  0.62095000  1.0
  C  C78  1  0.87785000  0.99995000  0.39167000  1.0
  C  C79  1  0.12215000  0.00004000  0.60832000  1.0
  C  C80  1  0.83624000  0.09223000  0.43670000  1.0
  C  C81  1  0.16377000  0.90776000  0.56329000  1.0
  C  C82  1  0.94692000  0.16393000  0.46891000  1.0
  C  C83  1  0.05309000  0.83607000  0.53109000  1.0
  C  C84  1  0.93715000  0.26508000  0.51763000  1.0
  C  C85  1  0.06286000  0.73492000  0.48237000  1.0
  C  C86  1  0.81382000  0.32151000  0.54460000  1.0
  C  C87  1  0.18618000  0.67849000  0.45540000  1.0
  C  C88  1  0.83663000  0.41852000  0.58641000  1.0
  C  C89  1  0.16338000  0.58148000  0.41359000  1.0
  C  C90  1  0.98258000  0.45744000  0.60074000  1.0
  C  C91  1  0.01743000  0.54255000  0.39926000  1.0
  C  C92  1  0.10763000  0.40228000  0.57621000  1.0
  C  C93  1  0.89239000  0.59772000  0.42379000  1.0
  C  C94  1  0.08309000  0.30602000  0.53514000  1.0
  C  C95  1  0.91692000  0.69398000  0.46486000  1.0
  C  C96  1  0.29513000  0.21959000  0.56847000  1.0
  C  C97  1  0.70487000  0.78040000  0.43153000  1.0
  C  C98  1  0.24691000  0.25044000  0.65340000  1.0
  C  C99  1  0.75310000  0.74957000  0.34660000  1.0
  C  C100  1  0.32622000  0.23093000  0.71442000  1.0
  C  C101  1  0.67379000  0.76907000  0.28558000  1.0
  C  C102  1  0.45611000  0.18169000  0.69010000  1.0
  C  C103  1  0.54389000  0.81831000  0.30990000  1.0
  C  C104  1  0.50822000  0.15044000  0.60617000  1.0
  C  C105  1  0.49178000  0.84956000  0.39383000  1.0
  C  C106  1  0.42635000  0.16917000  0.54574000  1.0
  C  C107  1  0.57365000  0.83082000  0.45426000  1.0
  C  C108  1  0.55712000  0.07885000  0.74402000  1.0
  C  C109  1  0.44287000  0.92115000  0.25599000  1.0
  C  C110  1  0.64590000  0.07782000  0.81791000  1.0
  C  C111  1  0.35409000  0.92218000  0.18210000  1.0
  C  C112  1  0.72518000  0.15698000  0.87800000  1.0
  C  C113  1  0.27482000  0.84302000  0.12200000  1.0
  C  C114  1  0.81328000  0.07384000  0.95186000  1.0
  C  C115  1  0.18673000  0.92616000  0.04815000  1.0
  C  C116  1  0.73833000  0.99203000  0.89435000  1.0
  C  C117  1  0.26168000  0.00797000  0.10566000  1.0
  C  C118  1  0.65405000  0.99380000  0.82589000  1.0
  C  C119  1  0.34595000  0.00621000  0.17412000  1.0
  Br  Br120  1  0.07038000  0.21756000  0.11591000  1.0
  Br  Br121  1  0.92962000  0.78242000  0.88408000  1.0
  Br  Br122  1  0.05868000  0.32190000  0.92473000  1.0
  Br  Br123  1  0.94132000  0.67810000  0.07527000  1.0
  Br  Br124  1  0.08589000  0.85520000  0.31591000  1.0
  Br  Br125  1  0.91412000  0.14479000  0.68408000  1.0
  Br  Br126  1  0.01152000  0.58991000  0.65417000  1.0
  Br  Br127  1  0.98849000  0.41009000  0.34583000  1.0
  N  N128  1  0.80991000  0.37410000  0.09761000  1.0
  N  N129  1  0.19008000  0.62590000  0.90239000  1.0
  N  N130  1  0.80751000  0.15455000  0.94343000  1.0
  N  N131  1  0.19249000  0.84545000  0.05657000  1.0
  O  O132  1  0.50138000  0.49136000  0.34447000  1.0
  O  O133  1  0.49861000  0.50864000  0.65553000  1.0
  O  O134  1  0.54034000  0.33502000  0.27062000  1.0
  O  O135  1  0.45965000  0.66498000  0.72938000  1.0
  O  O136  1  0.53628000  0.16817000  0.75510000  1.0
  O  O137  1  0.46372000  0.83183000  0.24491000  1.0
  O  O138  1  0.50817000  0.00898000  0.68219000  1.0
  O  O139  1  0.49183000  0.99102000  0.31782000  1.0
