# generated using pymatgen
data_MnH12C18S(NO)4
_symmetry_space_group_name_H-M   'P 1'
_cell_length_a   10.88410000
_cell_length_b   10.88410000
_cell_length_c   19.06070000
_cell_angle_alpha   80.86220000
_cell_angle_beta   80.86210000
_cell_angle_gamma   87.64400000
_symmetry_Int_Tables_number   1
_chemical_formula_structural   MnH12C18S(NO)4
_chemical_formula_sum   'Mn4 H48 C72 S4 N16 O16'
_cell_volume   2200.75901533
_cell_formula_units_Z   4
loop_
 _symmetry_equiv_pos_site_id
 _symmetry_equiv_pos_as_xyz
  1  'x, y, z'
loop_
 _atom_site_type_symbol
 _atom_site_label
 _atom_site_symmetry_multiplicity
 _atom_site_fract_x
 _atom_site_fract_y
 _atom_site_fract_z
 _atom_site_occupancy
  Mn  Mn0  1  0.41124000  0.12838000  0.55410000  1.0
  Mn  Mn1  1  0.87161000  0.58876000  0.94590000  1.0
  Mn  Mn2  1  0.58876000  0.87161000  0.44590000  1.0
  Mn  Mn3  1  0.12838000  0.41123000  0.05410000  1.0
  H  H4  1  0.01724000  0.60764000  0.66117000  1.0
  H  H5  1  0.39235000  0.98276000  0.83882000  1.0
  H  H6  1  0.98276000  0.39236000  0.33882000  1.0
  H  H7  1  0.60764000  0.01724000  0.16118000  1.0
  H  H8  1  0.52768000  0.01411000  0.71660000  1.0
  H  H9  1  0.98589000  0.47233000  0.78339000  1.0
  H  H10  1  0.47233000  0.98589000  0.28339000  1.0
  H  H11  1  0.01411000  0.52767000  0.21661000  1.0
  H  H12  1  0.04247000  0.87181000  0.50346000  1.0
  H  H13  1  0.12820000  0.95753000  0.99653000  1.0
  H  H14  1  0.95753000  0.12820000  0.49654000  1.0
  H  H15  1  0.87180000  0.04246000  0.00347000  1.0
  H  H16  1  0.34041000  0.89493000  0.66949000  1.0
  H  H17  1  0.10507000  0.65959000  0.83051000  1.0
  H  H18  1  0.65960000  0.10506000  0.33051000  1.0
  H  H19  1  0.89493000  0.34041000  0.16949000  1.0
  H  H20  1  0.67006000  0.52879000  0.43267000  1.0
  H  H21  1  0.47121000  0.32992000  0.06733000  1.0
  H  H22  1  0.32992000  0.47121000  0.56733000  1.0
  H  H23  1  0.52878000  0.67007000  0.93267000  1.0
  H  H24  1  0.82547000  0.62394000  0.48034000  1.0
  H  H25  1  0.37606000  0.17452000  0.01966000  1.0
  H  H26  1  0.17451000  0.37607000  0.51966000  1.0
  H  H27  1  0.62394000  0.82548000  0.98034000  1.0
  H  H28  1  0.51915000  0.35521000  0.44063000  1.0
  H  H29  1  0.64479000  0.48084000  0.05937000  1.0
  H  H30  1  0.48084000  0.64478000  0.55937000  1.0
  H  H31  1  0.35521000  0.51916000  0.94063000  1.0
  H  H32  1  0.61739000  0.92216000  0.83703000  1.0
  H  H33  1  0.07784000  0.38261000  0.66297000  1.0
  H  H34  1  0.38262000  0.07784000  0.16297000  1.0
  H  H35  1  0.92216000  0.61739000  0.33703000  1.0
  H  H36  1  0.78681000  0.33616000  0.62751000  1.0
  H  H37  1  0.66385000  0.21319000  0.87249000  1.0
  H  H38  1  0.21319000  0.66385000  0.37249000  1.0
  H  H39  1  0.33615000  0.78681000  0.12751000  1.0
  H  H40  1  0.18838000  0.05032000  0.48945000  1.0
  H  H41  1  0.94969000  0.81162000  0.01055000  1.0
  H  H42  1  0.81163000  0.94969000  0.51055000  1.0
  H  H43  1  0.05031000  0.18837000  0.98945000  1.0
  H  H44  1  0.19685000  0.71287000  0.69327000  1.0
  H  H45  1  0.28713000  0.80315000  0.80673000  1.0
  H  H46  1  0.80314000  0.28712000  0.30673000  1.0
  H  H47  1  0.71287000  0.19686000  0.19327000  1.0
  H  H48  1  0.63286000  0.17036000  0.62681000  1.0
  H  H49  1  0.82964000  0.36715000  0.87319000  1.0
  H  H50  1  0.36715000  0.82964000  0.37318000  1.0
  H  H51  1  0.17035000  0.63286000  0.12681000  1.0
  C  C52  1  0.59700000  0.88671000  0.59480000  1.0
  C  C53  1  0.11328000  0.40301000  0.90520000  1.0
  C  C54  1  0.40301000  0.11328000  0.40520000  1.0
  C  C55  1  0.88672000  0.59699000  0.09480000  1.0
  C  C56  1  0.10811000  0.77797000  0.59969000  1.0
  C  C57  1  0.22203000  0.89189000  0.90031000  1.0
  C  C58  1  0.89189000  0.22203000  0.40031000  1.0
  C  C59  1  0.77797000  0.10811000  0.09969000  1.0
  C  C60  1  0.77258000  0.70146000  0.83474000  1.0
  C  C61  1  0.29853000  0.22742000  0.66526000  1.0
  C  C62  1  0.22743000  0.29853000  0.16526000  1.0
  C  C63  1  0.70146000  0.77258000  0.33474000  1.0
  C  C64  1  0.02655000  0.67169000  0.61001000  1.0
  C  C65  1  0.32831000  0.97345000  0.88999000  1.0
  C  C66  1  0.97345000  0.32832000  0.38999000  1.0
  C  C67  1  0.67169000  0.02655000  0.11001000  1.0
  C  C68  1  0.58689000  0.93124000  0.72373000  1.0
  C  C69  1  0.06876000  0.41312000  0.77627000  1.0
  C  C70  1  0.41312000  0.06876000  0.27627000  1.0
  C  C71  1  0.93124000  0.58688000  0.22374000  1.0
  C  C72  1  0.62428000  0.86075000  0.66902000  1.0
  C  C73  1  0.13924000  0.37573000  0.83099000  1.0
  C  C74  1  0.37573000  0.13925000  0.33099000  1.0
  C  C75  1  0.86076000  0.62428000  0.16902000  1.0
  C  C76  1  0.73960000  0.44623000  0.52998000  1.0
  C  C77  1  0.55377000  0.26040000  0.97002000  1.0
  C  C78  1  0.26040000  0.55378000  0.47002000  1.0
  C  C79  1  0.44623000  0.73960000  0.02998000  1.0
  C  C80  1  0.70646000  0.77570000  0.78023000  1.0
  C  C81  1  0.22430000  0.29354000  0.71977000  1.0
  C  C82  1  0.29355000  0.22431000  0.21977000  1.0
  C  C83  1  0.77570000  0.70646000  0.28023000  1.0
  C  C84  1  0.10669000  0.87496000  0.54149000  1.0
  C  C85  1  0.12504000  0.89331000  0.95851000  1.0
  C  C86  1  0.89332000  0.12505000  0.45851000  1.0
  C  C87  1  0.87496000  0.10668000  0.04149000  1.0
  C  C88  1  0.27217000  0.88633000  0.63440000  1.0
  C  C89  1  0.11366000  0.72783000  0.86560000  1.0
  C  C90  1  0.72783000  0.11366000  0.36560000  1.0
  C  C91  1  0.88633000  0.27217000  0.13440000  1.0
  C  C92  1  0.66391000  0.45031000  0.47637000  1.0
  C  C93  1  0.54969000  0.33608000  0.02363000  1.0
  C  C94  1  0.33607000  0.54969000  0.52363000  1.0
  C  C95  1  0.45031000  0.66392000  0.97637000  1.0
  C  C96  1  0.82447000  0.54779000  0.52570000  1.0
  C  C97  1  0.45222000  0.17552000  0.97430000  1.0
  C  C98  1  0.17552000  0.45222000  0.47430000  1.0
  C  C99  1  0.54778000  0.82447000  0.02570000  1.0
  C  C100  1  0.58087000  0.35488000  0.48052000  1.0
  C  C101  1  0.64511000  0.41912000  0.01948000  1.0
  C  C102  1  0.41912000  0.64511000  0.51948000  1.0
  C  C103  1  0.35489000  0.58088000  0.98053000  1.0
  C  C104  1  0.63341000  0.88195000  0.78748000  1.0
  C  C105  1  0.11805000  0.36659000  0.71252000  1.0
  C  C106  1  0.36659000  0.11805000  0.21252000  1.0
  C  C107  1  0.88195000  0.63341000  0.28748000  1.0
  C  C108  1  0.72884000  0.34331000  0.58537000  1.0
  C  C109  1  0.65669000  0.27116000  0.91462000  1.0
  C  C110  1  0.27116000  0.65669000  0.41462000  1.0
  C  C111  1  0.34330000  0.72884000  0.08538000  1.0
  C  C112  1  0.18798000  0.97258000  0.53333000  1.0
  C  C113  1  0.02742000  0.81202000  0.96667000  1.0
  C  C114  1  0.81202000  0.02742000  0.46667000  1.0
  C  C115  1  0.97258000  0.18797000  0.03333000  1.0
  C  C116  1  0.19226000  0.78604000  0.64744000  1.0
  C  C117  1  0.21396000  0.80774000  0.85256000  1.0
  C  C118  1  0.80774000  0.21396000  0.35256000  1.0
  C  C119  1  0.78603000  0.19226000  0.14744000  1.0
  C  C120  1  0.64416000  0.25184000  0.58511000  1.0
  C  C121  1  0.74816000  0.35584000  0.91489000  1.0
  C  C122  1  0.35584000  0.74816000  0.41489000  1.0
  C  C123  1  0.25184000  0.64416000  0.08511000  1.0
  S  S124  1  0.71680000  0.73552000  0.69584000  1.0
  S  S125  1  0.26447000  0.28320000  0.80416000  1.0
  S  S126  1  0.28321000  0.26448000  0.30416000  1.0
  S  S127  1  0.73553000  0.71680000  0.19584000  1.0
  N  N128  1  0.27109000  0.97824000  0.57820000  1.0
  N  N129  1  0.02176000  0.72891000  0.92180000  1.0
  N  N130  1  0.72891000  0.02176000  0.42180000  1.0
  N  N131  1  0.97824000  0.27109000  0.07820000  1.0
  N  N132  1  0.89535000  0.54971000  0.57426000  1.0
  N  N133  1  0.45030000  0.10465000  0.92574000  1.0
  N  N134  1  0.10465000  0.45030000  0.42574000  1.0
  N  N135  1  0.54970000  0.89535000  0.07426000  1.0
  N  N136  1  0.57032000  0.25681000  0.53385000  1.0
  N  N137  1  0.74319000  0.42968000  0.96615000  1.0
  N  N138  1  0.42968000  0.74319000  0.46615000  1.0
  N  N139  1  0.25681000  0.57031000  0.03385000  1.0
  N  N140  1  0.96773000  0.65477000  0.55850000  1.0
  N  N141  1  0.34523000  0.03227000  0.94149000  1.0
  N  N142  1  0.03227000  0.34524000  0.44149000  1.0
  N  N143  1  0.65476000  0.96773000  0.05851000  1.0
  O  O144  1  0.74367000  0.72212000  0.90007000  1.0
  O  O145  1  0.27788000  0.25634000  0.59993000  1.0
  O  O146  1  0.25634000  0.27787000  0.09994000  1.0
  O  O147  1  0.72212000  0.74367000  0.40007000  1.0
  O  O148  1  0.54586000  0.99072000  0.57484000  1.0
  O  O149  1  0.00928000  0.45415000  0.92516000  1.0
  O  O150  1  0.45415000  0.00927000  0.42516000  1.0
  O  O151  1  0.99073000  0.54586000  0.07484000  1.0
  O  O152  1  0.62954000  0.80601000  0.55292000  1.0
  O  O153  1  0.19399000  0.37046000  0.94708000  1.0
  O  O154  1  0.37047000  0.19399000  0.44708000  1.0
  O  O155  1  0.80602000  0.62954000  0.05292000  1.0
  O  O156  1  0.85407000  0.62054000  0.81705000  1.0
  O  O157  1  0.37945000  0.14592000  0.68295000  1.0
  O  O158  1  0.14593000  0.37946000  0.18295000  1.0
  O  O159  1  0.62054000  0.85407000  0.31705000  1.0
