# generated using pymatgen
data_AlH15C24(NO)6
_symmetry_space_group_name_H-M   'P 1'
_cell_length_a   3.92897000
_cell_length_b   15.74233221
_cell_length_c   15.78870000
_cell_angle_alpha   60.76537996
_cell_angle_beta   87.37320000
_cell_angle_gamma   86.12082257
_symmetry_Int_Tables_number   1
_chemical_formula_structural   AlH15C24(NO)6
_chemical_formula_sum   'Al1 H15 C24 N6 O6'
_cell_volume   850.11928503
_cell_formula_units_Z   1
loop_
 _symmetry_equiv_pos_site_id
 _symmetry_equiv_pos_as_xyz
  1  'x, y, z'
loop_
 _atom_site_type_symbol
 _atom_site_label
 _atom_site_symmetry_multiplicity
 _atom_site_fract_x
 _atom_site_fract_y
 _atom_site_fract_z
 _atom_site_occupancy
  Al  Al0  1  0.99317000  0.49875000  0.99754000  1.0
  H  H1  1  0.66701000  0.85080000  0.10443000  1.0
  H  H2  1  0.72610000  0.04145000  0.35209000  1.0
  H  H3  1  0.78413000  0.60992000  0.53791000  1.0
  H  H4  1  0.19617000  0.74245000  0.73640000  1.0
  H  H5  1  0.20387000  0.84305000  0.55475000  1.0
  H  H6  1  0.24033000  0.23481000  0.02291000  1.0
  H  H7  1  0.23526000  0.05236000  0.10886000  1.0
  H  H8  1  0.18354000  0.52571000  0.24374000  1.0
  H  H9  1  0.19500000  0.60924000  0.34423000  1.0
  H  H10  1  0.79811000  0.73012000  0.96041000  1.0
  H  H11  1  0.87654000  0.82995000  0.97186000  1.0
  H  H12  1  0.92311000  0.46962000  0.79682000  1.0
  H  H13  1  0.03738000  0.48411000  0.68421000  1.0
  H  H14  1  0.87082000  0.29980000  0.22890000  1.0
  H  H15  1  0.95809000  0.18816000  0.32900000  1.0
  C  C16  1  0.45655000  0.57930000  0.07027000  1.0
  C  C17  1  0.50059000  0.57119000  0.84655000  1.0
  C  C18  1  0.51129000  0.34759000  0.07735000  1.0
  C  C19  1  0.44345000  0.63669000  0.12143000  1.0
  C  C20  1  0.50808000  0.24060000  0.13496000  1.0
  C  C21  1  0.50856000  0.62406000  0.73959000  1.0
  C  C22  1  0.58485000  0.72997000  0.07989000  1.0
  C  C23  1  0.56567000  0.77869000  0.13473000  1.0
  C  C24  1  0.65252000  0.18654000  0.22905000  1.0
  C  C25  1  0.62434000  0.08461000  0.27912000  1.0
  C  C26  1  0.68601000  0.58546000  0.68404000  1.0
  C  C27  1  0.66096000  0.63924000  0.58220000  1.0
  C  C28  1  0.33283000  0.71585000  0.69170000  1.0
  C  C29  1  0.33435000  0.77128000  0.59157000  1.0
  C  C30  1  0.35395000  0.19105000  0.09408000  1.0
  C  C31  1  0.34879000  0.09057000  0.14140000  1.0
  C  C32  1  0.29615000  0.59608000  0.21515000  1.0
  C  C33  1  0.30023000  0.64214000  0.27069000  1.0
  C  C34  1  0.43496000  0.73498000  0.22926000  1.0
  C  C35  1  0.44666000  0.78722000  0.28535000  1.0
  C  C36  1  0.48130000  0.03704000  0.23574000  1.0
  C  C37  1  0.47065000  0.92970000  0.28851000  1.0
  C  C38  1  0.49337000  0.73096000  0.53656000  1.0
  C  C39  1  0.47923000  0.78561000  0.42950000  1.0
  N  N40  1  0.44851000  0.88509000  0.23507000  1.0
  N  N41  1  0.48543000  0.88331000  0.38608000  1.0
  N  N42  1  0.46095000  0.73389000  0.38270000  1.0
  N  N43  1  0.72012000  0.77547000  0.98716000  1.0
  N  N44  1  0.85899000  0.49581000  0.72634000  1.0
  N  N45  1  0.79780000  0.23086000  0.27391000  1.0
  O  O46  1  0.28606000  0.39192000  0.01153000  1.0
  O  O47  1  0.23456000  0.51588000  0.09130000  1.0
  O  O48  1  0.25256000  0.59147000  0.89025000  1.0
  O  O49  1  0.73726000  0.39249000  0.09468000  1.0
  O  O50  1  0.74246000  0.50696000  0.89184000  1.0
  O  O51  1  0.69560000  0.59522000  0.00632000  1.0
