# generated using pymatgen
data_ZnH10C18N8(Cl2O)2
_symmetry_space_group_name_H-M   'P 1'
_cell_length_a   8.71113000
_cell_length_b   10.28730000
_cell_length_c   12.00370000
_cell_angle_alpha   98.87360000
_cell_angle_beta   89.99980000
_cell_angle_gamma   89.99980000
_symmetry_Int_Tables_number   1
_chemical_formula_structural   ZnH10C18N8(Cl2O)2
_chemical_formula_sum   'Zn2 H20 C36 N16 Cl8 O4'
_cell_volume   1062.82466415
_cell_formula_units_Z   2
loop_
 _symmetry_equiv_pos_site_id
 _symmetry_equiv_pos_as_xyz
  1  'x, y, z'
loop_
 _atom_site_type_symbol
 _atom_site_label
 _atom_site_symmetry_multiplicity
 _atom_site_fract_x
 _atom_site_fract_y
 _atom_site_fract_z
 _atom_site_occupancy
  Zn  Zn0  1  0.50000000  0.50000000  0.00000000  1.0
  Zn  Zn1  1  0.00000000  0.00000000  0.00000000  1.0
  H  H2  1  0.63761000  0.61085000  0.70377000  1.0
  H  H3  1  0.13760000  0.88915000  0.29623000  1.0
  H  H4  1  0.36239000  0.38914000  0.29623000  1.0
  H  H5  1  0.86240000  0.11085000  0.70377000  1.0
  H  H6  1  0.62829000  0.45031000  0.55279000  1.0
  H  H7  1  0.12828000  0.04969000  0.44721000  1.0
  H  H8  1  0.37171000  0.54968000  0.44721000  1.0
  H  H9  1  0.87171000  0.95031000  0.55279000  1.0
  H  H10  1  0.42724000  0.07023000  0.56755000  1.0
  H  H11  1  0.92724000  0.42977000  0.43244000  1.0
  H  H12  1  0.57275000  0.92977000  0.43245000  1.0
  H  H13  1  0.07276000  0.57023000  0.56755000  1.0
  H  H14  1  0.43506000  0.86768000  0.87255000  1.0
  H  H15  1  0.93506000  0.63232000  0.12745000  1.0
  H  H16  1  0.56494000  0.13232000  0.12745000  1.0
  H  H17  1  0.06494000  0.36768000  0.87255000  1.0
  H  H18  1  0.85232000  0.68035000  0.93254000  1.0
  H  H19  1  0.35232000  0.81965000  0.06747000  1.0
  H  H20  1  0.14768000  0.31965000  0.06747000  1.0
  H  H21  1  0.64768000  0.18035000  0.93253000  1.0
  C  C22  1  0.57512000  0.55532000  0.76043000  1.0
  C  C23  1  0.07512000  0.94468000  0.23957000  1.0
  C  C24  1  0.42488000  0.44468000  0.23957000  1.0
  C  C25  1  0.92488000  0.05532000  0.76043000  1.0
  C  C26  1  0.56682000  0.38319000  0.59901000  1.0
  C  C27  1  0.06681000  0.11682000  0.40099000  1.0
  C  C28  1  0.43318000  0.61681000  0.40100000  1.0
  C  C29  1  0.93319000  0.88319000  0.59901000  1.0
  C  C30  1  0.52533000  0.42618000  0.71319000  1.0
  C  C31  1  0.02532000  0.07382000  0.28681000  1.0
  C  C32  1  0.47468000  0.57382000  0.28681000  1.0
  C  C33  1  0.97468000  0.92618000  0.71319000  1.0
  C  C34  1  0.43885000  0.34171000  0.77594000  1.0
  C  C35  1  0.93885000  0.15829000  0.22406000  1.0
  C  C36  1  0.56115000  0.65828000  0.22407000  1.0
  C  C37  1  0.06115000  0.84171000  0.77593000  1.0
  C  C38  1  0.41253000  0.21049000  0.71823000  1.0
  C  C39  1  0.91253000  0.28951000  0.28177000  1.0
  C  C40  1  0.58747000  0.78950000  0.28177000  1.0
  C  C41  1  0.08747000  0.71049000  0.71823000  1.0
  C  C42  1  0.52946000  0.25808000  0.54711000  1.0
  C  C43  1  0.02946000  0.24192000  0.45289000  1.0
  C  C44  1  0.47053000  0.74191000  0.45290000  1.0
  C  C45  1  0.97054000  0.75808000  0.54710000  1.0
  C  C46  1  0.45434000  0.16993000  0.60745000  1.0
  C  C47  1  0.95434000  0.33007000  0.39255000  1.0
  C  C48  1  0.54566000  0.83007000  0.39255000  1.0
  C  C49  1  0.04566000  0.66993000  0.60745000  1.0
  C  C50  1  0.55480000  0.85513000  0.89362000  1.0
  C  C51  1  0.05480000  0.64487000  0.10638000  1.0
  C  C52  1  0.44520000  0.14487000  0.10638000  1.0
  C  C53  1  0.94520000  0.35513000  0.89362000  1.0
  C  C54  1  0.77141000  0.75900000  0.92516000  1.0
  C  C55  1  0.27142000  0.74100000  0.07484000  1.0
  C  C56  1  0.22859000  0.24100000  0.07484000  1.0
  C  C57  1  0.72859000  0.25900000  0.92516000  1.0
  N  N58  1  0.55476000  0.61106000  0.86498000  1.0
  N  N59  1  0.05476000  0.88894000  0.13502000  1.0
  N  N60  1  0.44524000  0.38894000  0.13502000  1.0
  N  N61  1  0.94524000  0.11106000  0.86497000  1.0
  N  N62  1  0.79096000  0.88782000  0.94768000  1.0
  N  N63  1  0.29096000  0.61218000  0.05233000  1.0
  N  N64  1  0.20904000  0.11218000  0.05232000  1.0
  N  N65  1  0.70904000  0.38782000  0.94768000  1.0
  N  N66  1  0.62420000  0.73503000  0.88965000  1.0
  N  N67  1  0.12420000  0.76498000  0.11035000  1.0
  N  N68  1  0.37580000  0.26498000  0.11035000  1.0
  N  N69  1  0.87580000  0.23502000  0.88965000  1.0
  N  N70  1  0.65532000  0.94889000  0.92751000  1.0
  N  N71  1  0.15532000  0.55111000  0.07249000  1.0
  N  N72  1  0.34468000  0.05111000  0.07249000  1.0
  N  N73  1  0.84468000  0.44889000  0.92751000  1.0
  Cl  Cl74  1  0.31943000  0.10314000  0.79167000  1.0
  Cl  Cl75  1  0.81943000  0.39687000  0.20833000  1.0
  Cl  Cl76  1  0.68057000  0.89686000  0.20834000  1.0
  Cl  Cl77  1  0.18057000  0.60313000  0.79167000  1.0
  Cl  Cl78  1  0.57344000  0.20526000  0.40624000  1.0
  Cl  Cl79  1  0.07344000  0.29474000  0.59375000  1.0
  Cl  Cl80  1  0.42655000  0.79474000  0.59376000  1.0
  Cl  Cl81  1  0.92656000  0.70526000  0.40625000  1.0
  O  O82  1  0.38537000  0.37691000  0.87617000  1.0
  O  O83  1  0.88537000  0.12310000  0.12383000  1.0
  O  O84  1  0.61463000  0.62309000  0.12384000  1.0
  O  O85  1  0.11463000  0.87690000  0.87617000  1.0
