# generated using pymatgen
data_TbH6(CO3)3
_symmetry_space_group_name_H-M   'P 1'
_cell_length_a   9.32736000
_cell_length_b   10.05430000
_cell_length_c   10.98130000
_cell_angle_alpha   66.14100000
_cell_angle_beta   89.99980000
_cell_angle_gamma   89.99990000
_symmetry_Int_Tables_number   1
_chemical_formula_structural   TbH6(CO3)3
_chemical_formula_sum   'Tb4 H24 C12 O36'
_cell_volume   941.82185970
_cell_formula_units_Z   4
loop_
 _symmetry_equiv_pos_site_id
 _symmetry_equiv_pos_as_xyz
  1  'x, y, z'
loop_
 _atom_site_type_symbol
 _atom_site_label
 _atom_site_symmetry_multiplicity
 _atom_site_fract_x
 _atom_site_fract_y
 _atom_site_fract_z
 _atom_site_occupancy
  Tb  Tb0  1  0.44999000  0.66921000  0.69384000  1.0
  Tb  Tb1  1  0.95000000  0.83079000  0.30616000  1.0
  Tb  Tb2  1  0.55000000  0.33079000  0.30616000  1.0
  Tb  Tb3  1  0.05000000  0.16921000  0.69384000  1.0
  H  H4  1  0.17445000  0.51864000  0.70618000  1.0
  H  H5  1  0.67446000  0.98136000  0.29382000  1.0
  H  H6  1  0.82554000  0.48136000  0.29383000  1.0
  H  H7  1  0.32554000  0.01864000  0.70617000  1.0
  H  H8  1  0.13003000  0.68728000  0.61548000  1.0
  H  H9  1  0.63003000  0.81272000  0.38453000  1.0
  H  H10  1  0.86997000  0.31271000  0.38453000  1.0
  H  H11  1  0.36997000  0.18729000  0.61547000  1.0
  H  H12  1  0.74562000  0.63487000  0.75504000  1.0
  H  H13  1  0.24563000  0.86513000  0.24495000  1.0
  H  H14  1  0.25437000  0.36513000  0.24496000  1.0
  H  H15  1  0.75437000  0.13487000  0.75504000  1.0
  H  H16  1  0.74787000  0.59203000  0.63112000  1.0
  H  H17  1  0.24787000  0.90797000  0.36888000  1.0
  H  H18  1  0.25213000  0.40797000  0.36889000  1.0
  H  H19  1  0.75213000  0.09203000  0.63112000  1.0
  H  H20  1  0.30023000  0.80117000  0.87708000  1.0
  H  H21  1  0.80024000  0.69883000  0.12292000  1.0
  H  H22  1  0.69977000  0.19884000  0.12292000  1.0
  H  H23  1  0.19977000  0.30116000  0.87708000  1.0
  H  H24  1  0.20565000  0.83628000  0.75024000  1.0
  H  H25  1  0.70565000  0.66372000  0.24976000  1.0
  H  H26  1  0.79436000  0.16372000  0.24975000  1.0
  H  H27  1  0.29435000  0.33628000  0.75025000  1.0
  C  C28  1  0.52318000  0.57237000  0.44411000  1.0
  C  C29  1  0.02319000  0.92763000  0.55589000  1.0
  C  C30  1  0.47682000  0.42764000  0.55590000  1.0
  C  C31  1  0.97682000  0.07236000  0.44410000  1.0
  C  C32  1  0.57231000  0.99533000  0.53575000  1.0
  C  C33  1  0.07231000  0.50468000  0.46425000  1.0
  C  C34  1  0.42769000  0.00466000  0.46426000  1.0
  C  C35  1  0.92769000  0.49534000  0.53574000  1.0
  C  C36  1  0.44294000  0.44324000  0.00168000  1.0
  C  C37  1  0.94293000  0.05676000  0.99832000  1.0
  C  C38  1  0.55706000  0.55676000  0.99832000  1.0
  C  C39  1  0.05706000  0.94323000  0.00168000  1.0
  O  O40  1  0.64886000  0.11028000  0.49365000  1.0
  O  O41  1  0.14885000  0.38972000  0.50635000  1.0
  O  O42  1  0.35115000  0.88972000  0.50635000  1.0
  O  O43  1  0.85114000  0.61028000  0.49365000  1.0
  O  O44  1  0.55995000  0.56901000  0.33478000  1.0
  O  O45  1  0.05995000  0.93100000  0.66521000  1.0
  O  O46  1  0.44005000  0.43100000  0.66522000  1.0
  O  O47  1  0.94006000  0.06900000  0.33477000  1.0
  O  O48  1  0.21032000  0.61850000  0.65923000  1.0
  O  O49  1  0.71033000  0.88150000  0.34078000  1.0
  O  O50  1  0.78967000  0.38150000  0.34078000  1.0
  O  O51  1  0.28967000  0.11850000  0.65922000  1.0
  O  O52  1  0.52039000  0.68309000  0.47221000  1.0
  O  O53  1  0.02039000  0.81692000  0.52779000  1.0
  O  O54  1  0.47961000  0.31692000  0.52779000  1.0
  O  O55  1  0.97961000  0.18308000  0.47221000  1.0
  O  O56  1  0.37408000  0.47069000  0.89468000  1.0
  O  O57  1  0.87407000  0.02930000  0.10532000  1.0
  O  O58  1  0.62592000  0.52930000  0.10533000  1.0
  O  O59  1  0.12592000  0.97070000  0.89467000  1.0
  O  O60  1  0.60265000  0.87648000  0.63027000  1.0
  O  O61  1  0.10265000  0.62351000  0.36973000  1.0
  O  O62  1  0.39735000  0.12352000  0.36973000  1.0
  O  O63  1  0.89736000  0.37649000  0.63027000  1.0
  O  O64  1  0.42794000  0.33333333  0.11028000  1.0
  O  O65  1  0.92793000  0.16666000  0.88972000  1.0
  O  O66  1  0.57208000  0.66666667  0.88972000  1.0
  O  O67  1  0.07206000  0.83333000  0.11028000  1.0
  O  O68  1  0.69261000  0.58206000  0.71224000  1.0
  O  O69  1  0.19262000  0.91794000  0.28776000  1.0
  O  O70  1  0.30739000  0.41793000  0.28777000  1.0
  O  O71  1  0.80739000  0.08207000  0.71223000  1.0
  O  O72  1  0.30641000  0.81448000  0.78417000  1.0
  O  O73  1  0.80641000  0.68551000  0.21584000  1.0
  O  O74  1  0.69360000  0.18552000  0.21583000  1.0
  O  O75  1  0.19360000  0.31448000  0.78417000  1.0
