# generated using pymatgen
data_Co3P4H34C18(N2O9)2
_symmetry_space_group_name_H-M   'P 1'
_cell_length_a   7.99553000
_cell_length_b   9.35667000
_cell_length_c   10.15040000
_cell_angle_alpha   93.42900000
_cell_angle_beta   97.69090000
_cell_angle_gamma   101.68600000
_symmetry_Int_Tables_number   1
_chemical_formula_structural   Co3P4H34C18(N2O9)2
_chemical_formula_sum   'Co3 P4 H34 C18 N4 O18'
_cell_volume   733.97609370
_cell_formula_units_Z   1
loop_
 _symmetry_equiv_pos_site_id
 _symmetry_equiv_pos_as_xyz
  1  'x, y, z'
loop_
 _atom_site_type_symbol
 _atom_site_label
 _atom_site_symmetry_multiplicity
 _atom_site_fract_x
 _atom_site_fract_y
 _atom_site_fract_z
 _atom_site_occupancy
  Co  Co0  1  0.50049000  0.49970000  0.49991000  1.0
  Co  Co1  1  0.90761000  0.34528000  0.51637000  1.0
  Co  Co2  1  0.09221000  0.65461000  0.48339000  1.0
  P  P3  1  0.24493000  0.44726000  0.72111000  1.0
  P  P4  1  0.75502000  0.55276000  0.27873000  1.0
  P  P5  1  0.22352000  0.20039000  0.49514000  1.0
  P  P6  1  0.77650000  0.79951000  0.50483000  1.0
  H  H7  1  0.94750000  0.10314000  0.63022000  1.0
  H  H8  1  0.05255000  0.89678000  0.36968000  1.0
  H  H9  1  0.45197000  0.38731000  0.19458000  1.0
  H  H10  1  0.54784000  0.61281000  0.80521000  1.0
  H  H11  1  0.13513000  0.94850000  0.65710000  1.0
  H  H12  1  0.86494000  0.05143000  0.34287000  1.0
  H  H13  1  0.04624000  0.97490000  0.80255000  1.0
  H  H14  1  0.95371000  0.02514000  0.19732000  1.0
  H  H15  1  0.26255000  0.78508000  0.78916000  1.0
  H  H16  1  0.73745000  0.21496000  0.21100000  1.0
  H  H17  1  0.27777000  0.89578000  0.93865000  1.0
  H  H18  1  0.72214000  0.10440000  0.06141000  1.0
  H  H19  1  0.56016000  0.00603000  0.91235000  1.0
  H  H20  1  0.43980000  0.99407000  0.08774000  1.0
  H  H21  1  0.53746000  0.91749000  0.75149000  1.0
  H  H22  1  0.46254000  0.08249000  0.24866000  1.0
  H  H23  1  0.55595000  0.21976000  0.78969000  1.0
  H  H24  1  0.44405000  0.78023000  0.21021000  1.0
  H  H25  1  0.45228000  0.10917000  0.64558000  1.0
  H  H26  1  0.54774000  0.89069000  0.35438000  1.0
  H  H27  1  0.54675000  0.32484000  0.97535000  1.0
  H  H28  1  0.45315000  0.67521000  0.02452000  1.0
  H  H29  1  0.12660000  0.27455000  0.19271000  1.0
  H  H30  1  0.87321000  0.72562000  0.80706000  1.0
  H  H31  1  0.01052000  0.13360000  0.93875000  1.0
  H  H32  1  0.98943000  0.86641000  0.06106000  1.0
  H  H33  1  0.17947000  0.42721000  0.38199000  1.0
  H  H34  1  0.82101000  0.57304000  0.61879000  1.0
  H  H35  1  0.27182000  0.55299000  0.29566000  1.0
  H  H36  1  0.72847000  0.44709000  0.70503000  1.0
  H  H37  1  0.57777000  0.21234000  0.47423000  1.0
  H  H38  1  0.42214000  0.78730000  0.52588000  1.0
  H  H39  1  0.70828000  0.09240000  0.49750000  1.0
  H  H40  1  0.29186000  0.90736000  0.50262000  1.0
  C  C41  1  0.18718000  0.24007000  0.67423000  1.0
  C  C42  1  0.81284000  0.75990000  0.32566000  1.0
  C  C43  1  0.27144000  0.14556000  0.77500000  1.0
  C  C44  1  0.72854000  0.85444000  0.22489000  1.0
  C  C45  1  0.16857000  0.98600000  0.76297000  1.0
  C  C46  1  0.83143000  0.01400000  0.23698000  1.0
  C  C47  1  0.29200000  0.89904000  0.83249000  1.0
  C  C48  1  0.70797000  0.10102000  0.16759000  1.0
  C  C49  1  0.47538000  0.98193000  0.81608000  1.0
  C  C50  1  0.52460000  0.01811000  0.18400000  1.0
  C  C51  1  0.45219000  0.12413000  0.75319000  1.0
  C  C52  1  0.54780000  0.87584000  0.24676000  1.0
  C  C53  1  0.41660000  0.28848000  0.99666000  1.0
  C  C54  1  0.58330000  0.71156000  0.00319000  1.0
  C  C55  1  0.19457000  0.26344000  0.10842000  1.0
  C  C56  1  0.80528000  0.73666000  0.89139000  1.0
  C  C57  1  0.13816000  0.19067000  0.98462000  1.0
  C  C58  1  0.86175000  0.80934000  0.01521000  1.0
  N  N59  1  0.27895000  0.20565000  0.91633000  1.0
  N  N60  1  0.72098000  0.79438000  0.08352000  1.0
  N  N61  1  0.36782000  0.32264000  0.11311000  1.0
  N  N62  1  0.63202000  0.67746000  0.88671000  1.0
  O  O63  1  0.23684000  0.48759000  0.86455000  1.0
  O  O64  1  0.76327000  0.51241000  0.13534000  1.0
  O  O65  1  0.42887000  0.50202000  0.68400000  1.0
  O  O66  1  0.57092000  0.49816000  0.31567000  1.0
  O  O67  1  0.10685000  0.49844000  0.62111000  1.0
  O  O68  1  0.89273000  0.50142000  0.37894000  1.0
  O  O69  1  0.19204000  0.03614000  0.45705000  1.0
  O  O70  1  0.80782000  0.96379000  0.54289000  1.0
  O  O71  1  0.40797000  0.27714000  0.47754000  1.0
  O  O72  1  0.59216000  0.72267000  0.52256000  1.0
  O  O73  1  0.08828000  0.27261000  0.41452000  1.0
  O  O74  1  0.91196000  0.72754000  0.58545000  1.0
  O  O75  1  0.00016000  0.20662000  0.67041000  1.0
  O  O76  1  0.99984000  0.79333000  0.32944000  1.0
  O  O77  1  0.25349000  0.53116000  0.38592000  1.0
  O  O78  1  0.74694000  0.46919000  0.61491000  1.0
  O  O79  1  0.69526000  0.19085000  0.46933000  1.0
  O  O80  1  0.30475000  0.80896000  0.53090000  1.0
