# generated using pymatgen
data_KCaErH6C16N2O13
_symmetry_space_group_name_H-M   'P 1'
_cell_length_a   7.84724000
_cell_length_b   10.99110000
_cell_length_c   11.85080000
_cell_angle_alpha   75.74980000
_cell_angle_beta   72.23600000
_cell_angle_gamma   76.19600000
_symmetry_Int_Tables_number   1
_chemical_formula_structural   KCaErH6C16N2O13
_chemical_formula_sum   'K2 Ca2 Er2 H12 C32 N4 O26'
_cell_volume   928.52476520
_cell_formula_units_Z   2
loop_
 _symmetry_equiv_pos_site_id
 _symmetry_equiv_pos_as_xyz
  1  'x, y, z'
loop_
 _atom_site_type_symbol
 _atom_site_label
 _atom_site_symmetry_multiplicity
 _atom_site_fract_x
 _atom_site_fract_y
 _atom_site_fract_z
 _atom_site_occupancy
  K  K0  1  0.78202000  0.09271000  0.39578000  1.0
  K  K1  1  0.21797000  0.90728000  0.60424000  1.0
  Ca  Ca2  1  0.54959000  0.42202000  0.15956000  1.0
  Ca  Ca3  1  0.45044000  0.57799000  0.84043000  1.0
  Er  Er4  1  0.67808000  0.74539000  0.28449000  1.0
  Er  Er5  1  0.32193000  0.25461000  0.71551000  1.0
  H  H6  1  0.87921000  0.27919000  0.07283000  1.0
  H  H7  1  0.12079000  0.72081000  0.92717000  1.0
  H  H8  1  0.66470000  0.83270000  0.80865000  1.0
  H  H9  1  0.33532000  0.16729000  0.19134000  1.0
  H  H10  1  0.79555000  0.14698000  0.90902000  1.0
  H  H11  1  0.20441000  0.85303000  0.09098000  1.0
  H  H12  1  0.33227000  0.54749000  0.39332000  1.0
  H  H13  1  0.66773000  0.45250000  0.60667000  1.0
  H  H14  1  0.91707000  0.68635000  0.69075000  1.0
  H  H15  1  0.08295000  0.31365000  0.30925000  1.0
  H  H16  1  0.91440000  0.38989000  0.96336000  1.0
  H  H17  1  0.08562000  0.61011000  0.03663000  1.0
  C  C18  1  0.62091000  0.68373000  0.04063000  1.0
  C  C19  1  0.37910000  0.31626000  0.95937000  1.0
  C  C20  1  0.68084000  0.81079000  0.99159000  1.0
  C  C21  1  0.31917000  0.18921000  0.00841000  1.0
  C  C22  1  0.69305000  0.87569000  0.87334000  1.0
  C  C23  1  0.30695000  0.12431000  0.12666000  1.0
  C  C24  1  0.73542000  0.99863000  0.84126000  1.0
  C  C25  1  0.26457000  0.00137000  0.15874000  1.0
  C  C26  1  0.76598000  0.05080000  0.92865000  1.0
  C  C27  1  0.23399000  0.94920000  0.07135000  1.0
  C  C28  1  0.75720000  0.97692000  0.04376000  1.0
  C  C29  1  0.24278000  0.02309000  0.95624000  1.0
  C  C30  1  0.78444000  0.02079000  0.14767000  1.0
  C  C31  1  0.21554000  0.97923000  0.85233000  1.0
  C  C32  1  0.73973000  0.07257000  0.71490000  1.0
  C  C33  1  0.26028000  0.92742000  0.28509000  1.0
  C  C34  1  0.10703000  0.60799000  0.23947000  1.0
  C  C35  1  0.89296000  0.39201000  0.76053000  1.0
  C  C36  1  0.06857000  0.63600000  0.36355000  1.0
  C  C37  1  0.93142000  0.36399000  0.63645000  1.0
  C  C38  1  0.19510000  0.59465000  0.43114000  1.0
  C  C39  1  0.80490000  0.40535000  0.56885000  1.0
  C  C40  1  0.14255000  0.61413000  0.54975000  1.0
  C  C41  1  0.85745000  0.38588000  0.45024000  1.0
  C  C42  1  0.96474000  0.67336000  0.59723000  1.0
  C  C43  1  0.03527000  0.32664000  0.40277000  1.0
  C  C44  1  0.84544000  0.70965000  0.52343000  1.0
  C  C45  1  0.15455000  0.29034000  0.47657000  1.0
  C  C46  1  0.64507000  0.76008000  0.56725000  1.0
  C  C47  1  0.35495000  0.23992000  0.43277000  1.0
  C  C48  1  0.27622000  0.56338000  0.62462000  1.0
  C  C49  1  0.72379000  0.43662000  0.37537000  1.0
  N  N50  1  0.71514000  0.85981000  0.07377000  1.0
  N  N51  1  0.28486000  0.14019000  0.92623000  1.0
  N  N52  1  0.89828000  0.69353000  0.40843000  1.0
  N  N53  1  0.10172000  0.30648000  0.59158000  1.0
  O  O54  1  0.62552000  0.63339000  0.14935000  1.0
  O  O55  1  0.37448000  0.36660000  0.85065000  1.0
  O  O56  1  0.56672000  0.63261000  0.97667000  1.0
  O  O57  1  0.43329000  0.36738000  0.02333000  1.0
  O  O58  1  0.76426000  0.93967000  0.24790000  1.0
  O  O59  1  0.23573000  0.06032000  0.75209000  1.0
  O  O60  1  0.82183000  0.12880000  0.13365000  1.0
  O  O61  1  0.17812000  0.87122000  0.86635000  1.0
  O  O62  1  0.61199000  0.16923000  0.70753000  1.0
  O  O63  1  0.38801000  0.83076000  0.29247000  1.0
  O  O64  1  0.86215000  0.03437000  0.62859000  1.0
  O  O65  1  0.13784000  0.96561000  0.37141000  1.0
  O  O66  1  0.97566000  0.64860000  0.18855000  1.0
  O  O67  1  0.02432000  0.35141000  0.81145000  1.0
  O  O68  1  0.25840000  0.54471000  0.19592000  1.0
  O  O69  1  0.74159000  0.45531000  0.80409000  1.0
  O  O70  1  0.56026000  0.80164000  0.48483000  1.0
  O  O71  1  0.43975000  0.19834000  0.51519000  1.0
  O  O72  1  0.57634000  0.75489000  0.67940000  1.0
  O  O73  1  0.42367000  0.24511000  0.32062000  1.0
  O  O74  1  0.36630000  0.45137000  0.61452000  1.0
  O  O75  1  0.63371000  0.54863000  0.38548000  1.0
  O  O76  1  0.29095000  0.63307000  0.68940000  1.0
  O  O77  1  0.70908000  0.36694000  0.31059000  1.0
  O  O78  1  0.86024000  0.37310000  0.05144000  1.0
  O  O79  1  0.13976000  0.62691000  0.94855000  1.0
