# generated using pymatgen
data_CuH11C14SI(NO)2
_symmetry_space_group_name_H-M   'P 1'
_cell_length_a   8.72367000
_cell_length_b   9.01964000
_cell_length_c   10.28590000
_cell_angle_alpha   64.82610000
_cell_angle_beta   87.42270000
_cell_angle_gamma   85.66840000
_symmetry_Int_Tables_number   1
_chemical_formula_structural   CuH11C14SI(NO)2
_chemical_formula_sum   'Cu2 H22 C28 S2 I2 N4 O4'
_cell_volume   730.30302979
_cell_formula_units_Z   2
loop_
 _symmetry_equiv_pos_site_id
 _symmetry_equiv_pos_as_xyz
  1  'x, y, z'
loop_
 _atom_site_type_symbol
 _atom_site_label
 _atom_site_symmetry_multiplicity
 _atom_site_fract_x
 _atom_site_fract_y
 _atom_site_fract_z
 _atom_site_occupancy
  Cu  Cu0  1  0.38849000  0.90756000  0.99311000  1.0
  Cu  Cu1  1  0.61152000  0.09243000  0.00689000  1.0
  H  H2  1  0.05117000  0.17629000  0.94632000  1.0
  H  H3  1  0.94883000  0.82372000  0.05369000  1.0
  H  H4  1  0.92346000  0.10874000  0.85402000  1.0
  H  H5  1  0.07654000  0.89127000  0.14598000  1.0
  H  H6  1  0.22863000  0.42327000  0.97922000  1.0
  H  H7  1  0.77137000  0.57674000  0.02077000  1.0
  H  H8  1  0.04195000  0.44458000  0.80102000  1.0
  H  H9  1  0.95804000  0.55542000  0.19897000  1.0
  H  H10  1  0.91873000  0.71388000  0.64024000  1.0
  H  H11  1  0.08126000  0.28613000  0.35976000  1.0
  H  H12  1  0.98793000  0.96726000  0.66005000  1.0
  H  H13  1  0.01207000  0.03274000  0.33996000  1.0
  H  H14  1  0.32537000  0.42371000  0.13257000  1.0
  H  H15  1  0.67463000  0.57629000  0.86743000  1.0
  H  H16  1  0.46334000  0.24233000  0.31373000  1.0
  H  H17  1  0.53667000  0.75767000  0.68627000  1.0
  H  H18  1  0.66232000  0.16491000  0.50303000  1.0
  H  H19  1  0.33768000  0.83508000  0.49697000  1.0
  H  H20  1  0.71735000  0.67650000  0.38711000  1.0
  H  H21  1  0.28265000  0.32349000  0.61289000  1.0
  H  H22  1  0.52504000  0.75570000  0.19476000  1.0
  H  H23  1  0.47496000  0.24429000  0.80523000  1.0
  C  C24  1  0.01903000  0.07037000  0.92942000  1.0
  C  C25  1  0.98098000  0.92963000  0.07058000  1.0
  C  C26  1  0.14298000  0.83768000  0.83442000  1.0
  C  C27  1  0.85702000  0.16233000  0.16559000  1.0
  C  C28  1  0.21288000  0.68424000  0.92922000  1.0
  C  C29  1  0.78711000  0.31576000  0.07078000  1.0
  C  C30  1  0.17520000  0.54399000  0.91295000  1.0
  C  C31  1  0.82479000  0.45601000  0.08704000  1.0
  C  C32  1  0.06955000  0.55463000  0.81162000  1.0
  C  C33  1  0.93045000  0.44537000  0.18836000  1.0
  C  C34  1  0.99956000  0.70599000  0.72091000  1.0
  C  C35  1  0.00043000  0.29402000  0.27909000  1.0
  C  C36  1  0.03845000  0.84724000  0.73148000  1.0
  C  C37  1  0.96155000  0.15277000  0.26852000  1.0
  C  C38  1  0.36771000  0.53615000  0.13053000  1.0
  C  C39  1  0.63229000  0.46385000  0.86946000  1.0
  C  C40  1  0.47973000  0.50424000  0.24103000  1.0
  C  C41  1  0.52028000  0.49576000  0.75897000  1.0
  C  C42  1  0.51898000  0.33728000  0.33028000  1.0
  C  C43  1  0.48102000  0.66271000  0.66973000  1.0
  C  C44  1  0.62959000  0.29280000  0.43498000  1.0
  C  C45  1  0.37042000  0.70719000  0.56502000  1.0
  C  C46  1  0.69843000  0.41731000  0.45356000  1.0
  C  C47  1  0.30157000  0.58268000  0.54645000  1.0
  C  C48  1  0.65991000  0.58335000  0.37011000  1.0
  C  C49  1  0.34009000  0.41665000  0.62989000  1.0
  C  C50  1  0.55246000  0.62594000  0.26280000  1.0
  C  C51  1  0.44753000  0.37406000  0.73720000  1.0
  S  S52  1  0.18854000  0.02399000  0.83851000  1.0
  S  S53  1  0.81147000  0.97602000  0.16149000  1.0
  I  I54  1  0.36079000  0.06169000  0.16129000  1.0
  I  I55  1  0.63921000  0.93831000  0.83871000  1.0
  N  N56  1  0.31857000  0.67912000  0.03345000  1.0
  N  N57  1  0.68143000  0.32089000  0.96654000  1.0
  N  N58  1  0.81718000  0.37239000  0.56112000  1.0
  N  N59  1  0.18282000  0.62760000  0.43888000  1.0
  O  O60  1  0.87859000  0.23078000  0.60684000  1.0
  O  O61  1  0.12141000  0.76921000  0.39316000  1.0
  O  O62  1  0.85105000  0.47709000  0.60237000  1.0
  O  O63  1  0.14894000  0.52290000  0.39763000  1.0
