# generated using pymatgen
data_AgH12C11S3N2O5F3
_symmetry_space_group_name_H-M   'P 1'
_cell_length_a   12.05550000
_cell_length_b   12.68881624
_cell_length_c   12.89700000
_cell_angle_alpha   89.99981523
_cell_angle_beta   89.99970000
_cell_angle_gamma   61.81599190
_symmetry_Int_Tables_number   1
_chemical_formula_structural   AgH12C11S3N2O5F3
_chemical_formula_sum   'Ag4 H48 C44 S12 N8 O20 F12'
_cell_volume   1738.94353509
_cell_formula_units_Z   4
loop_
 _symmetry_equiv_pos_site_id
 _symmetry_equiv_pos_as_xyz
  1  'x, y, z'
loop_
 _atom_site_type_symbol
 _atom_site_label
 _atom_site_symmetry_multiplicity
 _atom_site_fract_x
 _atom_site_fract_y
 _atom_site_fract_z
 _atom_site_occupancy
  Ag  Ag0  1  0.32498000  0.97789000  0.88771000  1.0
  Ag  Ag1  1  0.17502000  0.02211000  0.38771000  1.0
  Ag  Ag2  1  0.67500000  0.02212000  0.11229000  1.0
  Ag  Ag3  1  0.82499000  0.97789000  0.61229000  1.0
  H  H4  1  0.52252000  0.66044000  0.83860000  1.0
  H  H5  1  0.97747000  0.33957000  0.33861000  1.0
  H  H6  1  0.47748000  0.33956000  0.16140000  1.0
  H  H7  1  0.02253000  0.66044000  0.66139000  1.0
  H  H8  1  0.42427000  0.69006000  0.94897000  1.0
  H  H9  1  0.07573000  0.30994000  0.44898000  1.0
  H  H10  1  0.57573000  0.30994000  0.05103000  1.0
  H  H11  1  0.92427000  0.69006000  0.55102000  1.0
  H  H12  1  0.48863000  0.48316000  0.88074000  1.0
  H  H13  1  0.01137000  0.51684000  0.38074000  1.0
  H  H14  1  0.51138000  0.51683000  0.11926000  1.0
  H  H15  1  0.98863000  0.48317000  0.61926000  1.0
  H  H16  1  0.32118000  0.57873000  0.87328000  1.0
  H  H17  1  0.17882000  0.42127000  0.37328000  1.0
  H  H18  1  0.67882000  0.42127000  0.12672000  1.0
  H  H19  1  0.82118000  0.57873000  0.62672000  1.0
  H  H20  1  0.25889000  0.51981000  0.73491000  1.0
  H  H21  1  0.24111000  0.48019000  0.23491000  1.0
  H  H22  1  0.74111000  0.48019000  0.26509000  1.0
  H  H23  1  0.75890000  0.51981000  0.76509000  1.0
  H  H24  1  0.40708000  0.38557000  0.72606000  1.0
  H  H25  1  0.09292000  0.61443000  0.22606000  1.0
  H  H26  1  0.59292000  0.61443000  0.27394000  1.0
  H  H27  1  0.90709000  0.38557000  0.77394000  1.0
  H  H28  1  0.43996000  0.44930000  0.54941000  1.0
  H  H29  1  0.06005000  0.55070000  0.04941000  1.0
  H  H30  1  0.56005000  0.55070000  0.45059000  1.0
  H  H31  1  0.93996000  0.44930000  0.95059000  1.0
  H  H32  1  0.30833000  0.42195000  0.55870000  1.0
  H  H33  1  0.19167000  0.57805000  0.05870000  1.0
  H  H34  1  0.69167000  0.57805000  0.44130000  1.0
  H  H35  1  0.80835000  0.42194000  0.94130000  1.0
  H  H36  1  0.21456000  0.57993000  0.40039000  1.0
  H  H37  1  0.28544000  0.42007000  0.90038000  1.0
  H  H38  1  0.78544000  0.42007000  0.59962000  1.0
  H  H39  1  0.71456000  0.57993000  0.09962000  1.0
  H  H40  1  0.36720000  0.56752000  0.41212000  1.0
  H  H41  1  0.13280000  0.43248000  0.91212000  1.0
  H  H42  1  0.63280000  0.43248000  0.58788000  1.0
  H  H43  1  0.86720000  0.56752000  0.08788000  1.0
  H  H44  1  0.11422000  0.79900000  0.43933000  1.0
  H  H45  1  0.38577000  0.20100000  0.93934000  1.0
  H  H46  1  0.88578000  0.20100000  0.56067000  1.0
  H  H47  1  0.61422000  0.79900000  0.06067000  1.0
  H  H48  1  0.21772000  0.75827000  0.33067000  1.0
  H  H49  1  0.28227000  0.24173000  0.83067000  1.0
  H  H50  1  0.78228000  0.24173000  0.66933000  1.0
  H  H51  1  0.71772000  0.75827000  0.16933000  1.0
  C  C52  1  0.26186000  0.82887000  0.60021000  1.0
  C  C53  1  0.23813000  0.17113000  0.10021000  1.0
  C  C54  1  0.73815000  0.17113000  0.39979000  1.0
  C  C55  1  0.76186000  0.82887000  0.89979000  1.0
  C  C56  1  0.35017000  0.78664000  0.67770000  1.0
  C  C57  1  0.14982000  0.21335000  0.17770000  1.0
  C  C58  1  0.64983000  0.21336000  0.32230000  1.0
  C  C59  1  0.85016000  0.78665000  0.82230000  1.0
  C  C60  1  0.43162000  0.67052000  0.86562000  1.0
  C  C61  1  0.06837000  0.32949000  0.36562000  1.0
  C  C62  1  0.56838000  0.32948000  0.13438000  1.0
  C  C63  1  0.93162000  0.67052000  0.63438000  1.0
  C  C64  1  0.41314000  0.56280000  0.84269000  1.0
  C  C65  1  0.08687000  0.43720000  0.34269000  1.0
  C  C66  1  0.58687000  0.43720000  0.15731000  1.0
  C  C67  1  0.91314000  0.56280000  0.65731000  1.0
  C  C68  1  0.35409000  0.47976000  0.70061000  1.0
  C  C69  1  0.14591000  0.52024000  0.20061000  1.0
  C  C70  1  0.64591000  0.52024000  0.29939000  1.0
  C  C71  1  0.85409000  0.47976000  0.79939000  1.0
  C  C72  1  0.34548000  0.48247000  0.58401000  1.0
  C  C73  1  0.15452000  0.51753000  0.08401000  1.0
  C  C74  1  0.65452000  0.51753000  0.41599000  1.0
  C  C75  1  0.84549000  0.48247000  0.91599000  1.0
  C  C76  1  0.26961000  0.61645000  0.44119000  1.0
  C  C77  1  0.23039000  0.38355000  0.94119000  1.0
  C  C78  1  0.73039000  0.38355000  0.55881000  1.0
  C  C79  1  0.76961000  0.61645000  0.05881000  1.0
  C  C80  1  0.21293000  0.74790000  0.41481000  1.0
  C  C81  1  0.28707000  0.25209000  0.91481000  1.0
  C  C82  1  0.78707000  0.25210000  0.58519000  1.0
  C  C83  1  0.71294000  0.74790000  0.08519000  1.0
  C  C84  1  0.13264000  0.88481000  0.62405000  1.0
  C  C85  1  0.36735000  0.11519000  0.12405000  1.0
  C  C86  1  0.86736000  0.11519000  0.37594000  1.0
  C  C87  1  0.63264000  0.88481000  0.87595000  1.0
  C  C88  1  0.48030000  0.72909000  0.65400000  1.0
  C  C89  1  0.01969000  0.27091000  0.15400000  1.0
  C  C90  1  0.51970000  0.27091000  0.34600000  1.0
  C  C91  1  0.98029000  0.72910000  0.84599000  1.0
  C  C92  1  0.15496000  0.88529000  0.10362000  1.0
  C  C93  1  0.34503000  0.11471000  0.60361000  1.0
  C  C94  1  0.84503000  0.11471000  0.89638000  1.0
  C  C95  1  0.65497000  0.88529000  0.39639000  1.0
  S  S96  1  0.30495000  0.80467000  0.80843000  1.0
  S  S97  1  0.19503000  0.19534000  0.30843000  1.0
  S  S98  1  0.69505000  0.19533000  0.19157000  1.0
  S  S99  1  0.80496000  0.80467000  0.69156000  1.0
  S  S100  1  0.30310000  0.81817000  0.46781000  1.0
  S  S101  1  0.19690000  0.18183000  0.96781000  1.0
  S  S102  1  0.69691000  0.18183000  0.53219000  1.0
  S  S103  1  0.80310000  0.81817000  0.03219000  1.0
  S  S104  1  0.32156000  0.83170000  0.14582000  1.0
  S  S105  1  0.17844000  0.16830000  0.64581000  1.0
  S  S106  1  0.67844000  0.16830000  0.85418000  1.0
  S  S107  1  0.82156000  0.83170000  0.35418000  1.0
  N  N108  1  0.02422000  0.93138000  0.63818000  1.0
  N  N109  1  0.47577000  0.06862000  0.13818000  1.0
  N  N110  1  0.97578000  0.06862000  0.36182000  1.0
  N  N111  1  0.52422000  0.93138000  0.86182000  1.0
  N  N112  1  0.58893000  0.68134000  0.64017000  1.0
  N  N113  1  0.91107000  0.31867000  0.14018000  1.0
  N  N114  1  0.41108000  0.31866000  0.35983000  1.0
  N  N115  1  0.08892000  0.68134000  0.85982000  1.0
  O  O116  1  0.41733000  0.54523000  0.73323000  1.0
  O  O117  1  0.08267000  0.45477000  0.23323000  1.0
  O  O118  1  0.58267000  0.45477000  0.26677000  1.0
  O  O119  1  0.91733000  0.54523000  0.76677000  1.0
  O  O120  1  0.26543000  0.60240000  0.55031000  1.0
  O  O121  1  0.23458000  0.39759000  0.05031000  1.0
  O  O122  1  0.73457000  0.39760000  0.44970000  1.0
  O  O123  1  0.76543000  0.60240000  0.94969000  1.0
  O  O124  1  0.31173000  0.90838000  0.23372000  1.0
  O  O125  1  0.18828000  0.09162000  0.73372000  1.0
  O  O126  1  0.68827000  0.09162000  0.76628000  1.0
  O  O127  1  0.81172000  0.90838000  0.26628000  1.0
  O  O128  1  0.36300000  0.70681000  0.17084000  1.0
  O  O129  1  0.13701000  0.29319000  0.67083000  1.0
  O  O130  1  0.63700000  0.29319000  0.82916000  1.0
  O  O131  1  0.86300000  0.70681000  0.32917000  1.0
  O  O132  1  0.38124000  0.85200000  0.05426000  1.0
  O  O133  1  0.11876000  0.14800000  0.55426000  1.0
  O  O134  1  0.61876000  0.14800000  0.94574000  1.0
  O  O135  1  0.88124000  0.85200000  0.44574000  1.0
  F  F136  1  0.09694000  0.00408000  0.08085000  1.0
  F  F137  1  0.40306000  0.99592000  0.58084000  1.0
  F  F138  1  0.90307000  0.99591000  0.91915000  1.0
  F  F139  1  0.59694000  0.00408000  0.41916000  1.0
  F  F140  1  0.15167000  0.82514000  0.01750000  1.0
  F  F141  1  0.34833000  0.17486000  0.51749000  1.0
  F  F142  1  0.84833000  0.17485000  0.98251000  1.0
  F  F143  1  0.65167000  0.82514000  0.48251000  1.0
  F  F144  1  0.08718000  0.86708000  0.17886000  1.0
  F  F145  1  0.41283000  0.13291000  0.67884000  1.0
  F  F146  1  0.91283000  0.13291000  0.82115000  1.0
  F  F147  1  0.58717000  0.86709000  0.32116000  1.0
