# generated using pymatgen
data_Cd3H22C38(NO3)4
_symmetry_space_group_name_H-M   'P 1'
_cell_length_a   11.72630000
_cell_length_b   13.22940000
_cell_length_c   15.95870000
_cell_angle_alpha   71.36310000
_cell_angle_beta   68.45520000
_cell_angle_gamma   63.69670000
_symmetry_Int_Tables_number   1
_chemical_formula_structural   Cd3H22C38(NO3)4
_chemical_formula_sum   'Cd6 H44 C76 N8 O24'
_cell_volume   2027.45773506
_cell_formula_units_Z   2
loop_
 _symmetry_equiv_pos_site_id
 _symmetry_equiv_pos_as_xyz
  1  'x, y, z'
loop_
 _atom_site_type_symbol
 _atom_site_label
 _atom_site_symmetry_multiplicity
 _atom_site_fract_x
 _atom_site_fract_y
 _atom_site_fract_z
 _atom_site_occupancy
  Cd  Cd0  1  0.53427000  0.02630000  0.86833000  1.0
  Cd  Cd1  1  0.92896000  0.47370000  0.63164000  1.0
  Cd  Cd2  1  0.46573000  0.97370000  0.13167000  1.0
  Cd  Cd3  1  0.07104000  0.52630000  0.36836000  1.0
  Cd  Cd4  1  0.56379000  0.74986000  0.75003000  1.0
  Cd  Cd5  1  0.43621000  0.25014000  0.24997000  1.0
  H  H6  1  0.28050000  0.28165000  0.12215000  1.0
  H  H7  1  0.28635000  0.62300000  0.04814000  1.0
  H  H8  1  0.46093000  0.41182000  0.84423000  1.0
  H  H9  1  0.26197000  0.20787000  0.82880000  1.0
  H  H10  1  0.05411000  0.21522000  0.81506000  1.0
  H  H11  1  0.17330000  0.85251000  0.93774000  1.0
  H  H12  1  0.37223000  0.86175000  0.94492000  1.0
  H  H13  1  0.67306000  0.20245000  0.82443000  1.0
  H  H14  1  0.87722000  0.21594000  0.82422000  1.0
  H  H15  1  0.02769000  0.84523000  0.90698000  1.0
  H  H16  1  0.81546000  0.84936000  0.90563000  1.0
  H  H17  1  0.18446000  0.21851000  0.37785000  1.0
  H  H18  1  0.45761000  0.87714000  0.45186000  1.0
  H  H19  1  0.21712000  0.08822000  0.65584000  1.0
  H  H20  1  0.79881000  0.29217000  0.67122000  1.0
  H  H21  1  0.58458000  0.28467000  0.68503000  1.0
  H  H22  1  0.46342000  0.64736000  0.56239000  1.0
  H  H23  1  0.67879000  0.63828000  0.55500000  1.0
  H  H24  1  0.20009000  0.29740000  0.67549000  1.0
  H  H25  1  0.41751000  0.28393000  0.67575000  1.0
  H  H26  1  0.28002000  0.65464000  0.59305000  1.0
  H  H27  1  0.07064000  0.65049000  0.59441000  1.0
  H  H28  1  0.71950000  0.71835000  0.87785000  1.0
  H  H29  1  0.71365000  0.37700000  0.95186000  1.0
  H  H30  1  0.53907000  0.58818000  0.15577000  1.0
  H  H31  1  0.73803000  0.79213000  0.17120000  1.0
  H  H32  1  0.94590000  0.78478000  0.18493000  1.0
  H  H33  1  0.82670000  0.14749000  0.06227000  1.0
  H  H34  1  0.62777000  0.13825000  0.05509000  1.0
  H  H35  1  0.32694000  0.79755000  0.17557000  1.0
  H  H36  1  0.12278000  0.78406000  0.17577000  1.0
  H  H37  1  0.97231000  0.15477000  0.09302000  1.0
  H  H38  1  0.18454000  0.15064000  0.09437000  1.0
  H  H39  1  0.81554000  0.78149000  0.62215000  1.0
  H  H40  1  0.54239000  0.12286000  0.54814000  1.0
  H  H41  1  0.78287000  0.91178000  0.34416000  1.0
  H  H42  1  0.20119000  0.70783000  0.32878000  1.0
  H  H43  1  0.41542000  0.71533000  0.31497000  1.0
  H  H44  1  0.53658000  0.35264000  0.43761000  1.0
  H  H45  1  0.32121000  0.36172000  0.44500000  1.0
  H  H46  1  0.79991000  0.70260000  0.32450000  1.0
  H  H47  1  0.58249000  0.71607000  0.32425000  1.0
  H  H48  1  0.71998000  0.34536000  0.40695000  1.0
  H  H49  1  0.92937000  0.34951000  0.40559000  1.0
  C  C50  1  0.41368000  0.22508000  0.95083000  1.0
  C  C51  1  0.37016000  0.33640000  0.97951000  1.0
  C  C52  1  0.30412000  0.35169000  0.07019000  1.0
  C  C53  1  0.27003000  0.45651000  0.09422000  1.0
  C  C54  1  0.30748000  0.54363000  0.02847000  1.0
  C  C55  1  0.37905000  0.52627000  0.93907000  1.0
  C  C56  1  0.40643000  0.42419000  0.91428000  1.0
  C  C57  1  0.43785000  0.61018000  0.87155000  1.0
  C  C58  1  0.20248000  0.47482000  0.19078000  1.0
  C  C59  1  0.23719000  0.13133000  0.85157000  1.0
  C  C60  1  0.12088000  0.13446000  0.84476000  1.0
  C  C61  1  0.09341000  0.03338000  0.87469000  1.0
  C  C62  1  0.18553000  0.93469000  0.91254000  1.0
  C  C63  1  0.29929000  0.93877000  0.91714000  1.0
  C  C64  1  0.75506000  0.12538000  0.84191000  1.0
  C  C65  1  0.87001000  0.13187000  0.84221000  1.0
  C  C66  1  0.97222000  0.03099000  0.86761000  1.0
  C  C67  1  0.95252000  0.92738000  0.88843000  1.0
  C  C68  1  0.83429000  0.92842000  0.88704000  1.0
  C  C69  1  0.08978000  0.27495000  0.54928000  1.0
  C  C70  1  0.18644000  0.16373000  0.52050000  1.0
  C  C71  1  0.22629000  0.14852000  0.42979000  1.0
  C  C72  1  0.32102000  0.04370000  0.40575000  1.0
  C  C73  1  0.37984000  0.95657000  0.47151000  1.0
  C  C74  1  0.34474000  0.97388000  0.56094000  1.0
  C  C75  1  0.24523000  0.07592000  0.58575000  1.0
  C  C76  1  0.41979000  0.88978000  0.62849000  1.0
  C  C77  1  0.36818000  0.02535000  0.30920000  1.0
  C  C78  1  0.72020000  0.36867000  0.64848000  1.0
  C  C79  1  0.60023000  0.36544000  0.65536000  1.0
  C  C80  1  0.50154000  0.46646000  0.62548000  1.0
  C  C81  1  0.53270000  0.56521000  0.58759000  1.0
  C  C82  1  0.65515000  0.56124000  0.58287000  1.0
  C  C83  1  0.22250000  0.37446000  0.65805000  1.0
  C  C84  1  0.34421000  0.36799000  0.65781000  1.0
  C  C85  1  0.37092000  0.46885000  0.63250000  1.0
  C  C86  1  0.26847000  0.57247000  0.61162000  1.0
  C  C87  1  0.14991000  0.57141000  0.61301000  1.0
  C  C88  1  0.58632000  0.77492000  0.04917000  1.0
  C  C89  1  0.62984000  0.66360000  0.02049000  1.0
  C  C90  1  0.69588000  0.64831000  0.92981000  1.0
  C  C91  1  0.72997000  0.54349000  0.90578000  1.0
  C  C92  1  0.69252000  0.45637000  0.97153000  1.0
  C  C93  1  0.62095000  0.47373000  0.06093000  1.0
  C  C94  1  0.59356000  0.57582000  0.08572000  1.0
  C  C95  1  0.56215000  0.38983000  0.12845000  1.0
  C  C96  1  0.79752000  0.52518000  0.80922000  1.0
  C  C97  1  0.76281000  0.86867000  0.14843000  1.0
  C  C98  1  0.87913000  0.86554000  0.15524000  1.0
  C  C99  1  0.90659000  0.96662000  0.12531000  1.0
  C  C100  1  0.81447000  0.06531000  0.08746000  1.0
  C  C101  1  0.70071000  0.06123000  0.08286000  1.0
  C  C102  1  0.24494000  0.87461000  0.15809000  1.0
  C  C103  1  0.12999000  0.86813000  0.15779000  1.0
  C  C104  1  0.02778000  0.96901000  0.13239000  1.0
  C  C105  1  0.04748000  0.07262000  0.11157000  1.0
  C  C106  1  0.16571000  0.07158000  0.11296000  1.0
  C  C107  1  0.91022000  0.72505000  0.45072000  1.0
  C  C108  1  0.81356000  0.83626000  0.47950000  1.0
  C  C109  1  0.77371000  0.85148000  0.57021000  1.0
  C  C110  1  0.67898000  0.95630000  0.59425000  1.0
  C  C111  1  0.62016000  0.04343000  0.52849000  1.0
  C  C112  1  0.65525000  0.02612000  0.43906000  1.0
  C  C113  1  0.75477000  0.92408000  0.41425000  1.0
  C  C114  1  0.58021000  0.11022000  0.37151000  1.0
  C  C115  1  0.63182000  0.97465000  0.69080000  1.0
  C  C116  1  0.27980000  0.63132000  0.35152000  1.0
  C  C117  1  0.39977000  0.63456000  0.34464000  1.0
  C  C118  1  0.49846000  0.53354000  0.37452000  1.0
  C  C119  1  0.46730000  0.43479000  0.41241000  1.0
  C  C120  1  0.34486000  0.43876000  0.41713000  1.0
  C  C121  1  0.77751000  0.62553000  0.34195000  1.0
  C  C122  1  0.65579000  0.63201000  0.34219000  1.0
  C  C123  1  0.62908000  0.53115000  0.36750000  1.0
  C  C124  1  0.73153000  0.42753000  0.38838000  1.0
  C  C125  1  0.85009000  0.42859000  0.38699000  1.0
  N  N126  1  0.32592000  0.03492000  0.88645000  1.0
  N  N127  1  0.73582000  0.02586000  0.86508000  1.0
  N  N128  1  0.74731000  0.46514000  0.61354000  1.0
  N  N129  1  0.12689000  0.47400000  0.63495000  1.0
  N  N130  1  0.67408000  0.96508000  0.11355000  1.0
  N  N131  1  0.26418000  0.97414000  0.13492000  1.0
  N  N132  1  0.25269000  0.53486000  0.38646000  1.0
  N  N133  1  0.87311000  0.52600000  0.36505000  1.0
  O  O134  1  0.42204000  0.13314000  0.01131000  1.0
  O  O135  1  0.44536000  0.22568000  0.86527000  1.0
  O  O136  1  0.50756000  0.58662000  0.79241000  1.0
  O  O137  1  0.42146000  0.69931000  0.89652000  1.0
  O  O138  1  0.12961000  0.57572000  0.20515000  1.0
  O  O139  1  0.22067000  0.38747000  0.25745000  1.0
  O  O140  1  0.06659000  0.36694000  0.48884000  1.0
  O  O141  1  0.03645000  0.27427000  0.63483000  1.0
  O  O142  1  0.38661000  0.91305000  0.70776000  1.0
  O  O143  1  0.51754000  0.80073000  0.60342000  1.0
  O  O144  1  0.41046000  0.92443000  0.29488000  1.0
  O  O145  1  0.36565000  0.11266000  0.24251000  1.0
  O  O146  1  0.57796000  0.86686000  0.98869000  1.0
  O  O147  1  0.55464000  0.77432000  0.13473000  1.0
  O  O148  1  0.49244000  0.41338000  0.20759000  1.0
  O  O149  1  0.57854000  0.30070000  0.10348000  1.0
  O  O150  1  0.87039000  0.42428000  0.79485000  1.0
  O  O151  1  0.77933000  0.61253000  0.74255000  1.0
  O  O152  1  0.93341000  0.63306000  0.51116000  1.0
  O  O153  1  0.96355000  0.72573000  0.36517000  1.0
  O  O154  1  0.61339000  0.08695000  0.29224000  1.0
  O  O155  1  0.48246000  0.19927000  0.39658000  1.0
  O  O156  1  0.58954000  0.07557000  0.70512000  1.0
  O  O157  1  0.63435000  0.88734000  0.75749000  1.0
