# generated using pymatgen
data_CdH15C18(NO)5
_symmetry_space_group_name_H-M   'P 1'
_cell_length_a   10.14290000
_cell_length_b   11.17390000
_cell_length_c   11.45690000
_cell_angle_alpha   93.21130000
_cell_angle_beta   95.13650000
_cell_angle_gamma   109.79100000
_symmetry_Int_Tables_number   1
_chemical_formula_structural   CdH15C18(NO)5
_chemical_formula_sum   'Cd2 H30 C36 N10 O10'
_cell_volume   1211.69972118
_cell_formula_units_Z   2
loop_
 _symmetry_equiv_pos_site_id
 _symmetry_equiv_pos_as_xyz
  1  'x, y, z'
loop_
 _atom_site_type_symbol
 _atom_site_label
 _atom_site_symmetry_multiplicity
 _atom_site_fract_x
 _atom_site_fract_y
 _atom_site_fract_z
 _atom_site_occupancy
  Cd  Cd0  1  0.61048000  0.77471000  0.91060000  1.0
  Cd  Cd1  1  0.38952000  0.22529000  0.08940000  1.0
  H  H2  1  0.05177000  0.19531000  0.10922000  1.0
  H  H3  1  0.94823000  0.80469000  0.89078000  1.0
  H  H4  1  0.39072000  0.52571000  0.87561000  1.0
  H  H5  1  0.60928000  0.47429000  0.12439000  1.0
  H  H6  1  0.46505000  0.54421000  0.75746000  1.0
  H  H7  1  0.53495000  0.45579000  0.24254000  1.0
  H  H8  1  0.66569000  0.87898000  0.50876000  1.0
  H  H9  1  0.33431000  0.12102000  0.49125000  1.0
  H  H10  1  0.38788000  0.03097000  0.67835000  1.0
  H  H11  1  0.61212000  0.96903000  0.32165000  1.0
  H  H12  1  0.97026000  0.60825000  0.82130000  1.0
  H  H13  1  0.02974000  0.39175000  0.17869000  1.0
  H  H14  1  0.83463000  0.47867000  0.15204000  1.0
  H  H15  1  0.16536000  0.52133000  0.84795000  1.0
  H  H16  1  0.69490000  0.72837000  0.18199000  1.0
  H  H17  1  0.30510000  0.27163000  0.81801000  1.0
  H  H18  1  0.83501000  0.73410000  0.37426000  1.0
  H  H19  1  0.16499000  0.26590000  0.62574000  1.0
  H  H20  1  0.04772000  0.92019000  0.44609000  1.0
  H  H21  1  0.95228000  0.07981000  0.55391000  1.0
  H  H22  1  0.12616000  0.11064000  0.33153000  1.0
  H  H23  1  0.87384000  0.88936000  0.66848000  1.0
  H  H24  1  0.94427000  0.19340000  0.89678000  1.0
  H  H25  1  0.05573000  0.80660000  0.10322000  1.0
  H  H26  1  0.81179000  0.04911000  0.83318000  1.0
  H  H27  1  0.18821000  0.95089000  0.16682000  1.0
  H  H28  1  0.63842000  0.11205000  0.07241000  1.0
  H  H29  1  0.36158000  0.88795000  0.92759000  1.0
  H  H30  1  0.56338000  0.34370000  0.81714000  1.0
  H  H31  1  0.43662000  0.65630000  0.18286000  1.0
  C  C32  1  0.56161000  0.89675000  0.71617000  1.0
  C  C33  1  0.43839000  0.10324000  0.28383000  1.0
  C  C34  1  0.59351000  0.93241000  0.50405000  1.0
  C  C35  1  0.40650000  0.06759000  0.49595000  1.0
  C  C36  1  0.53007000  0.94996000  0.60442000  1.0
  C  C37  1  0.46993000  0.05004000  0.39558000  1.0
  C  C38  1  0.43629000  0.01789000  0.59968000  1.0
  C  C39  1  0.56371000  0.98211000  0.40032000  1.0
  C  C40  1  0.77629000  0.60665000  0.96930000  1.0
  C  C41  1  0.22371000  0.39336000  0.03070000  1.0
  C  C42  1  0.98459000  0.56172000  0.90010000  1.0
  C  C43  1  0.01541000  0.43828000  0.09990000  1.0
  C  C44  1  0.89064000  0.55023000  0.98521000  1.0
  C  C45  1  0.10935000  0.44977000  0.01479000  1.0
  C  C46  1  0.90684000  0.48777000  0.08545000  1.0
  C  C47  1  0.09316000  0.51223000  0.91454000  1.0
  C  C48  1  0.82967000  0.91821000  0.15069000  1.0
  C  C49  1  0.17033000  0.08179000  0.84931000  1.0
  C  C50  1  0.78545000  0.81204000  0.21592000  1.0
  C  C51  1  0.21455000  0.18796000  0.78408000  1.0
  C  C52  1  0.86532000  0.81597000  0.32224000  1.0
  C  C53  1  0.13468000  0.18403000  0.67775000  1.0
  C  C54  1  0.98629000  0.92259000  0.36379000  1.0
  C  C55  1  0.01371000  0.07741000  0.63620000  1.0
  C  C56  1  0.02999000  0.03022000  0.30177000  1.0
  C  C57  1  0.97001000  0.96978000  0.69824000  1.0
  C  C58  1  0.94928000  0.02602000  0.19500000  1.0
  C  C59  1  0.05072000  0.97398000  0.80501000  1.0
  C  C60  1  0.86193000  0.05520000  0.01879000  1.0
  C  C61  1  0.13807000  0.94480000  0.98121000  1.0
  C  C62  1  0.84483000  0.11940000  0.91050000  1.0
  C  C63  1  0.15517000  0.88060000  0.08950000  1.0
  C  C64  1  0.64570000  0.16716000  0.99673000  1.0
  C  C65  1  0.35430000  0.83284000  0.00327000  1.0
  C  C66  1  0.60838000  0.28346000  0.86569000  1.0
  C  C67  1  0.39162000  0.71655000  0.13431000  1.0
  N  N68  1  0.77805000  0.93941000  0.04013000  1.0
  N  N69  1  0.22195000  0.06059000  0.95987000  1.0
  N  N70  1  0.96511000  0.11092000  0.10961000  1.0
  N  N71  1  0.03489000  0.88908000  0.89039000  1.0
  N  N72  1  0.56150000  0.23275000  0.96627000  1.0
  N  N73  1  0.43850000  0.76725000  0.03373000  1.0
  N  N74  1  0.71626000  0.25338000  0.83259000  1.0
  N  N75  1  0.28374000  0.74663000  0.16741000  1.0
  N  N76  1  0.73832000  0.18003000  0.91785000  1.0
  N  N77  1  0.26168000  0.81997000  0.08215000  1.0
  O  O78  1  0.50904000  0.92065000  0.80776000  1.0
  O  O79  1  0.49096000  0.07935000  0.19224000  1.0
  O  O80  1  0.64176000  0.82910000  0.71699000  1.0
  O  O81  1  0.35824000  0.17090000  0.28301000  1.0
  O  O82  1  0.79193000  0.69196000  0.89527000  1.0
  O  O83  1  0.20807000  0.30804000  0.10473000  1.0
  O  O84  1  0.67076000  0.57380000  0.02643000  1.0
  O  O85  1  0.32924000  0.42621000  0.97357000  1.0
  O  O86  1  0.42808000  0.58718000  0.81542000  1.0
  O  O87  1  0.57192000  0.41282000  0.18457000  1.0
