# generated using pymatgen
data_AlH7C13NO5F
_symmetry_space_group_name_H-M   'P 1'
_cell_length_a   6.59906000
_cell_length_b   11.02150000
_cell_length_c   17.06550000
_cell_angle_alpha   80.70270000
_cell_angle_beta   80.49600000
_cell_angle_gamma   74.36500000
_symmetry_Int_Tables_number   1
_chemical_formula_structural   AlH7C13NO5F
_chemical_formula_sum   'Al2 H14 C26 N2 O10 F2'
_cell_volume   1169.87953508
_cell_formula_units_Z   2
loop_
 _symmetry_equiv_pos_site_id
 _symmetry_equiv_pos_as_xyz
  1  'x, y, z'
loop_
 _atom_site_type_symbol
 _atom_site_label
 _atom_site_symmetry_multiplicity
 _atom_site_fract_x
 _atom_site_fract_y
 _atom_site_fract_z
 _atom_site_occupancy
  Al  Al0  1  0.49599000  0.50106000  0.49749000  1.0
  Al  Al1  1  0.99508000  0.50277000  0.49734000  1.0
  H  H2  1  0.20005000  0.65561000  0.44250000  1.0
  H  H3  1  0.80688000  0.34342000  0.53709000  1.0
  H  H4  1  0.81476000  0.56777000  0.73736000  1.0
  H  H5  1  0.76680000  0.56867000  0.88665000  1.0
  H  H6  1  0.43645000  0.40811000  0.88922000  1.0
  H  H7  1  0.48570000  0.41174000  0.73895000  1.0
  H  H8  1  0.55816000  0.59170000  0.10562000  1.0
  H  H9  1  0.22708000  0.43004000  0.11011000  1.0
  H  H10  1  0.17633000  0.43236000  0.25934000  1.0
  H  H11  1  0.50642000  0.58994000  0.25575000  1.0
  H  H12  1  0.88059000  0.75982000  0.60172000  1.0
  H  H13  1  0.03538000  0.87209000  0.68049000  1.0
  H  H14  1  0.60838000  0.22677000  0.60525000  1.0
  H  H15  1  0.89613000  0.10654000  0.68333000  1.0
  C  C16  1  0.62954000  0.72538000  0.50722000  1.0
  C  C17  1  0.80967000  0.51354000  0.35391000  1.0
  C  C18  1  0.35745000  0.27597000  0.49594000  1.0
  C  C19  1  0.18070000  0.48930000  0.64154000  1.0
  C  C20  1  0.15290000  0.48931000  0.72992000  1.0
  C  C21  1  0.94957000  0.53347000  0.77131000  1.0
  C  C22  1  0.92241000  0.53363000  0.85359000  1.0
  C  C23  1  0.09953000  0.48728000  0.89593000  1.0
  C  C24  1  0.30265000  0.44332000  0.85472000  1.0
  C  C25  1  0.32940000  0.44491000  0.77205000  1.0
  C  C26  1  0.69117000  0.55661000  0.14050000  1.0
  C  C27  1  0.89482000  0.51198000  0.09986000  1.0
  C  C28  1  0.07109000  0.46575000  0.14267000  1.0
  C  C29  1  0.04255000  0.46688000  0.22487000  1.0
  C  C30  1  0.83870000  0.51197000  0.26560000  1.0
  C  C31  1  0.66300000  0.55599000  0.22310000  1.0
  C  C32  1  0.56142000  0.86568000  0.50967000  1.0
  C  C33  1  0.65958000  0.92929000  0.55378000  1.0
  C  C34  1  0.39704000  0.93560000  0.46797000  1.0
  C  C35  1  0.82307000  0.86220000  0.60084000  1.0
  C  C36  1  0.90931000  0.92529000  0.64513000  1.0
  C  C37  1  0.42273000  0.13407000  0.50499000  1.0
  C  C38  1  0.32942000  0.06885000  0.46494000  1.0
  C  C39  1  0.58583000  0.06469000  0.55279000  1.0
  C  C40  1  0.67271000  0.12558000  0.60165000  1.0
  C  C41  1  0.83192000  0.05761000  0.64635000  1.0
  N  N42  1  0.09041000  0.48135000  0.97974000  1.0
  N  N43  1  0.90496000  0.51744000  0.01613000  1.0
  O  O44  1  0.48394000  0.66652000  0.52207000  1.0
  O  O45  1  0.97661000  0.49128000  0.38775000  1.0
  O  O46  1  0.16063000  0.32876000  0.50855000  1.0
  O  O47  1  0.37040000  0.46105000  0.60615000  1.0
  O  O48  1  0.50559000  0.33290000  0.47737000  1.0
  O  O49  1  0.01317000  0.51591000  0.60748000  1.0
  O  O50  1  0.82614000  0.67570000  0.48943000  1.0
  O  O51  1  0.61958000  0.53886000  0.38923000  1.0
  O  O52  1  0.23151000  0.56620000  0.46312000  1.0
  O  O53  1  0.76108000  0.43553000  0.53210000  1.0
  F  F54  1  0.17703000  0.13008000  0.41829000  1.0
  F  F55  1  0.30088000  0.88044000  0.42437000  1.0
