# generated using pymatgen
data_CdH16C16(N3O4)2
_symmetry_space_group_name_H-M   'P 1'
_cell_length_a   7.39890000
_cell_length_b   7.66061000
_cell_length_c   8.98535000
_cell_angle_alpha   81.11130000
_cell_angle_beta   80.02470000
_cell_angle_gamma   64.09220000
_symmetry_Int_Tables_number   1
_chemical_formula_structural   CdH16C16(N3O4)2
_chemical_formula_sum   'Cd1 H16 C16 N6 O8'
_cell_volume   449.39070424
_cell_formula_units_Z   1
loop_
 _symmetry_equiv_pos_site_id
 _symmetry_equiv_pos_as_xyz
  1  'x, y, z'
loop_
 _atom_site_type_symbol
 _atom_site_label
 _atom_site_symmetry_multiplicity
 _atom_site_fract_x
 _atom_site_fract_y
 _atom_site_fract_z
 _atom_site_occupancy
  Cd  Cd0  1  0.00000000  0.00000000  0.00000000  1.0
  H  H1  1  0.98614000  0.80422000  0.71278000  1.0
  H  H2  1  0.01386000  0.19578000  0.28722000  1.0
  H  H3  1  0.11222000  0.47807000  0.61616000  1.0
  H  H4  1  0.88778000  0.52193000  0.38384000  1.0
  H  H5  1  0.43341000  0.23107000  0.01102000  1.0
  H  H6  1  0.56659000  0.76892000  0.98898000  1.0
  H  H7  1  0.29442000  0.56789000  0.09118000  1.0
  H  H8  1  0.70559000  0.43211000  0.90882000  1.0
  H  H9  1  0.70301000  0.09811000  0.51103000  1.0
  H  H10  1  0.29699000  0.90189000  0.48897000  1.0
  H  H11  1  0.47971000  0.31444000  0.54988000  1.0
  H  H12  1  0.52029000  0.68556000  0.45013000  1.0
  H  H13  1  0.29875000  0.22606000  0.38712000  1.0
  H  H14  1  0.70125000  0.77394000  0.61289000  1.0
  H  H15  1  0.52788000  0.22418000  0.28241000  1.0
  H  H16  1  0.47212000  0.77582000  0.71760000  1.0
  C  C17  1  0.08376000  0.67276000  0.77609000  1.0
  C  C18  1  0.91623000  0.32724000  0.22391000  1.0
  C  C19  1  0.15566000  0.48978000  0.72265000  1.0
  C  C20  1  0.84434000  0.51022000  0.27735000  1.0
  C  C21  1  0.28134000  0.32669000  0.80861000  1.0
  C  C22  1  0.71866000  0.67331000  0.19140000  1.0
  C  C23  1  0.33254000  0.35456000  0.94311000  1.0
  C  C24  1  0.66745000  0.64545000  0.05689000  1.0
  C  C25  1  0.25590000  0.54137000  0.98775000  1.0
  C  C26  1  0.74410000  0.45863000  0.01225000  1.0
  C  C27  1  0.35264000  0.11877000  0.77729000  1.0
  C  C28  1  0.64736000  0.88123000  0.22272000  1.0
  C  C29  1  0.53678000  0.16307000  0.52477000  1.0
  C  C30  1  0.46322000  0.83693000  0.47523000  1.0
  C  C31  1  0.46471000  0.15320000  0.37810000  1.0
  C  C32  1  0.53529000  0.84680000  0.62190000  1.0
  N  N33  1  0.13105000  0.69840000  0.90672000  1.0
  N  N34  1  0.86895000  0.30160000  0.09328000  1.0
  N  N35  1  0.46935000  0.05044000  0.64940000  1.0
  N  N36  1  0.53064000  0.94956000  0.35060000  1.0
  N  N37  1  0.14153000  0.75431000  0.32475000  1.0
  N  N38  1  0.85847000  0.24569000  0.67525000  1.0
  O  O39  1  0.30668000  0.00853000  0.88123000  1.0
  O  O40  1  0.69332000  0.99146000  0.11877000  1.0
  O  O41  1  0.19119000  0.85467000  0.20845000  1.0
  O  O42  1  0.80880000  0.14534000  0.79155000  1.0
  O  O43  1  0.26528000  0.58168000  0.35517000  1.0
  O  O44  1  0.73473000  0.41832000  0.64482000  1.0
  O  O45  1  0.97378000  0.83131000  0.40396000  1.0
  O  O46  1  0.02622000  0.16869000  0.59604000  1.0
