# generated using pymatgen
data_LiH5C5NCl
_symmetry_space_group_name_H-M   'P 1'
_cell_length_a   3.88828000
_cell_length_b   8.55887000
_cell_length_c   17.55830000
_cell_angle_alpha   90.00000000
_cell_angle_beta   89.99990000
_cell_angle_gamma   89.99990000
_symmetry_Int_Tables_number   1
_chemical_formula_structural   LiH5C5NCl
_chemical_formula_sum   'Li4 H20 C20 N4 Cl4'
_cell_volume   584.32763546
_cell_formula_units_Z   4
loop_
 _symmetry_equiv_pos_site_id
 _symmetry_equiv_pos_as_xyz
  1  'x, y, z'
loop_
 _atom_site_type_symbol
 _atom_site_label
 _atom_site_symmetry_multiplicity
 _atom_site_fract_x
 _atom_site_fract_y
 _atom_site_fract_z
 _atom_site_occupancy
  Li  Li0  1  0.53600000  0.69818000  0.44249000  1.0
  Li  Li1  1  0.96400000  0.30182000  0.94249000  1.0
  Li  Li2  1  0.46400000  0.19818000  0.05751000  1.0
  Li  Li3  1  0.03600000  0.80181000  0.55751000  1.0
  H  H4  1  0.82151000  0.58227000  0.29573000  1.0
  H  H5  1  0.67849000  0.41773000  0.79573000  1.0
  H  H6  1  0.17849000  0.08227000  0.20427000  1.0
  H  H7  1  0.32152000  0.91773000  0.70427000  1.0
  H  H8  1  0.89204000  0.32605000  0.22899000  1.0
  H  H9  1  0.60796000  0.67395000  0.72900000  1.0
  H  H10  1  0.10796000  0.82605000  0.27101000  1.0
  H  H11  1  0.39204000  0.17396000  0.77100000  1.0
  H  H12  1  0.69366000  0.08066000  0.29697000  1.0
  H  H13  1  0.80634000  0.91934000  0.79697000  1.0
  H  H14  1  0.30634000  0.58066000  0.20304000  1.0
  H  H15  1  0.19366000  0.41934000  0.70303000  1.0
  H  H16  1  0.40607000  0.10671000  0.42290000  1.0
  H  H17  1  0.09392000  0.89329000  0.92290000  1.0
  H  H18  1  0.59393000  0.60671000  0.07710000  1.0
  H  H19  1  0.90607000  0.39329000  0.57709000  1.0
  H  H20  1  0.35095000  0.37498000  0.48094000  1.0
  H  H21  1  0.14904000  0.62502000  0.98094000  1.0
  H  H22  1  0.64905000  0.87498000  0.01906000  1.0
  H  H23  1  0.85095000  0.12502000  0.51906000  1.0
  C  C24  1  0.73222000  0.47388000  0.32190000  1.0
  C  C25  1  0.76778000  0.52612000  0.82190000  1.0
  C  C26  1  0.26778000  0.97388000  0.17810000  1.0
  C  C27  1  0.23222000  0.02612000  0.67810000  1.0
  C  C28  1  0.77406000  0.33057000  0.28531000  1.0
  C  C29  1  0.72594000  0.66943000  0.78531000  1.0
  C  C30  1  0.22594000  0.83057000  0.21469000  1.0
  C  C31  1  0.27406000  0.16943000  0.71469000  1.0
  C  C32  1  0.66113000  0.19587000  0.32241000  1.0
  C  C33  1  0.83886000  0.80412000  0.82241000  1.0
  C  C34  1  0.33887000  0.69588000  0.17759000  1.0
  C  C35  1  0.16113000  0.30413000  0.67758000  1.0
  C  C36  1  0.50403000  0.20970000  0.39350000  1.0
  C  C37  1  0.99597000  0.79030000  0.89350000  1.0
  C  C38  1  0.49598000  0.70970000  0.10650000  1.0
  C  C39  1  0.00404000  0.29031000  0.60650000  1.0
  C  C40  1  0.47033000  0.35797000  0.42531000  1.0
  C  C41  1  0.02966000  0.64204000  0.92531000  1.0
  C  C42  1  0.52966000  0.85796000  0.07469000  1.0
  C  C43  1  0.97034000  0.14203000  0.57469000  1.0
  N  N44  1  0.58329000  0.48867000  0.39068000  1.0
  N  N45  1  0.91670000  0.51133000  0.89069000  1.0
  N  N46  1  0.41671000  0.98867000  0.10932000  1.0
  N  N47  1  0.08330000  0.01133000  0.60932000  1.0
  Cl  Cl48  1  0.53399000  0.65714000  0.57747000  1.0
  Cl  Cl49  1  0.96602000  0.34286000  0.07747000  1.0
  Cl  Cl50  1  0.46602000  0.15714000  0.92253000  1.0
  Cl  Cl51  1  0.03398000  0.84286000  0.42253000  1.0
