# generated using pymatgen
data_CdH8C14N2O9
_symmetry_space_group_name_H-M   'P 1'
_cell_length_a   6.88117000
_cell_length_b   11.26080000
_cell_length_c   17.93400000
_cell_angle_alpha   90.00020000
_cell_angle_beta   90.00020000
_cell_angle_gamma   89.99990000
_symmetry_Int_Tables_number   1
_chemical_formula_structural   CdH8C14N2O9
_chemical_formula_sum   'Cd4 H32 C56 N8 O36'
_cell_volume   1389.66045081
_cell_formula_units_Z   4
loop_
 _symmetry_equiv_pos_site_id
 _symmetry_equiv_pos_as_xyz
  1  'x, y, z'
loop_
 _atom_site_type_symbol
 _atom_site_label
 _atom_site_symmetry_multiplicity
 _atom_site_fract_x
 _atom_site_fract_y
 _atom_site_fract_z
 _atom_site_occupancy
  Cd  Cd0  1  0.32128000  0.18391000  0.40961000  1.0
  Cd  Cd1  1  0.67872000  0.81609000  0.90961000  1.0
  Cd  Cd2  1  0.82128000  0.81609000  0.40961000  1.0
  Cd  Cd3  1  0.17872000  0.18391000  0.90961000  1.0
  H  H4  1  0.67127000  0.25648000  0.48220000  1.0
  H  H5  1  0.32873000  0.74352000  0.98220000  1.0
  H  H6  1  0.17127000  0.74352000  0.48220000  1.0
  H  H7  1  0.82873000  0.25648000  0.98220000  1.0
  H  H8  1  0.70702000  0.12299000  0.45890000  1.0
  H  H9  1  0.29298000  0.87701000  0.95890000  1.0
  H  H10  1  0.20702000  0.87701000  0.45890000  1.0
  H  H11  1  0.79298000  0.12299000  0.95890000  1.0
  H  H12  1  0.21220000  0.33879000  0.04849000  1.0
  H  H13  1  0.78780000  0.66121000  0.54849000  1.0
  H  H14  1  0.71220000  0.66121000  0.04849000  1.0
  H  H15  1  0.28780000  0.33879000  0.54849000  1.0
  H  H16  1  0.65022000  0.43819000  0.03118000  1.0
  H  H17  1  0.34978000  0.56182000  0.53118000  1.0
  H  H18  1  0.15023000  0.56181000  0.03118000  1.0
  H  H19  1  0.84977000  0.43818000  0.53118000  1.0
  H  H20  1  0.41783000  0.83813000  0.20992000  1.0
  H  H21  1  0.58217000  0.16187000  0.70992000  1.0
  H  H22  1  0.91784000  0.16187000  0.20992000  1.0
  H  H23  1  0.08217000  0.83813000  0.70992000  1.0
  H  H24  1  0.36065000  0.96463000  0.09699000  1.0
  H  H25  1  0.63935000  0.03537000  0.59700000  1.0
  H  H26  1  0.86065000  0.03537000  0.09699000  1.0
  H  H27  1  0.13935000  0.96463000  0.59699000  1.0
  H  H28  1  0.54086000  0.58916000  0.19039000  1.0
  H  H29  1  0.45914000  0.41084000  0.69039000  1.0
  H  H30  1  0.04086000  0.41084000  0.19039000  1.0
  H  H31  1  0.95914000  0.58916000  0.69039000  1.0
  H  H32  1  0.41493000  0.63539000  0.31988000  1.0
  H  H33  1  0.58506000  0.36461000  0.81988000  1.0
  H  H34  1  0.91494000  0.36461000  0.31988000  1.0
  H  H35  1  0.08507000  0.63539000  0.81988000  1.0
  C  C36  1  0.42395000  0.92350000  0.35551000  1.0
  C  C37  1  0.57605000  0.07650000  0.85551000  1.0
  C  C38  1  0.92395000  0.07650000  0.35551000  1.0
  C  C39  1  0.07605000  0.92350000  0.85551000  1.0
  C  C40  1  0.42338000  0.99149000  0.28292000  1.0
  C  C41  1  0.57662000  0.00851000  0.78292000  1.0
  C  C42  1  0.92339000  0.00851000  0.28292000  1.0
  C  C43  1  0.07662000  0.99149000  0.78292000  1.0
  C  C44  1  0.41342000  0.93443000  0.21406000  1.0
  C  C45  1  0.58658000  0.06557000  0.71407000  1.0
  C  C46  1  0.91343000  0.06556000  0.21406000  1.0
  C  C47  1  0.08657000  0.93443000  0.71406000  1.0
  C  C48  1  0.38271000  0.00496000  0.15168000  1.0
  C  C49  1  0.61729000  0.99504000  0.65168000  1.0
  C  C50  1  0.88271000  0.99504000  0.15168000  1.0
  C  C51  1  0.11729000  0.00496000  0.65168000  1.0
  C  C52  1  0.37385000  0.12908000  0.15813000  1.0
  C  C53  1  0.62615000  0.87092000  0.65814000  1.0
  C  C54  1  0.87385000  0.87092000  0.15814000  1.0
  C  C55  1  0.12615000  0.12908000  0.65813000  1.0
  C  C56  1  0.40777000  0.18096000  0.22909000  1.0
  C  C57  1  0.59223000  0.81904000  0.72910000  1.0
  C  C58  1  0.90777000  0.81904000  0.22910000  1.0
  C  C59  1  0.09222000  0.18096000  0.72909000  1.0
  C  C60  1  0.42412000  0.31062000  0.24878000  1.0
  C  C61  1  0.57589000  0.68938000  0.74878000  1.0
  C  C62  1  0.92411000  0.68938000  0.24878000  1.0
  C  C63  1  0.07589000  0.31062000  0.74877000  1.0
  C  C64  1  0.49907000  0.40117000  0.20255000  1.0
  C  C65  1  0.50093000  0.59883000  0.70254000  1.0
  C  C66  1  0.99907000  0.59883000  0.20254000  1.0
  C  C67  1  0.00093000  0.40117000  0.70254000  1.0
  C  C68  1  0.48864000  0.51897000  0.22713000  1.0
  C  C69  1  0.51136000  0.48103000  0.72713000  1.0
  C  C70  1  0.98864000  0.48103000  0.22713000  1.0
  C  C71  1  0.01136000  0.51897000  0.72713000  1.0
  C  C72  1  0.42008000  0.54489000  0.29830000  1.0
  C  C73  1  0.57992000  0.45511000  0.79830000  1.0
  C  C74  1  0.92008000  0.45511000  0.29831000  1.0
  C  C75  1  0.07992000  0.54489000  0.79831000  1.0
  C  C76  1  0.36686000  0.44948000  0.34351000  1.0
  C  C77  1  0.63314000  0.55052000  0.84351000  1.0
  C  C78  1  0.86686000  0.55051000  0.34351000  1.0
  C  C79  1  0.13314000  0.44948000  0.84351000  1.0
  C  C80  1  0.31413000  0.46674000  0.42476000  1.0
  C  C81  1  0.68587000  0.53326000  0.92476000  1.0
  C  C82  1  0.81412000  0.53326000  0.42476000  1.0
  C  C83  1  0.18588000  0.46674000  0.92476000  1.0
  C  C84  1  0.60546000  0.37472000  0.13170000  1.0
  C  C85  1  0.39454000  0.62528000  0.63170000  1.0
  C  C86  1  0.10545000  0.62527000  0.13170000  1.0
  C  C87  1  0.89455000  0.37472000  0.63170000  1.0
  C  C88  1  0.31535000  0.19229000  0.08834000  1.0
  C  C89  1  0.68465000  0.80771000  0.58834000  1.0
  C  C90  1  0.81535000  0.80771000  0.08834000  1.0
  C  C91  1  0.18465000  0.19229000  0.58834000  1.0
  N  N92  1  0.42388000  0.10998000  0.28894000  1.0
  N  N93  1  0.57613000  0.89002000  0.78895000  1.0
  N  N94  1  0.92387000  0.89002000  0.28895000  1.0
  N  N95  1  0.07613000  0.10998000  0.78895000  1.0
  N  N96  1  0.36551000  0.33755000  0.31815000  1.0
  N  N97  1  0.63449000  0.66244000  0.81816000  1.0
  N  N98  1  0.86550000  0.66244000  0.31815000  1.0
  N  N99  1  0.13450000  0.33755000  0.81815000  1.0
  O  O100  1  0.60697000  0.17935000  0.47856000  1.0
  O  O101  1  0.39302000  0.82065000  0.97856000  1.0
  O  O102  1  0.10698000  0.82065000  0.47856000  1.0
  O  O103  1  0.89302000  0.17935000  0.97856000  1.0
  O  O104  1  0.34210000  0.97410000  0.41099000  1.0
  O  O105  1  0.65789000  0.02590000  0.91100000  1.0
  O  O106  1  0.84209000  0.02591000  0.41100000  1.0
  O  O107  1  0.15790000  0.97409000  0.91099000  1.0
  O  O108  1  0.50082000  0.82174000  0.35566000  1.0
  O  O109  1  0.49918000  0.17826000  0.85566000  1.0
  O  O110  1  0.00082000  0.17826000  0.35566000  1.0
  O  O111  1  0.99918000  0.82174000  0.85566000  1.0
  O  O112  1  0.33860000  0.14432000  0.02685000  1.0
  O  O113  1  0.66141000  0.85569000  0.52685000  1.0
  O  O114  1  0.83859000  0.85568000  0.02685000  1.0
  O  O115  1  0.16140000  0.14431000  0.52685000  1.0
  O  O116  1  0.23305000  0.29707000  0.09888000  1.0
  O  O117  1  0.76695000  0.70293000  0.59888000  1.0
  O  O118  1  0.73305000  0.70294000  0.09888000  1.0
  O  O119  1  0.26695000  0.29707000  0.59888000  1.0
  O  O120  1  0.70838000  0.28591000  0.12448000  1.0
  O  O121  1  0.29163000  0.71410000  0.62447000  1.0
  O  O122  1  0.20839000  0.71411000  0.12447000  1.0
  O  O123  1  0.79161000  0.28589000  0.62447000  1.0
  O  O124  1  0.57989000  0.45803000  0.08087000  1.0
  O  O125  1  0.42011000  0.54197000  0.58087000  1.0
  O  O126  1  0.07989000  0.54197000  0.08087000  1.0
  O  O127  1  0.92011000  0.45802000  0.58087000  1.0
  O  O128  1  0.29371000  0.57143000  0.44876000  1.0
  O  O129  1  0.70628000  0.42857000  0.94876000  1.0
  O  O130  1  0.79369000  0.42857000  0.44876000  1.0
  O  O131  1  0.20631000  0.57143000  0.94876000  1.0
  O  O132  1  0.29986000  0.37288000  0.46436000  1.0
  O  O133  1  0.70014000  0.62712000  0.96436000  1.0
  O  O134  1  0.79986000  0.62712000  0.46436000  1.0
  O  O135  1  0.20014000  0.37288000  0.96436000  1.0
