# generated using pymatgen
data_Mn3H20C24(NO)10
_symmetry_space_group_name_H-M   'P 1'
_cell_length_a   6.62485000
_cell_length_b   9.90281000
_cell_length_c   11.34050000
_cell_angle_alpha   74.29900000
_cell_angle_beta   74.47840000
_cell_angle_gamma   88.49420000
_symmetry_Int_Tables_number   1
_chemical_formula_structural   Mn3H20C24(NO)10
_chemical_formula_sum   'Mn3 H20 C24 N10 O10'
_cell_volume   689.25345342
_cell_formula_units_Z   1
loop_
 _symmetry_equiv_pos_site_id
 _symmetry_equiv_pos_as_xyz
  1  'x, y, z'
loop_
 _atom_site_type_symbol
 _atom_site_label
 _atom_site_symmetry_multiplicity
 _atom_site_fract_x
 _atom_site_fract_y
 _atom_site_fract_z
 _atom_site_occupancy
  Mn  Mn0  1  0.51344000  0.99580000  0.99856000  1.0
  Mn  Mn1  1  0.77035000  0.17594000  0.18926000  1.0
  Mn  Mn2  1  0.23458000  0.83027000  0.81999000  1.0
  H  H3  1  0.83696000  0.92963000  0.14032000  1.0
  H  H4  1  0.13538000  0.07560000  0.87106000  1.0
  H  H5  1  0.04402000  0.01059000  0.12767000  1.0
  H  H6  1  0.96189000  0.04118000  0.80835000  1.0
  H  H7  1  0.18511000  0.52071000  0.99430000  1.0
  H  H8  1  0.83042000  0.47020000  0.01604000  1.0
  H  H9  1  0.53409000  0.69853000  0.62349000  1.0
  H  H10  1  0.46406000  0.27719000  0.38183000  1.0
  H  H11  1  0.59801000  0.46099000  0.58342000  1.0
  H  H12  1  0.38053000  0.50915000  0.42528000  1.0
  H  H13  1  0.43726000  0.24704000  0.75887000  1.0
  H  H14  1  0.53714000  0.73041000  0.25474000  1.0
  H  H15  1  0.33505000  0.00576000  0.53778000  1.0
  H  H16  1  0.68174000  0.99550000  0.46157000  1.0
  H  H17  1  0.92424000  0.66248000  0.73883000  1.0
  H  H18  1  0.04761000  0.35904000  0.24924000  1.0
  H  H19  1  0.89187000  0.61640000  0.53780000  1.0
  H  H20  1  0.09023000  0.41013000  0.44259000  1.0
  H  H21  1  0.10047000  0.77188000  0.32791000  1.0
  H  H22  1  0.91153000  0.24871000  0.65828000  1.0
  C  C23  1  0.18343000  0.24648000  0.99263000  1.0
  C  C24  1  0.80312000  0.74074000  0.02156000  1.0
  C  C25  1  0.29912000  0.36738000  0.89077000  1.0
  C  C26  1  0.69463000  0.61463000  0.12354000  1.0
  C  C27  1  0.27637000  0.50389000  0.90459000  1.0
  C  C28  1  0.73110000  0.48131000  0.10573000  1.0
  C  C29  1  0.47106000  0.60190000  0.69712000  1.0
  C  C30  1  0.52682000  0.37511000  0.31054000  1.0
  C  C31  1  0.50475000  0.47035000  0.67566000  1.0
  C  C32  1  0.48149000  0.50463000  0.33337000  1.0
  C  C33  1  0.41743000  0.35135000  0.77319000  1.0
  C  C34  1  0.56749000  0.62707000  0.23987000  1.0
  C  C35  1  0.38026000  0.98458000  0.29456000  1.0
  C  C36  1  0.65930000  0.01514000  0.70083000  1.0
  C  C37  1  0.23516000  0.90114000  0.41658000  1.0
  C  C38  1  0.78433000  0.10851000  0.57558000  1.0
  C  C39  1  0.23827000  0.92112000  0.53337000  1.0
  C  C40  1  0.77176000  0.08566000  0.46136000  1.0
  C  C41  1  0.00725000  0.72950000  0.64567000  1.0
  C  C42  1  0.97786000  0.28809000  0.34273000  1.0
  C  C43  1  0.99081000  0.70458000  0.53344000  1.0
  C  C44  1  0.00039000  0.31566000  0.45214000  1.0
  C  C45  1  0.10622000  0.79071000  0.41721000  1.0
  C  C46  1  0.90196000  0.22630000  0.57100000  1.0
  N  N47  1  0.67893000  0.17960000  0.01443000  1.0
  N  N48  1  0.31578000  0.82355000  0.99393000  1.0
  N  N49  1  0.76885000  0.27049000  0.92014000  1.0
  N  N50  1  0.22188000  0.73554000  0.08888000  1.0
  N  N51  1  0.85377000  0.35754000  0.82916000  1.0
  N  N52  1  0.12977000  0.64958000  0.17872000  1.0
  N  N53  1  0.35799000  0.61852000  0.81008000  1.0
  N  N54  1  0.65513000  0.36175000  0.19848000  1.0
  N  N55  1  0.12959000  0.83634000  0.64549000  1.0
  N  N56  1  0.86135000  0.17534000  0.34587000  1.0
  O  O57  1  0.90247000  0.98028000  0.18733000  1.0
  O  O58  1  0.11446000  0.04300000  0.79959000  1.0
  O  O59  1  0.03316000  0.27434000  0.07941000  1.0
  O  O60  1  0.93506000  0.72171000  0.92426000  1.0
  O  O61  1  0.22478000  0.11986000  0.98627000  1.0
  O  O62  1  0.76167000  0.86242000  0.03966000  1.0
  O  O63  1  0.50134000  0.07921000  0.30235000  1.0
  O  O64  1  0.53398000  0.92205000  0.69882000  1.0
  O  O65  1  0.38010000  0.94926000  0.19550000  1.0
  O  O66  1  0.68355000  0.04067000  0.80145000  1.0
