# generated using pymatgen
data_H9PbC3S2N(O2F)2
_symmetry_space_group_name_H-M   'P 1'
_cell_length_a   7.40306000
_cell_length_b   7.51199000
_cell_length_c   10.04920000
_cell_angle_alpha   104.73200000
_cell_angle_beta   96.72640000
_cell_angle_gamma   104.79100000
_symmetry_Int_Tables_number   1
_chemical_formula_structural   H9PbC3S2N(O2F)2
_chemical_formula_sum   'H18 Pb2 C6 S4 N2 O8 F4'
_cell_volume   512.57240212
_cell_formula_units_Z   2
loop_
 _symmetry_equiv_pos_site_id
 _symmetry_equiv_pos_as_xyz
  1  'x, y, z'
loop_
 _atom_site_type_symbol
 _atom_site_label
 _atom_site_symmetry_multiplicity
 _atom_site_fract_x
 _atom_site_fract_y
 _atom_site_fract_z
 _atom_site_occupancy
  H  H0  1  0.61145000  0.41300000  0.44058000  1.0
  H  H1  1  0.38859000  0.58702000  0.55941000  1.0
  H  H2  1  0.61654000  0.17084000  0.42902000  1.0
  H  H3  1  0.38349000  0.82918000  0.57099000  1.0
  H  H4  1  0.82919000  0.35105000  0.42675000  1.0
  H  H5  1  0.17085000  0.64896000  0.57327000  1.0
  H  H6  1  0.42879000  0.17023000  0.72647000  1.0
  H  H7  1  0.57118000  0.82977000  0.27349000  1.0
  H  H8  1  0.45717000  0.41685000  0.82233000  1.0
  H  H9  1  0.54278000  0.58314000  0.17765000  1.0
  H  H10  1  0.58285000  0.27894000  0.89712000  1.0
  H  H11  1  0.41709000  0.72102000  0.10285000  1.0
  H  H12  1  0.07900000  0.40284000  0.88623000  1.0
  H  H13  1  0.92096000  0.59714000  0.11377000  1.0
  H  H14  1  0.10716000  0.64137000  0.86760000  1.0
  H  H15  1  0.89283000  0.35862000  0.13242000  1.0
  H  H16  1  0.15870000  0.45807000  0.73446000  1.0
  H  H17  1  0.84128000  0.54192000  0.26555000  1.0
  Pb  Pb18  1  0.77146000  0.39300000  0.69927000  1.0
  Pb  Pb19  1  0.22853000  0.60702000  0.30073000  1.0
  C  C20  1  0.69731000  0.32367000  0.46689000  1.0
  C  C21  1  0.30273000  0.67634000  0.53311000  1.0
  C  C22  1  0.52607000  0.30317000  0.80014000  1.0
  C  C23  1  0.47389000  0.69682000  0.19983000  1.0
  C  C24  1  0.07136000  0.48741000  0.81298000  1.0
  C  C25  1  0.92862000  0.51257000  0.18703000  1.0
  S  S26  1  0.73126000  0.85913000  0.89363000  1.0
  S  S27  1  0.26872000  0.14083000  0.10636000  1.0
  S  S28  1  0.84698000  0.88202000  0.64216000  1.0
  S  S29  1  0.15305000  0.11798000  0.35788000  1.0
  N  N30  1  0.77784000  0.75787000  0.74411000  1.0
  N  N31  1  0.22218000  0.24219000  0.25591000  1.0
  O  O32  1  0.73808000  0.73437000  0.97886000  1.0
  O  O33  1  0.26192000  0.26569000  0.02111000  1.0
  O  O34  1  0.81955000  0.06293000  0.94638000  1.0
  O  O35  1  0.18045000  0.93701000  0.05362000  1.0
  O  O36  1  0.75020000  0.02471000  0.63570000  1.0
  O  O37  1  0.24985000  0.97527000  0.36432000  1.0
  O  O38  1  0.86410000  0.75602000  0.51444000  1.0
  O  O39  1  0.13589000  0.24402000  0.48557000  1.0
  F  F40  1  0.50743000  0.83534000  0.85016000  1.0
  F  F41  1  0.49264000  0.16469000  0.14986000  1.0
  F  F42  1  0.06105000  0.00579000  0.71941000  1.0
  F  F43  1  0.93893000  0.99419000  0.28057000  1.0
