# generated using pymatgen
data_PrH14C27N5O6
_symmetry_space_group_name_H-M   'P 1'
_cell_length_a   9.48677000
_cell_length_b   9.98703000
_cell_length_c   13.94090000
_cell_angle_alpha   92.61480000
_cell_angle_beta   93.18870000
_cell_angle_gamma   97.13730000
_symmetry_Int_Tables_number   1
_chemical_formula_structural   PrH14C27N5O6
_chemical_formula_sum   'Pr2 H28 C54 N10 O12'
_cell_volume   1306.72105798
_cell_formula_units_Z   2
loop_
 _symmetry_equiv_pos_site_id
 _symmetry_equiv_pos_as_xyz
  1  'x, y, z'
loop_
 _atom_site_type_symbol
 _atom_site_label
 _atom_site_symmetry_multiplicity
 _atom_site_fract_x
 _atom_site_fract_y
 _atom_site_fract_z
 _atom_site_occupancy
  Pr  Pr0  1  0.11371000  0.55696000  0.88431000  1.0
  Pr  Pr1  1  0.88628000  0.44304000  0.11569000  1.0
  H  H2  1  0.91129000  0.15835000  0.38533000  1.0
  H  H3  1  0.08871000  0.84165000  0.61467000  1.0
  H  H4  1  0.35939000  0.32617000  0.90128000  1.0
  H  H5  1  0.64061000  0.67382000  0.09872000  1.0
  H  H6  1  0.47746000  0.15066000  0.81452000  1.0
  H  H7  1  0.52254000  0.84934000  0.18548000  1.0
  H  H8  1  0.39236000  0.08047000  0.64193000  1.0
  H  H9  1  0.60764000  0.91953000  0.35807000  1.0
  H  H10  1  0.80289000  0.33855000  0.46192000  1.0
  H  H11  1  0.19712000  0.66145000  0.53808000  1.0
  H  H12  1  0.70998000  0.51851000  0.56438000  1.0
  H  H13  1  0.29002000  0.48150000  0.43562000  1.0
  H  H14  1  0.83660000  0.59124000  0.72435000  1.0
  H  H15  1  0.16340000  0.40876000  0.27565000  1.0
  H  H16  1  0.28430000  0.89160000  0.37446000  1.0
  H  H17  1  0.71570000  0.10840000  0.62554000  1.0
  H  H18  1  0.28907000  0.74462000  0.22539000  1.0
  H  H19  1  0.71093000  0.25537000  0.77461000  1.0
  H  H20  1  0.96096000  0.94685000  0.08919000  1.0
  H  H21  1  0.03905000  0.05315000  0.91081000  1.0
  H  H22  1  0.95444000  0.09006000  0.23711000  1.0
  H  H23  1  0.04556000  0.90994000  0.76289000  1.0
  H  H24  1  0.53838000  0.87057000  0.69514000  1.0
  H  H25  1  0.46161000  0.12943000  0.30486000  1.0
  H  H26  1  0.75891000  0.80532000  0.78273000  1.0
  H  H27  1  0.24109000  0.19468000  0.21726000  1.0
  H  H28  1  0.48090000  0.53741000  0.94256000  1.0
  H  H29  1  0.51909000  0.46260000  0.05744000  1.0
  C  C30  1  0.32505000  0.29313000  0.82715000  1.0
  C  C31  1  0.67495000  0.70687000  0.17285000  1.0
  C  C32  1  0.39179000  0.19537000  0.77774000  1.0
  C  C33  1  0.60821000  0.80463000  0.22226000  1.0
  C  C34  1  0.34606000  0.15718000  0.68346000  1.0
  C  C35  1  0.65394000  0.84282000  0.31654000  1.0
  C  C36  1  0.23086000  0.21452000  0.64123000  1.0
  C  C37  1  0.76914000  0.78548000  0.35877000  1.0
  C  C38  1  0.17021000  0.17575000  0.54632000  1.0
  C  C39  1  0.82978000  0.82425000  0.45368000  1.0
  C  C40  1  0.04427000  0.22303000  0.51279000  1.0
  C  C41  1  0.95573000  0.77697000  0.48721000  1.0
  C  C42  1  0.97732000  0.32003000  0.56547000  1.0
  C  C43  1  0.02268000  0.67997000  0.43453000  1.0
  C  C44  1  0.85471000  0.37440000  0.53175000  1.0
  C  C45  1  0.14530000  0.62560000  0.46825000  1.0
  C  C46  1  0.80289000  0.47203000  0.58842000  1.0
  C  C47  1  0.19712000  0.52797000  0.41158000  1.0
  C  C48  1  0.87282000  0.51294000  0.67830000  1.0
  C  C49  1  0.12718000  0.48706000  0.32170000  1.0
  C  C50  1  0.04130000  0.36598000  0.65835000  1.0
  C  C51  1  0.95870000  0.63402000  0.34165000  1.0
  C  C52  1  0.16606000  0.31043000  0.69731000  1.0
  C  C53  1  0.83394000  0.68956000  0.30269000  1.0
  C  C54  1  0.11477000  0.08020000  0.40569000  1.0
  C  C55  1  0.88523000  0.91980000  0.59432000  1.0
  C  C56  1  0.11720000  0.99799000  0.31679000  1.0
  C  C57  1  0.88280000  0.00201000  0.68321000  1.0
  C  C58  1  0.21423000  0.90252000  0.31140000  1.0
  C  C59  1  0.78577000  0.09748000  0.68860000  1.0
  C  C60  1  0.21713000  0.82167000  0.22788000  1.0
  C  C61  1  0.78287000  0.17833000  0.77213000  1.0
  C  C62  1  0.12568000  0.83645000  0.14757000  1.0
  C  C63  1  0.87433000  0.16354000  0.85243000  1.0
  C  C64  1  0.03155000  0.93370000  0.15163000  1.0
  C  C65  1  0.96846000  0.06630000  0.84837000  1.0
  C  C66  1  0.02644000  0.01313000  0.23576000  1.0
  C  C67  1  0.97356000  0.98687000  0.76424000  1.0
  C  C68  1  0.12380000  0.74426000  0.05978000  1.0
  C  C69  1  0.87621000  0.25574000  0.94022000  1.0
  C  C70  1  0.39790000  0.73889000  0.77563000  1.0
  C  C71  1  0.60209000  0.26111000  0.22437000  1.0
  C  C72  1  0.53152000  0.79795000  0.75116000  1.0
  C  C73  1  0.46847000  0.20205000  0.24883000  1.0
  C  C74  1  0.65260000  0.76084000  0.79872000  1.0
  C  C75  1  0.34739000  0.23916000  0.20128000  1.0
  C  C76  1  0.63669000  0.66506000  0.86883000  1.0
  C  C77  1  0.36330000  0.33495000  0.13117000  1.0
  C  C78  1  0.49873000  0.61223000  0.88883000  1.0
  C  C79  1  0.50127000  0.38778000  0.11116000  1.0
  C  C80  1  0.26099000  0.77204000  0.72727000  1.0
  C  C81  1  0.73900000  0.22796000  0.27273000  1.0
  C  C82  1  0.76280000  0.61556000  0.91959000  1.0
  C  C83  1  0.23720000  0.38445000  0.08041000  1.0
  N  N84  1  0.21665000  0.35054000  0.78879000  1.0
  N  N85  1  0.78335000  0.64945000  0.21121000  1.0
  N  N86  1  0.98682000  0.46063000  0.71304000  1.0
  N  N87  1  0.01318000  0.53937000  0.28696000  1.0
  N  N88  1  0.21388000  0.08823000  0.47881000  1.0
  N  N89  1  0.78612000  0.91177000  0.52120000  1.0
  N  N90  1  0.00989000  0.16028000  0.42365000  1.0
  N  N91  1  0.99011000  0.83972000  0.57635000  1.0
  N  N92  1  0.38198000  0.64769000  0.84394000  1.0
  N  N93  1  0.61801000  0.35232000  0.15606000  1.0
  O  O94  1  0.18702000  0.78100000  0.98639000  1.0
  O  O95  1  0.81298000  0.21900000  0.01361000  1.0
  O  O96  1  0.05442000  0.62517000  0.06255000  1.0
  O  O97  1  0.94558000  0.37484000  0.93744000  1.0
  O  O98  1  0.26647000  0.84496000  0.65599000  1.0
  O  O99  1  0.73352000  0.15504000  0.34401000  1.0
  O  O100  1  0.14593000  0.72095000  0.76254000  1.0
  O  O101  1  0.85406000  0.27904000  0.23745000  1.0
  O  O102  1  0.73934000  0.54723000  0.99340000  1.0
  O  O103  1  0.26066000  0.45278000  0.00660000  1.0
  O  O104  1  0.88209000  0.64476000  0.88384000  1.0
  O  O105  1  0.11790000  0.35525000  0.11616000  1.0
