# generated using pymatgen
data_CaH12C12(NO3)2
_symmetry_space_group_name_H-M   'P 1'
_cell_length_a   7.44616000
_cell_length_b   10.44190000
_cell_length_c   10.44210000
_cell_angle_alpha   69.20610000
_cell_angle_beta   88.38830000
_cell_angle_gamma   88.39190000
_symmetry_Int_Tables_number   1
_chemical_formula_structural   CaH12C12(NO3)2
_chemical_formula_sum   'Ca2 H24 C24 N4 O12'
_cell_volume   758.56850989
_cell_formula_units_Z   2
loop_
 _symmetry_equiv_pos_site_id
 _symmetry_equiv_pos_as_xyz
  1  'x, y, z'
loop_
 _atom_site_type_symbol
 _atom_site_label
 _atom_site_symmetry_multiplicity
 _atom_site_fract_x
 _atom_site_fract_y
 _atom_site_fract_z
 _atom_site_occupancy
  Ca  Ca0  1  0.24999000  0.44853000  0.55147000  1.0
  Ca  Ca1  1  0.75001000  0.55146000  0.44854000  1.0
  H  H2  1  0.82540000  0.05798000  0.48039000  1.0
  H  H3  1  0.67460000  0.51961000  0.94200000  1.0
  H  H4  1  0.17463000  0.94201000  0.51962000  1.0
  H  H5  1  0.32538000  0.48040000  0.05799000  1.0
  H  H6  1  0.55830000  0.72359000  0.74833000  1.0
  H  H7  1  0.94171000  0.25171000  0.27639000  1.0
  H  H8  1  0.44172000  0.27640000  0.25167000  1.0
  H  H9  1  0.05827000  0.74831000  0.72361000  1.0
  H  H10  1  0.37485000  0.87266000  0.84815000  1.0
  H  H11  1  0.12515000  0.15188000  0.12733000  1.0
  H  H12  1  0.62516000  0.12734000  0.15184000  1.0
  H  H13  1  0.87486000  0.84814000  0.87267000  1.0
  H  H14  1  0.41790000  0.12901000  0.74885000  1.0
  H  H15  1  0.08210000  0.25114000  0.87098000  1.0
  H  H16  1  0.58211000  0.87098000  0.25115000  1.0
  H  H17  1  0.91790000  0.74888000  0.12902000  1.0
  H  H18  1  0.20095000  0.19720000  0.49260000  1.0
  H  H19  1  0.29904000  0.50739000  0.80280000  1.0
  H  H20  1  0.79906000  0.80280000  0.50740000  1.0
  H  H21  1  0.70096000  0.49262000  0.19720000  1.0
  H  H22  1  0.01337000  0.24776000  0.53503000  1.0
  H  H23  1  0.48662000  0.46496000  0.75224000  1.0
  H  H24  1  0.98664000  0.75224000  0.46497000  1.0
  H  H25  1  0.51337000  0.53505000  0.24776000  1.0
  C  C26  1  0.62718000  0.11189000  0.60876000  1.0
  C  C27  1  0.87281000  0.39123000  0.88811000  1.0
  C  C28  1  0.37282000  0.88810000  0.39125000  1.0
  C  C29  1  0.12717000  0.60878000  0.11188000  1.0
  C  C30  1  0.72508000  0.01985000  0.56270000  1.0
  C  C31  1  0.77492000  0.43730000  0.98015000  1.0
  C  C32  1  0.27494000  0.98014000  0.43731000  1.0
  C  C33  1  0.22506000  0.56271000  0.01984000  1.0
  C  C34  1  0.57579000  0.83430000  0.71254000  1.0
  C  C35  1  0.92421000  0.28749000  0.16569000  1.0
  C  C36  1  0.42422000  0.16569000  0.28747000  1.0
  C  C37  1  0.07577000  0.71253000  0.83431000  1.0
  C  C38  1  0.47392000  0.91787000  0.76687000  1.0
  C  C39  1  0.02607000  0.23314000  0.08213000  1.0
  C  C40  1  0.52609000  0.08211000  0.23313000  1.0
  C  C41  1  0.97391000  0.76688000  0.91786000  1.0
  C  C42  1  0.49836000  0.05909000  0.71311000  1.0
  C  C43  1  0.00164000  0.28689000  0.94091000  1.0
  C  C44  1  0.50164000  0.94089000  0.28690000  1.0
  C  C45  1  0.99835000  0.71313000  0.05908000  1.0
  C  C46  1  0.65792000  0.26250000  0.54279000  1.0
  C  C47  1  0.84207000  0.45720000  0.73749000  1.0
  C  C48  1  0.34209000  0.73750000  0.45721000  1.0
  C  C49  1  0.15792000  0.54280000  0.26252000  1.0
  N  N50  1  0.69939000  0.88446000  0.61172000  1.0
  N  N51  1  0.80063000  0.38829000  0.11553000  1.0
  N  N52  1  0.30063000  0.11553000  0.38829000  1.0
  N  N53  1  0.19935000  0.61173000  0.88446000  1.0
  O  O54  1  0.54035000  0.34608000  0.55986000  1.0
  O  O55  1  0.95966000  0.44011000  0.65392000  1.0
  O  O56  1  0.45966000  0.65391000  0.44016000  1.0
  O  O57  1  0.04033000  0.55989000  0.34608000  1.0
  O  O58  1  0.80141000  0.30216000  0.47218000  1.0
  O  O59  1  0.69859000  0.52781000  0.69786000  1.0
  O  O60  1  0.19861000  0.69784000  0.52781000  1.0
  O  O61  1  0.30140000  0.47219000  0.30214000  1.0
  O  O62  1  0.14147000  0.23262000  0.56148000  1.0
  O  O63  1  0.35852000  0.43851000  0.76738000  1.0
  O  O64  1  0.85854000  0.76738000  0.43852000  1.0
  O  O65  1  0.64148000  0.56149000  0.23263000  1.0
