# generated using pymatgen
data_LaH12C15N2O7
_symmetry_space_group_name_H-M   'P 1'
_cell_length_a   10.78260000
_cell_length_b   11.85640000
_cell_length_c   16.63920000
_cell_angle_alpha   108.86000000
_cell_angle_beta   89.99450000
_cell_angle_gamma   117.05300000
_symmetry_Int_Tables_number   1
_chemical_formula_structural   LaH12C15N2O7
_chemical_formula_sum   'La4 H48 C60 N8 O28'
_cell_volume   1765.29205157
_cell_formula_units_Z   4
loop_
 _symmetry_equiv_pos_site_id
 _symmetry_equiv_pos_as_xyz
  1  'x, y, z'
loop_
 _atom_site_type_symbol
 _atom_site_label
 _atom_site_symmetry_multiplicity
 _atom_site_fract_x
 _atom_site_fract_y
 _atom_site_fract_z
 _atom_site_occupancy
  La  La0  1  0.97324000  0.99651000  0.12664000  1.0
  La  La1  1  0.97658000  0.00332000  0.37329000  1.0
  La  La2  1  0.02676000  0.00349000  0.87336000  1.0
  La  La3  1  0.02342000  0.99668000  0.62671000  1.0
  H  H4  1  0.69284000  0.53848000  0.01262000  1.0
  H  H5  1  0.15455000  0.46174000  0.48747000  1.0
  H  H6  1  0.30715000  0.46152000  0.98739000  1.0
  H  H7  1  0.84544000  0.53826000  0.51253000  1.0
  H  H8  1  0.47195000  0.31346000  0.95123000  1.0
  H  H9  1  0.15883000  0.68683000  0.54893000  1.0
  H  H10  1  0.52805000  0.68654000  0.04877000  1.0
  H  H11  1  0.84116000  0.31317000  0.45107000  1.0
  H  H12  1  0.46915000  0.35715000  0.70539000  1.0
  H  H13  1  0.11145000  0.64269000  0.79463000  1.0
  H  H14  1  0.53085000  0.64285000  0.29461000  1.0
  H  H15  1  0.88855000  0.35731000  0.20537000  1.0
  H  H16  1  0.69270000  0.58245000  0.76628000  1.0
  H  H17  1  0.10973000  0.41745000  0.73371000  1.0
  H  H18  1  0.30730000  0.41755000  0.23372000  1.0
  H  H19  1  0.89027000  0.58255000  0.26629000  1.0
  H  H20  1  0.35270000  0.02991000  0.90148000  1.0
  H  H21  1  0.32259000  0.96982000  0.59841000  1.0
  H  H22  1  0.64730000  0.97009000  0.09852000  1.0
  H  H23  1  0.67741000  0.03018000  0.40159000  1.0
  H  H24  1  0.58451000  0.04364000  0.86860000  1.0
  H  H25  1  0.54051000  0.95588000  0.63124000  1.0
  H  H26  1  0.41549000  0.95637000  0.13140000  1.0
  H  H27  1  0.45949000  0.04412000  0.36876000  1.0
  H  H28  1  0.16823000  0.65869000  0.05847000  1.0
  H  H29  1  0.50929000  0.34138000  0.44145000  1.0
  H  H30  1  0.83177000  0.34131000  0.94153000  1.0
  H  H31  1  0.49071000  0.65862000  0.55855000  1.0
  H  H32  1  0.05319000  0.50934000  0.07950000  1.0
  H  H33  1  0.54341000  0.49069000  0.42043000  1.0
  H  H34  1  0.94681000  0.49066000  0.92050000  1.0
  H  H35  1  0.45659000  0.50931000  0.57957000  1.0
  H  H36  1  0.15543000  0.61139000  0.22924000  1.0
  H  H37  1  0.54390000  0.38877000  0.27070000  1.0
  H  H38  1  0.84457000  0.38861000  0.77076000  1.0
  H  H39  1  0.45610000  0.61123000  0.72930000  1.0
  H  H40  1  0.30463000  0.71844000  0.19373000  1.0
  H  H41  1  0.58624000  0.28188000  0.30627000  1.0
  H  H42  1  0.69537000  0.28156000  0.80627000  1.0
  H  H43  1  0.41377000  0.71812000  0.69373000  1.0
  H  H44  1  0.94236000  0.66989000  0.06994000  1.0
  H  H45  1  0.27207000  0.32986000  0.42986000  1.0
  H  H46  1  0.05764000  0.33011000  0.93005000  1.0
  H  H47  1  0.72793000  0.67014000  0.57014000  1.0
  H  H48  1  0.20962000  0.87189000  0.29601000  1.0
  H  H49  1  0.33782000  0.12809000  0.20391000  1.0
  H  H50  1  0.79038000  0.12811000  0.70399000  1.0
  H  H51  1  0.66218000  0.87191000  0.79609000  1.0
  C  C52  1  0.70529000  0.57410000  0.89314000  1.0
  C  C53  1  0.13106000  0.42595000  0.60691000  1.0
  C  C54  1  0.29470000  0.42590000  0.10686000  1.0
  C  C55  1  0.86894000  0.57405000  0.39309000  1.0
  C  C56  1  0.64542000  0.49698000  0.94485000  1.0
  C  C57  1  0.14845000  0.50314000  0.55522000  1.0
  C  C58  1  0.35458000  0.50303000  0.05515000  1.0
  C  C59  1  0.85154000  0.49686000  0.44478000  1.0
  C  C60  1  0.52236000  0.37230000  0.91099000  1.0
  C  C61  1  0.15007000  0.62781000  0.58909000  1.0
  C  C62  1  0.47764000  0.62770000  0.08901000  1.0
  C  C63  1  0.84993000  0.37219000  0.41091000  1.0
  C  C64  1  0.45763000  0.32340000  0.82502000  1.0
  C  C65  1  0.13405000  0.67661000  0.67504000  1.0
  C  C66  1  0.54237000  0.67660000  0.17498000  1.0
  C  C67  1  0.86595000  0.32339000  0.32496000  1.0
  C  C68  1  0.52076000  0.39795000  0.77225000  1.0
  C  C69  1  0.12242000  0.60197000  0.72779000  1.0
  C  C70  1  0.47924000  0.60205000  0.22775000  1.0
  C  C71  1  0.87758000  0.39803000  0.27221000  1.0
  C  C72  1  0.64370000  0.52222000  0.80598000  1.0
  C  C73  1  0.12111000  0.47772000  0.69404000  1.0
  C  C74  1  0.35630000  0.47778000  0.19403000  1.0
  C  C75  1  0.87889000  0.52228000  0.30596000  1.0
  C  C76  1  0.82794000  0.71543000  0.93097000  1.0
  C  C77  1  0.11250000  0.28465000  0.56903000  1.0
  C  C78  1  0.17206000  0.28457000  0.06903000  1.0
  C  C79  1  0.88750000  0.71535000  0.43097000  1.0
  C  C80  1  0.31713000  0.19647000  0.79054000  1.0
  C  C81  1  0.12044000  0.80350000  0.70948000  1.0
  C  C82  1  0.68287000  0.80353000  0.20946000  1.0
  C  C83  1  0.87956000  0.19650000  0.29052000  1.0
  C  C84  1  0.37086000  0.99277000  0.01868000  1.0
  C  C85  1  0.37812000  0.00725000  0.48130000  1.0
  C  C86  1  0.62914000  0.00723000  0.98132000  1.0
  C  C87  1  0.62188000  0.99275000  0.51870000  1.0
  C  C88  1  0.41728000  0.01652000  0.94411000  1.0
  C  C89  1  0.40066000  0.98332000  0.55582000  1.0
  C  C90  1  0.58272000  0.98348000  0.05589000  1.0
  C  C91  1  0.59934000  0.01668000  0.44418000  1.0
  C  C92  1  0.54606000  0.02395000  0.92586000  1.0
  C  C93  1  0.52196000  0.97585000  0.57408000  1.0
  C  C94  1  0.45394000  0.97605000  0.07414000  1.0
  C  C95  1  0.47804000  0.02415000  0.42592000  1.0
  C  C96  1  0.23488000  0.98812000  0.04086000  1.0
  C  C97  1  0.24675000  0.01183000  0.45911000  1.0
  C  C98  1  0.76512000  0.01188000  0.95914000  1.0
  C  C99  1  0.75325000  0.98817000  0.54089000  1.0
  C  C100  1  0.04843000  0.78083000  0.19309000  1.0
  C  C101  1  0.26746000  0.21896000  0.30677000  1.0
  C  C102  1  0.95157000  0.21917000  0.80691000  1.0
  C  C103  1  0.73254000  0.78104000  0.69323000  1.0
  C  C104  1  0.10281000  0.62059000  0.10436000  1.0
  C  C105  1  0.48193000  0.37944000  0.39555000  1.0
  C  C106  1  0.89719000  0.37941000  0.89564000  1.0
  C  C107  1  0.51807000  0.62056000  0.60445000  1.0
  C  C108  1  0.19188000  0.68386000  0.19544000  1.0
  C  C109  1  0.50794000  0.31629000  0.30449000  1.0
  C  C110  1  0.80812000  0.31614000  0.80456000  1.0
  C  C111  1  0.49207000  0.68371000  0.69551000  1.0
  N  N112  1  0.99737000  0.66773000  0.11938000  1.0
  N  N113  1  0.32932000  0.33208000  0.38047000  1.0
  N  N114  1  0.00263000  0.33227000  0.88062000  1.0
  N  N115  1  0.67068000  0.66792000  0.61953000  1.0
  N  N116  1  0.16376000  0.79654000  0.23647000  1.0
  N  N117  1  0.36721000  0.20345000  0.26342000  1.0
  N  N118  1  0.83624000  0.20346000  0.76353000  1.0
  N  N119  1  0.63279000  0.79655000  0.73658000  1.0
  O  O120  1  0.86318000  0.78412000  0.88232000  1.0
  O  O121  1  0.07927000  0.21599000  0.61770000  1.0
  O  O122  1  0.13683000  0.21588000  0.11768000  1.0
  O  O123  1  0.92072000  0.78401000  0.38230000  1.0
  O  O124  1  0.88625000  0.75953000  0.00967000  1.0
  O  O125  1  0.12655000  0.24053000  0.49030000  1.0
  O  O126  1  0.11375000  0.24047000  0.99033000  1.0
  O  O127  1  0.87345000  0.75947000  0.50969000  1.0
  O  O128  1  0.25967000  0.13725000  0.84266000  1.0
  O  O129  1  0.12223000  0.86270000  0.65733000  1.0
  O  O130  1  0.74033000  0.86275000  0.15733000  1.0
  O  O131  1  0.87777000  0.13730000  0.34267000  1.0
  O  O132  1  0.26344000  0.15838000  0.71249000  1.0
  O  O133  1  0.10474000  0.84155000  0.78750000  1.0
  O  O134  1  0.73656000  0.84162000  0.28751000  1.0
  O  O135  1  0.89525000  0.15845000  0.21250000  1.0
  O  O136  1  0.15434000  0.99428000  0.98837000  1.0
  O  O137  1  0.16008000  0.00572000  0.51164000  1.0
  O  O138  1  0.84566000  0.00572000  0.01163000  1.0
  O  O139  1  0.83992000  0.99428000  0.48836000  1.0
  O  O140  1  0.20402000  0.98058000  0.11370000  1.0
  O  O141  1  0.22335000  0.01925000  0.38624000  1.0
  O  O142  1  0.79598000  0.01942000  0.88630000  1.0
  O  O143  1  0.77665000  0.98075000  0.61376000  1.0
  O  O144  1  0.99304000  0.85798000  0.21640000  1.0
  O  O145  1  0.13496000  0.14157000  0.28345000  1.0
  O  O146  1  0.00695000  0.14202000  0.78360000  1.0
  O  O147  1  0.86504000  0.85842000  0.71655000  1.0
