# generated using pymatgen
data_CoH32C47N6O5
_symmetry_space_group_name_H-M   'P 1'
_cell_length_a   8.90844000
_cell_length_b   14.89170000
_cell_length_c   32.09220000
_cell_angle_alpha   90.00040000
_cell_angle_beta   90.00030000
_cell_angle_gamma   75.65900000
_symmetry_Int_Tables_number   1
_chemical_formula_structural   CoH32C47N6O5
_chemical_formula_sum   'Co4 H128 C188 N24 O20'
_cell_volume   4124.74326110
_cell_formula_units_Z   4
loop_
 _symmetry_equiv_pos_site_id
 _symmetry_equiv_pos_as_xyz
  1  'x, y, z'
loop_
 _atom_site_type_symbol
 _atom_site_label
 _atom_site_symmetry_multiplicity
 _atom_site_fract_x
 _atom_site_fract_y
 _atom_site_fract_z
 _atom_site_occupancy
  Co  Co0  1  0.62555000  0.19082000  0.87444000  1.0
  Co  Co1  1  0.87446000  0.80918000  0.37444000  1.0
  Co  Co2  1  0.37445000  0.80918000  0.12556000  1.0
  Co  Co3  1  0.12555000  0.19082000  0.62556000  1.0
  H  H4  1  0.68876000  0.36847000  0.82496000  1.0
  H  H5  1  0.81124000  0.63153000  0.32496000  1.0
  H  H6  1  0.31124000  0.63152000  0.17504000  1.0
  H  H7  1  0.18876000  0.36847000  0.67504000  1.0
  H  H8  1  0.00080000  0.12670000  0.86874000  1.0
  H  H9  1  0.49921000  0.87330000  0.36874000  1.0
  H  H10  1  0.99920000  0.87330000  0.13126000  1.0
  H  H11  1  0.50081000  0.12670000  0.63126000  1.0
  H  H12  1  0.17256000  0.25075000  0.84263000  1.0
  H  H13  1  0.32744000  0.74925000  0.34263000  1.0
  H  H14  1  0.82744000  0.74925000  0.15737000  1.0
  H  H15  1  0.67256000  0.25076000  0.65737000  1.0
  H  H16  1  0.16304000  0.33370000  0.77253000  1.0
  H  H17  1  0.33696000  0.66630000  0.27253000  1.0
  H  H18  1  0.83696000  0.66630000  0.22748000  1.0
  H  H19  1  0.66303000  0.33370000  0.72747000  1.0
  H  H20  1  0.19976000  0.47194000  0.73438000  1.0
  H  H21  1  0.30024000  0.52806000  0.23438000  1.0
  H  H22  1  0.80024000  0.52805000  0.26562000  1.0
  H  H23  1  0.69975000  0.47195000  0.76562000  1.0
  H  H24  1  0.82855000  0.64685000  0.80434000  1.0
  H  H25  1  0.67145000  0.35315000  0.30434000  1.0
  H  H26  1  0.17145000  0.35315000  0.19566000  1.0
  H  H27  1  0.32855000  0.64685000  0.69566000  1.0
  H  H28  1  0.79285000  0.50922000  0.84306000  1.0
  H  H29  1  0.70715000  0.49078000  0.34306000  1.0
  H  H30  1  0.20714000  0.49077000  0.15694000  1.0
  H  H31  1  0.29285000  0.50923000  0.65694000  1.0
  H  H32  1  0.95060000  0.58566000  0.68603000  1.0
  H  H33  1  0.54939000  0.41434000  0.18603000  1.0
  H  H34  1  0.04940000  0.41434000  0.31397000  1.0
  H  H35  1  0.45059000  0.58567000  0.81397000  1.0
  H  H36  1  0.07755000  0.84276000  0.66496000  1.0
  H  H37  1  0.42244000  0.15724000  0.16496000  1.0
  H  H38  1  0.92245000  0.15724000  0.33504000  1.0
  H  H39  1  0.57756000  0.84277000  0.83504000  1.0
  H  H40  1  0.12041000  0.72027000  0.78755000  1.0
  H  H41  1  0.37960000  0.27973000  0.28755000  1.0
  H  H42  1  0.87959000  0.27972000  0.21245000  1.0
  H  H43  1  0.62042000  0.72028000  0.71245000  1.0
  H  H44  1  0.11226000  0.85806000  0.80813000  1.0
  H  H45  1  0.38774000  0.14195000  0.30813000  1.0
  H  H46  1  0.88774000  0.14194000  0.19187000  1.0
  H  H47  1  0.61226000  0.85806000  0.69187000  1.0
  H  H48  1  0.22034000  0.98623000  0.83157000  1.0
  H  H49  1  0.27966000  0.01378000  0.33157000  1.0
  H  H50  1  0.77965000  0.01378000  0.16843000  1.0
  H  H51  1  0.72035000  0.98623000  0.66843000  1.0
  H  H52  1  0.35515000  0.02732000  0.70506000  1.0
  H  H53  1  0.14485000  0.97268000  0.20506000  1.0
  H  H54  1  0.64485000  0.97268000  0.29494000  1.0
  H  H55  1  0.85515000  0.02733000  0.79494000  1.0
  H  H56  1  0.25090000  0.90008000  0.68208000  1.0
  H  H57  1  0.24910000  0.09992000  0.18208000  1.0
  H  H58  1  0.74911000  0.09992000  0.31792000  1.0
  H  H59  1  0.75090000  0.90009000  0.81792000  1.0
  H  H60  1  0.45818000  0.02937000  0.84434000  1.0
  H  H61  1  0.04183000  0.97063000  0.34434000  1.0
  H  H62  1  0.54182000  0.97063000  0.15566000  1.0
  H  H63  1  0.95818000  0.02937000  0.65567000  1.0
  H  H64  1  0.50325000  0.26958000  0.78170000  1.0
  H  H65  1  0.99675000  0.73042000  0.28170000  1.0
  H  H66  1  0.49674000  0.73042000  0.21831000  1.0
  H  H67  1  0.00326000  0.26958000  0.71830000  1.0
  H  H68  1  0.33435000  0.17697000  0.73128000  1.0
  H  H69  1  0.16564000  0.82304000  0.23128000  1.0
  H  H70  1  0.66564000  0.82304000  0.26873000  1.0
  H  H71  1  0.83435000  0.17697000  0.76873000  1.0
  H  H72  1  0.87271000  0.86365000  0.62228000  1.0
  H  H73  1  0.62729000  0.13635000  0.12228000  1.0
  H  H74  1  0.12730000  0.13634000  0.37772000  1.0
  H  H75  1  0.37270000  0.86366000  0.87772000  1.0
  H  H76  1  0.79584000  0.86372000  0.54818000  1.0
  H  H77  1  0.70417000  0.13628000  0.04818000  1.0
  H  H78  1  0.20417000  0.13628000  0.45182000  1.0
  H  H79  1  0.29583000  0.86372000  0.95182000  1.0
  H  H80  1  0.96452000  0.56613000  0.54486000  1.0
  H  H81  1  0.53548000  0.43387000  0.04486000  1.0
  H  H82  1  0.03550000  0.43387000  0.45514000  1.0
  H  H83  1  0.46452000  0.56613000  0.95514000  1.0
  H  H84  1  0.03221000  0.56572000  0.61929000  1.0
  H  H85  1  0.46778000  0.43428000  0.11929000  1.0
  H  H86  1  0.96780000  0.43427000  0.38071000  1.0
  H  H87  1  0.53221000  0.56573000  0.88071000  1.0
  H  H88  1  0.90109000  0.83915000  0.47615000  1.0
  H  H89  1  0.59891000  0.16085000  0.97615000  1.0
  H  H90  1  0.09893000  0.16085000  0.52385000  1.0
  H  H91  1  0.40108000  0.83915000  0.02385000  1.0
  H  H92  1  0.71190000  0.64607000  0.41231000  1.0
  H  H93  1  0.78810000  0.35393000  0.91231000  1.0
  H  H94  1  0.28810000  0.35393000  0.58769000  1.0
  H  H95  1  0.21190000  0.64607000  0.08769000  1.0
  H  H96  1  0.75276000  0.59235000  0.49530000  1.0
  H  H97  1  0.74723000  0.40765000  0.99530000  1.0
  H  H98  1  0.24724000  0.40765000  0.50470000  1.0
  H  H99  1  0.25277000  0.59235000  0.00470000  1.0
  H  H100  1  0.00523000  0.91375000  0.88800000  1.0
  H  H101  1  0.49476000  0.08625000  0.38801000  1.0
  H  H102  1  0.99475000  0.08625000  0.11199000  1.0
  H  H103  1  0.50525000  0.91374000  0.61199000  1.0
  H  H104  1  0.10767000  0.74976000  0.90952000  1.0
  H  H105  1  0.39233000  0.25024000  0.40952000  1.0
  H  H106  1  0.89233000  0.25024000  0.09048000  1.0
  H  H107  1  0.60768000  0.74976000  0.59048000  1.0
  H  H108  1  0.66623000  0.74979000  0.96388000  1.0
  H  H109  1  0.83378000  0.25021000  0.46388000  1.0
  H  H110  1  0.33378000  0.25020000  0.03612000  1.0
  H  H111  1  0.16623000  0.74978000  0.53613000  1.0
  H  H112  1  0.56696000  0.91734000  0.94398000  1.0
  H  H113  1  0.93304000  0.08266000  0.44398000  1.0
  H  H114  1  0.43304000  0.08266000  0.05602000  1.0
  H  H115  1  0.06697000  0.91733000  0.55603000  1.0
  H  H116  1  0.01505000  0.65503000  0.86757000  1.0
  H  H117  1  0.48494000  0.34497000  0.36757000  1.0
  H  H118  1  0.98493000  0.34497000  0.13242000  1.0
  H  H119  1  0.51507000  0.65503000  0.63243000  1.0
  H  H120  1  0.22484000  0.53772000  0.83296000  1.0
  H  H121  1  0.27515000  0.46229000  0.33296000  1.0
  H  H122  1  0.77515000  0.46229000  0.16704000  1.0
  H  H123  1  0.72485000  0.53771000  0.66704000  1.0
  H  H124  1  0.29739000  0.37383000  0.94417000  1.0
  H  H125  1  0.20261000  0.62618000  0.44417000  1.0
  H  H126  1  0.70262000  0.62618000  0.05583000  1.0
  H  H127  1  0.79738000  0.37382000  0.55583000  1.0
  H  H128  1  0.09601000  0.49517000  0.98096000  1.0
  H  H129  1  0.40400000  0.50483000  0.48096000  1.0
  H  H130  1  0.90400000  0.50483000  0.01904000  1.0
  H  H131  1  0.59600000  0.49516000  0.51904000  1.0
  C  C132  1  0.79792000  0.31925000  0.83274000  1.0
  C  C133  1  0.70209000  0.68076000  0.33273000  1.0
  C  C134  1  0.20208000  0.68075000  0.16726000  1.0
  C  C135  1  0.29791000  0.31925000  0.66726000  1.0
  C  C136  1  0.96393000  0.19506000  0.85504000  1.0
  C  C137  1  0.53608000  0.80494000  0.35503000  1.0
  C  C138  1  0.03608000  0.80495000  0.14496000  1.0
  C  C139  1  0.46392000  0.19506000  0.64497000  1.0
  C  C140  1  0.04932000  0.25498000  0.84202000  1.0
  C  C141  1  0.45069000  0.74503000  0.34202000  1.0
  C  C142  1  0.95068000  0.74502000  0.15798000  1.0
  C  C143  1  0.54931000  0.25498000  0.65798000  1.0
  C  C144  1  0.97335000  0.41343000  0.80921000  1.0
  C  C145  1  0.52665000  0.58657000  0.30922000  1.0
  C  C146  1  0.02664000  0.58657000  0.19079000  1.0
  C  C147  1  0.47335000  0.41344000  0.69078000  1.0
  C  C148  1  0.09050000  0.40249000  0.77940000  1.0
  C  C149  1  0.40950000  0.59751000  0.27940000  1.0
  C  C150  1  0.90950000  0.59751000  0.22060000  1.0
  C  C151  1  0.59048000  0.40250000  0.72060000  1.0
  C  C152  1  0.11021000  0.47982000  0.75807000  1.0
  C  C153  1  0.38979000  0.52018000  0.25807000  1.0
  C  C154  1  0.88979000  0.52017000  0.24193000  1.0
  C  C155  1  0.61020000  0.47982000  0.74193000  1.0
  C  C156  1  0.01526000  0.56831000  0.76620000  1.0
  C  C157  1  0.48474000  0.43169000  0.26620000  1.0
  C  C158  1  0.98474000  0.43169000  0.23380000  1.0
  C  C159  1  0.51526000  0.56832000  0.73380000  1.0
  C  C160  1  0.90256000  0.57851000  0.79741000  1.0
  C  C161  1  0.59744000  0.42149000  0.29741000  1.0
  C  C162  1  0.09744000  0.42149000  0.20259000  1.0
  C  C163  1  0.40255000  0.57851000  0.70259000  1.0
  C  C164  1  0.88132000  0.50133000  0.81895000  1.0
  C  C165  1  0.61868000  0.49867000  0.31895000  1.0
  C  C166  1  0.11868000  0.49867000  0.18105000  1.0
  C  C167  1  0.38131000  0.50134000  0.68105000  1.0
  C  C168  1  0.03056000  0.64711000  0.73965000  1.0
  C  C169  1  0.46944000  0.35289000  0.23965000  1.0
  C  C170  1  0.96944000  0.35289000  0.26035000  1.0
  C  C171  1  0.53056000  0.64712000  0.76035000  1.0
  C  C172  1  0.99267000  0.64413000  0.69739000  1.0
  C  C173  1  0.50732000  0.35587000  0.19739000  1.0
  C  C174  1  0.00734000  0.35587000  0.30261000  1.0
  C  C175  1  0.49267000  0.64414000  0.80260000  1.0
  C  C176  1  0.00658000  0.71567000  0.67043000  1.0
  C  C177  1  0.49342000  0.28433000  0.17043000  1.0
  C  C178  1  0.99343000  0.28433000  0.32957000  1.0
  C  C179  1  0.50658000  0.71568000  0.82957000  1.0
  C  C180  1  0.06400000  0.78833000  0.68624000  1.0
  C  C181  1  0.43599000  0.21167000  0.18624000  1.0
  C  C182  1  0.93600000  0.21167000  0.31376000  1.0
  C  C183  1  0.56401000  0.78834000  0.81376000  1.0
  C  C184  1  0.10598000  0.79196000  0.72826000  1.0
  C  C185  1  0.39402000  0.20804000  0.22826000  1.0
  C  C186  1  0.89403000  0.20804000  0.27174000  1.0
  C  C187  1  0.60598000  0.79197000  0.77174000  1.0
  C  C188  1  0.08551000  0.72095000  0.75496000  1.0
  C  C189  1  0.41449000  0.27905000  0.25496000  1.0
  C  C190  1  0.91449000  0.27905000  0.24504000  1.0
  C  C191  1  0.58551000  0.72095000  0.74504000  1.0
  C  C192  1  0.17290000  0.86763000  0.74315000  1.0
  C  C193  1  0.32710000  0.13237000  0.24315000  1.0
  C  C194  1  0.82710000  0.13236000  0.25685000  1.0
  C  C195  1  0.67289000  0.86764000  0.75685000  1.0
  C  C196  1  0.16832000  0.89331000  0.78540000  1.0
  C  C197  1  0.33168000  0.10669000  0.28540000  1.0
  C  C198  1  0.83168000  0.10669000  0.21460000  1.0
  C  C199  1  0.66832000  0.89331000  0.71460000  1.0
  C  C200  1  0.22970000  0.96556000  0.79888000  1.0
  C  C201  1  0.27030000  0.03445000  0.29888000  1.0
  C  C202  1  0.77030000  0.03444000  0.20112000  1.0
  C  C203  1  0.72970000  0.96556000  0.70112000  1.0
  C  C204  1  0.29865000  0.01380000  0.77019000  1.0
  C  C205  1  0.20135000  0.98621000  0.27019000  1.0
  C  C206  1  0.70134000  0.98621000  0.22981000  1.0
  C  C207  1  0.79865000  0.01380000  0.72981000  1.0
  C  C208  1  0.30236000  0.99073000  0.72796000  1.0
  C  C209  1  0.19764000  0.00927000  0.22796000  1.0
  C  C210  1  0.69765000  0.00927000  0.27204000  1.0
  C  C211  1  0.80236000  0.99074000  0.77204000  1.0
  C  C212  1  0.24101000  0.91829000  0.71500000  1.0
  C  C213  1  0.25899000  0.08171000  0.21500000  1.0
  C  C214  1  0.75899000  0.08171000  0.28500000  1.0
  C  C215  1  0.74101000  0.91829000  0.78500000  1.0
  C  C216  1  0.44785000  0.08283000  0.82089000  1.0
  C  C217  1  0.05215000  0.91717000  0.32089000  1.0
  C  C218  1  0.55214000  0.91717000  0.17911000  1.0
  C  C219  1  0.94786000  0.08283000  0.67911000  1.0
  C  C220  1  0.47194000  0.20441000  0.78657000  1.0
  C  C221  1  0.02806000  0.79559000  0.28657000  1.0
  C  C222  1  0.52805000  0.79560000  0.21343000  1.0
  C  C223  1  0.97195000  0.20441000  0.71343000  1.0
  C  C224  1  0.38619000  0.16062000  0.76177000  1.0
  C  C225  1  0.11380000  0.83938000  0.26177000  1.0
  C  C226  1  0.61379000  0.83938000  0.23823000  1.0
  C  C227  1  0.88620000  0.16062000  0.73823000  1.0
  C  C228  1  0.96120000  0.71503000  0.62620000  1.0
  C  C229  1  0.53879000  0.28497000  0.12620000  1.0
  C  C230  1  0.03880000  0.28496000  0.37380000  1.0
  C  C231  1  0.46121000  0.71504000  0.87380000  1.0
  C  C232  1  0.89465000  0.79828000  0.60531000  1.0
  C  C233  1  0.60535000  0.20172000  0.10531000  1.0
  C  C234  1  0.10535000  0.20171000  0.39469000  1.0
  C  C235  1  0.39465000  0.79828000  0.89469000  1.0
  C  C236  1  0.85258000  0.79893000  0.56356000  1.0
  C  C237  1  0.64742000  0.20107000  0.06356000  1.0
  C  C238  1  0.14743000  0.20107000  0.43643000  1.0
  C  C239  1  0.35257000  0.79893000  0.93644000  1.0
  C  C240  1  0.87880000  0.71533000  0.54158000  1.0
  C  C241  1  0.62120000  0.28467000  0.04159000  1.0
  C  C242  1  0.12121000  0.28467000  0.45841000  1.0
  C  C243  1  0.37879000  0.71533000  0.95841000  1.0
  C  C244  1  0.94367000  0.63144000  0.56185000  1.0
  C  C245  1  0.55632000  0.36856000  0.06185000  1.0
  C  C246  1  0.05634000  0.36856000  0.43815000  1.0
  C  C247  1  0.44367000  0.63144000  0.93814000  1.0
  C  C248  1  0.98287000  0.63164000  0.60380000  1.0
  C  C249  1  0.51713000  0.36836000  0.10380000  1.0
  C  C250  1  0.01713000  0.36836000  0.39620000  1.0
  C  C251  1  0.48287000  0.63164000  0.89619000  1.0
  C  C252  1  0.85191000  0.78086000  0.46978000  1.0
  C  C253  1  0.64809000  0.21914000  0.96979000  1.0
  C  C254  1  0.14811000  0.21914000  0.53021000  1.0
  C  C255  1  0.35190000  0.78086000  0.03021000  1.0
  C  C256  1  0.75766000  0.67853000  0.43793000  1.0
  C  C257  1  0.74234000  0.32146000  0.93794000  1.0
  C  C258  1  0.24234000  0.32147000  0.56207000  1.0
  C  C259  1  0.25766000  0.67853000  0.06206000  1.0
  C  C260  1  0.77890000  0.64983000  0.47857000  1.0
  C  C261  1  0.72110000  0.35016000  0.97858000  1.0
  C  C262  1  0.22111000  0.35016000  0.52143000  1.0
  C  C263  1  0.27890000  0.64983000  0.02142000  1.0
  C  C264  1  0.72074000  0.02212000  0.89853000  1.0
  C  C265  1  0.77926000  0.97788000  0.39853000  1.0
  C  C266  1  0.27924000  0.97788000  0.10147000  1.0
  C  C267  1  0.22076000  0.02212000  0.60148000  1.0
  C  C268  1  0.77868000  0.92533000  0.91377000  1.0
  C  C269  1  0.72132000  0.07467000  0.41378000  1.0
  C  C270  1  0.22131000  0.07467000  0.08623000  1.0
  C  C271  1  0.27869000  0.92532000  0.58623000  1.0
  C  C272  1  0.93155000  0.87728000  0.90468000  1.0
  C  C273  1  0.56845000  0.12272000  0.40468000  1.0
  C  C274  1  0.06844000  0.12272000  0.09532000  1.0
  C  C275  1  0.43156000  0.87728000  0.59532000  1.0
  C  C276  1  0.98862000  0.78552000  0.91654000  1.0
  C  C277  1  0.51138000  0.21448000  0.41654000  1.0
  C  C278  1  0.01138000  0.21448000  0.08346000  1.0
  C  C279  1  0.48863000  0.78551000  0.58346000  1.0
  C  C280  1  0.89035000  0.73945000  0.93697000  1.0
  C  C281  1  0.60965000  0.26055000  0.43697000  1.0
  C  C282  1  0.10965000  0.26055000  0.06303000  1.0
  C  C283  1  0.39036000  0.73944000  0.56303000  1.0
  C  C284  1  0.73941000  0.78699000  0.94754000  1.0
  C  C285  1  0.76060000  0.21302000  0.44753000  1.0
  C  C286  1  0.26060000  0.21301000  0.05247000  1.0
  C  C287  1  0.23941000  0.78698000  0.55247000  1.0
  C  C288  1  0.68483000  0.87968000  0.93625000  1.0
  C  C289  1  0.81517000  0.12032000  0.43625000  1.0
  C  C290  1  0.31517000  0.12031000  0.06375000  1.0
  C  C291  1  0.18484000  0.87968000  0.56375000  1.0
  C  C292  1  0.04833000  0.58454000  0.92709000  1.0
  C  C293  1  0.45167000  0.41546000  0.42709000  1.0
  C  C294  1  0.95167000  0.41546000  0.07291000  1.0
  C  C295  1  0.54834000  0.58453000  0.57291000  1.0
  C  C296  1  0.08035000  0.59556000  0.88502000  1.0
  C  C297  1  0.41965000  0.40444000  0.38502000  1.0
  C  C298  1  0.91964000  0.40444000  0.11498000  1.0
  C  C299  1  0.58035000  0.59556000  0.61498000  1.0
  C  C300  1  0.19655000  0.52948000  0.86552000  1.0
  C  C301  1  0.30345000  0.47052000  0.36552000  1.0
  C  C302  1  0.80344000  0.47052000  0.13448000  1.0
  C  C303  1  0.69655000  0.52948000  0.63448000  1.0
  C  C304  1  0.27711000  0.45013000  0.88663000  1.0
  C  C305  1  0.22289000  0.54988000  0.38663000  1.0
  C  C306  1  0.72289000  0.54988000  0.11337000  1.0
  C  C307  1  0.77709000  0.45012000  0.61337000  1.0
  C  C308  1  0.23763000  0.43707000  0.92808000  1.0
  C  C309  1  0.26238000  0.56294000  0.42808000  1.0
  C  C310  1  0.76238000  0.56294000  0.07192000  1.0
  C  C311  1  0.73762000  0.43706000  0.57192000  1.0
  C  C312  1  0.12537000  0.50441000  0.94854000  1.0
  C  C313  1  0.37464000  0.49559000  0.44854000  1.0
  C  C314  1  0.87464000  0.49559000  0.05145000  1.0
  C  C315  1  0.62537000  0.50440000  0.55146000  1.0
  C  C316  1  0.40578000  0.38246000  0.86475000  1.0
  C  C317  1  0.09422000  0.61755000  0.36475000  1.0
  C  C318  1  0.59423000  0.61755000  0.13525000  1.0
  C  C319  1  0.90577000  0.38244000  0.63525000  1.0
  N  N320  1  0.80798000  0.23580000  0.84898000  1.0
  N  N321  1  0.69203000  0.76421000  0.34898000  1.0
  N  N322  1  0.19202000  0.76420000  0.15102000  1.0
  N  N323  1  0.30798000  0.23580000  0.65102000  1.0
  N  N324  1  0.94259000  0.33373000  0.82818000  1.0
  N  N325  1  0.55741000  0.66627000  0.32818000  1.0
  N  N326  1  0.05741000  0.66627000  0.17182000  1.0
  N  N327  1  0.44258000  0.33373000  0.67182000  1.0
  N  N328  1  0.51056000  0.15466000  0.82316000  1.0
  N  N329  1  0.98944000  0.84534000  0.32316000  1.0
  N  N330  1  0.48943000  0.84534000  0.17684000  1.0
  N  N331  1  0.01057000  0.15466000  0.67684000  1.0
  N  N332  1  0.37031000  0.08357000  0.78402000  1.0
  N  N333  1  0.12969000  0.91644000  0.28402000  1.0
  N  N334  1  0.62968000  0.91644000  0.21598000  1.0
  N  N335  1  0.87031000  0.08357000  0.71598000  1.0
  N  N336  1  0.80431000  0.75977000  0.43278000  1.0
  N  N337  1  0.69569000  0.24023000  0.93278000  1.0
  N  N338  1  0.19570000  0.24023000  0.56722000  1.0
  N  N339  1  0.30431000  0.75976000  0.06722000  1.0
  N  N340  1  0.83840000  0.71578000  0.49886000  1.0
  N  N341  1  0.66160000  0.28422000  0.99886000  1.0
  N  N342  1  0.16161000  0.28421000  0.50114000  1.0
  N  N343  1  0.33840000  0.71578000  0.00114000  1.0
  O  O344  1  0.59091000  0.07323000  0.91132000  1.0
  O  O345  1  0.90909000  0.92677000  0.41132000  1.0
  O  O346  1  0.40907000  0.92676000  0.08868000  1.0
  O  O347  1  0.09093000  0.07324000  0.58868000  1.0
  O  O348  1  0.80189000  0.05324000  0.87210000  1.0
  O  O349  1  0.69810000  0.94676000  0.37210000  1.0
  O  O350  1  0.19809000  0.94676000  0.12790000  1.0
  O  O351  1  0.30191000  0.05324000  0.62790000  1.0
  O  O352  1  0.93618000  0.64762000  0.94929000  1.0
  O  O353  1  0.56382000  0.35238000  0.44929000  1.0
  O  O354  1  0.06382000  0.35238000  0.05071000  1.0
  O  O355  1  0.43619000  0.64762000  0.55071000  1.0
  O  O356  1  0.46435000  0.40923000  0.83273000  1.0
  O  O357  1  0.03565000  0.59077000  0.33273000  1.0
  O  O358  1  0.53565000  0.59078000  0.16727000  1.0
  O  O359  1  0.96434000  0.40921000  0.66727000  1.0
  O  O360  1  0.44651000  0.30163000  0.88160000  1.0
  O  O361  1  0.05349000  0.69838000  0.38160000  1.0
  O  O362  1  0.55349000  0.69838000  0.11840000  1.0
  O  O363  1  0.94651000  0.30162000  0.61840000  1.0
