# generated using pymatgen
data_HgH14C14(IN2)2
_symmetry_space_group_name_H-M   'P 1'
_cell_length_a   8.66052000
_cell_length_b   8.93247000
_cell_length_c   11.51930000
_cell_angle_alpha   74.55990000
_cell_angle_beta   88.19080000
_cell_angle_gamma   84.62470000
_symmetry_Int_Tables_number   1
_chemical_formula_structural   HgH14C14(IN2)2
_chemical_formula_sum   'Hg2 H28 C28 I4 N8'
_cell_volume   855.17182773
_cell_formula_units_Z   2
loop_
 _symmetry_equiv_pos_site_id
 _symmetry_equiv_pos_as_xyz
  1  'x, y, z'
loop_
 _atom_site_type_symbol
 _atom_site_label
 _atom_site_symmetry_multiplicity
 _atom_site_fract_x
 _atom_site_fract_y
 _atom_site_fract_z
 _atom_site_occupancy
  Hg  Hg0  1  0.78664000  0.48840000  0.33428000  1.0
  Hg  Hg1  1  0.21336000  0.51160000  0.66572000  1.0
  H  H2  1  0.65483000  0.10926000  0.40526000  1.0
  H  H3  1  0.34518000  0.89074000  0.59475000  1.0
  H  H4  1  0.78469000  0.41083000  0.04778000  1.0
  H  H5  1  0.21531000  0.58917000  0.95222000  1.0
  H  H6  1  0.43194000  0.33552000  0.31354000  1.0
  H  H7  1  0.56805000  0.66448000  0.68646000  1.0
  H  H8  1  0.34837000  0.22530000  0.12081000  1.0
  H  H9  1  0.65163000  0.77470000  0.87919000  1.0
  H  H10  1  0.83427000  0.77742000  0.13838000  1.0
  H  H11  1  0.16573000  0.22258000  0.86162000  1.0
  H  H12  1  0.61728000  0.36007000  0.86734000  1.0
  H  H13  1  0.38272000  0.63993000  0.13266000  1.0
  H  H14  1  0.46246000  0.24209000  0.91595000  1.0
  H  H15  1  0.53754000  0.75791000  0.08405000  1.0
  H  H16  1  0.75939000  0.20077000  0.76088000  1.0
  H  H17  1  0.24061000  0.79923000  0.23912000  1.0
  H  H18  1  0.98420000  0.75764000  0.95614000  1.0
  H  H19  1  0.01580000  0.24236000  0.04386000  1.0
  H  H20  1  0.64616000  0.00554000  0.13392000  1.0
  H  H21  1  0.35384000  0.99446000  0.86608000  1.0
  H  H22  1  0.08992000  0.02365000  0.73754000  1.0
  H  H23  1  0.91008000  0.97635000  0.26246000  1.0
  H  H24  1  0.01169000  0.84741000  0.73627000  1.0
  H  H25  1  0.98831000  0.15260000  0.26373000  1.0
  H  H26  1  0.76919000  0.86882000  0.59854000  1.0
  H  H27  1  0.23081000  0.13119000  0.40145000  1.0
  H  H28  1  0.98886000  0.27604000  0.58801000  1.0
  H  H29  1  0.01114000  0.72396000  0.41199000  1.0
  C  C30  1  0.73956000  0.10950000  0.47238000  1.0
  C  C31  1  0.26044000  0.89050000  0.52761000  1.0
  C  C32  1  0.67893000  0.37476000  0.09614000  1.0
  C  C33  1  0.32107000  0.62524000  0.90386000  1.0
  C  C34  1  0.49363000  0.33282000  0.23049000  1.0
  C  C35  1  0.50637000  0.66718000  0.76951000  1.0
  C  C36  1  0.45049000  0.27888000  0.13601000  1.0
  C  C37  1  0.54951000  0.72111000  0.86398000  1.0
  C  C38  1  0.81722000  0.87026000  0.05526000  1.0
  C  C39  1  0.18278000  0.12974000  0.94474000  1.0
  C  C40  1  0.57983000  0.26156000  0.93861000  1.0
  C  C41  1  0.42017000  0.73844000  0.06139000  1.0
  C  C42  1  0.69087000  0.11850000  0.94603000  1.0
  C  C43  1  0.30913000  0.88150000  0.05397000  1.0
  C  C44  1  0.77567000  0.10645000  0.84317000  1.0
  C  C45  1  0.22433000  0.89355000  0.15683000  1.0
  C  C46  1  0.88214000  0.97798000  0.84552000  1.0
  C  C47  1  0.11786000  0.02202000  0.15448000  1.0
  C  C48  1  0.90220000  0.85918000  0.95254000  1.0
  C  C49  1  0.09780000  0.14082000  0.04746000  1.0
  C  C50  1  0.71170000  0.99914000  0.05258000  1.0
  C  C51  1  0.28830000  0.00086000  0.94742000  1.0
  C  C52  1  0.98108000  0.96952000  0.73645000  1.0
  C  C53  1  0.01892000  0.03048000  0.26355000  1.0
  C  C54  1  0.79421000  0.98965000  0.56771000  1.0
  C  C55  1  0.20579000  0.01034000  0.43230000  1.0
  C  C56  1  0.91143000  0.20111000  0.56318000  1.0
  C  C57  1  0.08857000  0.79889000  0.43682000  1.0
  I  I58  1  0.61787000  0.72970000  0.39160000  1.0
  I  I59  1  0.38213000  0.27030000  0.60840000  1.0
  I  I60  1  0.07663000  0.48357000  0.22433000  1.0
  I  I61  1  0.92336000  0.51642000  0.77566000  1.0
  N  N62  1  0.63619000  0.39180000  0.20420000  1.0
  N  N63  1  0.36381000  0.60820000  0.79580000  1.0
  N  N64  1  0.56854000  0.30701000  0.05164000  1.0
  N  N65  1  0.43146000  0.69299000  0.94836000  1.0
  N  N66  1  0.90320000  0.04934000  0.62375000  1.0
  N  N67  1  0.09680000  0.95067000  0.37625000  1.0
  N  N68  1  0.81359000  0.24046000  0.47097000  1.0
  N  N69  1  0.18641000  0.75954000  0.52903000  1.0
