# generated using pymatgen
data_AgH5C11N(OF)2
_symmetry_space_group_name_H-M   'P 1'
_cell_length_a   9.77888000
_cell_length_b   10.20140000
_cell_length_c   11.10560000
_cell_angle_alpha   107.71200000
_cell_angle_beta   98.99980000
_cell_angle_gamma   91.81020000
_symmetry_Int_Tables_number   1
_chemical_formula_structural   AgH5C11N(OF)2
_chemical_formula_sum   'Ag4 H20 C44 N4 O8 F8'
_cell_volume   1038.66927919
_cell_formula_units_Z   4
loop_
 _symmetry_equiv_pos_site_id
 _symmetry_equiv_pos_as_xyz
  1  'x, y, z'
loop_
 _atom_site_type_symbol
 _atom_site_label
 _atom_site_symmetry_multiplicity
 _atom_site_fract_x
 _atom_site_fract_y
 _atom_site_fract_z
 _atom_site_occupancy
  Ag  Ag0  1  0.59176000  0.40898000  0.60766000  1.0
  Ag  Ag1  1  0.40824000  0.59102000  0.39234000  1.0
  Ag  Ag2  1  0.45281000  0.16458000  0.61823000  1.0
  Ag  Ag3  1  0.54719000  0.83542000  0.38177000  1.0
  H  H4  1  0.00744000  0.77032000  0.01530000  1.0
  H  H5  1  0.99256000  0.22968000  0.98470000  1.0
  H  H6  1  0.25591000  0.76347000  0.10805000  1.0
  H  H7  1  0.74409000  0.23653000  0.89195000  1.0
  H  H8  1  0.38295000  0.56081000  0.01576000  1.0
  H  H9  1  0.61705000  0.43919000  0.98424000  1.0
  H  H10  1  0.26494000  0.36496000  0.82818000  1.0
  H  H11  1  0.73506000  0.63504000  0.17182000  1.0
  H  H12  1  0.01553000  0.37080000  0.73777000  1.0
  H  H13  1  0.98447000  0.62920000  0.26223000  1.0
  H  H14  1  0.59733000  0.24854000  0.14737000  1.0
  H  H15  1  0.40266000  0.75146000  0.85263000  1.0
  H  H16  1  0.53634000  0.21382000  0.34541000  1.0
  H  H17  1  0.46366000  0.78618000  0.65459000  1.0
  H  H18  1  0.30676000  0.09855000  0.33888000  1.0
  H  H19  1  0.69325000  0.90145000  0.66112000  1.0
  H  H20  1  0.13745000  0.01541000  0.13441000  1.0
  H  H21  1  0.86255000  0.98459000  0.86559000  1.0
  H  H22  1  0.19940000  0.04529000  0.93376000  1.0
  H  H23  1  0.80060000  0.95471000  0.06624000  1.0
  C  C24  1  0.26850000  0.38849000  0.54946000  1.0
  C  C25  1  0.73150000  0.61150000  0.45054000  1.0
  C  C26  1  0.10692000  0.58102000  0.59062000  1.0
  C  C27  1  0.89308000  0.41898000  0.40938000  1.0
  C  C28  1  0.13238000  0.44774000  0.52083000  1.0
  C  C29  1  0.86762000  0.55226000  0.47917000  1.0
  C  C30  1  0.02250000  0.36877000  0.42877000  1.0
  C  C31  1  0.97750000  0.63123000  0.57122000  1.0
  C  C32  1  0.75170000  0.14672000  0.55024000  1.0
  C  C33  1  0.24830000  0.85328000  0.44976000  1.0
  C  C34  1  0.90008000  0.00512000  0.39965000  1.0
  C  C35  1  0.09991000  0.99488000  0.60035000  1.0
  C  C36  1  0.87894000  0.07018000  0.52421000  1.0
  C  C37  1  0.12105000  0.92982000  0.47579000  1.0
  C  C38  1  0.98157000  0.06320000  0.62372000  1.0
  C  C39  1  0.01843000  0.93680000  0.37628000  1.0
  C  C40  1  0.85590000  0.57163000  0.81969000  1.0
  C  C41  1  0.14410000  0.42837000  0.18031000  1.0
  C  C42  1  0.99815000  0.57102000  0.87132000  1.0
  C  C43  1  0.00185000  0.42898000  0.12868000  1.0
  C  C44  1  0.06524000  0.68280000  0.97510000  1.0
  C  C45  1  0.93476000  0.31719000  0.02490000  1.0
  C  C46  1  0.20367000  0.67842000  0.02632000  1.0
  C  C47  1  0.79633000  0.32158000  0.97368000  1.0
  C  C48  1  0.27506000  0.56396000  0.97386000  1.0
  C  C49  1  0.72494000  0.43604000  0.02613000  1.0
  C  C50  1  0.20870000  0.45338000  0.86981000  1.0
  C  C51  1  0.79130000  0.54662000  0.13019000  1.0
  C  C52  1  0.06994000  0.45581000  0.81828000  1.0
  C  C53  1  0.93006000  0.54419000  0.18173000  1.0
  C  C54  1  0.43593000  0.16842000  0.91623000  1.0
  C  C55  1  0.56407000  0.83158000  0.08377000  1.0
  C  C56  1  0.40164000  0.14890000  0.02940000  1.0
  C  C57  1  0.59836000  0.85110000  0.97060000  1.0
  C  C58  1  0.49756000  0.19657000  0.14501000  1.0
  C  C59  1  0.50243000  0.80343000  0.85499000  1.0
  C  C60  1  0.46269000  0.17708000  0.25544000  1.0
  C  C61  1  0.53731000  0.82292000  0.74456000  1.0
  C  C62  1  0.33354000  0.11194000  0.25146000  1.0
  C  C63  1  0.66647000  0.88806000  0.74854000  1.0
  C  C64  1  0.23838000  0.06510000  0.13638000  1.0
  C  C65  1  0.76163000  0.93490000  0.86362000  1.0
  C  C66  1  0.27155000  0.08236000  0.02456000  1.0
  C  C67  1  0.72845000  0.91764000  0.97544000  1.0
  N  N68  1  0.73882000  0.56790000  0.77520000  1.0
  N  N69  1  0.26118000  0.43209000  0.22481000  1.0
  N  N70  1  0.46372000  0.18532000  0.82327000  1.0
  N  N71  1  0.53628000  0.81467000  0.17673000  1.0
  O  O72  1  0.37797000  0.46286000  0.55491000  1.0
  O  O73  1  0.62204000  0.53714000  0.44509000  1.0
  O  O74  1  0.26025000  0.27245000  0.56720000  1.0
  O  O75  1  0.73975000  0.72755000  0.43280000  1.0
  O  O76  1  0.77306000  0.27588000  0.60222000  1.0
  O  O77  1  0.22694000  0.72413000  0.39779000  1.0
  O  O78  1  0.63557000  0.07509000  0.51849000  1.0
  O  O79  1  0.36443000  0.92491000  0.48150000  1.0
  F  F80  1  0.20746000  0.66376000  0.68287000  1.0
  F  F81  1  0.79255000  0.33624000  0.31713000  1.0
  F  F82  1  0.04108000  0.24095000  0.35291000  1.0
  F  F83  1  0.95892000  0.75905000  0.64709000  1.0
  F  F84  1  0.80544000  0.01093000  0.29849000  1.0
  F  F85  1  0.19456000  0.98907000  0.70151000  1.0
  F  F86  1  0.96555000  0.12215000  0.74782000  1.0
  F  F87  1  0.03445000  0.87786000  0.25218000  1.0
