# generated using pymatgen
data_H9PbC13N3O2
_symmetry_space_group_name_H-M   'P 1'
_cell_length_a   8.49803000
_cell_length_b   11.16700000
_cell_length_c   13.64490000
_cell_angle_alpha   111.58700000
_cell_angle_beta   90.00000000
_cell_angle_gamma   90.00000000
_symmetry_Int_Tables_number   1
_chemical_formula_structural   H9PbC13N3O2
_chemical_formula_sum   'H36 Pb4 C52 N12 O8'
_cell_volume   1204.04492922
_cell_formula_units_Z   4
loop_
 _symmetry_equiv_pos_site_id
 _symmetry_equiv_pos_as_xyz
  1  'x, y, z'
loop_
 _atom_site_type_symbol
 _atom_site_label
 _atom_site_symmetry_multiplicity
 _atom_site_fract_x
 _atom_site_fract_y
 _atom_site_fract_z
 _atom_site_occupancy
  H  H0  1  0.11812000  0.90591000  0.32178000  1.0
  H  H1  1  0.61812000  0.09409000  0.17822000  1.0
  H  H2  1  0.88188000  0.09409000  0.67822000  1.0
  H  H3  1  0.38188000  0.90591000  0.82178000  1.0
  H  H4  1  0.36750000  0.55868000  0.29307000  1.0
  H  H5  1  0.86749000  0.44132000  0.20693000  1.0
  H  H6  1  0.63251000  0.44133000  0.70693000  1.0
  H  H7  1  0.13251000  0.55867000  0.79307000  1.0
  H  H8  1  0.22561000  0.44858000  0.11875000  1.0
  H  H9  1  0.72560000  0.55142000  0.38124000  1.0
  H  H10  1  0.77440000  0.55143000  0.88124000  1.0
  H  H11  1  0.27440000  0.44857000  0.61876000  1.0
  H  H12  1  0.05439000  0.58400000  0.05137000  1.0
  H  H13  1  0.55439000  0.41600000  0.44863000  1.0
  H  H14  1  0.94561000  0.41600000  0.94863000  1.0
  H  H15  1  0.44561000  0.58400000  0.55137000  1.0
  H  H16  1  0.21407000  0.12980000  0.60310000  1.0
  H  H17  1  0.71407000  0.87020000  0.89689000  1.0
  H  H18  1  0.78593000  0.87021000  0.39689000  1.0
  H  H19  1  0.28593000  0.12979000  0.10311000  1.0
  H  H20  1  0.59105000  0.19015000  0.95159000  1.0
  H  H21  1  0.09105000  0.80985000  0.54840000  1.0
  H  H22  1  0.40895000  0.80985000  0.04840000  1.0
  H  H23  1  0.90895000  0.19015000  0.45160000  1.0
  H  H24  1  0.46608000  0.40661000  0.02440000  1.0
  H  H25  1  0.96608000  0.59338000  0.47560000  1.0
  H  H26  1  0.53392000  0.59339000  0.97560000  1.0
  H  H27  1  0.03392000  0.40661000  0.52440000  1.0
  H  H28  1  0.27888000  0.47623000  0.91337000  1.0
  H  H29  1  0.77889000  0.52377000  0.58663000  1.0
  H  H30  1  0.72112000  0.52377000  0.08663000  1.0
  H  H31  1  0.22112000  0.47623000  0.41337000  1.0
  H  H32  1  0.21614000  0.32408000  0.73238000  1.0
  H  H33  1  0.71614000  0.67592000  0.76762000  1.0
  H  H34  1  0.78386000  0.67592000  0.26762000  1.0
  H  H35  1  0.28386000  0.32408000  0.23238000  1.0
  Pb  Pb36  1  0.60090000  0.86820000  0.60269000  1.0
  Pb  Pb37  1  0.10090000  0.13180000  0.89731000  1.0
  Pb  Pb38  1  0.39910000  0.13180000  0.39731000  1.0
  Pb  Pb39  1  0.89910000  0.86820000  0.10269000  1.0
  C  C40  1  0.14936000  0.80556000  0.27881000  1.0
  C  C41  1  0.64936000  0.19443000  0.22119000  1.0
  C  C42  1  0.85064000  0.19444000  0.72119000  1.0
  C  C43  1  0.35064000  0.80556000  0.77881000  1.0
  C  C44  1  0.25515000  0.74025000  0.32039000  1.0
  C  C45  1  0.75515000  0.25975000  0.17961000  1.0
  C  C46  1  0.74486000  0.25975000  0.67961000  1.0
  C  C47  1  0.24485000  0.74025000  0.82039000  1.0
  C  C48  1  0.28465000  0.61003000  0.26178000  1.0
  C  C49  1  0.78464000  0.38997000  0.23822000  1.0
  C  C50  1  0.71536000  0.38998000  0.73822000  1.0
  C  C51  1  0.21536000  0.61002000  0.76178000  1.0
  C  C52  1  0.20899000  0.55032000  0.16546000  1.0
  C  C53  1  0.70898000  0.44968000  0.33454000  1.0
  C  C54  1  0.79102000  0.44968000  0.83454000  1.0
  C  C55  1  0.29102000  0.55032000  0.66546000  1.0
  C  C56  1  0.11083000  0.62383000  0.12839000  1.0
  C  C57  1  0.61083000  0.37617000  0.37161000  1.0
  C  C58  1  0.88917000  0.37617000  0.87161000  1.0
  C  C59  1  0.38917000  0.62383000  0.62839000  1.0
  C  C60  1  0.33695000  0.80441000  0.42311000  1.0
  C  C61  1  0.83694000  0.19558000  0.07689000  1.0
  C  C62  1  0.66305000  0.19559000  0.57689000  1.0
  C  C63  1  0.16305000  0.80441000  0.92311000  1.0
  C  C64  1  0.31528000  0.09274000  0.63359000  1.0
  C  C65  1  0.81528000  0.90726000  0.86640000  1.0
  C  C66  1  0.68472000  0.90726000  0.36641000  1.0
  C  C67  1  0.18472000  0.09274000  0.13360000  1.0
  C  C68  1  0.36987000  0.17294000  0.73685000  1.0
  C  C69  1  0.86987000  0.82706000  0.76314000  1.0
  C  C70  1  0.63013000  0.82707000  0.26314000  1.0
  C  C71  1  0.13013000  0.17293000  0.23686000  1.0
  C  C72  1  0.48257000  0.13500000  0.79924000  1.0
  C  C73  1  0.98258000  0.86499000  0.70075000  1.0
  C  C74  1  0.51743000  0.86499000  0.20076000  1.0
  C  C75  1  0.01743000  0.13500000  0.29925000  1.0
  C  C76  1  0.50994000  0.22218000  0.90436000  1.0
  C  C77  1  0.00995000  0.77782000  0.59564000  1.0
  C  C78  1  0.49006000  0.77782000  0.09564000  1.0
  C  C79  1  0.99006000  0.22218000  0.40436000  1.0
  C  C80  1  0.43908000  0.34193000  0.94425000  1.0
  C  C81  1  0.93908000  0.65807000  0.55575000  1.0
  C  C82  1  0.56092000  0.65807000  0.05575000  1.0
  C  C83  1  0.06092000  0.34193000  0.44425000  1.0
  C  C84  1  0.33366000  0.38137000  0.88222000  1.0
  C  C85  1  0.83367000  0.61863000  0.61778000  1.0
  C  C86  1  0.66633000  0.61863000  0.11778000  1.0
  C  C87  1  0.16633000  0.38137000  0.38222000  1.0
  C  C88  1  0.30035000  0.29676000  0.78090000  1.0
  C  C89  1  0.80035000  0.70324000  0.71910000  1.0
  C  C90  1  0.69965000  0.70325000  0.21910000  1.0
  C  C91  1  0.19964000  0.29676000  0.28090000  1.0
  N  N92  1  0.08169000  0.74892000  0.18435000  1.0
  N  N93  1  0.58169000  0.25108000  0.31565000  1.0
  N  N94  1  0.91831000  0.25108000  0.81565000  1.0
  N  N95  1  0.41831000  0.74892000  0.68435000  1.0
  N  N96  1  0.29356000  0.92618000  0.47732000  1.0
  N  N97  1  0.79356000  0.07382000  0.02268000  1.0
  N  N98  1  0.70644000  0.07382000  0.52268000  1.0
  N  N99  1  0.20644000  0.92618000  0.97732000  1.0
  N  N100  1  0.36966000  0.98049000  0.57275000  1.0
  N  N101  1  0.86965000  0.01951000  0.92725000  1.0
  N  N102  1  0.63034000  0.01951000  0.42725000  1.0
  N  N103  1  0.13034000  0.98049000  0.07275000  1.0
  O  O104  1  0.43910000  0.73811000  0.45069000  1.0
  O  O105  1  0.93910000  0.26189000  0.04931000  1.0
  O  O106  1  0.56089000  0.26189000  0.54932000  1.0
  O  O107  1  0.06089000  0.73811000  0.95069000  1.0
  O  O108  1  0.55798000  0.02586000  0.76648000  1.0
  O  O109  1  0.05798000  0.97414000  0.73352000  1.0
  O  O110  1  0.44202000  0.97414000  0.23352000  1.0
  O  O111  1  0.94202000  0.02586000  0.26648000  1.0
