# generated using pymatgen
data_CdH6C6Br2N2O
_symmetry_space_group_name_H-M   'P 1'
_cell_length_a   7.30087000
_cell_length_b   7.49123000
_cell_length_c   9.13086000
_cell_angle_alpha   91.73550000
_cell_angle_beta   110.35500000
_cell_angle_gamma   99.03850000
_symmetry_Int_Tables_number   1
_chemical_formula_structural   CdH6C6Br2N2O
_chemical_formula_sum   'Cd2 H12 C12 Br4 N4 O2'
_cell_volume   460.44238628
_cell_formula_units_Z   2
loop_
 _symmetry_equiv_pos_site_id
 _symmetry_equiv_pos_as_xyz
  1  'x, y, z'
loop_
 _atom_site_type_symbol
 _atom_site_label
 _atom_site_symmetry_multiplicity
 _atom_site_fract_x
 _atom_site_fract_y
 _atom_site_fract_z
 _atom_site_occupancy
  Cd  Cd0  1  0.56009000  0.76847000  0.59222000  1.0
  Cd  Cd1  1  0.43989000  0.23155000  0.40776000  1.0
  H  H2  1  0.06334000  0.79315000  0.19377000  1.0
  H  H3  1  0.93667000  0.20685000  0.80623000  1.0
  H  H4  1  0.32881000  0.67261000  0.13726000  1.0
  H  H5  1  0.67120000  0.32742000  0.86273000  1.0
  H  H6  1  0.28609000  0.59404000  0.85420000  1.0
  H  H7  1  0.71391000  0.40596000  0.14579000  1.0
  H  H8  1  0.97239000  0.63490000  0.64339000  1.0
  H  H9  1  0.02760000  0.36508000  0.35661000  1.0
  H  H10  1  0.82630000  0.86982000  0.21219000  1.0
  H  H11  1  0.17369000  0.13017000  0.78780000  1.0
  H  H12  1  0.61390000  0.96691000  0.13368000  1.0
  H  H13  1  0.38609000  0.03307000  0.86631000  1.0
  C  C14  1  0.87441000  0.77804000  0.94737000  1.0
  C  C15  1  0.12558000  0.22197000  0.05263000  1.0
  C  C16  1  0.04353000  0.75606000  0.07207000  1.0
  C  C17  1  0.95647000  0.24393000  0.92793000  1.0
  C  C18  1  0.19529000  0.68977000  0.04075000  1.0
  C  C19  1  0.80473000  0.31023000  0.95927000  1.0
  C  C20  1  0.17226000  0.64593000  0.88563000  1.0
  C  C21  1  0.82773000  0.35407000  0.11436000  1.0
  C  C22  1  0.99767000  0.66864000  0.76678000  1.0
  C  C23  1  0.00233000  0.33136000  0.23322000  1.0
  C  C24  1  0.70943000  0.85952000  0.96997000  1.0
  C  C25  1  0.29058000  0.14048000  0.03003000  1.0
  Br  Br26  1  0.22891000  0.91314000  0.48227000  1.0
  Br  Br27  1  0.77104000  0.08687000  0.51773000  1.0
  Br  Br28  1  0.63505000  0.57364000  0.36630000  1.0
  Br  Br29  1  0.36504000  0.42637000  0.63379000  1.0
  N  N30  1  0.85258000  0.73358000  0.79722000  1.0
  N  N31  1  0.14742000  0.26642000  0.20277000  1.0
  N  N32  1  0.71813000  0.89927000  0.11573000  1.0
  N  N33  1  0.28186000  0.10071000  0.88426000  1.0
  O  O34  1  0.56987000  0.89267000  0.85187000  1.0
  O  O35  1  0.43013000  0.10733000  0.14812000  1.0
