# generated using pymatgen
data_CuPH10C10(NO2)2
_symmetry_space_group_name_H-M   'P 1'
_cell_length_a   8.20639000
_cell_length_b   8.74170000
_cell_length_c   16.94446567
_cell_angle_alpha   89.99865141
_cell_angle_beta   79.31560356
_cell_angle_gamma   89.99870000
_symmetry_Int_Tables_number   1
_chemical_formula_structural   CuPH10C10(NO2)2
_chemical_formula_sum   'Cu4 P4 H40 C40 N8 O16'
_cell_volume   1194.48493187
_cell_formula_units_Z   4
loop_
 _symmetry_equiv_pos_site_id
 _symmetry_equiv_pos_as_xyz
  1  'x, y, z'
loop_
 _atom_site_type_symbol
 _atom_site_label
 _atom_site_symmetry_multiplicity
 _atom_site_fract_x
 _atom_site_fract_y
 _atom_site_fract_z
 _atom_site_occupancy
  Cu  Cu0  1  0.29158000  0.63356000  0.98801000  1.0
  Cu  Cu1  1  0.29156000  0.36643000  0.48801000  1.0
  Cu  Cu2  1  0.70843000  0.36644000  0.01199000  1.0
  Cu  Cu3  1  0.70844000  0.63357000  0.51199000  1.0
  P  P4  1  0.25808000  0.00482000  0.97646000  1.0
  P  P5  1  0.25809000  0.99518000  0.47645000  1.0
  P  P6  1  0.74192000  0.99518000  0.02354000  1.0
  P  P7  1  0.74192000  0.00483000  0.52354000  1.0
  H  H8  1  0.50802000  0.10627000  0.94679000  1.0
  H  H9  1  0.50804000  0.89373000  0.44678000  1.0
  H  H10  1  0.49197000  0.89373000  0.05322000  1.0
  H  H11  1  0.49197000  0.10627000  0.55321000  1.0
  H  H12  1  0.03476000  0.92256000  0.93345000  1.0
  H  H13  1  0.03476000  0.07745000  0.43344000  1.0
  H  H14  1  0.96523000  0.07744000  0.06656000  1.0
  H  H15  1  0.96525000  0.92256000  0.56655000  1.0
  H  H16  1  0.43848000  0.35751000  0.91691000  1.0
  H  H17  1  0.43848000  0.64249000  0.41689000  1.0
  H  H18  1  0.56151000  0.64249000  0.08310000  1.0
  H  H19  1  0.56152000  0.35752000  0.58310000  1.0
  H  H20  1  0.65376000  0.28712000  0.80319000  1.0
  H  H21  1  0.65376000  0.71287000  0.30318000  1.0
  H  H22  1  0.34624000  0.71288000  0.19681000  1.0
  H  H23  1  0.34624000  0.28713000  0.69681000  1.0
  H  H24  1  0.51745000  0.82264000  0.87335000  1.0
  H  H25  1  0.51745000  0.17735000  0.37335000  1.0
  H  H26  1  0.48255000  0.17736000  0.12665000  1.0
  H  H27  1  0.48256000  0.82265000  0.62665000  1.0
  H  H28  1  0.73018000  0.77130000  0.75318000  1.0
  H  H29  1  0.73018000  0.22868000  0.25318000  1.0
  H  H30  1  0.26982000  0.22870000  0.24682000  1.0
  H  H31  1  0.26982000  0.77132000  0.74683000  1.0
  H  H32  1  0.92837000  0.71999000  0.66879000  1.0
  H  H33  1  0.92838000  0.28000000  0.16879000  1.0
  H  H34  1  0.07162000  0.28002000  0.33121000  1.0
  H  H35  1  0.07161000  0.72000000  0.83122000  1.0
  H  H36  1  0.14504000  0.65059000  0.55666000  1.0
  H  H37  1  0.14505000  0.34939000  0.05666000  1.0
  H  H38  1  0.85495000  0.34941000  0.44334000  1.0
  H  H39  1  0.85494000  0.65061000  0.94335000  1.0
  H  H40  1  0.02981000  0.18689000  0.58495000  1.0
  H  H41  1  0.02980000  0.81310000  0.08495000  1.0
  H  H42  1  0.97020000  0.81312000  0.41505000  1.0
  H  H43  1  0.97020000  0.18690000  0.91505000  1.0
  H  H44  1  0.79740000  0.23893000  0.69458000  1.0
  H  H45  1  0.79740000  0.76106000  0.19457000  1.0
  H  H46  1  0.20261000  0.76107000  0.30542000  1.0
  H  H47  1  0.20260000  0.23894000  0.80543000  1.0
  C  C48  1  0.50878000  0.44661000  0.88065000  1.0
  C  C49  1  0.50878000  0.55338000  0.38064000  1.0
  C  C50  1  0.49122000  0.55339000  0.11935000  1.0
  C  C51  1  0.49122000  0.44662000  0.61935000  1.0
  C  C52  1  0.62837000  0.40806000  0.81469000  1.0
  C  C53  1  0.62836000  0.59193000  0.31468000  1.0
  C  C54  1  0.37164000  0.59193000  0.18531000  1.0
  C  C55  1  0.37163000  0.40807000  0.68532000  1.0
  C  C56  1  0.55129000  0.70566000  0.85519000  1.0
  C  C57  1  0.55129000  0.29433000  0.35518000  1.0
  C  C58  1  0.44870000  0.29434000  0.14482000  1.0
  C  C59  1  0.44871000  0.70567000  0.64482000  1.0
  C  C60  1  0.67181000  0.67489000  0.78812000  1.0
  C  C61  1  0.67181000  0.32509000  0.28812000  1.0
  C  C62  1  0.32819000  0.32511000  0.21188000  1.0
  C  C63  1  0.32819000  0.67491000  0.71189000  1.0
  C  C64  1  0.71399000  0.52291000  0.76577000  1.0
  C  C65  1  0.71399000  0.47707000  0.26577000  1.0
  C  C66  1  0.28601000  0.47709000  0.23423000  1.0
  C  C67  1  0.28601000  0.52293000  0.73423000  1.0
  C  C68  1  0.84301000  0.48568000  0.69569000  1.0
  C  C69  1  0.84301000  0.51430000  0.19569000  1.0
  C  C70  1  0.15699000  0.51432000  0.30430000  1.0
  C  C71  1  0.15699000  0.48570000  0.80431000  1.0
  C  C72  1  0.94384000  0.59953000  0.65332000  1.0
  C  C73  1  0.94384000  0.40045000  0.15331000  1.0
  C  C74  1  0.05616000  0.40048000  0.34668000  1.0
  C  C75  1  0.05616000  0.59955000  0.84669000  1.0
  C  C76  1  0.06886000  0.56082000  0.58954000  1.0
  C  C77  1  0.06887000  0.43917000  0.08954000  1.0
  C  C78  1  0.93114000  0.43919000  0.41046000  1.0
  C  C79  1  0.93114000  0.56083000  0.91046000  1.0
  C  C80  1  0.00232000  0.30359000  0.60517000  1.0
  C  C81  1  0.00231000  0.69639000  0.10517000  1.0
  C  C82  1  0.99769000  0.69641000  0.39483000  1.0
  C  C83  1  0.99768000  0.30361000  0.89483000  1.0
  C  C84  1  0.87315000  0.33465000  0.66820000  1.0
  C  C85  1  0.87315000  0.66534000  0.16819000  1.0
  C  C86  1  0.12685000  0.66535000  0.33181000  1.0
  C  C87  1  0.12685000  0.33466000  0.83181000  1.0
  N  N88  1  0.46819000  0.59371000  0.90102000  1.0
  N  N89  1  0.46818000  0.40629000  0.40102000  1.0
  N  N90  1  0.53181000  0.40629000  0.09898000  1.0
  N  N91  1  0.53182000  0.59372000  0.59898000  1.0
  N  N92  1  0.10150000  0.41424000  0.56622000  1.0
  N  N93  1  0.10150000  0.58574000  0.06622000  1.0
  N  N94  1  0.89850000  0.58576000  0.43378000  1.0
  N  N95  1  0.89850000  0.41425000  0.93379000  1.0
  O  O96  1  0.14455000  0.10554000  0.03592000  1.0
  O  O97  1  0.14456000  0.89445000  0.53591000  1.0
  O  O98  1  0.85544000  0.89446000  0.96409000  1.0
  O  O99  1  0.85545000  0.10555000  0.46408000  1.0
  O  O100  1  0.40149000  0.10068000  0.92236000  1.0
  O  O101  1  0.40151000  0.89932000  0.42235000  1.0
  O  O102  1  0.59850000  0.89932000  0.07764000  1.0
  O  O103  1  0.59850000  0.10069000  0.57764000  1.0
  O  O104  1  0.33863000  0.87334000  0.01617000  1.0
  O  O105  1  0.33863000  0.12665000  0.51616000  1.0
  O  O106  1  0.66135000  0.12665000  0.98384000  1.0
  O  O107  1  0.66137000  0.87335000  0.48383000  1.0
  O  O108  1  0.16140000  0.93754000  0.91117000  1.0
  O  O109  1  0.16141000  0.06246000  0.41115000  1.0
  O  O110  1  0.83859000  0.06246000  0.08884000  1.0
  O  O111  1  0.83860000  0.93754000  0.58884000  1.0
