# generated using pymatgen
data_Al2H18C19O11
_symmetry_space_group_name_H-M   'P 1'
_cell_length_a   6.66820000
_cell_length_b   14.40930000
_cell_length_c   16.66860000
_cell_angle_alpha   84.50140000
_cell_angle_beta   89.99970000
_cell_angle_gamma   89.99970000
_symmetry_Int_Tables_number   1
_chemical_formula_structural   Al2H18C19O11
_chemical_formula_sum   'Al4 H36 C38 O22'
_cell_volume   1594.21769353
_cell_formula_units_Z   2
loop_
 _symmetry_equiv_pos_site_id
 _symmetry_equiv_pos_as_xyz
  1  'x, y, z'
loop_
 _atom_site_type_symbol
 _atom_site_label
 _atom_site_symmetry_multiplicity
 _atom_site_fract_x
 _atom_site_fract_y
 _atom_site_fract_z
 _atom_site_occupancy
  Al  Al0  1  0.87297000  0.50069000  0.49977000  1.0
  Al  Al1  1  0.37297000  0.49931000  0.50023000  1.0
  Al  Al2  1  0.38861000  0.00381000  0.00148000  1.0
  Al  Al3  1  0.88861000  0.99618000  0.99852000  1.0
  H  H4  1  0.03346000  0.10071000  0.72670000  1.0
  H  H5  1  0.53333000  0.89928000  0.27328000  1.0
  H  H6  1  0.09891000  0.20111000  0.61304000  1.0
  H  H7  1  0.59878000  0.79891000  0.38695000  1.0
  H  H8  1  0.34557000  0.22541000  0.64428000  1.0
  H  H9  1  0.84547000  0.77463000  0.35574000  1.0
  H  H10  1  0.44077000  0.23214000  0.82364000  1.0
  H  H11  1  0.94080000  0.76790000  0.17639000  1.0
  H  H12  1  0.42245000  0.34968000  0.71945000  1.0
  H  H13  1  0.92250000  0.65037000  0.28059000  1.0
  H  H14  1  0.81097000  0.18092000  0.80162000  1.0
  H  H15  1  0.31095000  0.81904000  0.19834000  1.0
  H  H16  1  0.80827000  0.27933000  0.68355000  1.0
  H  H17  1  0.30822000  0.72063000  0.31641000  1.0
  H  H18  1  0.85411000  0.37325000  0.74034000  1.0
  H  H19  1  0.35418000  0.62672000  0.25964000  1.0
  H  H20  1  0.27514000  0.29463000  0.88035000  1.0
  H  H21  1  0.77527000  0.70538000  0.11967000  1.0
  H  H22  1  0.48828000  0.11248000  0.75264000  1.0
  H  H23  1  0.33141000  0.01597000  0.78291000  1.0
  H  H24  1  0.36921000  0.05065000  0.67879000  1.0
  H  H25  1  0.98818000  0.88758000  0.24737000  1.0
  H  H26  1  0.83123000  0.98406000  0.21709000  1.0
  H  H27  1  0.86901000  0.94940000  0.32121000  1.0
  H  H28  1  0.09401000  0.44038000  0.81535000  1.0
  H  H29  1  0.35514000  0.45832000  0.82240000  1.0
  H  H30  1  0.22828000  0.49501000  0.73125000  1.0
  H  H31  1  0.59419000  0.55961000  0.18467000  1.0
  H  H32  1  0.85534000  0.54172000  0.17763000  1.0
  H  H33  1  0.72845000  0.50500000  0.26878000  1.0
  H  H34  1  0.71249000  0.32515000  0.86687000  1.0
  H  H35  1  0.21260000  0.67480000  0.13308000  1.0
  H  H36  1  0.62432000  0.38151000  0.48399000  1.0
  H  H37  1  0.12432000  0.61847000  0.51606000  1.0
  H  H38  1  0.65007000  0.12062000  0.00912000  1.0
  H  H39  1  0.15008000  0.87937000  0.99087000  1.0
  C  C40  1  0.62203000  0.61633000  0.38543000  1.0
  C  C41  1  0.12208000  0.38367000  0.61457000  1.0
  C  C42  1  0.62267000  0.60442000  0.60593000  1.0
  C  C43  1  0.12263000  0.39558000  0.39407000  1.0
  C  C44  1  0.12203000  0.33498000  0.33020000  1.0
  C  C45  1  0.62203000  0.66502000  0.66981000  1.0
  C  C46  1  0.12180000  0.28263000  0.27660000  1.0
  C  C47  1  0.62178000  0.71736000  0.72339000  1.0
  C  C48  1  0.12292000  0.22442000  0.21783000  1.0
  C  C49  1  0.62291000  0.77557000  0.78216000  1.0
  C  C50  1  0.12507000  0.17144000  0.16479000  1.0
  C  C51  1  0.62508000  0.82856000  0.83520000  1.0
  C  C52  1  0.16899000  0.14225000  0.73577000  1.0
  C  C53  1  0.66889000  0.85775000  0.26424000  1.0
  C  C54  1  0.18864000  0.21942000  0.66468000  1.0
  C  C55  1  0.68854000  0.78060000  0.33532000  1.0
  C  C56  1  0.29323000  0.26586000  0.82213000  1.0
  C  C57  1  0.79329000  0.73416000  0.17789000  1.0
  C  C58  1  0.92310000  0.23685000  0.80545000  1.0
  C  C59  1  0.42313000  0.76313000  0.19452000  1.0
  C  C60  1  0.13168000  0.19080000  0.81462000  1.0
  C  C61  1  0.63169000  0.80920000  0.18537000  1.0
  C  C62  1  0.12231000  0.31533000  0.68993000  1.0
  C  C63  1  0.62228000  0.68468000  0.31007000  1.0
  C  C64  1  0.27863000  0.34443000  0.75189000  1.0
  C  C65  1  0.77869000  0.65559000  0.24814000  1.0
  C  C66  1  0.91233000  0.30479000  0.72750000  1.0
  C  C67  1  0.41233000  0.69518000  0.27248000  1.0
  C  C68  1  0.63287000  0.89134000  0.89760000  1.0
  C  C69  1  0.13287000  0.10866000  0.10239000  1.0
  C  C70  1  0.63485000  0.88234000  0.11323000  1.0
  C  C71  1  0.13486000  0.11765000  0.88676000  1.0
  C  C72  1  0.34921000  0.07643000  0.73827000  1.0
  C  C73  1  0.84906000  0.92360000  0.26174000  1.0
  C  C74  1  0.23549000  0.43974000  0.78146000  1.0
  C  C75  1  0.73565000  0.56027000  0.21856000  1.0
  C  C76  1  0.85402000  0.28385000  0.87786000  1.0
  C  C77  1  0.35411000  0.71612000  0.12211000  1.0
  O  O78  1  0.45208000  0.58033000  0.58065000  1.0
  O  O79  1  0.95203000  0.41975000  0.41926000  1.0
  O  O80  1  0.79233000  0.59237000  0.41535000  1.0
  O  O81  1  0.29240000  0.40771000  0.58472000  1.0
  O  O82  1  0.79363000  0.58139000  0.58038000  1.0
  O  O83  1  0.29357000  0.41852000  0.41971000  1.0
  O  O84  1  0.95293000  0.40959000  0.58502000  1.0
  O  O85  1  0.45287000  0.59034000  0.41492000  1.0
  O  O86  1  0.62351000  0.44361000  0.50168000  1.0
  O  O87  1  0.12350000  0.55639000  0.49833000  1.0
  O  O88  1  0.80481000  0.90360000  0.08184000  1.0
  O  O89  1  0.30481000  0.09639000  0.91816000  1.0
  O  O90  1  0.46560000  0.91932000  0.92281000  1.0
  O  O91  1  0.96560000  0.08068000  0.07718000  1.0
  O  O92  1  0.46800000  0.91902000  0.09103000  1.0
  O  O93  1  0.96800000  0.08097000  0.90896000  1.0
  O  O94  1  0.30697000  0.08738000  0.07926000  1.0
  O  O95  1  0.80697000  0.91261000  0.92073000  1.0
  O  O96  1  0.64176000  0.05673000  0.99570000  1.0
  O  O97  1  0.14177000  0.94326000  0.00429000  1.0
  O  O98  1  0.93509000  0.27922000  0.94377000  1.0
  O  O99  1  0.43520000  0.72078000  0.05620000  1.0
