# generated using pymatgen
data_CuH6C6(NO3)2
_symmetry_space_group_name_H-M   'P 1'
_cell_length_a   7.25958000
_cell_length_b   7.26376000
_cell_length_c   9.66153546
_cell_angle_alpha   105.42807377
_cell_angle_beta   105.36723987
_cell_angle_gamma   63.53200000
_symmetry_Int_Tables_number   1
_chemical_formula_structural   CuH6C6(NO3)2
_chemical_formula_sum   'Cu2 H12 C12 N4 O12'
_cell_volume   433.25885578
_cell_formula_units_Z   2
loop_
 _symmetry_equiv_pos_site_id
 _symmetry_equiv_pos_as_xyz
  1  'x, y, z'
loop_
 _atom_site_type_symbol
 _atom_site_label
 _atom_site_symmetry_multiplicity
 _atom_site_fract_x
 _atom_site_fract_y
 _atom_site_fract_z
 _atom_site_occupancy
  Cu  Cu0  1  0.00000000  0.50000000  0.50000000  1.0
  Cu  Cu1  1  0.50000000  1.00000000  1.00000000  1.0
  H  H2  1  0.42503000  0.01511000  0.30319000  1.0
  H  H3  1  0.98567000  0.57378000  0.19672000  1.0
  H  H4  1  0.57498000  0.98487000  0.69681000  1.0
  H  H5  1  0.01434000  0.42622000  0.80328000  1.0
  H  H6  1  0.36698000  0.84338000  0.18257000  1.0
  H  H7  1  0.15665000  0.63277000  0.31747000  1.0
  H  H8  1  0.63303000  0.15662000  0.81743000  1.0
  H  H9  1  0.84335000  0.36724000  0.68254000  1.0
  H  H10  1  0.04491000  0.13853000  0.85800000  1.0
  H  H11  1  0.86192000  0.95548000  0.64135000  1.0
  H  H12  1  0.95509000  0.86147000  0.14200000  1.0
  H  H13  1  0.13808000  0.04451000  0.35864000  1.0
  C  C14  1  0.33181000  0.57352000  0.68716000  1.0
  C  C15  1  0.42643000  0.66839000  0.81246000  1.0
  C  C16  1  0.66819000  0.42648000  0.31284000  1.0
  C  C17  1  0.57356000  0.33162000  0.18754000  1.0
  C  C18  1  0.02322000  0.87694000  0.69090000  1.0
  C  C19  1  0.12332000  0.97717000  0.80855000  1.0
  C  C20  1  0.97678000  0.12306000  0.30910000  1.0
  C  C21  1  0.87668000  0.02283000  0.19145000  1.0
  C  C22  1  0.43283000  0.36675000  0.59005000  1.0
  C  C23  1  0.63299000  0.56742000  0.90968000  1.0
  C  C24  1  0.56716000  0.63325000  0.40995000  1.0
  C  C25  1  0.36701000  0.43258000  0.09032000  1.0
  N  N26  1  0.12858000  0.67941000  0.63396000  1.0
  N  N27  1  0.32062000  0.87170000  0.86563000  1.0
  N  N28  1  0.87142000  0.32059000  0.36604000  1.0
  N  N29  1  0.67937000  0.12831000  0.13437000  1.0
  O  O30  1  0.30317000  0.29346000  0.50399000  1.0
  O  O31  1  0.70633000  0.69711000  0.99575000  1.0
  O  O32  1  0.69683000  0.70654000  0.49601000  1.0
  O  O33  1  0.29368000  0.30290000  0.00425000  1.0
  O  O34  1  0.62533000  0.28746000  0.59147000  1.0
  O  O35  1  0.71208000  0.37506000  0.90831000  1.0
  O  O36  1  0.37466000  0.71254000  0.40854000  1.0
  O  O37  1  0.28792000  0.62495000  0.09169000  1.0
  O  O38  1  0.37926000  0.97791000  0.19914000  1.0
  O  O39  1  0.02225000  0.62004000  0.30076000  1.0
  O  O40  1  0.62074000  0.02208000  0.80086000  1.0
  O  O41  1  0.97774000  0.37996000  0.69924000  1.0
