# generated using pymatgen
data_Zn4H10C28S2Br2O13F2
_symmetry_space_group_name_H-M   'P 1'
_cell_length_a   18.53900000
_cell_length_b   19.72810000
_cell_length_c   32.80560000
_cell_angle_alpha   85.95990000
_cell_angle_beta   73.59420000
_cell_angle_gamma   61.98620000
_symmetry_Int_Tables_number   1
_chemical_formula_structural   Zn4H10C28S2Br2O13F2
_chemical_formula_sum   'Zn16 H40 C112 S8 Br8 O52 F8'
_cell_volume   10133.79420256
_cell_formula_units_Z   4
loop_
 _symmetry_equiv_pos_site_id
 _symmetry_equiv_pos_as_xyz
  1  'x, y, z'
loop_
 _atom_site_type_symbol
 _atom_site_label
 _atom_site_symmetry_multiplicity
 _atom_site_fract_x
 _atom_site_fract_y
 _atom_site_fract_z
 _atom_site_occupancy
  Zn  Zn0  1  0.87430000  0.55549000  0.51863000  1.0
  Zn  Zn1  1  0.03819000  0.48548000  0.43838000  1.0
  Zn  Zn2  1  0.04191000  0.39795000  0.52372000  1.0
  Zn  Zn3  1  0.04704000  0.56007000  0.51849000  1.0
  Zn  Zn4  1  0.62501000  0.19280000  0.73224000  1.0
  Zn  Zn5  1  0.46332000  0.34977000  0.72539000  1.0
  Zn  Zn6  1  0.45806000  0.26550000  0.81288000  1.0
  Zn  Zn7  1  0.45370000  0.19159000  0.72961000  1.0
  Zn  Zn8  1  0.46315000  0.76234000  0.31203000  1.0
  Zn  Zn9  1  0.45240000  0.69262000  0.23113000  1.0
  Zn  Zn10  1  0.62642000  0.69231000  0.22939000  1.0
  Zn  Zn11  1  0.45847000  0.85205000  0.22626000  1.0
  Zn  Zn12  1  0.03629000  0.90025000  0.02462000  1.0
  Zn  Zn13  1  0.04973000  0.05600000  0.01846000  1.0
  Zn  Zn14  1  0.87435000  0.05939000  0.01971000  1.0
  Zn  Zn15  1  0.03800000  0.98434000  0.93714000  1.0
  H  H16  1  0.81331000  0.24352000  0.65219000  1.0
  H  H17  1  0.54182000  0.48505000  0.62110000  1.0
  H  H18  1  0.54704000  0.52517000  0.66654000  1.0
  H  H19  1  0.64518000  0.57155000  0.61840000  1.0
  H  H20  1  0.63973000  0.53148000  0.57303000  1.0
  H  H21  1  0.29146000  0.60049000  0.29589000  1.0
  H  H22  1  0.35236000  0.67438000  0.43239000  1.0
  H  H23  1  0.26164000  0.76263000  0.42965000  1.0
  H  H24  1  0.16508000  0.71380000  0.47685000  1.0
  H  H25  1  0.25567000  0.62558000  0.47953000  1.0
  H  H26  1  0.81287000  0.60030000  0.29579000  1.0
  H  H27  1  0.54618000  0.76281000  0.42937000  1.0
  H  H28  1  0.54100000  0.67456000  0.43201000  1.0
  H  H29  1  0.63892000  0.62567000  0.47925000  1.0
  H  H30  1  0.64423000  0.71382000  0.47670000  1.0
  H  H31  1  0.30461000  0.45877000  0.64558000  1.0
  H  H32  1  0.33284000  0.17787000  0.63069000  1.0
  H  H33  1  0.24216000  0.21775000  0.67613000  1.0
  H  H34  1  0.14591000  0.26781000  0.62792000  1.0
  H  H35  1  0.23667000  0.22788000  0.58256000  1.0
  H  H36  1  0.68701000  0.14980000  0.95442000  1.0
  H  H37  1  0.95808000  0.07600000  0.81790000  1.0
  H  H38  1  0.95291000  0.98777000  0.82053000  1.0
  H  H39  1  0.85470000  0.03671000  0.77338000  1.0
  H  H40  1  0.85996000  0.12488000  0.77078000  1.0
  H  H41  1  0.19532000  0.05218000  0.84348000  1.0
  H  H42  1  0.16698000  0.21500000  0.97656000  1.0
  H  H43  1  0.25788000  0.12690000  0.97921000  1.0
  H  H44  1  0.35384000  0.17430000  0.93007000  1.0
  H  H45  1  0.26306000  0.26240000  0.92752000  1.0
  H  H46  1  0.19531000  0.79173000  0.10424000  1.0
  H  H47  1  0.25787000  0.03271000  0.07376000  1.0
  H  H48  1  0.16688000  0.07275000  0.11913000  1.0
  H  H49  1  0.26287000  0.02283000  0.16740000  1.0
  H  H50  1  0.35373000  0.98279000  0.12209000  1.0
  H  H51  1  0.68666000  0.00657000  0.09781000  1.0
  H  H52  1  0.95299000  0.72488000  0.08349000  1.0
  H  H53  1  0.95824000  0.76497000  0.12894000  1.0
  H  H54  1  0.86026000  0.71867000  0.17696000  1.0
  H  H55  1  0.85505000  0.67839000  0.13161000  1.0
  C  C56  1  0.86213000  0.56819000  0.43089000  1.0
  C  C57  1  0.12347000  0.31571000  0.43859000  1.0
  C  C58  1  0.86336000  0.42988000  0.56862000  1.0
  C  C59  1  0.13858000  0.43213000  0.56856000  1.0
  C  C60  1  0.87578000  0.68391000  0.56077000  1.0
  C  C61  1  0.13766000  0.56925000  0.43075000  1.0
  C  C62  1  0.63942000  0.31782000  0.68121000  1.0
  C  C63  1  0.37721000  0.43448000  0.81068000  1.0
  C  C64  1  0.63635000  0.18175000  0.81966000  1.0
  C  C65  1  0.36131000  0.18110000  0.81832000  1.0
  C  C66  1  0.62397000  0.06614000  0.68858000  1.0
  C  C67  1  0.36318000  0.31987000  0.68055000  1.0
  C  C68  1  0.36288000  0.68017000  0.31871000  1.0
  C  C69  1  0.62277000  0.56586000  0.18852000  1.0
  C  C70  1  0.63897000  0.68017000  0.31822000  1.0
  C  C71  1  0.63669000  0.81967000  0.18077000  1.0
  C  C72  1  0.37698000  0.93264000  0.31196000  1.0
  C  C73  1  0.36125000  0.81855000  0.18120000  1.0
  C  C74  1  0.13775000  0.93019000  0.06880000  1.0
  C  C75  1  0.87940000  0.18373000  0.06121000  1.0
  C  C76  1  0.86054000  0.93251000  0.06915000  1.0
  C  C77  1  0.86095000  0.06953000  0.93158000  1.0
  C  C78  1  0.12170000  0.81568000  0.93921000  1.0
  C  C79  1  0.13808000  0.06781000  0.93044000  1.0
  C  C80  1  0.73673000  0.80324000  0.60101000  1.0
  C  C81  1  0.76294000  0.94626000  0.64899000  1.0
  C  C82  1  0.82463000  0.75846000  0.58603000  1.0
  C  C83  1  0.67501000  0.99125000  0.66377000  1.0
  C  C84  1  0.78553000  0.87777000  0.62608000  1.0
  C  C85  1  0.71412000  0.87173000  0.62393000  1.0
  C  C86  1  0.20228000  0.22639000  0.36893000  1.0
  C  C87  1  0.29826000  0.02212000  0.38158000  1.0
  C  C88  1  0.17286000  0.24166000  0.41297000  1.0
  C  C89  1  0.32770000  0.00666000  0.33757000  1.0
  C  C90  1  0.25258000  0.10210000  0.39307000  1.0
  C  C91  1  0.24805000  0.14632000  0.35748000  1.0
  C  C92  1  0.69584000  0.34638000  0.65267000  1.0
  C  C93  1  0.80779000  0.40046000  0.59726000  1.0
  C  C94  1  0.66465000  0.41872000  0.63649000  1.0
  C  C95  1  0.83792000  0.32728000  0.61417000  1.0
  C  C96  1  0.71897000  0.44425000  0.60985000  1.0
  C  C97  1  0.78490000  0.30067000  0.64069000  1.0
  C  C98  1  0.58474000  0.49209000  0.63563000  1.0
  C  C99  1  0.64613000  0.52117000  0.60548000  1.0
  C  C100  1  0.30579000  0.65228000  0.34720000  1.0
  C  C101  1  0.19456000  0.59687000  0.40179000  1.0
  C  C102  1  0.28058000  0.66439000  0.39143000  1.0
  C  C103  1  0.22103000  0.58527000  0.35673000  1.0
  C  C104  1  0.22702000  0.63752000  0.41745000  1.0
  C  C105  1  0.27431000  0.61166000  0.33022000  1.0
  C  C106  1  0.28790000  0.69973000  0.42860000  1.0
  C  C107  1  0.22736000  0.66918000  0.45815000  1.0
  C  C108  1  0.69524000  0.65237000  0.34688000  1.0
  C  C109  1  0.80682000  0.59653000  0.40179000  1.0
  C  C110  1  0.66385000  0.66454000  0.39115000  1.0
  C  C111  1  0.83725000  0.58512000  0.35673000  1.0
  C  C112  1  0.71805000  0.63747000  0.41728000  1.0
  C  C113  1  0.78430000  0.61166000  0.33011000  1.0
  C  C114  1  0.58389000  0.69991000  0.42827000  1.0
  C  C115  1  0.64523000  0.66928000  0.45792000  1.0
  C  C116  1  0.30551000  0.34831000  0.65262000  1.0
  C  C117  1  0.19480000  0.40512000  0.59727000  1.0
  C  C118  1  0.27285000  0.30483000  0.64025000  1.0
  C  C119  1  0.22843000  0.44837000  0.61047000  1.0
  C  C120  1  0.21964000  0.33261000  0.61359000  1.0
  C  C121  1  0.28150000  0.42180000  0.63700000  1.0
  C  C122  1  0.27104000  0.22865000  0.64391000  1.0
  C  C123  1  0.21079000  0.25997000  0.61374000  1.0
  C  C124  1  0.29813000  0.58366000  0.82076000  1.0
  C  C125  1  0.20185000  0.66655000  0.92925000  1.0
  C  C126  1  0.32763000  0.50990000  0.83498000  1.0
  C  C127  1  0.17202000  0.74030000  0.91499000  1.0
  C  C128  1  0.24784000  0.60939000  0.89494000  1.0
  C  C129  1  0.25228000  0.64077000  0.85507000  1.0
  C  C130  1  0.80437000  0.09778000  0.90309000  1.0
  C  C131  1  0.69207000  0.15372000  0.84858000  1.0
  C  C132  1  0.83535000  0.08586000  0.85884000  1.0
  C  C133  1  0.66214000  0.16497000  0.89361000  1.0
  C  C134  1  0.78090000  0.11300000  0.83283000  1.0
  C  C135  1  0.71531000  0.13852000  0.92009000  1.0
  C  C136  1  0.91517000  0.05066000  0.82167000  1.0
  C  C137  1  0.85366000  0.08131000  0.79213000  1.0
  C  C138  1  0.19459000  0.09664000  0.90222000  1.0
  C  C139  1  0.30478000  0.15185000  0.84616000  1.0
  C  C140  1  0.22691000  0.13729000  0.91779000  1.0
  C  C141  1  0.27121000  0.11035000  0.83113000  1.0
  C  C142  1  0.27986000  0.16364000  0.89059000  1.0
  C  C143  1  0.21833000  0.08363000  0.85767000  1.0
  C  C144  1  0.22878000  0.16985000  0.95772000  1.0
  C  C145  1  0.28890000  0.19959000  0.92698000  1.0
  C  C146  1  0.64272000  0.44642000  0.14887000  1.0
  C  C147  1  0.85966000  0.30297000  0.10093000  1.0
  C  C148  1  0.67131000  0.49103000  0.16369000  1.0
  C  C149  1  0.83108000  0.25838000  0.08609000  1.0
  C  C150  1  0.79113000  0.37152000  0.12383000  1.0
  C  C151  1  0.71140000  0.37785000  0.12600000  1.0
  C  C152  1  0.19461000  0.90210000  0.09711000  1.0
  C  C153  1  0.30487000  0.84558000  0.15262000  1.0
  C  C154  1  0.22698000  0.94574000  0.10959000  1.0
  C  C155  1  0.27136000  0.80220000  0.13942000  1.0
  C  C156  1  0.27994000  0.91810000  0.13634000  1.0
  C  C157  1  0.21838000  0.82873000  0.11283000  1.0
  C  C158  1  0.22873000  0.02196000  0.10597000  1.0
  C  C159  1  0.28882000  0.99070000  0.13623000  1.0
  C  C160  1  0.80414000  0.90369000  0.09738000  1.0
  C  C161  1  0.69225000  0.84943000  0.15250000  1.0
  C  C162  1  0.83539000  0.83131000  0.11349000  1.0
  C  C163  1  0.66207000  0.92273000  0.13573000  1.0
  C  C164  1  0.78108000  0.80569000  0.14002000  1.0
  C  C165  1  0.71508000  0.94941000  0.10928000  1.0
  C  C166  1  0.91531000  0.75797000  0.11440000  1.0
  C  C167  1  0.85392000  0.72886000  0.14451000  1.0
  S  S168  1  0.87980000  0.80015000  0.60011000  1.0
  S  S169  1  0.61985000  0.94953000  0.64969000  1.0
  S  S170  1  0.20113000  0.15810000  0.44035000  1.0
  S  S171  1  0.29946000  0.09028000  0.31021000  1.0
  S  S172  1  0.29937000  0.51046000  0.89047000  1.0
  S  S173  1  0.20043000  0.73968000  0.85950000  1.0
  S  S174  1  0.78224000  0.44908000  0.14963000  1.0
  S  S175  1  0.72016000  0.30041000  0.10017000  1.0
  Br  Br176  1  0.65297000  0.78108000  0.59349000  1.0
  Br  Br177  1  0.84679000  0.96828000  0.65644000  1.0
  Br  Br178  1  0.18709000  0.29817000  0.32730000  1.0
  Br  Br179  1  0.31333000  0.95045000  0.42342000  1.0
  Br  Br180  1  0.31307000  0.61081000  0.76408000  1.0
  Br  Br181  1  0.18680000  0.63962000  0.98595000  1.0
  Br  Br182  1  0.52946000  0.46878000  0.15615000  1.0
  Br  Br183  1  0.97316000  0.28052000  0.09340000  1.0
  O  O184  1  0.99945000  0.50015000  0.50087000  1.0
  O  O185  1  0.82347000  0.58398000  0.47079000  1.0
  O  O186  1  0.10225000  0.37637000  0.41844000  1.0
  O  O187  1  0.94351000  0.38660000  0.55861000  1.0
  O  O188  1  0.94216000  0.53092000  0.41418000  1.0
  O  O189  1  0.82427000  0.49742000  0.55648000  1.0
  O  O190  1  0.10641000  0.31200000  0.47913000  1.0
  O  O191  1  0.11651000  0.38397000  0.55926000  1.0
  O  O192  1  0.95668000  0.65744000  0.55109000  1.0
  O  O193  1  0.11734000  0.49943000  0.55574000  1.0
  O  O194  1  0.83572000  0.65292000  0.55093000  1.0
  O  O195  1  0.11327000  0.53045000  0.41402000  1.0
  O  O196  1  0.11816000  0.58723000  0.47057000  1.0
  O  O197  1  0.49996000  0.24976000  0.75027000  1.0
  O  O198  1  0.67511000  0.25075000  0.69423000  1.0
  O  O199  1  0.39916000  0.43436000  0.77025000  1.0
  O  O200  1  0.55615000  0.21886000  0.83622000  1.0
  O  O201  1  0.55951000  0.36368000  0.69020000  1.0
  O  O202  1  0.67539000  0.16555000  0.77984000  1.0
  O  O203  1  0.39357000  0.37567000  0.83285000  1.0
  O  O204  1  0.38346000  0.21916000  0.83769000  1.0
  O  O205  1  0.54298000  0.09434000  0.69687000  1.0
  O  O206  1  0.38288000  0.16634000  0.77827000  1.0
  O  O207  1  0.66402000  0.09603000  0.69953000  1.0
  O  O208  1  0.38836000  0.36533000  0.68997000  1.0
  O  O209  1  0.38260000  0.25201000  0.69257000  1.0
  O  O210  1  0.50136000  0.75014000  0.24955000  1.0
  O  O211  1  0.38802000  0.71675000  0.33701000  1.0
  O  O212  1  0.54197000  0.59563000  0.19910000  1.0
  O  O213  1  0.67471000  0.66593000  0.27819000  1.0
  O  O214  1  0.38187000  0.66530000  0.27873000  1.0
  O  O215  1  0.55904000  0.71610000  0.33670000  1.0
  O  O216  1  0.66698000  0.59407000  0.19717000  1.0
  O  O217  1  0.67567000  0.75148000  0.19218000  1.0
  O  O218  1  0.39385000  0.93665000  0.27147000  1.0
  O  O219  1  0.55657000  0.86331000  0.19118000  1.0
  O  O220  1  0.39820000  0.87177000  0.33203000  1.0
  O  O221  1  0.38268000  0.75105000  0.19372000  1.0
  O  O222  1  0.38342000  0.86646000  0.19074000  1.0
  O  O223  1  0.99923000  0.00026000  0.99964000  1.0
  O  O224  1  0.11130000  0.88542000  0.05993000  1.0
  O  O225  1  0.96034000  0.15294000  0.05096000  1.0
  O  O226  1  0.82499000  0.00020000  0.05685000  1.0
  O  O227  1  0.12035000  0.99724000  0.05582000  1.0
  O  O228  1  0.94041000  0.88622000  0.05974000  1.0
  O  O229  1  0.83469000  0.15651000  0.05216000  1.0
  O  O230  1  0.82522000  0.08550000  0.97154000  1.0
  O  O231  1  0.10315000  0.87449000  0.91696000  1.0
  O  O232  1  0.94077000  0.03155000  0.91320000  1.0
  O  O233  1  0.10115000  0.81599000  0.97966000  1.0
  O  O234  1  0.12048000  0.08237000  0.97041000  1.0
  O  O235  1  0.11228000  0.03135000  0.91259000  1.0
  F  F236  1  0.92284000  0.27851000  0.60481000  1.0
  F  F237  1  0.19433000  0.54684000  0.33701000  1.0
  F  F238  1  0.92210000  0.54649000  0.33712000  1.0
  F  F239  1  0.20977000  0.51994000  0.59707000  1.0
  F  F240  1  0.57722000  0.20340000  0.91335000  1.0
  F  F241  1  0.28990000  0.09466000  0.78865000  1.0
  F  F242  1  0.29013000  0.73063000  0.15275000  1.0
  F  F243  1  0.57714000  0.97148000  0.14512000  1.0
