# generated using pymatgen
data_ZnH17C20IN6O5
_symmetry_space_group_name_H-M   'P 1'
_cell_length_a   10.23810000
_cell_length_b   10.24390000
_cell_length_c   13.61600000
_cell_angle_alpha   71.89840000
_cell_angle_beta   84.18810000
_cell_angle_gamma   72.04820000
_symmetry_Int_Tables_number   1
_chemical_formula_structural   ZnH17C20IN6O5
_chemical_formula_sum   'Zn2 H34 C40 I2 N12 O10'
_cell_volume   1291.23835832
_cell_formula_units_Z   2
loop_
 _symmetry_equiv_pos_site_id
 _symmetry_equiv_pos_as_xyz
  1  'x, y, z'
loop_
 _atom_site_type_symbol
 _atom_site_label
 _atom_site_symmetry_multiplicity
 _atom_site_fract_x
 _atom_site_fract_y
 _atom_site_fract_z
 _atom_site_occupancy
  Zn  Zn0  1  0.86962000  0.27350000  0.54729000  1.0
  Zn  Zn1  1  0.13039000  0.72649000  0.45271000  1.0
  H  H2  1  0.90075000  0.05417000  0.40785000  1.0
  H  H3  1  0.09927000  0.94581000  0.59216000  1.0
  H  H4  1  0.36014000  0.27756000  0.56099000  1.0
  H  H5  1  0.63987000  0.72245000  0.43901000  1.0
  H  H6  1  0.23414000  0.12549000  0.33555000  1.0
  H  H7  1  0.76585000  0.87455000  0.66444000  1.0
  H  H8  1  0.65925000  0.10988000  0.35395000  1.0
  H  H9  1  0.34075000  0.89013000  0.64604000  1.0
  H  H10  1  0.60971000  0.39971000  0.69423000  1.0
  H  H11  1  0.39031000  0.60029000  0.30576000  1.0
  H  H12  1  0.01252000  0.42798000  0.67012000  1.0
  H  H13  1  0.98749000  0.57203000  0.32988000  1.0
  H  H14  1  0.21240000  0.90251000  0.20891000  1.0
  H  H15  1  0.78761000  0.09750000  0.79108000  1.0
  H  H16  1  0.52981000  0.50557000  0.84802000  1.0
  H  H17  1  0.47019000  0.49441000  0.15197000  1.0
  H  H18  1  0.58913000  0.65877000  0.82210000  1.0
  H  H19  1  0.41086000  0.34121000  0.17791000  1.0
  H  H20  1  0.61594000  0.29453000  0.00170000  1.0
  H  H21  1  0.38406000  0.70543000  0.99830000  1.0
  H  H22  1  0.73986000  0.19214000  0.16754000  1.0
  H  H23  1  0.26014000  0.80784000  0.83246000  1.0
  H  H24  1  0.89552000  0.55738000  0.09573000  1.0
  H  H25  1  0.10447000  0.44260000  0.90427000  1.0
  H  H26  1  0.77024000  0.66100000  0.92933000  1.0
  H  H27  1  0.22976000  0.33896000  0.07068000  1.0
  H  H28  1  0.97824000  0.36541000  0.24250000  1.0
  H  H29  1  0.02174000  0.63459000  0.75750000  1.0
  H  H30  1  0.83622000  0.31453000  0.31057000  1.0
  H  H31  1  0.16377000  0.68546000  0.68944000  1.0
  H  H32  1  0.81133000  0.55698000  0.43834000  1.0
  H  H33  1  0.18868000  0.44302000  0.56167000  1.0
  H  H34  1  0.68072000  0.50244000  0.44358000  1.0
  H  H35  1  0.31929000  0.49757000  0.55642000  1.0
  C  C36  1  0.62119000  0.24256000  0.50760000  1.0
  C  C37  1  0.37882000  0.75746000  0.49239000  1.0
  C  C38  1  0.51860000  0.20203000  0.46028000  1.0
  C  C39  1  0.48140000  0.79799000  0.53971000  1.0
  C  C40  1  0.97152000  0.04451000  0.34363000  1.0
  C  C41  1  0.02848000  0.95548000  0.65638000  1.0
  C  C42  1  0.38347000  0.23415000  0.49586000  1.0
  C  C43  1  0.61653000  0.76586000  0.50414000  1.0
  C  C44  1  0.28062000  0.20900000  0.45107000  1.0
  C  C45  1  0.71938000  0.79102000  0.54893000  1.0
  C  C46  1  0.31399000  0.14554000  0.37059000  1.0
  C  C47  1  0.68600000  0.85449000  0.62940000  1.0
  C  C48  1  0.45043000  0.10972000  0.33739000  1.0
  C  C49  1  0.54956000  0.89031000  0.66259000  1.0
  C  C50  1  0.55327000  0.13765000  0.38069000  1.0
  C  C51  1  0.44673000  0.86238000  0.61929000  1.0
  C  C52  1  0.13683000  0.25361000  0.49080000  1.0
  C  C53  1  0.86317000  0.74639000  0.50921000  1.0
  C  C54  1  0.70288000  0.42168000  0.70664000  1.0
  C  C55  1  0.29714000  0.57831000  0.29336000  1.0
  C  C56  1  0.90719000  0.43814000  0.69526000  1.0
  C  C57  1  0.09281000  0.56186000  0.30474000  1.0
  C  C58  1  0.12859000  0.97220000  0.24096000  1.0
  C  C59  1  0.87141000  0.02780000  0.75904000  1.0
  C  C60  1  0.62040000  0.54094000  0.84890000  1.0
  C  C61  1  0.37960000  0.45905000  0.15110000  1.0
  C  C62  1  0.68438000  0.48494000  0.95443000  1.0
  C  C63  1  0.31561000  0.51503000  0.04557000  1.0
  C  C64  1  0.67661000  0.35308000  0.02232000  1.0
  C  C65  1  0.32338000  0.64689000  0.97769000  1.0
  C  C66  1  0.74590000  0.29586000  0.11617000  1.0
  C  C67  1  0.25408000  0.70412000  0.88385000  1.0
  C  C68  1  0.82526000  0.36889000  0.14333000  1.0
  C  C69  1  0.17473000  0.63109000  0.85668000  1.0
  C  C70  1  0.83162000  0.50143000  0.07596000  1.0
  C  C71  1  0.16836000  0.49855000  0.92406000  1.0
  C  C72  1  0.76125000  0.55950000  0.98242000  1.0
  C  C73  1  0.23873000  0.44048000  0.01759000  1.0
  C  C74  1  0.90397000  0.30732000  0.24332000  1.0
  C  C75  1  0.09601000  0.69267000  0.75669000  1.0
  I  I76  1  0.50634000  0.01164000  0.21747000  1.0
  I  I77  1  0.49363000  0.98844000  0.78250000  1.0
  N  N78  1  0.82140000  0.38806000  0.65567000  1.0
  N  N79  1  0.17862000  0.61194000  0.34432000  1.0
  N  N80  1  0.84829000  0.50031000  0.76698000  1.0
  N  N81  1  0.15171000  0.49969000  0.23301000  1.0
  N  N82  1  0.71869000  0.48829000  0.77354000  1.0
  N  N83  1  0.28131000  0.51171000  0.22646000  1.0
  N  N84  1  0.97980000  0.15595000  0.26173000  1.0
  N  N85  1  0.02020000  0.84404000  0.73828000  1.0
  N  N86  1  0.08011000  0.11226000  0.19503000  1.0
  N  N87  1  0.91989000  0.88775000  0.80498000  1.0
  N  N88  1  0.06498000  0.92549000  0.33264000  1.0
  N  N89  1  0.93504000  0.07450000  0.66736000  1.0
  O  O90  1  0.74850000  0.19476000  0.48366000  1.0
  O  O91  1  0.25151000  0.80523000  0.51634000  1.0
  O  O92  1  0.57797000  0.32235000  0.56510000  1.0
  O  O93  1  0.42205000  0.67769000  0.43487000  1.0
  O  O94  1  0.11157000  0.32947000  0.55216000  1.0
  O  O95  1  0.88844000  0.67054000  0.44784000  1.0
  O  O96  1  0.04437000  0.21302000  0.46219000  1.0
  O  O97  1  0.95563000  0.78699000  0.53781000  1.0
  O  O98  1  0.77897000  0.47899000  0.42730000  1.0
  O  O99  1  0.22104000  0.52102000  0.57271000  1.0
