# generated using pymatgen
data_CuH8C9(NO)2
_symmetry_space_group_name_H-M   'P 1'
_cell_length_a   5.28207000
_cell_length_b   12.72750000
_cell_length_c   14.67400000
_cell_angle_alpha   88.11060000
_cell_angle_beta   80.86540000
_cell_angle_gamma   78.04530000
_symmetry_Int_Tables_number   1
_chemical_formula_structural   CuH8C9(NO)2
_chemical_formula_sum   'Cu4 H32 C36 N8 O8'
_cell_volume   952.86223515
_cell_formula_units_Z   4
loop_
 _symmetry_equiv_pos_site_id
 _symmetry_equiv_pos_as_xyz
  1  'x, y, z'
loop_
 _atom_site_type_symbol
 _atom_site_label
 _atom_site_symmetry_multiplicity
 _atom_site_fract_x
 _atom_site_fract_y
 _atom_site_fract_z
 _atom_site_occupancy
  Cu  Cu0  1  0.39692000  0.20824000  0.75019000  1.0
  Cu  Cu1  1  0.60305000  0.79176000  0.24983000  1.0
  Cu  Cu2  1  0.99998000  0.00000000  0.00001000  1.0
  Cu  Cu3  1  0.99993000  0.99999000  0.50001000  1.0
  H  H4  1  0.08807000  0.60375000  0.70009000  1.0
  H  H5  1  0.30939000  0.60399000  0.79956000  1.0
  H  H6  1  0.91194000  0.39624000  0.29991000  1.0
  H  H7  1  0.69060000  0.39601000  0.20043000  1.0
  H  H8  1  0.97463000  0.24801000  0.61662000  1.0
  H  H9  1  0.77881000  0.24873000  0.88383000  1.0
  H  H10  1  0.02537000  0.75198000  0.38338000  1.0
  H  H11  1  0.22121000  0.75127000  0.11618000  1.0
  H  H12  1  0.70866000  0.41145000  0.55179000  1.0
  H  H13  1  0.88097000  0.41248000  0.94826000  1.0
  H  H14  1  0.29135000  0.58854000  0.44821000  1.0
  H  H15  1  0.11903000  0.58753000  0.05173000  1.0
  H  H16  1  0.60032000  0.80526000  0.51701000  1.0
  H  H17  1  0.59412000  0.80579000  0.98286000  1.0
  H  H18  1  0.39968000  0.19473000  0.48299000  1.0
  H  H19  1  0.40590000  0.19422000  0.01714000  1.0
  H  H20  1  0.74524000  0.86884000  0.59663000  1.0
  H  H21  1  0.38515000  0.86926000  0.90339000  1.0
  H  H22  1  0.25476000  0.13116000  0.40336000  1.0
  H  H23  1  0.61487000  0.13074000  0.09662000  1.0
  H  H24  1  0.22762000  0.78752000  0.63851000  1.0
  H  H25  1  0.98430000  0.78946000  0.86136000  1.0
  H  H26  1  0.77237000  0.21249000  0.36149000  1.0
  H  H27  1  0.01571000  0.21053000  0.13863000  1.0
  H  H28  1  0.26648000  0.92348000  0.63692000  1.0
  H  H29  1  0.80780000  0.92515000  0.86351000  1.0
  H  H30  1  0.73356000  0.07653000  0.36306000  1.0
  H  H31  1  0.19223000  0.07486000  0.13648000  1.0
  H  H32  1  0.38070000  0.83569000  0.72450000  1.0
  H  H33  1  0.78260000  0.83773000  0.77550000  1.0
  H  H34  1  0.61929000  0.16432000  0.27550000  1.0
  H  H35  1  0.21741000  0.16227000  0.22449000  1.0
  C  C36  1  0.19510000  0.43124000  0.71649000  1.0
  C  C37  1  0.37544000  0.43143000  0.78343000  1.0
  C  C38  1  0.80491000  0.56875000  0.28351000  1.0
  C  C39  1  0.62457000  0.56857000  0.21657000  1.0
  C  C40  1  0.05967000  0.52574000  0.68114000  1.0
  C  C41  1  0.41595000  0.52609000  0.81864000  1.0
  C  C42  1  0.94034000  0.47425000  0.31886000  1.0
  C  C43  1  0.58406000  0.47391000  0.18135000  1.0
  C  C44  1  0.88018000  0.52003000  0.62229000  1.0
  C  C45  1  0.60094000  0.52068000  0.87753000  1.0
  C  C46  1  0.11983000  0.47996000  0.37771000  1.0
  C  C47  1  0.39907000  0.47933000  0.12246000  1.0
  C  C48  1  0.99564000  0.32822000  0.63334000  1.0
  C  C49  1  0.67771000  0.32884000  0.86685000  1.0
  C  C50  1  0.00437000  0.67177000  0.36666000  1.0
  C  C51  1  0.32230000  0.67116000  0.13316000  1.0
  C  C52  1  0.84808000  0.41886000  0.59735000  1.0
  C  C53  1  0.73434000  0.41964000  0.90265000  1.0
  C  C54  1  0.15192000  0.58114000  0.40265000  1.0
  C  C55  1  0.26566000  0.58036000  0.09735000  1.0
  C  C56  1  0.15018000  0.07648000  0.90550000  1.0
  C  C57  1  0.77480000  0.07599000  0.59507000  1.0
  C  C58  1  0.84981000  0.92351000  0.09451000  1.0
  C  C59  1  0.22508000  0.92400000  0.40495000  1.0
  C  C60  1  0.71493000  0.61882000  0.58897000  1.0
  C  C61  1  0.66713000  0.61958000  0.91078000  1.0
  C  C62  1  0.28509000  0.38118000  0.41103000  1.0
  C  C63  1  0.33288000  0.38042000  0.08920000  1.0
  C  C64  1  0.62200000  0.81075000  0.58978000  1.0
  C  C65  1  0.56702000  0.81150000  0.91008000  1.0
  C  C66  1  0.37801000  0.18925000  0.41022000  1.0
  C  C67  1  0.43299000  0.18851000  0.08992000  1.0
  C  C68  1  0.35870000  0.84012000  0.65128000  1.0
  C  C69  1  0.80013000  0.84175000  0.84876000  1.0
  C  C70  1  0.64131000  0.15988000  0.34872000  1.0
  C  C71  1  0.19988000  0.15825000  0.15123000  1.0
  N  N72  1  0.16315000  0.33328000  0.69255000  1.0
  N  N73  1  0.50547000  0.33359000  0.80755000  1.0
  N  N74  1  0.83685000  0.66666667  0.30745000  1.0
  N  N75  1  0.49454000  0.66641000  0.19245000  1.0
  N  N76  1  0.24563000  0.12490000  0.84474000  1.0
  N  N77  1  0.63156000  0.12438000  0.65596000  1.0
  N  N78  1  0.75434000  0.87511000  0.15527000  1.0
  N  N79  1  0.36837000  0.87561000  0.34406000  1.0
  O  O80  1  0.77685000  0.70910000  0.61701000  1.0
  O  O81  1  0.51518000  0.70973000  0.88248000  1.0
  O  O82  1  0.22316000  0.29090000  0.38299000  1.0
  O  O83  1  0.48482000  0.29028000  0.11752000  1.0
  O  O84  1  0.54084000  0.61826000  0.54302000  1.0
  O  O85  1  0.84131000  0.61928000  0.95689000  1.0
  O  O86  1  0.45916000  0.38174000  0.45698000  1.0
  O  O87  1  0.15875000  0.38072000  0.04309000  1.0
