# generated using pymatgen
data_Cu2H20C28N2O11
_symmetry_space_group_name_H-M   'P 1'
_cell_length_a   11.08080000
_cell_length_b   11.21390000
_cell_length_c   11.92900000
_cell_angle_alpha   91.82610000
_cell_angle_beta   92.55030000
_cell_angle_gamma   102.64900000
_symmetry_Int_Tables_number   1
_chemical_formula_structural   Cu2H20C28N2O11
_chemical_formula_sum   'Cu4 H40 C56 N4 O22'
_cell_volume   1443.56058947
_cell_formula_units_Z   2
loop_
 _symmetry_equiv_pos_site_id
 _symmetry_equiv_pos_as_xyz
  1  'x, y, z'
loop_
 _atom_site_type_symbol
 _atom_site_label
 _atom_site_symmetry_multiplicity
 _atom_site_fract_x
 _atom_site_fract_y
 _atom_site_fract_z
 _atom_site_occupancy
  Cu  Cu0  1  0.17549000  0.59332000  0.43369000  1.0
  Cu  Cu1  1  0.82451000  0.40667000  0.56631000  1.0
  Cu  Cu2  1  0.89777000  0.71500000  0.25012000  1.0
  Cu  Cu3  1  0.10222000  0.28500000  0.74986000  1.0
  H  H4  1  0.29444000  0.64385000  0.62258000  1.0
  H  H5  1  0.70555000  0.35616000  0.37742000  1.0
  H  H6  1  0.38818000  0.69689000  0.53196000  1.0
  H  H7  1  0.61181000  0.30311000  0.46804000  1.0
  H  H8  1  0.75875000  0.74218000  0.40934000  1.0
  H  H9  1  0.24123000  0.25782000  0.59065000  1.0
  H  H10  1  0.82432000  0.63377000  0.43491000  1.0
  H  H11  1  0.17567000  0.36622000  0.56509000  1.0
  H  H12  1  0.35330000  0.24015000  0.15858000  1.0
  H  H13  1  0.64670000  0.75985000  0.84142000  1.0
  H  H14  1  0.53834000  0.20645000  0.27132000  1.0
  H  H15  1  0.46167000  0.79356000  0.72868000  1.0
  H  H16  1  0.52202000  0.01398000  0.37606000  1.0
  H  H17  1  0.47800000  0.98603000  0.62395000  1.0
  H  H18  1  0.11778000  0.19541000  0.33777000  1.0
  H  H19  1  0.88222000  0.80459000  0.66223000  1.0
  H  H20  1  0.92984000  0.36320000  0.00843000  1.0
  H  H21  1  0.07019000  0.63682000  0.99156000  1.0
  H  H22  1  0.03339000  0.19052000  0.98087000  1.0
  H  H23  1  0.96661000  0.80950000  0.01913000  1.0
  H  H24  1  0.38783000  0.48147000  0.42276000  1.0
  H  H25  1  0.61217000  0.51854000  0.57726000  1.0
  H  H26  1  0.16442000  0.61489000  0.19298000  1.0
  H  H27  1  0.83557000  0.38506000  0.80701000  1.0
  H  H28  1  0.52873000  0.44309000  0.27702000  1.0
  H  H29  1  0.47128000  0.55692000  0.72301000  1.0
  H  H30  1  0.28508000  0.56814000  0.03205000  1.0
  H  H31  1  0.71492000  0.43181000  0.96796000  1.0
  H  H32  1  0.58517000  0.45041000  0.08424000  1.0
  H  H33  1  0.41484000  0.54960000  0.91576000  1.0
  H  H34  1  0.64279000  0.67115000  0.18192000  1.0
  H  H35  1  0.35721000  0.32885000  0.81808000  1.0
  H  H36  1  0.93339000  0.97332000  0.17707000  1.0
  H  H37  1  0.06661000  0.02667000  0.82293000  1.0
  H  H38  1  0.49664000  0.77800000  0.08643000  1.0
  H  H39  1  0.50336000  0.22200000  0.91356000  1.0
  H  H40  1  0.80119000  0.09482000  0.07943000  1.0
  H  H41  1  0.19881000  0.90517000  0.92056000  1.0
  H  H42  1  0.61026000  0.11014000  0.99333000  1.0
  H  H43  1  0.38975000  0.88986000  0.00666000  1.0
  C  C44  1  0.32401000  0.83089000  0.39125000  1.0
  C  C45  1  0.67602000  0.16912000  0.60875000  1.0
  C  C46  1  0.33070000  0.94456000  0.32605000  1.0
  C  C47  1  0.66931000  0.05543000  0.67396000  1.0
  C  C48  1  0.22509000  0.96500000  0.26578000  1.0
  C  C49  1  0.77492000  0.03500000  0.73424000  1.0
  C  C50  1  0.09715000  0.88521000  0.27257000  1.0
  C  C51  1  0.90285000  0.11479000  0.72744000  1.0
  C  C52  1  0.23735000  0.07142000  0.20535000  1.0
  C  C53  1  0.76265000  0.92858000  0.79467000  1.0
  C  C54  1  0.34861000  0.15836000  0.20655000  1.0
  C  C55  1  0.65139000  0.84164000  0.79346000  1.0
  C  C56  1  0.45145000  0.13823000  0.26843000  1.0
  C  C57  1  0.54855000  0.86177000  0.73158000  1.0
  C  C58  1  0.44281000  0.03129000  0.32704000  1.0
  C  C59  1  0.55718000  0.96872000  0.67296000  1.0
  C  C60  1  0.08557000  0.18619000  0.15724000  1.0
  C  C61  1  0.91441000  0.81381000  0.84276000  1.0
  C  C62  1  0.07945000  0.23493000  0.26575000  1.0
  C  C63  1  0.92053000  0.76506000  0.73425000  1.0
  C  C64  1  0.01734000  0.32948000  0.28078000  1.0
  C  C65  1  0.98263000  0.67051000  0.71921000  1.0
  C  C66  1  0.99920000  0.37076000  0.39832000  1.0
  C  C67  1  0.00079000  0.62923000  0.60168000  1.0
  C  C68  1  0.96330000  0.37730000  0.18810000  1.0
  C  C69  1  0.03668000  0.62270000  0.81190000  1.0
  C  C70  1  0.90886000  0.48756000  0.20023000  1.0
  C  C71  1  0.09114000  0.51246000  0.79977000  1.0
  C  C72  1  0.97057000  0.32627000  0.08064000  1.0
  C  C73  1  0.02943000  0.67374000  0.91936000  1.0
  C  C74  1  0.03061000  0.23086000  0.06456000  1.0
  C  C75  1  0.96938000  0.76915000  0.93544000  1.0
  C  C76  1  0.37019000  0.49985000  0.33505000  1.0
  C  C77  1  0.62981000  0.50015000  0.66496000  1.0
  C  C78  1  0.24410000  0.57357000  0.20518000  1.0
  C  C79  1  0.75589000  0.42640000  0.79482000  1.0
  C  C80  1  0.44773000  0.47853000  0.25210000  1.0
  C  C81  1  0.55228000  0.52147000  0.74792000  1.0
  C  C82  1  0.31461000  0.55088000  0.11736000  1.0
  C  C83  1  0.68539000  0.44909000  0.88265000  1.0
  C  C84  1  0.42116000  0.50436000  0.14011000  1.0
  C  C85  1  0.57885000  0.49564000  0.85990000  1.0
  C  C86  1  0.50559000  0.48593000  0.05446000  1.0
  C  C87  1  0.49441000  0.51408000  0.94555000  1.0
  C  C88  1  0.67294000  0.76525000  0.15744000  1.0
  C  C89  1  0.32707000  0.23475000  0.84253000  1.0
  C  C90  1  0.83635000  0.93454000  0.15503000  1.0
  C  C91  1  0.16366000  0.06546000  0.84495000  1.0
  C  C92  1  0.59252000  0.82616000  0.10399000  1.0
  C  C93  1  0.40748000  0.17383000  0.89599000  1.0
  C  C94  1  0.76138000  0.00123000  0.10110000  1.0
  C  C95  1  0.23863000  0.99876000  0.89887000  1.0
  C  C96  1  0.63631000  0.94773000  0.07338000  1.0
  C  C97  1  0.36370000  0.05226000  0.92660000  1.0
  C  C98  1  0.56082000  0.01900000  0.01475000  1.0
  C  C99  1  0.43918000  0.98099000  0.98524000  1.0
  N  N100  1  0.27116000  0.54762000  0.31186000  1.0
  N  N101  1  0.72885000  0.45237000  0.68815000  1.0
  N  N102  1  0.79339000  0.81792000  0.18230000  1.0
  N  N103  1  0.20661000  0.18208000  0.81767000  1.0
  O  O104  1  0.21438000  0.76071000  0.38783000  1.0
  O  O105  1  0.78565000  0.23929000  0.61216000  1.0
  O  O106  1  0.41907000  0.81097000  0.44173000  1.0
  O  O107  1  0.58094000  0.18903000  0.55829000  1.0
  O  O108  1  0.06020000  0.80118000  0.19302000  1.0
  O  O109  1  0.93981000  0.19882000  0.80698000  1.0
  O  O110  1  0.03068000  0.90868000  0.34830000  1.0
  O  O111  1  0.96930000  0.09133000  0.65171000  1.0
  O  O112  1  0.13625000  0.08600000  0.13714000  1.0
  O  O113  1  0.86374000  0.91399000  0.86287000  1.0
  O  O114  1  0.88805000  0.35061000  0.42635000  1.0
  O  O115  1  0.11194000  0.64939000  0.57365000  1.0
  O  O116  1  0.09340000  0.41846000  0.46441000  1.0
  O  O117  1  0.90660000  0.58153000  0.53557000  1.0
  O  O118  1  0.96572000  0.56975000  0.27596000  1.0
  O  O119  1  0.03429000  0.43026000  0.72404000  1.0
  O  O120  1  0.81976000  0.50170000  0.13733000  1.0
  O  O121  1  0.18023000  0.49833000  0.86267000  1.0
  O  O122  1  0.35865000  0.62283000  0.57733000  1.0
  O  O123  1  0.64133000  0.37718000  0.42268000  1.0
  O  O124  1  0.77594000  0.66762000  0.37589000  1.0
  O  O125  1  0.22406000  0.33239000  0.62410000  1.0
