# generated using pymatgen
data_Zn4H10C28S2O13F4
_symmetry_space_group_name_H-M   'P 1'
_cell_length_a   18.56550000
_cell_length_b   19.73410000
_cell_length_c   32.84840000
_cell_angle_alpha   86.05310000
_cell_angle_beta   73.58450000
_cell_angle_gamma   61.93930000
_symmetry_Int_Tables_number   1
_chemical_formula_structural   Zn4H10C28S2O13F4
_chemical_formula_sum   'Zn16 H40 C112 S8 O52 F16'
_cell_volume   10157.93318180
_cell_formula_units_Z   4
loop_
 _symmetry_equiv_pos_site_id
 _symmetry_equiv_pos_as_xyz
  1  'x, y, z'
loop_
 _atom_site_type_symbol
 _atom_site_label
 _atom_site_symmetry_multiplicity
 _atom_site_fract_x
 _atom_site_fract_y
 _atom_site_fract_z
 _atom_site_occupancy
  Zn  Zn0  1  0.87384000  0.55741000  0.51919000  1.0
  Zn  Zn1  1  0.03907000  0.48357000  0.43816000  1.0
  Zn  Zn2  1  0.04116000  0.39879000  0.52377000  1.0
  Zn  Zn3  1  0.04725000  0.55943000  0.51817000  1.0
  Zn  Zn4  1  0.62485000  0.19068000  0.73197000  1.0
  Zn  Zn5  1  0.46377000  0.35115000  0.72631000  1.0
  Zn  Zn6  1  0.45869000  0.26506000  0.81250000  1.0
  Zn  Zn7  1  0.45252000  0.19308000  0.72941000  1.0
  Zn  Zn8  1  0.46181000  0.76361000  0.31302000  1.0
  Zn  Zn9  1  0.45461000  0.69140000  0.23042000  1.0
  Zn  Zn10  1  0.62502000  0.69318000  0.22941000  1.0
  Zn  Zn11  1  0.45878000  0.85130000  0.22630000  1.0
  Zn  Zn12  1  0.03629000  0.89890000  0.02382000  1.0
  Zn  Zn13  1  0.04971000  0.05733000  0.01911000  1.0
  Zn  Zn14  1  0.87639000  0.05881000  0.01966000  1.0
  Zn  Zn15  1  0.03640000  0.98497000  0.93753000  1.0
  H  H16  1  0.69681000  0.78272000  0.59430000  1.0
  H  H17  1  0.80289000  0.96711000  0.65568000  1.0
  H  H18  1  0.18850000  0.27418000  0.34879000  1.0
  H  H19  1  0.31168000  0.97520000  0.40150000  1.0
  H  H20  1  0.54263000  0.48270000  0.62164000  1.0
  H  H21  1  0.54793000  0.52278000  0.66694000  1.0
  H  H22  1  0.64395000  0.57093000  0.61890000  1.0
  H  H23  1  0.63873000  0.53085000  0.57354000  1.0
  H  H24  1  0.35295000  0.67383000  0.43080000  1.0
  H  H25  1  0.26229000  0.76201000  0.42826000  1.0
  H  H26  1  0.16606000  0.71396000  0.47626000  1.0
  H  H27  1  0.25661000  0.62581000  0.47882000  1.0
  H  H28  1  0.54741000  0.76213000  0.42813000  1.0
  H  H29  1  0.54233000  0.67398000  0.43064000  1.0
  H  H30  1  0.63849000  0.62583000  0.47869000  1.0
  H  H31  1  0.64361000  0.71395000  0.47618000  1.0
  H  H32  1  0.33380000  0.17919000  0.63115000  1.0
  H  H33  1  0.24325000  0.21922000  0.67650000  1.0
  H  H34  1  0.14698000  0.26731000  0.62842000  1.0
  H  H35  1  0.23761000  0.22722000  0.58312000  1.0
  H  H36  1  0.31146000  0.58991000  0.78707000  1.0
  H  H37  1  0.18865000  0.66016000  0.96295000  1.0
  H  H38  1  0.95733000  0.07630000  0.81937000  1.0
  H  H39  1  0.95212000  0.98828000  0.82196000  1.0
  H  H40  1  0.85606000  0.03621000  0.77389000  1.0
  H  H41  1  0.86113000  0.12431000  0.77125000  1.0
  H  H42  1  0.16624000  0.21375000  0.97604000  1.0
  H  H43  1  0.25691000  0.12568000  0.97864000  1.0
  H  H44  1  0.35302000  0.17377000  0.93056000  1.0
  H  H45  1  0.26237000  0.26178000  0.92799000  1.0
  H  H46  1  0.57469000  0.46705000  0.15573000  1.0
  H  H47  1  0.92660000  0.28291000  0.09431000  1.0
  H  H48  1  0.25689000  0.03105000  0.07350000  1.0
  H  H49  1  0.16611000  0.07129000  0.11881000  1.0
  H  H50  1  0.26216000  0.02310000  0.16692000  1.0
  H  H51  1  0.35288000  0.98294000  0.12165000  1.0
  H  H52  1  0.95208000  0.72691000  0.08314000  1.0
  H  H53  1  0.95734000  0.76707000  0.12842000  1.0
  H  H54  1  0.86116000  0.71905000  0.17653000  1.0
  H  H55  1  0.85599000  0.67884000  0.13124000  1.0
  C  C56  1  0.86257000  0.56823000  0.43117000  1.0
  C  C57  1  0.12353000  0.31521000  0.43850000  1.0
  C  C58  1  0.86324000  0.43074000  0.56864000  1.0
  C  C59  1  0.13796000  0.43199000  0.56849000  1.0
  C  C60  1  0.87618000  0.68438000  0.56113000  1.0
  C  C61  1  0.13760000  0.56868000  0.43091000  1.0
  C  C62  1  0.63854000  0.31795000  0.68143000  1.0
  C  C63  1  0.37709000  0.43470000  0.81122000  1.0
  C  C64  1  0.63646000  0.18131000  0.81926000  1.0
  C  C65  1  0.36198000  0.18120000  0.81827000  1.0
  C  C66  1  0.62338000  0.06555000  0.68851000  1.0
  C  C67  1  0.36314000  0.31941000  0.68093000  1.0
  C  C68  1  0.36305000  0.68082000  0.31871000  1.0
  C  C69  1  0.62304000  0.56556000  0.18825000  1.0
  C  C70  1  0.63776000  0.68110000  0.31844000  1.0
  C  C71  1  0.63655000  0.81937000  0.18098000  1.0
  C  C72  1  0.37682000  0.93361000  0.31185000  1.0
  C  C73  1  0.36226000  0.81829000  0.18112000  1.0
  C  C74  1  0.13726000  0.93090000  0.06866000  1.0
  C  C75  1  0.87871000  0.18439000  0.06142000  1.0
  C  C76  1  0.86173000  0.93168000  0.06879000  1.0
  C  C77  1  0.86182000  0.06915000  0.93147000  1.0
  C  C78  1  0.12184000  0.81540000  0.93881000  1.0
  C  C79  1  0.13727000  0.06846000  0.93106000  1.0
  C  C80  1  0.73914000  0.80174000  0.60063000  1.0
  C  C81  1  0.76064000  0.94796000  0.64937000  1.0
  C  C82  1  0.82688000  0.75894000  0.58626000  1.0
  C  C83  1  0.67285000  0.99074000  0.66363000  1.0
  C  C84  1  0.78497000  0.87911000  0.62639000  1.0
  C  C85  1  0.71491000  0.87057000  0.62357000  1.0
  C  C86  1  0.20129000  0.22750000  0.36985000  1.0
  C  C87  1  0.29907000  0.02175000  0.38037000  1.0
  C  C88  1  0.17291000  0.24039000  0.41375000  1.0
  C  C89  1  0.32747000  0.00862000  0.33650000  1.0
  C  C90  1  0.25319000  0.10135000  0.39256000  1.0
  C  C91  1  0.24734000  0.14788000  0.35758000  1.0
  C  C92  1  0.69669000  0.34482000  0.65286000  1.0
  C  C93  1  0.80799000  0.40077000  0.59704000  1.0
  C  C94  1  0.66622000  0.41713000  0.63638000  1.0
  C  C95  1  0.83963000  0.32763000  0.61342000  1.0
  C  C96  1  0.71921000  0.44373000  0.60983000  1.0
  C  C97  1  0.78621000  0.30077000  0.64018000  1.0
  C  C98  1  0.58553000  0.49009000  0.63593000  1.0
  C  C99  1  0.64568000  0.52027000  0.60583000  1.0
  C  C100  1  0.30583000  0.65210000  0.34624000  1.0
  C  C101  1  0.19421000  0.59642000  0.40181000  1.0
  C  C102  1  0.28014000  0.66359000  0.39061000  1.0
  C  C103  1  0.21959000  0.58432000  0.35704000  1.0
  C  C104  1  0.22702000  0.63710000  0.41706000  1.0
  C  C105  1  0.27314000  0.61113000  0.33033000  1.0
  C  C106  1  0.28831000  0.69917000  0.42738000  1.0
  C  C107  1  0.22802000  0.66905000  0.45742000  1.0
  C  C108  1  0.69605000  0.65213000  0.34611000  1.0
  C  C109  1  0.80746000  0.59624000  0.40196000  1.0
  C  C110  1  0.66569000  0.66363000  0.39050000  1.0
  C  C111  1  0.83912000  0.58424000  0.35718000  1.0
  C  C112  1  0.71871000  0.63706000  0.41703000  1.0
  C  C113  1  0.78560000  0.61112000  0.33039000  1.0
  C  C114  1  0.58508000  0.69927000  0.42723000  1.0
  C  C115  1  0.64531000  0.66911000  0.45733000  1.0
  C  C116  1  0.30592000  0.34943000  0.65276000  1.0
  C  C117  1  0.19433000  0.40519000  0.59707000  1.0
  C  C118  1  0.27280000  0.30639000  0.64011000  1.0
  C  C119  1  0.22709000  0.44934000  0.60969000  1.0
  C  C120  1  0.21969000  0.33292000  0.61359000  1.0
  C  C121  1  0.28061000  0.42261000  0.63641000  1.0
  C  C122  1  0.27179000  0.22985000  0.64421000  1.0
  C  C123  1  0.21155000  0.25993000  0.61411000  1.0
  C  C124  1  0.29885000  0.58156000  0.82092000  1.0
  C  C125  1  0.20128000  0.66852000  0.92910000  1.0
  C  C126  1  0.32733000  0.50919000  0.83633000  1.0
  C  C127  1  0.17253000  0.74088000  0.91370000  1.0
  C  C128  1  0.24725000  0.61041000  0.89538000  1.0
  C  C129  1  0.25291000  0.63965000  0.85464000  1.0
  C  C130  1  0.80354000  0.09826000  0.90389000  1.0
  C  C131  1  0.69192000  0.15387000  0.84827000  1.0
  C  C132  1  0.83384000  0.08681000  0.85951000  1.0
  C  C133  1  0.66047000  0.16590000  0.89303000  1.0
  C  C134  1  0.78074000  0.11328000  0.83300000  1.0
  C  C135  1  0.71401000  0.13925000  0.91976000  1.0
  C  C136  1  0.91447000  0.05113000  0.82281000  1.0
  C  C137  1  0.85425000  0.08118000  0.79269000  1.0
  C  C138  1  0.19409000  0.09606000  0.90185000  1.0
  C  C139  1  0.30553000  0.15183000  0.84598000  1.0
  C  C140  1  0.22719000  0.13666000  0.91694000  1.0
  C  C141  1  0.27269000  0.11082000  0.83029000  1.0
  C  C142  1  0.28021000  0.16324000  0.89038000  1.0
  C  C143  1  0.21922000  0.08406000  0.85708000  1.0
  C  C144  1  0.22823000  0.16883000  0.95722000  1.0
  C  C145  1  0.28844000  0.19893000  0.92711000  1.0
  C  C146  1  0.64241000  0.44790000  0.14940000  1.0
  C  C147  1  0.85895000  0.30189000  0.10063000  1.0
  C  C148  1  0.67325000  0.49067000  0.16360000  1.0
  C  C149  1  0.82836000  0.25904000  0.08633000  1.0
  C  C150  1  0.79137000  0.37059000  0.12361000  1.0
  C  C151  1  0.70995000  0.37904000  0.12646000  1.0
  C  C152  1  0.19398000  0.90105000  0.09706000  1.0
  C  C153  1  0.30548000  0.84520000  0.15278000  1.0
  C  C154  1  0.22697000  0.94409000  0.10982000  1.0
  C  C155  1  0.27274000  0.80103000  0.14015000  1.0
  C  C156  1  0.27997000  0.91754000  0.13637000  1.0
  C  C157  1  0.21919000  0.82787000  0.11342000  1.0
  C  C158  1  0.22808000  0.02059000  0.10578000  1.0
  C  C159  1  0.28826000  0.99040000  0.13592000  1.0
  C  C160  1  0.80351000  0.90485000  0.09714000  1.0
  C  C161  1  0.69193000  0.84928000  0.15279000  1.0
  C  C162  1  0.83385000  0.83256000  0.11360000  1.0
  C  C163  1  0.66042000  0.92247000  0.13646000  1.0
  C  C164  1  0.78074000  0.80607000  0.14013000  1.0
  C  C165  1  0.71396000  0.94918000  0.10974000  1.0
  C  C166  1  0.91446000  0.75965000  0.11413000  1.0
  C  C167  1  0.85423000  0.72957000  0.14424000  1.0
  S  S168  1  0.88036000  0.80176000  0.60054000  1.0
  S  S169  1  0.61946000  0.94790000  0.64931000  1.0
  S  S170  1  0.20167000  0.15646000  0.44034000  1.0
  S  S171  1  0.29885000  0.09252000  0.30984000  1.0
  S  S172  1  0.29873000  0.51116000  0.89160000  1.0
  S  S173  1  0.20123000  0.73892000  0.85842000  1.0
  S  S174  1  0.78377000  0.44788000  0.14934000  1.0
  S  S175  1  0.71780000  0.30171000  0.10060000  1.0
  O  O176  1  0.99891000  0.50042000  0.50053000  1.0
  O  O177  1  0.82371000  0.58442000  0.47095000  1.0
  O  O178  1  0.10365000  0.37494000  0.41737000  1.0
  O  O179  1  0.94327000  0.38739000  0.55885000  1.0
  O  O180  1  0.94249000  0.53095000  0.41436000  1.0
  O  O181  1  0.82412000  0.49827000  0.55666000  1.0
  O  O182  1  0.10501000  0.31368000  0.47908000  1.0
  O  O183  1  0.11505000  0.38420000  0.55979000  1.0
  O  O184  1  0.95726000  0.65593000  0.55099000  1.0
  O  O185  1  0.11772000  0.49882000  0.55526000  1.0
  O  O186  1  0.83408000  0.65494000  0.55169000  1.0
  O  O187  1  0.11236000  0.53069000  0.41421000  1.0
  O  O188  1  0.11946000  0.58589000  0.47065000  1.0
  O  O189  1  0.49996000  0.24998000  0.74998000  1.0
  O  O190  1  0.67188000  0.25110000  0.69460000  1.0
  O  O191  1  0.39800000  0.43642000  0.77075000  1.0
  O  O192  1  0.55638000  0.21822000  0.83591000  1.0
  O  O193  1  0.55913000  0.36578000  0.69014000  1.0
  O  O194  1  0.67554000  0.16468000  0.77953000  1.0
  O  O195  1  0.39495000  0.37470000  0.83232000  1.0
  O  O196  1  0.38490000  0.21818000  0.83778000  1.0
  O  O197  1  0.54228000  0.09538000  0.69745000  1.0
  O  O198  1  0.38232000  0.16749000  0.77824000  1.0
  O  O199  1  0.66553000  0.09391000  0.69891000  1.0
  O  O200  1  0.38964000  0.36289000  0.69103000  1.0
  O  O201  1  0.38048000  0.25151000  0.69243000  1.0
  O  O202  1  0.50012000  0.75052000  0.25052000  1.0
  O  O203  1  0.38667000  0.71732000  0.33816000  1.0
  O  O204  1  0.54217000  0.59426000  0.19810000  1.0
  O  O205  1  0.67132000  0.66785000  0.27846000  1.0
  O  O206  1  0.38350000  0.66666667  0.27876000  1.0
  O  O207  1  0.55822000  0.71708000  0.33802000  1.0
  O  O208  1  0.66510000  0.59536000  0.19757000  1.0
  O  O209  1  0.67562000  0.75149000  0.19253000  1.0
  O  O210  1  0.39501000  0.93555000  0.27132000  1.0
  O  O211  1  0.55646000  0.86282000  0.19106000  1.0
  O  O212  1  0.39679000  0.87371000  0.33291000  1.0
  O  O213  1  0.38357000  0.75097000  0.19372000  1.0
  O  O214  1  0.38464000  0.86621000  0.19025000  1.0
  O  O215  1  0.00123000  0.99992000  0.99995000  1.0
  O  O216  1  0.11038000  0.88750000  0.05890000  1.0
  O  O217  1  0.95974000  0.15496000  0.05161000  1.0
  O  O218  1  0.82836000  0.99894000  0.05610000  1.0
  O  O219  1  0.12078000  0.99842000  0.05665000  1.0
  O  O220  1  0.94118000  0.88378000  0.05974000  1.0
  O  O221  1  0.83603000  0.15560000  0.05184000  1.0
  O  O222  1  0.82846000  0.08371000  0.97143000  1.0
  O  O223  1  0.10198000  0.87533000  0.91762000  1.0
  O  O224  1  0.94125000  0.03162000  0.91202000  1.0
  O  O225  1  0.10209000  0.81369000  0.97925000  1.0
  O  O226  1  0.12082000  0.08427000  0.97080000  1.0
  O  O227  1  0.11038000  0.03211000  0.91426000  1.0
  F  F228  1  0.92391000  0.27881000  0.60431000  1.0
  F  F229  1  0.82606000  0.22965000  0.65330000  1.0
  F  F230  1  0.19358000  0.54606000  0.33717000  1.0
  F  F231  1  0.29157000  0.59519000  0.28826000  1.0
  F  F232  1  0.92326000  0.54602000  0.33735000  1.0
  F  F233  1  0.82541000  0.59517000  0.28830000  1.0
  F  F234  1  0.20885000  0.52048000  0.59653000  1.0
  F  F235  1  0.30692000  0.47149000  0.64551000  1.0
  F  F236  1  0.57620000  0.20398000  0.91289000  1.0
  F  F237  1  0.67437000  0.15508000  0.96185000  1.0
  F  F238  1  0.29091000  0.09490000  0.78816000  1.0
  F  F239  1  0.19294000  0.04592000  0.83722000  1.0
  F  F240  1  0.29100000  0.72994000  0.15323000  1.0
  F  F241  1  0.19298000  0.77898000  0.10427000  1.0
  F  F242  1  0.57616000  0.97136000  0.14560000  1.0
  F  F243  1  0.67437000  0.02024000  0.09660000  1.0
