# generated using pymatgen
data_Al4H28C40O21
_symmetry_space_group_name_H-M   'P 1'
_cell_length_a   6.99422000
_cell_length_b   13.90430000
_cell_length_c   15.94420000
_cell_angle_alpha   89.45700000
_cell_angle_beta   89.89950000
_cell_angle_gamma   89.93500000
_symmetry_Int_Tables_number   1
_chemical_formula_structural   Al4H28C40O21
_chemical_formula_sum   'Al4 H28 C40 O21'
_cell_volume   1550.49620864
_cell_formula_units_Z   1
loop_
 _symmetry_equiv_pos_site_id
 _symmetry_equiv_pos_as_xyz
  1  'x, y, z'
loop_
 _atom_site_type_symbol
 _atom_site_label
 _atom_site_symmetry_multiplicity
 _atom_site_fract_x
 _atom_site_fract_y
 _atom_site_fract_z
 _atom_site_occupancy
  Al  Al0  1  0.09886000  0.49973000  0.49954000  1.0
  Al  Al1  1  0.59850000  0.50233000  0.49954000  1.0
  Al  Al2  1  0.62965000  0.99634000  0.00334000  1.0
  Al  Al3  1  0.13034000  0.99453000  0.00202000  1.0
  H  H4  1  0.82102000  0.67301000  0.11438000  1.0
  H  H5  1  0.11533000  0.62450000  0.23096000  1.0
  H  H6  1  0.91234000  0.82287000  0.38837000  1.0
  H  H7  1  0.61979000  0.87109000  0.27072000  1.0
  H  H8  1  0.55231000  0.66862000  0.24878000  1.0
  H  H9  1  0.17199000  0.80222000  0.80551000  1.0
  H  H10  1  0.15475000  0.68725000  0.68615000  1.0
  H  H11  1  0.41048000  0.64970000  0.73470000  1.0
  H  H12  1  0.40883000  0.74769000  0.66132000  1.0
  H  H13  1  0.42710000  0.76902000  0.85462000  1.0
  H  H14  1  0.42893000  0.86576000  0.78076000  1.0
  H  H15  1  0.05679000  0.30511000  0.30559000  1.0
  H  H16  1  0.07153000  0.18692000  0.18860000  1.0
  H  H17  1  0.81694000  0.24548000  0.15918000  1.0
  H  H18  1  0.81582000  0.14845000  0.23361000  1.0
  H  H19  1  0.80079000  0.36511000  0.27790000  1.0
  H  H20  1  0.80137000  0.26837000  0.35203000  1.0
  H  H21  1  0.05736000  0.30438000  0.69825000  1.0
  H  H22  1  0.07436000  0.18408000  0.81573000  1.0
  H  H23  1  0.81893000  0.14838000  0.76862000  1.0
  H  H24  1  0.81882000  0.24367000  0.84286000  1.0
  H  H25  1  0.80243000  0.27034000  0.64979000  1.0
  H  H26  1  0.80173000  0.36584000  0.72349000  1.0
  H  H27  1  0.30933000  0.79653000  0.28267000  1.0
  H  H28  1  0.34497000  0.62779000  0.51082000  1.0
  H  H29  1  0.84584000  0.37312000  0.50046000  1.0
  H  H30  1  0.37983000  0.88248000  0.04678000  1.0
  H  H31  1  0.88176000  0.12072000  0.02055000  1.0
  C  C32  1  0.35163000  0.38740000  0.38862000  1.0
  C  C33  1  0.35068000  0.38798000  0.61325000  1.0
  C  C34  1  0.84761000  0.61534000  0.61023000  1.0
  C  C35  1  0.85066000  0.61107000  0.38416000  1.0
  C  C36  1  0.00509000  0.67955000  0.23925000  1.0
  C  C37  1  0.84075000  0.70480000  0.17627000  1.0
  C  C38  1  0.87772000  0.81618000  0.18967000  1.0
  C  C39  1  0.04234000  0.78973000  0.25270000  1.0
  C  C40  1  0.89186000  0.79058000  0.32667000  1.0
  C  C41  1  0.72817000  0.81503000  0.26307000  1.0
  C  C42  1  0.69104000  0.70495000  0.24950000  1.0
  C  C43  1  0.85521000  0.67952000  0.31237000  1.0
  C  C44  1  0.69885000  0.78500000  0.78607000  1.0
  C  C45  1  0.87053000  0.81641000  0.81940000  1.0
  C  C46  1  0.03559000  0.77931000  0.78104000  1.0
  C  C47  1  0.02595000  0.71537000  0.71451000  1.0
  C  C48  1  0.85120000  0.68361000  0.68127000  1.0
  C  C49  1  0.68900000  0.72068000  0.71953000  1.0
  C  C50  1  0.47412000  0.71978000  0.71921000  1.0
  C  C51  1  0.48562000  0.79354000  0.79417000  1.0
  C  C52  1  0.52934000  0.28575000  0.28457000  1.0
  C  C53  1  0.35858000  0.31853000  0.31814000  1.0
  C  C54  1  0.19270000  0.28106000  0.28116000  1.0
  C  C55  1  0.20085000  0.21540000  0.21586000  1.0
  C  C56  1  0.37459000  0.18240000  0.18235000  1.0
  C  C57  1  0.53758000  0.22007000  0.21903000  1.0
  C  C58  1  0.75238000  0.21847000  0.21762000  1.0
  C  C59  1  0.74274000  0.29335000  0.29178000  1.0
  C  C60  1  0.53057000  0.28603000  0.71784000  1.0
  C  C61  1  0.35894000  0.31872000  0.68464000  1.0
  C  C62  1  0.19372000  0.28019000  0.72228000  1.0
  C  C63  1  0.20304000  0.21326000  0.78766000  1.0
  C  C64  1  0.37778000  0.17978000  0.82024000  1.0
  C  C65  1  0.54005000  0.21893000  0.78333000  1.0
  C  C66  1  0.75477000  0.21796000  0.78443000  1.0
  C  C67  1  0.74399000  0.29421000  0.71011000  1.0
  C  C68  1  0.38144000  0.10755000  0.88942000  1.0
  C  C69  1  0.37705000  0.11241000  0.11242000  1.0
  C  C70  1  0.87882000  0.88470000  0.11792000  1.0
  C  C71  1  0.87947000  0.88365000  0.89117000  1.0
  O  O72  1  0.51291000  0.41494000  0.58456000  1.0
  O  O73  1  0.18734000  0.41143000  0.41644000  1.0
  O  O74  1  0.01386000  0.58460000  0.41173000  1.0
  O  O75  1  0.18585000  0.41316000  0.58646000  1.0
  O  O76  1  0.00965000  0.58852000  0.58164000  1.0
  O  O77  1  0.51380000  0.41562000  0.41555000  1.0
  O  O78  1  0.34745000  0.55963000  0.49885000  1.0
  O  O79  1  0.68301000  0.59016000  0.58358000  1.0
  O  O80  1  0.68632000  0.58851000  0.41315000  1.0
  O  O81  1  0.84851000  0.44276000  0.50052000  1.0
  O  O82  1  0.21445000  0.08397000  0.08620000  1.0
  O  O83  1  0.54542000  0.07996000  0.91511000  1.0
  O  O84  1  0.71824000  0.90812000  0.92192000  1.0
  O  O85  1  0.54199000  0.08833000  0.08488000  1.0
  O  O86  1  0.71410000  0.91267000  0.09283000  1.0
  O  O87  1  0.21962000  0.07991000  0.91742000  1.0
  O  O88  1  0.38044000  0.93587000  0.00696000  1.0
  O  O89  1  0.04119000  0.90631000  0.08647000  1.0
  O  O90  1  0.04429000  0.90986000  0.91610000  1.0
  O  O91  1  0.88054000  0.05442000  0.00237000  1.0
  O  O92  1  0.21864000  0.83537000  0.25057000  1.0
