# generated using pymatgen
data_CdH13C21NO4
_symmetry_space_group_name_H-M   'P 1'
_cell_length_a   7.91775000
_cell_length_b   10.51870000
_cell_length_c   11.59770000
_cell_angle_alpha   111.63100000
_cell_angle_beta   95.85670000
_cell_angle_gamma   105.66800000
_symmetry_Int_Tables_number   1
_chemical_formula_structural   CdH13C21NO4
_chemical_formula_sum   'Cd2 H26 C42 N2 O8'
_cell_volume   842.30863006
_cell_formula_units_Z   2
loop_
 _symmetry_equiv_pos_site_id
 _symmetry_equiv_pos_as_xyz
  1  'x, y, z'
loop_
 _atom_site_type_symbol
 _atom_site_label
 _atom_site_symmetry_multiplicity
 _atom_site_fract_x
 _atom_site_fract_y
 _atom_site_fract_z
 _atom_site_occupancy
  Cd  Cd0  1  0.74158000  0.98157000  0.45986000  1.0
  Cd  Cd1  1  0.25842000  0.01843000  0.54014000  1.0
  H  H2  1  0.69979000  0.24792000  0.58850000  1.0
  H  H3  1  0.30021000  0.75208000  0.41150000  1.0
  H  H4  1  0.63058000  0.47576000  0.67206000  1.0
  H  H5  1  0.36942000  0.52424000  0.32794000  1.0
  H  H6  1  0.68751000  0.64513000  0.56310000  1.0
  H  H7  1  0.31249000  0.35487000  0.43690000  1.0
  H  H8  1  0.80382000  0.58016000  0.36800000  1.0
  H  H9  1  0.19618000  0.41984000  0.63200000  1.0
  H  H10  1  0.90548000  0.40447000  0.20143000  1.0
  H  H11  1  0.09452000  0.59553000  0.79857000  1.0
  H  H12  1  0.97815000  0.17265000  0.12554000  1.0
  H  H13  1  0.02185000  0.82734000  0.87446000  1.0
  H  H14  1  0.93112000  0.02266000  0.25058000  1.0
  H  H15  1  0.06888000  0.97734000  0.74942000  1.0
  H  H16  1  0.59038000  0.54694000  0.08617000  1.0
  H  H17  1  0.40962000  0.45306000  0.91383000  1.0
  H  H18  1  0.63248000  0.36137000  0.89186000  1.0
  H  H19  1  0.36752000  0.63863000  0.10814000  1.0
  H  H20  1  0.16168000  0.74765000  0.22702000  1.0
  H  H21  1  0.83832000  0.25235000  0.77298000  1.0
  H  H22  1  0.69453000  0.77457000  0.77541000  1.0
  H  H23  1  0.30547000  0.22543000  0.22459000  1.0
  H  H24  1  0.62436000  0.77003000  0.97936000  1.0
  H  H25  1  0.37564000  0.22997000  0.02064000  1.0
  H  H26  1  0.48996000  0.12638000  0.82763000  1.0
  H  H27  1  0.51004000  0.87362000  0.17237000  1.0
  C  C28  1  0.79228000  0.28255000  0.42944000  1.0
  C  C29  1  0.20772000  0.71745000  0.57056000  1.0
  C  C30  1  0.72359000  0.32086000  0.54072000  1.0
  C  C31  1  0.27641000  0.67914000  0.45928000  1.0
  C  C32  1  0.68556000  0.44852000  0.58706000  1.0
  C  C33  1  0.31444000  0.55148000  0.41294000  1.0
  C  C34  1  0.71506000  0.54328000  0.52515000  1.0
  C  C35  1  0.28494000  0.45671000  0.47484000  1.0
  C  C36  1  0.78032000  0.50755000  0.41602000  1.0
  C  C37  1  0.21968000  0.49245000  0.58397000  1.0
  C  C38  1  0.81972000  0.37682000  0.36493000  1.0
  C  C39  1  0.18028000  0.62318000  0.63507000  1.0
  C  C40  1  0.88589000  0.33502000  0.25273000  1.0
  C  C41  1  0.11410000  0.66498000  0.74727000  1.0
  C  C42  1  0.92612000  0.20836000  0.21106000  1.0
  C  C43  1  0.07387000  0.79164000  0.78894000  1.0
  C  C44  1  0.89782000  0.12220000  0.28044000  1.0
  C  C45  1  0.10218000  0.87780000  0.71956000  1.0
  C  C46  1  0.83887000  0.77219000  0.27637000  1.0
  C  C47  1  0.16113000  0.22781000  0.72363000  1.0
  C  C48  1  0.87321000  0.65863000  0.16663000  1.0
  C  C49  1  0.12679000  0.34137000  0.83337000  1.0
  C  C50  1  0.72394000  0.54755000  0.07160000  1.0
  C  C51  1  0.27606000  0.45245000  0.92840000  1.0
  C  C52  1  0.74788000  0.44441000  0.96596000  1.0
  C  C53  1  0.25212000  0.55559000  0.03404000  1.0
  C  C54  1  0.92408000  0.44467000  0.95147000  1.0
  C  C55  1  0.07592000  0.55534000  0.04853000  1.0
  C  C56  1  0.04648000  0.66194000  0.15479000  1.0
  C  C57  1  0.95352000  0.33807000  0.84521000  1.0
  C  C58  1  0.63756000  0.95508000  0.66946000  1.0
  C  C59  1  0.36244000  0.04492000  0.33054000  1.0
  C  C60  1  0.59728000  0.95264000  0.79130000  1.0
  C  C61  1  0.40272000  0.04736000  0.20870000  1.0
  C  C62  1  0.63554000  0.85076000  0.83387000  1.0
  C  C63  1  0.36446000  0.14924000  0.16613000  1.0
  C  C64  1  0.59669000  0.84857000  0.94623000  1.0
  C  C65  1  0.40331000  0.15143000  0.05377000  1.0
  C  C66  1  0.52164000  0.05078000  0.86278000  1.0
  C  C67  1  0.47836000  0.94922000  0.13722000  1.0
  C  C68  1  0.48128000  0.05181000  0.97884000  1.0
  C  C69  1  0.51872000  0.94819000  0.02116000  1.0
  N  N70  1  0.83088000  0.15574000  0.38395000  1.0
  N  N71  1  0.16912000  0.84426000  0.61605000  1.0
  O  O72  1  0.67646000  0.77222000  0.27283000  1.0
  O  O73  1  0.32354000  0.22778000  0.72717000  1.0
  O  O74  1  0.96858000  0.86649000  0.36830000  1.0
  O  O75  1  0.03142000  0.13351000  0.63171000  1.0
  O  O76  1  0.58868000  0.04169000  0.62907000  1.0
  O  O77  1  0.41132000  0.95831000  0.37094000  1.0
  O  O78  1  0.72167000  0.87499000  0.60867000  1.0
  O  O79  1  0.27833000  0.12500000  0.39133000  1.0
