# generated using pymatgen
data_CdH15C21(NO3)2
_symmetry_space_group_name_H-M   'P 1'
_cell_length_a   9.12912000
_cell_length_b   12.18337262
_cell_length_c   21.79120000
_cell_angle_alpha   74.36301349
_cell_angle_beta   89.98230000
_cell_angle_gamma   68.02901927
_symmetry_Int_Tables_number   1
_chemical_formula_structural   CdH15C21(NO3)2
_chemical_formula_sum   'Cd4 H60 C84 N8 O24'
_cell_volume   2150.72002497
_cell_formula_units_Z   4
loop_
 _symmetry_equiv_pos_site_id
 _symmetry_equiv_pos_as_xyz
  1  'x, y, z'
loop_
 _atom_site_type_symbol
 _atom_site_label
 _atom_site_symmetry_multiplicity
 _atom_site_fract_x
 _atom_site_fract_y
 _atom_site_fract_z
 _atom_site_occupancy
  Cd  Cd0  1  0.51799000  0.46816000  0.83499000  1.0
  Cd  Cd1  1  0.98593000  0.53199000  0.66498000  1.0
  Cd  Cd2  1  0.48201000  0.53184000  0.16501000  1.0
  Cd  Cd3  1  0.01407000  0.46801000  0.33502000  1.0
  H  H4  1  0.69475000  0.60291000  0.76197000  1.0
  H  H5  1  0.29718000  0.39733000  0.73805000  1.0
  H  H6  1  0.30525000  0.39709000  0.23803000  1.0
  H  H7  1  0.70283000  0.60267000  0.26195000  1.0
  H  H8  1  0.63230000  0.54183000  0.72085000  1.0
  H  H9  1  0.17377000  0.45850000  0.77916000  1.0
  H  H10  1  0.36771000  0.45817000  0.27915000  1.0
  H  H11  1  0.82623000  0.54150000  0.22084000  1.0
  H  H12  1  0.86552000  0.24928000  0.56530000  1.0
  H  H13  1  0.11502000  0.75076000  0.93476000  1.0
  H  H14  1  0.13448000  0.75072000  0.43470000  1.0
  H  H15  1  0.88498000  0.24923000  0.06524000  1.0
  H  H16  1  0.53177000  0.08220000  0.63043000  1.0
  H  H17  1  0.61457000  0.91786000  0.86948000  1.0
  H  H18  1  0.46822000  0.91780000  0.36957000  1.0
  H  H19  1  0.38543000  0.08214000  0.13052000  1.0
  H  H20  1  0.49348000  0.17378000  0.72185000  1.0
  H  H21  1  0.66821000  0.82657000  0.77796000  1.0
  H  H22  1  0.50653000  0.82622000  0.27815000  1.0
  H  H23  1  0.33179000  0.17343000  0.22204000  1.0
  H  H24  1  0.97008000  0.94514000  0.61698000  1.0
  H  H25  1  0.91534000  0.05487000  0.88303000  1.0
  H  H26  1  0.02991000  0.05486000  0.38301000  1.0
  H  H27  1  0.08467000  0.94513000  0.11698000  1.0
  H  H28  1  0.77375000  0.16214000  0.42241000  1.0
  H  H29  1  0.93574000  0.83783000  0.07760000  1.0
  H  H30  1  0.22624000  0.83787000  0.57759000  1.0
  H  H31  1  0.06426000  0.16217000  0.92240000  1.0
  H  H32  1  0.54064000  0.57523000  0.94906000  1.0
  H  H33  1  0.11552000  0.42491000  0.55078000  1.0
  H  H34  1  0.45936000  0.42477000  0.05094000  1.0
  H  H35  1  0.88448000  0.57509000  0.44921000  1.0
  H  H36  1  0.73383000  0.59279000  0.02204000  1.0
  H  H37  1  0.32644000  0.40736000  0.47784000  1.0
  H  H38  1  0.26618000  0.40720000  0.97796000  1.0
  H  H39  1  0.67356000  0.59264000  0.52216000  1.0
  H  H40  1  0.10570000  0.39886000  0.92054000  1.0
  H  H41  1  0.50481000  0.60070000  0.57963000  1.0
  H  H42  1  0.89430000  0.60114000  0.07946000  1.0
  H  H43  1  0.49520000  0.39929000  0.42037000  1.0
  H  H44  1  0.89620000  0.38453000  0.85480000  1.0
  H  H45  1  0.28084000  0.61501000  0.64531000  1.0
  H  H46  1  0.10380000  0.61547000  0.14520000  1.0
  H  H47  1  0.71917000  0.38499000  0.35469000  1.0
  H  H48  1  0.37732000  0.27511000  0.83513000  1.0
  H  H49  1  0.65262000  0.72496000  0.66489000  1.0
  H  H50  1  0.62268000  0.72489000  0.16487000  1.0
  H  H51  1  0.34738000  0.27504000  0.33511000  1.0
  H  H52  1  0.36518000  0.07725000  0.89475000  1.0
  H  H53  1  0.44269000  0.92265000  0.60533000  1.0
  H  H54  1  0.63482000  0.92275000  0.10525000  1.0
  H  H55  1  0.55730000  0.07735000  0.39467000  1.0
  H  H56  1  0.63522000  0.08537000  0.05598000  1.0
  H  H57  1  0.72033000  0.91475000  0.44388000  1.0
  H  H58  1  0.36478000  0.91463000  0.94403000  1.0
  H  H59  1  0.27965000  0.08525000  0.55612000  1.0
  H  H60  1  0.64026000  0.28080000  0.98848000  1.0
  H  H61  1  0.92073000  0.71946000  0.51130000  1.0
  H  H62  1  0.35974000  0.71920000  0.01153000  1.0
  H  H63  1  0.07926000  0.28054000  0.48870000  1.0
  C  C64  1  0.63083000  0.31745000  0.75029000  1.0
  C  C65  1  0.94887000  0.68279000  0.74965000  1.0
  C  C66  1  0.36917000  0.68255000  0.24971000  1.0
  C  C67  1  0.05113000  0.31721000  0.25035000  1.0
  C  C68  1  0.84000000  0.37335000  0.65092000  1.0
  C  C69  1  0.21370000  0.62683000  0.84907000  1.0
  C  C70  1  0.16001000  0.62664000  0.34908000  1.0
  C  C71  1  0.78629000  0.37317000  0.15093000  1.0
  C  C72  1  0.65779000  0.26299000  0.69507000  1.0
  C  C73  1  0.92151000  0.73724000  0.80486000  1.0
  C  C74  1  0.34221000  0.73701000  0.30493000  1.0
  C  C75  1  0.07850000  0.26275000  0.19514000  1.0
  C  C76  1  0.76236000  0.28469000  0.65023000  1.0
  C  C77  1  0.04757000  0.71548000  0.84974000  1.0
  C  C78  1  0.23765000  0.71530000  0.34977000  1.0
  C  C79  1  0.95243000  0.28452000  0.15026000  1.0
  C  C80  1  0.78525000  0.23129000  0.59994000  1.0
  C  C81  1  0.01691000  0.76881000  0.90006000  1.0
  C  C82  1  0.21475000  0.76871000  0.40006000  1.0
  C  C83  1  0.98309000  0.23119000  0.09994000  1.0
  C  C84  1  0.70081000  0.16016000  0.59294000  1.0
  C  C85  1  0.86133000  0.83982000  0.90705000  1.0
  C  C86  1  0.29919000  0.83984000  0.40706000  1.0
  C  C87  1  0.13867000  0.16018000  0.09295000  1.0
  C  C88  1  0.59599000  0.13859000  0.63668000  1.0
  C  C89  1  0.73512000  0.86148000  0.86326000  1.0
  C  C90  1  0.40401000  0.86141000  0.36332000  1.0
  C  C91  1  0.26487000  0.13853000  0.13675000  1.0
  C  C92  1  0.57549000  0.19006000  0.68753000  1.0
  C  C93  1  0.76634000  0.81020000  0.81236000  1.0
  C  C94  1  0.42453000  0.80993000  0.31247000  1.0
  C  C95  1  0.23365000  0.18980000  0.18765000  1.0
  C  C96  1  0.85774000  0.06070000  0.52146000  1.0
  C  C97  1  0.91846000  0.93925000  0.97855000  1.0
  C  C98  1  0.14225000  0.93930000  0.47854000  1.0
  C  C99  1  0.08155000  0.06075000  0.02145000  1.0
  C  C100  1  0.98386000  0.97055000  0.56602000  1.0
  C  C101  1  0.95453000  0.02944000  0.93399000  1.0
  C  C102  1  0.01613000  0.02945000  0.43397000  1.0
  C  C103  1  0.04548000  0.97056000  0.06602000  1.0
  C  C104  1  0.87347000  0.09035000  0.45590000  1.0
  C  C105  1  0.96368000  0.90966000  0.04409000  1.0
  C  C106  1  0.12653000  0.90965000  0.54410000  1.0
  C  C107  1  0.03632000  0.09035000  0.95591000  1.0
  C  C108  1  0.66809000  0.53503000  0.94608000  1.0
  C  C109  1  0.20292000  0.46499000  0.55382000  1.0
  C  C110  1  0.33191000  0.46497000  0.05392000  1.0
  C  C111  1  0.79709000  0.53501000  0.44618000  1.0
  C  C112  1  0.77736000  0.54568000  0.98588000  1.0
  C  C113  1  0.32292000  0.45438000  0.51404000  1.0
  C  C114  1  0.22264000  0.45432000  0.01412000  1.0
  C  C115  1  0.67709000  0.54562000  0.48596000  1.0
  C  C116  1  0.94004000  0.49553000  0.97899000  1.0
  C  C117  1  0.43556000  0.50444000  0.52099000  1.0
  C  C118  1  0.05996000  0.50447000  0.02100000  1.0
  C  C119  1  0.56444000  0.49556000  0.47901000  1.0
  C  C120  1  0.98297000  0.43729000  0.93043000  1.0
  C  C121  1  0.42034000  0.56247000  0.56962000  1.0
  C  C122  1  0.01703000  0.56271000  0.06957000  1.0
  C  C123  1  0.57966000  0.43753000  0.43037000  1.0
  C  C124  1  0.86659000  0.42918000  0.89286000  1.0
  C  C125  1  0.29581000  0.57052000  0.60718000  1.0
  C  C126  1  0.13342000  0.57082000  0.10714000  1.0
  C  C127  1  0.70419000  0.42948000  0.39282000  1.0
  C  C128  1  0.43455000  0.22929000  0.88413000  1.0
  C  C129  1  0.66400000  0.77075000  0.61586000  1.0
  C  C130  1  0.56545000  0.77071000  0.11587000  1.0
  C  C131  1  0.33600000  0.22925000  0.38414000  1.0
  C  C132  1  0.42800000  0.11778000  0.91827000  1.0
  C  C133  1  0.54595000  0.88219000  0.58175000  1.0
  C  C134  1  0.57200000  0.88222000  0.08173000  1.0
  C  C135  1  0.45404000  0.11781000  0.41825000  1.0
  C  C136  1  0.50106000  0.06008000  0.98150000  1.0
  C  C137  1  0.56112000  0.93994000  0.51847000  1.0
  C  C138  1  0.49895000  0.93992000  0.01850000  1.0
  C  C139  1  0.43887000  0.06006000  0.48154000  1.0
  C  C140  1  0.57625000  0.12210000  0.00724000  1.0
  C  C141  1  0.69815000  0.87799000  0.49264000  1.0
  C  C142  1  0.42375000  0.87790000  0.99276000  1.0
  C  C143  1  0.30184000  0.12201000  0.50736000  1.0
  C  C144  1  0.57926000  0.23303000  0.96952000  1.0
  C  C145  1  0.81209000  0.76714000  0.53033000  1.0
  C  C146  1  0.42074000  0.76697000  0.03049000  1.0
  C  C147  1  0.18790000  0.23286000  0.46967000  1.0
  N  N148  1  0.71155000  0.47645000  0.90075000  1.0
  N  N149  1  0.18784000  0.52342000  0.59921000  1.0
  N  N150  1  0.28845000  0.52355000  0.09925000  1.0
  N  N151  1  0.81216000  0.47658000  0.40078000  1.0
  N  N152  1  0.50992000  0.28646000  0.90888000  1.0
  N  N153  1  0.79640000  0.71370000  0.59103000  1.0
  N  N154  1  0.49008000  0.71354000  0.09112000  1.0
  N  N155  1  0.20359000  0.28631000  0.40897000  1.0
  O  O156  1  0.74119000  0.28939000  0.79303000  1.0
  O  O157  1  0.03121000  0.71077000  0.70688000  1.0
  O  O158  1  0.25882000  0.71060000  0.20697000  1.0
  O  O159  1  0.96879000  0.28924000  0.29312000  1.0
  O  O160  1  0.48639000  0.39361000  0.75007000  1.0
  O  O161  1  0.88030000  0.60672000  0.74990000  1.0
  O  O162  1  0.51362000  0.60638000  0.24993000  1.0
  O  O163  1  0.11970000  0.39328000  0.25010000  1.0
  O  O164  1  0.70883000  0.11707000  0.53975000  1.0
  O  O165  1  0.82606000  0.88277000  0.96028000  1.0
  O  O166  1  0.29116000  0.88293000  0.46025000  1.0
  O  O167  1  0.17395000  0.11723000  0.03972000  1.0
  O  O168  1  0.97405000  0.35615000  0.62990000  1.0
  O  O169  1  0.33057000  0.64399000  0.87013000  1.0
  O  O170  1  0.02596000  0.64384000  0.37011000  1.0
  O  O171  1  0.66942000  0.35602000  0.12987000  1.0
  O  O172  1  0.76434000  0.46707000  0.67078000  1.0
  O  O173  1  0.23166000  0.53319000  0.82916000  1.0
  O  O174  1  0.23566000  0.53293000  0.32921000  1.0
  O  O175  1  0.76835000  0.46681000  0.17085000  1.0
  O  O176  1  0.59519000  0.59398000  0.75016000  1.0
  O  O177  1  0.18869000  0.40630000  0.74987000  1.0
  O  O178  1  0.40482000  0.40601000  0.24984000  1.0
  O  O179  1  0.81131000  0.59370000  0.25013000  1.0
