# generated using pymatgen
data_ZnH8C22Br5NO10
_symmetry_space_group_name_H-M   'P 1'
_cell_length_a   14.76430000
_cell_length_b   15.06050000
_cell_length_c   15.52670000
_cell_angle_alpha   83.88830000
_cell_angle_beta   62.41290000
_cell_angle_gamma   86.73990000
_symmetry_Int_Tables_number   1
_chemical_formula_structural   ZnH8C22Br5NO10
_chemical_formula_sum   'Zn2 H16 C44 Br10 N2 O20'
_cell_volume   3042.45767013
_cell_formula_units_Z   2
loop_
 _symmetry_equiv_pos_site_id
 _symmetry_equiv_pos_as_xyz
  1  'x, y, z'
loop_
 _atom_site_type_symbol
 _atom_site_label
 _atom_site_symmetry_multiplicity
 _atom_site_fract_x
 _atom_site_fract_y
 _atom_site_fract_z
 _atom_site_occupancy
  Zn  Zn0  1  0.59789000  0.48629000  0.49667000  1.0
  Zn  Zn1  1  0.37640000  0.49755000  0.51995000  1.0
  H  H2  1  0.56066000  0.45934000  0.77400000  1.0
  H  H3  1  0.50631000  0.54684000  0.21578000  1.0
  H  H4  1  0.40796000  0.77303000  0.41319000  1.0
  H  H5  1  0.31921000  0.22331000  0.60276000  1.0
  H  H6  1  0.74988000  0.30111000  0.87275000  1.0
  H  H7  1  0.34899000  0.72361000  0.10529000  1.0
  H  H8  1  0.05073000  0.62392000  0.38306000  1.0
  H  H9  1  0.99141000  0.34725000  0.54108000  1.0
  H  H10  1  0.89950000  0.44032000  0.68572000  1.0
  H  H11  1  0.89010000  0.70579000  0.46801000  1.0
  H  H12  1  0.27613000  0.52915000  0.75876000  1.0
  H  H13  1  0.77379000  0.46531000  0.25997000  1.0
  H  H14  1  0.51364000  0.99954000  0.61901000  1.0
  H  H15  1  0.62042000  0.98005000  0.38098000  1.0
  H  H16  1  0.41734000  0.01062000  0.38526000  1.0
  H  H17  1  0.30696000  0.98588000  0.62947000  1.0
  C  C18  1  0.45517000  0.65784000  0.52577000  1.0
  C  C19  1  0.47129000  0.32967000  0.48760000  1.0
  C  C20  1  0.62224000  0.41694000  0.91844000  1.0
  C  C21  1  0.47185000  0.60381000  0.06083000  1.0
  C  C22  1  0.69764000  0.40029000  0.94824000  1.0
  C  C23  1  0.39339000  0.62038000  0.03582000  1.0
  C  C24  1  0.48866000  0.89362000  0.57671000  1.0
  C  C25  1  0.55441000  0.08987000  0.42651000  1.0
  C  C26  1  0.48428000  0.79998000  0.58586000  1.0
  C  C27  1  0.55705000  0.18353000  0.41838000  1.0
  C  C28  1  0.45668000  0.75764000  0.52526000  1.0
  C  C29  1  0.47207000  0.23038000  0.48366000  1.0
  C  C30  1  0.43177000  0.80726000  0.45760000  1.0
  C  C31  1  0.38477000  0.18529000  0.55430000  1.0
  C  C32  1  0.43626000  0.90012000  0.44836000  1.0
  C  C33  1  0.38245000  0.09236000  0.56284000  1.0
  C  C34  1  0.46524000  0.94442000  0.50740000  1.0
  C  C35  1  0.46758000  0.04348000  0.49950000  1.0
  C  C36  1  0.11684000  0.54875000  0.44456000  1.0
  C  C37  1  0.88579000  0.41972000  0.52872000  1.0
  C  C38  1  0.20974000  0.54583000  0.44945000  1.0
  C  C39  1  0.79398000  0.42019000  0.52127000  1.0
  C  C40  1  0.60495000  0.50840000  0.31768000  1.0
  C  C41  1  0.44293000  0.48096000  0.69190000  1.0
  C  C42  1  0.14050000  0.46226000  0.59852000  1.0
  C  C43  1  0.79839000  0.57251000  0.48674000  1.0
  C  C44  1  0.04300000  0.46407000  0.60286000  1.0
  C  C45  1  0.88678000  0.57951000  0.49730000  1.0
  C  C46  1  0.03115000  0.50544000  0.52252000  1.0
  C  C47  1  0.93301000  0.50190000  0.51871000  1.0
  C  C48  1  0.64397000  0.49627000  0.21284000  1.0
  C  C49  1  0.41645000  0.50416000  0.79123000  1.0
  C  C50  1  0.76634000  0.43266000  0.06433000  1.0
  C  C51  1  0.30812000  0.57646000  0.93777000  1.0
  C  C52  1  0.74234000  0.45854000  0.15669000  1.0
  C  C53  1  0.32096000  0.54386000  0.85135000  1.0
  C  C54  1  0.58078000  0.51899000  0.17025000  1.0
  C  C55  1  0.48920000  0.48867000  0.82388000  1.0
  C  C56  1  0.60706000  0.50153000  0.07460000  1.0
  C  C57  1  0.47475000  0.51236000  0.91415000  1.0
  C  C58  1  0.69574000  0.44685000  0.02541000  1.0
  C  C59  1  0.38684000  0.56750000  0.96669000  1.0
  C  C60  1  0.54205000  0.53043000  0.03030000  1.0
  C  C61  1  0.54677000  0.48659000  0.95184000  1.0
  Br  Br62  1  0.32048000  0.60735000  0.34566000  1.0
  Br  Br63  1  0.73152000  0.31060000  0.53597000  1.0
  Br  Br64  1  0.15636000  0.40281000  0.70376000  1.0
  Br  Br65  1  0.74984000  0.68031000  0.44670000  1.0
  Br  Br66  1  0.89899000  0.38248000  0.99629000  1.0
  Br  Br67  1  0.17766000  0.62762000  0.01329000  1.0
  Br  Br68  1  0.62010000  0.32710000  0.83905000  1.0
  Br  Br69  1  0.49482000  0.69960000  0.12177000  1.0
  Br  Br70  1  0.50671000  0.73612000  0.68653000  1.0
  Br  Br71  1  0.67365000  0.24099000  0.31545000  1.0
  N  N72  1  0.22132000  0.50235000  0.52351000  1.0
  N  N73  1  0.75217000  0.49509000  0.50034000  1.0
  O  O74  1  0.53268000  0.61414000  0.52066000  1.0
  O  O75  1  0.38760000  0.37048000  0.50151000  1.0
  O  O76  1  0.37538000  0.62679000  0.52773000  1.0
  O  O77  1  0.55004000  0.36347000  0.48181000  1.0
  O  O78  1  0.67213000  0.50453000  0.35088000  1.0
  O  O79  1  0.37286000  0.48646000  0.66431000  1.0
  O  O80  1  0.51087000  0.52001000  0.37026000  1.0
  O  O81  1  0.53561000  0.45829000  0.63924000  1.0
  O  O82  1  0.76727000  0.33355000  0.91501000  1.0
  O  O83  1  0.32935000  0.69135000  0.06461000  1.0
  O  O84  1  0.11532000  0.59028000  0.36384000  1.0
  O  O85  1  0.92525000  0.33960000  0.54274000  1.0
  O  O86  1  0.96528000  0.42484000  0.68445000  1.0
  O  O87  1  0.93249000  0.65967000  0.48314000  1.0
  O  O88  1  0.24630000  0.55329000  0.82457000  1.0
  O  O89  1  0.80943000  0.44391000  0.19281000  1.0
  O  O90  1  0.51498000  0.93490000  0.63546000  1.0
  O  O91  1  0.63619000  0.04387000  0.36369000  1.0
  O  O92  1  0.41167000  0.94672000  0.38176000  1.0
  O  O93  1  0.29675000  0.05047000  0.63332000  1.0
