# generated using pymatgen
data_BaH3C7NO5
_symmetry_space_group_name_H-M   'P 1'
_cell_length_a   7.88535000
_cell_length_b   9.60316000
_cell_length_c   21.39860000
_cell_angle_alpha   90.00000000
_cell_angle_beta   89.99990000
_cell_angle_gamma   90.00000000
_symmetry_Int_Tables_number   1
_chemical_formula_structural   BaH3C7NO5
_chemical_formula_sum   'Ba8 H24 C56 N8 O40'
_cell_volume   1620.39352892
_cell_formula_units_Z   8
loop_
 _symmetry_equiv_pos_site_id
 _symmetry_equiv_pos_as_xyz
  1  'x, y, z'
loop_
 _atom_site_type_symbol
 _atom_site_label
 _atom_site_symmetry_multiplicity
 _atom_site_fract_x
 _atom_site_fract_y
 _atom_site_fract_z
 _atom_site_occupancy
  Ba  Ba0  1  0.10381000  0.79876000  0.45777000  1.0
  Ba  Ba1  1  0.39619000  0.20124000  0.95777000  1.0
  Ba  Ba2  1  0.89619000  0.29876000  0.04223000  1.0
  Ba  Ba3  1  0.60381000  0.70124000  0.54223000  1.0
  Ba  Ba4  1  0.89619000  0.20124000  0.54223000  1.0
  Ba  Ba5  1  0.60381000  0.79876000  0.04223000  1.0
  Ba  Ba6  1  0.10381000  0.70124000  0.95777000  1.0
  Ba  Ba7  1  0.39619000  0.29876000  0.45777000  1.0
  H  H8  1  0.29136000  0.46846000  0.69016000  1.0
  H  H9  1  0.20864000  0.53154000  0.19016000  1.0
  H  H10  1  0.70864000  0.96847000  0.80984000  1.0
  H  H11  1  0.79136000  0.03154000  0.30984000  1.0
  H  H12  1  0.70864000  0.53153000  0.30984000  1.0
  H  H13  1  0.79136000  0.46846000  0.80984000  1.0
  H  H14  1  0.29136000  0.03154000  0.19016000  1.0
  H  H15  1  0.20864000  0.96846000  0.69016000  1.0
  H  H16  1  0.19553000  0.61805000  0.78074000  1.0
  H  H17  1  0.30446000  0.38195000  0.28074000  1.0
  H  H18  1  0.80446000  0.11805000  0.71926000  1.0
  H  H19  1  0.69554000  0.88195000  0.21926000  1.0
  H  H20  1  0.80446000  0.38195000  0.21926000  1.0
  H  H21  1  0.69554000  0.61805000  0.71926000  1.0
  H  H22  1  0.19554000  0.88195000  0.28074000  1.0
  H  H23  1  0.30446000  0.11805000  0.78074000  1.0
  H  H24  1  0.00191000  0.81728000  0.75960000  1.0
  H  H25  1  0.49809000  0.18272000  0.25960000  1.0
  H  H26  1  0.99809000  0.31728000  0.74040000  1.0
  H  H27  1  0.50192000  0.68272000  0.24040000  1.0
  H  H28  1  0.99809000  0.18272000  0.24040000  1.0
  H  H29  1  0.50192000  0.81728000  0.74040000  1.0
  H  H30  1  0.00191000  0.68272000  0.25960000  1.0
  H  H31  1  0.49809000  0.31728000  0.75960000  1.0
  C  C32  1  0.20231000  0.49515000  0.56784000  1.0
  C  C33  1  0.29769000  0.50485000  0.06784000  1.0
  C  C34  1  0.79769000  0.99515000  0.93216000  1.0
  C  C35  1  0.70231000  0.00485000  0.43216000  1.0
  C  C36  1  0.79769000  0.50485000  0.43216000  1.0
  C  C37  1  0.70231000  0.49515000  0.93216000  1.0
  C  C38  1  0.20231000  0.00485000  0.06784000  1.0
  C  C39  1  0.29769000  0.99515000  0.56784000  1.0
  C  C40  1  0.13923000  0.57637000  0.62409000  1.0
  C  C41  1  0.36077000  0.42363000  0.12409000  1.0
  C  C42  1  0.86077000  0.07637000  0.87591000  1.0
  C  C43  1  0.63923000  0.92363000  0.37591000  1.0
  C  C44  1  0.86078000  0.42363000  0.37591000  1.0
  C  C45  1  0.63923000  0.57637000  0.87591000  1.0
  C  C46  1  0.13922000  0.92363000  0.12409000  1.0
  C  C47  1  0.36077000  0.07637000  0.62409000  1.0
  C  C48  1  0.20053000  0.55233000  0.68396000  1.0
  C  C49  1  0.29948000  0.44767000  0.18396000  1.0
  C  C50  1  0.79948000  0.05234000  0.81604000  1.0
  C  C51  1  0.70052000  0.94767000  0.31604000  1.0
  C  C52  1  0.79948000  0.44766000  0.31604000  1.0
  C  C53  1  0.70052000  0.55233000  0.81604000  1.0
  C  C54  1  0.20052000  0.94767000  0.18396000  1.0
  C  C55  1  0.29947000  0.05233000  0.68396000  1.0
  C  C56  1  0.14993000  0.63667000  0.73354000  1.0
  C  C57  1  0.35008000  0.36333000  0.23354000  1.0
  C  C58  1  0.85007000  0.13667000  0.76646000  1.0
  C  C59  1  0.64993000  0.86333000  0.26646000  1.0
  C  C60  1  0.85008000  0.36333000  0.26646000  1.0
  C  C61  1  0.64993000  0.63667000  0.76646000  1.0
  C  C62  1  0.14993000  0.86333000  0.23354000  1.0
  C  C63  1  0.35007000  0.13667000  0.73354000  1.0
  C  C64  1  0.03964000  0.74716000  0.72206000  1.0
  C  C65  1  0.46036000  0.25284000  0.22206000  1.0
  C  C66  1  0.96036000  0.24716000  0.77794000  1.0
  C  C67  1  0.53964000  0.75284000  0.27794000  1.0
  C  C68  1  0.96036000  0.25284000  0.27794000  1.0
  C  C69  1  0.53964000  0.74716000  0.77794000  1.0
  C  C70  1  0.03964000  0.75284000  0.22206000  1.0
  C  C71  1  0.46036000  0.24716000  0.72206000  1.0
  C  C72  1  0.85697000  0.88445000  0.64299000  1.0
  C  C73  1  0.64302000  0.11555000  0.14299000  1.0
  C  C74  1  0.14303000  0.38445000  0.85701000  1.0
  C  C75  1  0.35697000  0.61555000  0.35701000  1.0
  C  C76  1  0.14303000  0.11555000  0.35701000  1.0
  C  C77  1  0.35697000  0.88445000  0.85701000  1.0
  C  C78  1  0.85697000  0.61555000  0.14299000  1.0
  C  C79  1  0.64302000  0.38445000  0.64299000  1.0
  C  C80  1  0.97671000  0.76782000  0.66220000  1.0
  C  C81  1  0.52329000  0.23218000  0.16220000  1.0
  C  C82  1  0.02329000  0.26782000  0.83780000  1.0
  C  C83  1  0.47671000  0.73218000  0.33780000  1.0
  C  C84  1  0.02329000  0.23218000  0.33780000  1.0
  C  C85  1  0.47671000  0.76782000  0.83780000  1.0
  C  C86  1  0.97671000  0.73218000  0.16220000  1.0
  C  C87  1  0.52329000  0.26782000  0.66220000  1.0
  N  N88  1  0.02320000  0.67961000  0.61518000  1.0
  N  N89  1  0.47680000  0.32039000  0.11518000  1.0
  N  N90  1  0.97680000  0.17961000  0.88482000  1.0
  N  N91  1  0.52320000  0.82039000  0.38482000  1.0
  N  N92  1  0.97680000  0.32039000  0.38482000  1.0
  N  N93  1  0.52320000  0.67961000  0.88482000  1.0
  N  N94  1  0.02320000  0.82039000  0.11518000  1.0
  N  N95  1  0.47680000  0.17961000  0.61518000  1.0
  O  O96  1  0.28060000  0.56175000  0.52506000  1.0
  O  O97  1  0.21940000  0.43825000  0.02506000  1.0
  O  O98  1  0.71940000  0.06175000  0.97494000  1.0
  O  O99  1  0.78060000  0.93825000  0.47494000  1.0
  O  O100  1  0.71940000  0.43825000  0.47494000  1.0
  O  O101  1  0.78060000  0.56175000  0.97494000  1.0
  O  O102  1  0.28060000  0.93825000  0.02506000  1.0
  O  O103  1  0.21940000  0.06175000  0.52506000  1.0
  O  O104  1  0.18095000  0.36495000  0.56873000  1.0
  O  O105  1  0.31905000  0.63505000  0.06873000  1.0
  O  O106  1  0.81905000  0.86495000  0.93127000  1.0
  O  O107  1  0.68096000  0.13505000  0.43127000  1.0
  O  O108  1  0.81905000  0.63505000  0.43127000  1.0
  O  O109  1  0.68095000  0.36495000  0.93127000  1.0
  O  O110  1  0.18095000  0.13505000  0.06873000  1.0
  O  O111  1  0.31905000  0.86495000  0.56873000  1.0
  O  O112  1  0.70053000  0.85636000  0.64171000  1.0
  O  O113  1  0.79947000  0.14364000  0.14171000  1.0
  O  O114  1  0.29947000  0.35637000  0.85829000  1.0
  O  O115  1  0.20053000  0.64364000  0.35829000  1.0
  O  O116  1  0.29947000  0.14364000  0.35829000  1.0
  O  O117  1  0.20053000  0.85636000  0.85829000  1.0
  O  O118  1  0.70053000  0.64364000  0.14171000  1.0
  O  O119  1  0.79947000  0.35637000  0.64171000  1.0
  O  O120  1  0.92763000  0.99904000  0.63029000  1.0
  O  O121  1  0.57237000  0.00096000  0.13028000  1.0
  O  O122  1  0.07237000  0.49904000  0.86972000  1.0
  O  O123  1  0.42763000  0.50096000  0.36971000  1.0
  O  O124  1  0.07237000  0.00096000  0.36971000  1.0
  O  O125  1  0.42763000  0.99904000  0.86971000  1.0
  O  O126  1  0.92763000  0.50096000  0.13029000  1.0
  O  O127  1  0.57237000  0.49904000  0.63029000  1.0
  O  O128  1  0.95130000  0.69527000  0.55958000  1.0
  O  O129  1  0.54871000  0.30473000  0.05958000  1.0
  O  O130  1  0.04871000  0.19527000  0.94042000  1.0
  O  O131  1  0.45130000  0.80473000  0.44042000  1.0
  O  O132  1  0.04871000  0.30473000  0.44042000  1.0
  O  O133  1  0.45129000  0.69527000  0.94042000  1.0
  O  O134  1  0.95129000  0.80473000  0.05958000  1.0
  O  O135  1  0.54870000  0.19527000  0.55958000  1.0
