# generated using pymatgen
data_CdH16C18(NO)4
_symmetry_space_group_name_H-M   'P 1'
_cell_length_a   8.30317000
_cell_length_b   10.63619061
_cell_length_c   11.44830000
_cell_angle_alpha   101.89380358
_cell_angle_beta   99.96010000
_cell_angle_gamma   112.73024321
_symmetry_Int_Tables_number   1
_chemical_formula_structural   CdH16C18(NO)4
_chemical_formula_sum   'Cd2 H32 C36 N8 O8'
_cell_volume   876.03547224
_cell_formula_units_Z   2
loop_
 _symmetry_equiv_pos_site_id
 _symmetry_equiv_pos_as_xyz
  1  'x, y, z'
loop_
 _atom_site_type_symbol
 _atom_site_label
 _atom_site_symmetry_multiplicity
 _atom_site_fract_x
 _atom_site_fract_y
 _atom_site_fract_z
 _atom_site_occupancy
  Cd  Cd0  1  0.86637000  0.05483000  0.37938000  1.0
  Cd  Cd1  1  0.13363000  0.94517000  0.62062000  1.0
  H  H2  1  0.01079000  0.01884000  0.15213000  1.0
  H  H3  1  0.98921000  0.98116000  0.84787000  1.0
  H  H4  1  0.98177000  0.83544000  0.96318000  1.0
  H  H5  1  0.01823000  0.16456000  0.03682000  1.0
  H  H6  1  0.64536000  0.51314000  0.10472000  1.0
  H  H7  1  0.35464000  0.48686000  0.89528000  1.0
  H  H8  1  0.68952000  0.70883000  0.28698000  1.0
  H  H9  1  0.31048000  0.29117000  0.71301000  1.0
  H  H10  1  0.72683000  0.43932000  0.92403000  1.0
  H  H11  1  0.27317000  0.56068000  0.07597000  1.0
  H  H12  1  0.65913000  0.53075000  0.82914000  1.0
  H  H13  1  0.34086000  0.46925000  0.17085000  1.0
  H  H14  1  0.05948000  0.59298000  0.92591000  1.0
  H  H15  1  0.94051000  0.40702000  0.07409000  1.0
  H  H16  1  0.97408000  0.66308000  0.81855000  1.0
  H  H17  1  0.02591000  0.33692000  0.18145000  1.0
  H  H18  1  0.11563000  0.58445000  0.67418000  1.0
  H  H19  1  0.88437000  0.41555000  0.32581000  1.0
  H  H20  1  0.08760000  0.38348000  0.50117000  1.0
  H  H21  1  0.91240000  0.61653000  0.49883000  1.0
  H  H22  1  0.70069000  0.08488000  0.61244000  1.0
  H  H23  1  0.29931000  0.91512000  0.38756000  1.0
  H  H24  1  0.71341000  0.26906000  0.78738000  1.0
  H  H25  1  0.28659000  0.73094000  0.21262000  1.0
  H  H26  1  0.47999000  0.80390000  0.55884000  1.0
  H  H27  1  0.52001000  0.19610000  0.44117000  1.0
  H  H28  1  0.47484000  0.66965000  0.43464000  1.0
  H  H29  1  0.52516000  0.33035000  0.56536000  1.0
  H  H30  1  0.33774000  0.98444000  0.07821000  1.0
  H  H31  1  0.66225000  0.01555000  0.92178000  1.0
  H  H32  1  0.36286000  0.14030000  0.18723000  1.0
  H  H33  1  0.63714000  0.85970000  0.81277000  1.0
  C  C34  1  0.92978000  0.90502000  0.13639000  1.0
  C  C35  1  0.07022000  0.09498000  0.86361000  1.0
  C  C36  1  0.91215000  0.80233000  0.03173000  1.0
  C  C37  1  0.08785000  0.19767000  0.96827000  1.0
  C  C38  1  0.80568000  0.65722000  0.01562000  1.0
  C  C39  1  0.19431000  0.34278000  0.98438000  1.0
  C  C40  1  0.72579000  0.62392000  0.11014000  1.0
  C  C41  1  0.27421000  0.37608000  0.88986000  1.0
  C  C42  1  0.74986000  0.73263000  0.21234000  1.0
  C  C43  1  0.25013000  0.26736000  0.78766000  1.0
  C  C44  1  0.77375000  0.54096000  0.90204000  1.0
  C  C45  1  0.22626000  0.45905000  0.09796000  1.0
  C  C46  1  0.93834000  0.56793000  0.85084000  1.0
  C  C47  1  0.06165000  0.43207000  0.14915000  1.0
  C  C48  1  0.91654000  0.44575000  0.74602000  1.0
  C  C49  1  0.08345000  0.55425000  0.25398000  1.0
  C  C50  1  0.02144000  0.47469000  0.66270000  1.0
  C  C51  1  0.97856000  0.52531000  0.33730000  1.0
  C  C52  1  0.00674000  0.36382000  0.56667000  1.0
  C  C53  1  0.99326000  0.63618000  0.43333000  1.0
  C  C54  1  0.79234000  0.19652000  0.62863000  1.0
  C  C55  1  0.20766000  0.80348000  0.37137000  1.0
  C  C56  1  0.80006000  0.30205000  0.72734000  1.0
  C  C57  1  0.19994000  0.69795000  0.27266000  1.0
  C  C58  1  0.74147000  0.80745000  0.56315000  1.0
  C  C59  1  0.25854000  0.19255000  0.43686000  1.0
  C  C60  1  0.53393000  0.72509000  0.53482000  1.0
  C  C61  1  0.46607000  0.27491000  0.46519000  1.0
  C  C62  1  0.48195000  0.62292000  0.60364000  1.0
  C  C63  1  0.51804000  0.37707000  0.39637000  1.0
  C  C64  1  0.58771000  0.08281000  0.22606000  1.0
  C  C65  1  0.41229000  0.91718000  0.77394000  1.0
  C  C66  1  0.43616000  0.09373000  0.13497000  1.0
  C  C67  1  0.56383000  0.90626000  0.86502000  1.0
  C  C68  1  0.50689000  0.17688000  0.05444000  1.0
  C  C69  1  0.49310000  0.82312000  0.94555000  1.0
  N  N70  1  0.84939000  0.87138000  0.22538000  1.0
  N  N71  1  0.15062000  0.12862000  0.77462000  1.0
  N  N72  1  0.89311000  0.22632000  0.54891000  1.0
  N  N73  1  0.10689000  0.77368000  0.45109000  1.0
  N  N74  1  0.44362000  0.54189000  0.66052000  1.0
  N  N75  1  0.55638000  0.45811000  0.33948000  1.0
  N  N76  1  0.57004000  0.24237000  0.99048000  1.0
  N  N77  1  0.42997000  0.75764000  0.00953000  1.0
  O  O78  1  0.79866000  0.88910000  0.49792000  1.0
  O  O79  1  0.20134000  0.11090000  0.50208000  1.0
  O  O80  1  0.84272000  0.79060000  0.64846000  1.0
  O  O81  1  0.15728000  0.20940000  0.35154000  1.0
  O  O82  1  0.54007000  0.02012000  0.30575000  1.0
  O  O83  1  0.45992000  0.97988000  0.69425000  1.0
  O  O84  1  0.74788000  0.13594000  0.21547000  1.0
  O  O85  1  0.25212000  0.86405000  0.78453000  1.0
