# generated using pymatgen
data_LiH12C12SN3O4
_symmetry_space_group_name_H-M   'P 1'
_cell_length_a   5.19213000
_cell_length_b   7.92295000
_cell_length_c   31.29800000
_cell_angle_alpha   90.00000000
_cell_angle_beta   91.26680000
_cell_angle_gamma   90.00000000
_symmetry_Int_Tables_number   1
_chemical_formula_structural   LiH12C12SN3O4
_chemical_formula_sum   'Li4 H48 C48 S4 N12 O16'
_cell_volume   1287.19071760
_cell_formula_units_Z   4
loop_
 _symmetry_equiv_pos_site_id
 _symmetry_equiv_pos_as_xyz
  1  'x, y, z'
loop_
 _atom_site_type_symbol
 _atom_site_label
 _atom_site_symmetry_multiplicity
 _atom_site_fract_x
 _atom_site_fract_y
 _atom_site_fract_z
 _atom_site_occupancy
  Li  Li0  1  0.80717000  0.71890000  0.00127000  1.0
  Li  Li1  1  0.30719000  0.78109000  0.50128000  1.0
  Li  Li2  1  0.19281000  0.28109000  0.99873000  1.0
  Li  Li3  1  0.69283000  0.21889000  0.49873000  1.0
  H  H4  1  0.56520000  0.64265000  0.43548000  1.0
  H  H5  1  0.06518000  0.85735000  0.93549000  1.0
  H  H6  1  0.43482000  0.35734000  0.56452000  1.0
  H  H7  1  0.93482000  0.14264000  0.06452000  1.0
  H  H8  1  0.79117000  0.79257000  0.44170000  1.0
  H  H9  1  0.29115000  0.70743000  0.94170000  1.0
  H  H10  1  0.20885000  0.20742000  0.55830000  1.0
  H  H11  1  0.70885000  0.29256000  0.05830000  1.0
  H  H12  1  0.55089000  0.90531000  0.95218000  1.0
  H  H13  1  0.05090000  0.59469000  0.45218000  1.0
  H  H14  1  0.44911000  0.09468000  0.04782000  1.0
  H  H15  1  0.94912000  0.40530000  0.54782000  1.0
  H  H16  1  0.75343000  0.03652000  0.97142000  1.0
  H  H17  1  0.25345000  0.46348000  0.47143000  1.0
  H  H18  1  0.24656000  0.96347000  0.02857000  1.0
  H  H19  1  0.74657000  0.53651000  0.52857000  1.0
  H  H20  1  0.12553000  0.83608000  0.38758000  1.0
  H  H21  1  0.62550000  0.66391000  0.88759000  1.0
  H  H22  1  0.87449000  0.16391000  0.61242000  1.0
  H  H23  1  0.37448000  0.33608000  0.11242000  1.0
  H  H24  1  0.81327000  0.54482000  0.18046000  1.0
  H  H25  1  0.31330000  0.95518000  0.68047000  1.0
  H  H26  1  0.18670000  0.45518000  0.81953000  1.0
  H  H27  1  0.68671000  0.04483000  0.31953000  1.0
  H  H28  1  0.49463000  0.85026000  0.19489000  1.0
  H  H29  1  0.99465000  0.64977000  0.69489000  1.0
  H  H30  1  0.50535000  0.14977000  0.80511000  1.0
  H  H31  1  0.00535000  0.35026000  0.30511000  1.0
  H  H32  1  0.89678000  0.51244000  0.10273000  1.0
  H  H33  1  0.39676000  0.98755000  0.60273000  1.0
  H  H34  1  0.10324000  0.48754000  0.89727000  1.0
  H  H35  1  0.60321000  0.01245000  0.39727000  1.0
  H  H36  1  0.20351000  0.83620000  0.30946000  1.0
  H  H37  1  0.70350000  0.66380000  0.80947000  1.0
  H  H38  1  0.79649000  0.16380000  0.69054000  1.0
  H  H39  1  0.29650000  0.33619000  0.19054000  1.0
  H  H40  1  0.51967000  0.53913000  0.28811000  1.0
  H  H41  1  0.01967000  0.96087000  0.78812000  1.0
  H  H42  1  0.48033000  0.46087000  0.71189000  1.0
  H  H43  1  0.98034000  0.03912000  0.21188000  1.0
  H  H44  1  0.58177000  0.81665000  0.11709000  1.0
  H  H45  1  0.08177000  0.68337000  0.61709000  1.0
  H  H46  1  0.41823000  0.18337000  0.88291000  1.0
  H  H47  1  0.91821000  0.31665000  0.38291000  1.0
  H  H48  1  0.44182000  0.53523000  0.36654000  1.0
  H  H49  1  0.94180000  0.96477000  0.86654000  1.0
  H  H50  1  0.55819000  0.46478000  0.63346000  1.0
  H  H51  1  0.05818000  0.03522000  0.13346000  1.0
  C  C52  1  0.99238000  0.77227000  0.36559000  1.0
  C  C53  1  0.49236000  0.72773000  0.86560000  1.0
  C  C54  1  0.00764000  0.22772000  0.63441000  1.0
  C  C55  1  0.50764000  0.27227000  0.13441000  1.0
  C  C56  1  0.14634000  0.70279000  0.19208000  1.0
  C  C57  1  0.64636000  0.79722000  0.69209000  1.0
  C  C58  1  0.85364000  0.29723000  0.80791000  1.0
  C  C59  1  0.35364000  0.20279000  0.30792000  1.0
  C  C60  1  0.24207000  0.66425000  0.10545000  1.0
  C  C61  1  0.74206000  0.83577000  0.60545000  1.0
  C  C62  1  0.75794000  0.33576000  0.89455000  1.0
  C  C63  1  0.25791000  0.16424000  0.39455000  1.0
  C  C64  1  0.97822000  0.60561000  0.16612000  1.0
  C  C65  1  0.47823000  0.89439000  0.66612000  1.0
  C  C66  1  0.02177000  0.39440000  0.83388000  1.0
  C  C67  1  0.52176000  0.10561000  0.33388000  1.0
  C  C68  1  0.36321000  0.77880000  0.17421000  1.0
  C  C69  1  0.86322000  0.72122000  0.67421000  1.0
  C  C70  1  0.63678000  0.22123000  0.82579000  1.0
  C  C71  1  0.13677000  0.27880000  0.32579000  1.0
  C  C72  1  0.86771000  0.68526000  0.29400000  1.0
  C  C73  1  0.36772000  0.81475000  0.79400000  1.0
  C  C74  1  0.13228000  0.31475000  0.70600000  1.0
  C  C75  1  0.63229000  0.18524000  0.20600000  1.0
  C  C76  1  0.02539000  0.58726000  0.12300000  1.0
  C  C77  1  0.52539000  0.91275000  0.62300000  1.0
  C  C78  1  0.97461000  0.41275000  0.87700000  1.0
  C  C79  1  0.47459000  0.08726000  0.37700000  1.0
  C  C80  1  0.03671000  0.77205000  0.32226000  1.0
  C  C81  1  0.53670000  0.72794000  0.82226000  1.0
  C  C82  1  0.96329000  0.22794000  0.67774000  1.0
  C  C83  1  0.46330000  0.27204000  0.17774000  1.0
  C  C84  1  0.65169000  0.60225000  0.31046000  1.0
  C  C85  1  0.15169000  0.89775000  0.81046000  1.0
  C  C86  1  0.34831000  0.39775000  0.68954000  1.0
  C  C87  1  0.84832000  0.10223000  0.18954000  1.0
  C  C88  1  0.41122000  0.76047000  0.13083000  1.0
  C  C89  1  0.91124000  0.73954000  0.63083000  1.0
  C  C90  1  0.58876000  0.23954000  0.86917000  1.0
  C  C91  1  0.08875000  0.26047000  0.36917000  1.0
  C  C92  1  0.77824000  0.68645000  0.38221000  1.0
  C  C93  1  0.27822000  0.81355000  0.88222000  1.0
  C  C94  1  0.22178000  0.31354000  0.61779000  1.0
  C  C95  1  0.72177000  0.18645000  0.11779000  1.0
  C  C96  1  0.60895000  0.60052000  0.35407000  1.0
  C  C97  1  0.10894000  0.89950000  0.85408000  1.0
  C  C98  1  0.39106000  0.39948000  0.64593000  1.0
  C  C99  1  0.89104000  0.10050000  0.14592000  1.0
  S  S100  1  0.30719000  0.62754000  0.05099000  1.0
  S  S101  1  0.80721000  0.87245000  0.55099000  1.0
  S  S102  1  0.69279000  0.37245000  0.94901000  1.0
  S  S103  1  0.19281000  0.12754000  0.44901000  1.0
  N  N104  1  0.11361000  0.72817000  0.23631000  1.0
  N  N105  1  0.61364000  0.77184000  0.73632000  1.0
  N  N106  1  0.88636000  0.27185000  0.76369000  1.0
  N  N107  1  0.38638000  0.22817000  0.26369000  1.0
  N  N108  1  0.74340000  0.68305000  0.42633000  1.0
  N  N109  1  0.24338000  0.81695000  0.92633000  1.0
  N  N110  1  0.25662000  0.31694000  0.57367000  1.0
  N  N111  1  0.75662000  0.18305000  0.07367000  1.0
  N  N112  1  0.90352000  0.66796000  0.25009000  1.0
  N  N113  1  0.40355000  0.83205000  0.75009000  1.0
  N  N114  1  0.09646000  0.33205000  0.74991000  1.0
  N  N115  1  0.59646000  0.16795000  0.24991000  1.0
  O  O116  1  0.72401000  0.91479000  0.96619000  1.0
  O  O117  1  0.22404000  0.58520000  0.46619000  1.0
  O  O118  1  0.27598000  0.08520000  0.03382000  1.0
  O  O119  1  0.77599000  0.41479000  0.53381000  1.0
  O  O120  1  0.58453000  0.65467000  0.04646000  1.0
  O  O121  1  0.08455000  0.84532000  0.54647000  1.0
  O  O122  1  0.41545000  0.34532000  0.95353000  1.0
  O  O123  1  0.91546000  0.15467000  0.45354000  1.0
  O  O124  1  0.15462000  0.75042000  0.02475000  1.0
  O  O125  1  0.65464000  0.74958000  0.52475000  1.0
  O  O126  1  0.84536000  0.24957000  0.97525000  1.0
  O  O127  1  0.34539000  0.25042000  0.47525000  1.0
  O  O128  1  0.22390000  0.45388000  0.04223000  1.0
  O  O129  1  0.72392000  0.04612000  0.54223000  1.0
  O  O130  1  0.77609000  0.54612000  0.95777000  1.0
  O  O131  1  0.27609000  0.95388000  0.45777000  1.0
