# generated using pymatgen
data_CuH10C16(NO)4
_symmetry_space_group_name_H-M   'P 1'
_cell_length_a   10.04920000
_cell_length_b   11.03610000
_cell_length_c   15.45760000
_cell_angle_alpha   103.14900000
_cell_angle_beta   89.99990000
_cell_angle_gamma   89.99880000
_symmetry_Int_Tables_number   1
_chemical_formula_structural   CuH10C16(NO)4
_chemical_formula_sum   'Cu4 H40 C64 N16 O16'
_cell_volume   1669.36315622
_cell_formula_units_Z   4
loop_
 _symmetry_equiv_pos_site_id
 _symmetry_equiv_pos_as_xyz
  1  'x, y, z'
loop_
 _atom_site_type_symbol
 _atom_site_label
 _atom_site_symmetry_multiplicity
 _atom_site_fract_x
 _atom_site_fract_y
 _atom_site_fract_z
 _atom_site_occupancy
  Cu  Cu0  1  0.23694000  0.75665000  0.68855000  1.0
  Cu  Cu1  1  0.73694000  0.74335000  0.81146000  1.0
  Cu  Cu2  1  0.76305000  0.24335000  0.31145000  1.0
  Cu  Cu3  1  0.26306000  0.25666000  0.18854000  1.0
  H  H4  1  0.35105000  0.65220000  0.35463000  1.0
  H  H5  1  0.85103000  0.84779000  0.14538000  1.0
  H  H6  1  0.64897000  0.34779000  0.64537000  1.0
  H  H7  1  0.14895000  0.15220000  0.85461000  1.0
  H  H8  1  0.67280000  0.63627000  0.52154000  1.0
  H  H9  1  0.17278000  0.86370000  0.97846000  1.0
  H  H10  1  0.32720000  0.36374000  0.47847000  1.0
  H  H11  1  0.82721000  0.13627000  0.02154000  1.0
  H  H12  1  0.41580000  0.96864000  0.74934000  1.0
  H  H13  1  0.91581000  0.53136000  0.75067000  1.0
  H  H14  1  0.58420000  0.03135000  0.25067000  1.0
  H  H15  1  0.08418000  0.46865000  0.24933000  1.0
  H  H16  1  0.41573000  0.19629000  0.75402000  1.0
  H  H17  1  0.91572000  0.30370000  0.74597000  1.0
  H  H18  1  0.58429000  0.80370000  0.24598000  1.0
  H  H19  1  0.08427000  0.69630000  0.25402000  1.0
  H  H20  1  0.03436000  0.14463000  0.61947000  1.0
  H  H21  1  0.53436000  0.35537000  0.88053000  1.0
  H  H22  1  0.96565000  0.85537000  0.38054000  1.0
  H  H23  1  0.46564000  0.64463000  0.11947000  1.0
  H  H24  1  0.05267000  0.91779000  0.62003000  1.0
  H  H25  1  0.55267000  0.58221000  0.87997000  1.0
  H  H26  1  0.94733000  0.08221000  0.37998000  1.0
  H  H27  1  0.44732000  0.41779000  0.12003000  1.0
  H  H28  1  0.31690000  0.38164000  0.81798000  1.0
  H  H29  1  0.81689000  0.11835000  0.68201000  1.0
  H  H30  1  0.68312000  0.61836000  0.18201000  1.0
  H  H31  1  0.18310000  0.88166000  0.31799000  1.0
  H  H32  1  0.31880000  0.60751000  0.81175000  1.0
  H  H33  1  0.81879000  0.89248000  0.68825000  1.0
  H  H34  1  0.68122000  0.39249000  0.18824000  1.0
  H  H35  1  0.18120000  0.10752000  0.31175000  1.0
  H  H36  1  0.10866000  0.53639000  0.57585000  1.0
  H  H37  1  0.60865000  0.96362000  0.92415000  1.0
  H  H38  1  0.89134000  0.46361000  0.42415000  1.0
  H  H39  1  0.39135000  0.03638000  0.07585000  1.0
  H  H40  1  0.10292000  0.30755000  0.56781000  1.0
  H  H41  1  0.60291000  0.19246000  0.93218000  1.0
  H  H42  1  0.89708000  0.69245000  0.43219000  1.0
  H  H43  1  0.39709000  0.80755000  0.06782000  1.0
  C  C44  1  0.16152000  0.73482000  0.48449000  1.0
  C  C45  1  0.66150000  0.76518000  0.01551000  1.0
  C  C46  1  0.83848000  0.26517000  0.51550000  1.0
  C  C47  1  0.33849000  0.23483000  0.98450000  1.0
  C  C48  1  0.30690000  0.70097000  0.49481000  1.0
  C  C49  1  0.80687000  0.79904000  0.00520000  1.0
  C  C50  1  0.69311000  0.29903000  0.50518000  1.0
  C  C51  1  0.19310000  0.20098000  0.99480000  1.0
  C  C52  1  0.39137000  0.66206000  0.42132000  1.0
  C  C53  1  0.89135000  0.83794000  0.07869000  1.0
  C  C54  1  0.60864000  0.33794000  0.57868000  1.0
  C  C55  1  0.10863000  0.16206000  0.92131000  1.0
  C  C56  1  0.56724000  0.65304000  0.51272000  1.0
  C  C57  1  0.06722000  0.84695000  0.98729000  1.0
  C  C58  1  0.43277000  0.34697000  0.48729000  1.0
  C  C59  1  0.93277000  0.15304000  0.01271000  1.0
  C  C60  1  0.48583000  0.69143000  0.58723000  1.0
  C  C61  1  0.98581000  0.80857000  0.91278000  1.0
  C  C62  1  0.51417000  0.30858000  0.41277000  1.0
  C  C63  1  0.01418000  0.19144000  0.08723000  1.0
  C  C64  1  0.53792000  0.71479000  0.68139000  1.0
  C  C65  1  0.03789000  0.78519000  0.81862000  1.0
  C  C66  1  0.46208000  0.28521000  0.31862000  1.0
  C  C67  1  0.96210000  0.21481000  0.18139000  1.0
  C  C68  1  0.33446000  0.01221000  0.72090000  1.0
  C  C69  1  0.83447000  0.48778000  0.77910000  1.0
  C  C70  1  0.66554000  0.98778000  0.27910000  1.0
  C  C71  1  0.16553000  0.51223000  0.22090000  1.0
  C  C72  1  0.33305000  0.13874000  0.72331000  1.0
  C  C73  1  0.83305000  0.36125000  0.77669000  1.0
  C  C74  1  0.66696000  0.86125000  0.27669000  1.0
  C  C75  1  0.16694000  0.63875000  0.22331000  1.0
  C  C76  1  0.22409000  0.19016000  0.68733000  1.0
  C  C77  1  0.72408000  0.30984000  0.81266000  1.0
  C  C78  1  0.77592000  0.80984000  0.31267000  1.0
  C  C79  1  0.27591000  0.69017000  0.18734000  1.0
  C  C80  1  0.12146000  0.10964000  0.64867000  1.0
  C  C81  1  0.62145000  0.39036000  0.85132000  1.0
  C  C82  1  0.87855000  0.89036000  0.35133000  1.0
  C  C83  1  0.37855000  0.60965000  0.14868000  1.0
  C  C84  1  0.12971000  0.98415000  0.64909000  1.0
  C  C85  1  0.62970000  0.51585000  0.85091000  1.0
  C  C86  1  0.87030000  0.01585000  0.35091000  1.0
  C  C87  1  0.37029000  0.48415000  0.14909000  1.0
  C  C88  1  0.21671000  0.32462000  0.69069000  1.0
  C  C89  1  0.71671000  0.17538000  0.80930000  1.0
  C  C90  1  0.78330000  0.67538000  0.30931000  1.0
  C  C91  1  0.28329000  0.82462000  0.19069000  1.0
  C  C92  1  0.27396000  0.41157000  0.76144000  1.0
  C  C93  1  0.77396000  0.08842000  0.73855000  1.0
  C  C94  1  0.72605000  0.58842000  0.23855000  1.0
  C  C95  1  0.22604000  0.91158000  0.26145000  1.0
  C  C96  1  0.27303000  0.53673000  0.75952000  1.0
  C  C97  1  0.77302000  0.96327000  0.74048000  1.0
  C  C98  1  0.72699000  0.46327000  0.24048000  1.0
  C  C99  1  0.22698000  0.03674000  0.25952000  1.0
  C  C100  1  0.15555000  0.49608000  0.62646000  1.0
  C  C101  1  0.65553000  0.00392000  0.87354000  1.0
  C  C102  1  0.84446000  0.50391000  0.37354000  1.0
  C  C103  1  0.34446000  0.99608000  0.12646000  1.0
  C  C104  1  0.15302000  0.36937000  0.62337000  1.0
  C  C105  1  0.65301000  0.13063000  0.87662000  1.0
  C  C106  1  0.84699000  0.63063000  0.37663000  1.0
  C  C107  1  0.34699000  0.86937000  0.12338000  1.0
  N  N108  1  0.35549000  0.71164000  0.57686000  1.0
  N  N109  1  0.85547000  0.78837000  0.92315000  1.0
  N  N110  1  0.64451000  0.28836000  0.42314000  1.0
  N  N111  1  0.14452000  0.21165000  0.07685000  1.0
  N  N112  1  0.51988000  0.63560000  0.42967000  1.0
  N  N113  1  0.01986000  0.86439000  0.07034000  1.0
  N  N114  1  0.48013000  0.36440000  0.57033000  1.0
  N  N115  1  0.98013000  0.13560000  0.92966000  1.0
  N  N116  1  0.23433000  0.93630000  0.68451000  1.0
  N  N117  1  0.73434000  0.56370000  0.81550000  1.0
  N  N118  1  0.76567000  0.06370000  0.31550000  1.0
  N  N119  1  0.26566000  0.43631000  0.18450000  1.0
  N  N120  1  0.21723000  0.57786000  0.69229000  1.0
  N  N121  1  0.71722000  0.92214000  0.80771000  1.0
  N  N122  1  0.78278000  0.42214000  0.30771000  1.0
  N  N123  1  0.28277000  0.07787000  0.19229000  1.0
  O  O124  1  0.08262000  0.71976000  0.54487000  1.0
  O  O125  1  0.58261000  0.78024000  0.95512000  1.0
  O  O126  1  0.91738000  0.28024000  0.45512000  1.0
  O  O127  1  0.41736000  0.21978000  0.04490000  1.0
  O  O128  1  0.13744000  0.77650000  0.41657000  1.0
  O  O129  1  0.63741000  0.72350000  0.08343000  1.0
  O  O130  1  0.86257000  0.22348000  0.58342000  1.0
  O  O131  1  0.36261000  0.27650000  0.91657000  1.0
  O  O132  1  0.45893000  0.75483000  0.74404000  1.0
  O  O133  1  0.95890000  0.74515000  0.75596000  1.0
  O  O134  1  0.54107000  0.24518000  0.25596000  1.0
  O  O135  1  0.04110000  0.25485000  0.24404000  1.0
  O  O136  1  0.66257000  0.69320000  0.68765000  1.0
  O  O137  1  0.16255000  0.80679000  0.81236000  1.0
  O  O138  1  0.33742000  0.30681000  0.31236000  1.0
  O  O139  1  0.83745000  0.19320000  0.18765000  1.0
