# generated using pymatgen
data_Al2H42C43O10
_symmetry_space_group_name_H-M   'P 1'
_cell_length_a   6.61446000
_cell_length_b   20.35610000
_cell_length_c   23.73010000
_cell_angle_alpha   89.69630000
_cell_angle_beta   86.74420000
_cell_angle_gamma   87.64710000
_symmetry_Int_Tables_number   1
_chemical_formula_structural   Al2H42C43O10
_chemical_formula_sum   'Al4 H84 C86 O20'
_cell_volume   3187.26933601
_cell_formula_units_Z   2
loop_
 _symmetry_equiv_pos_site_id
 _symmetry_equiv_pos_as_xyz
  1  'x, y, z'
loop_
 _atom_site_type_symbol
 _atom_site_label
 _atom_site_symmetry_multiplicity
 _atom_site_fract_x
 _atom_site_fract_y
 _atom_site_fract_z
 _atom_site_occupancy
  Al  Al0  1  0.10618000  0.50442000  0.49679000  1.0
  Al  Al1  1  0.60469000  0.50721000  0.50094000  1.0
  Al  Al2  1  0.74309000  0.99910000  0.99400000  1.0
  Al  Al3  1  0.24383000  0.99747000  0.99330000  1.0
  H  H4  1  0.97884000  0.37713000  0.15552000  1.0
  H  H5  1  0.72097000  0.12167000  0.35160000  1.0
  H  H6  1  0.90837000  0.21357000  0.01463000  1.0
  H  H7  1  0.71593000  0.18239000  0.44048000  1.0
  H  H8  1  0.60374000  0.69374000  0.26249000  1.0
  H  H9  1  0.04297000  0.71224000  0.15655000  1.0
  H  H10  1  0.95106000  0.64089000  0.23050000  1.0
  H  H11  1  0.88930000  0.87029000  0.27192000  1.0
  H  H12  1  0.92012000  0.80059000  0.34951000  1.0
  H  H13  1  0.62751000  0.82462000  0.21742000  1.0
  H  H14  1  0.63977000  0.28308000  0.82729000  1.0
  H  H15  1  0.54018000  0.36383000  0.76294000  1.0
  H  H16  1  0.08741000  0.26410000  0.72590000  1.0
  H  H17  1  0.27003000  0.29163000  0.83712000  1.0
  H  H18  1  0.58919000  0.22574000  0.66550000  1.0
  H  H19  1  0.33082000  0.21535000  0.65344000  1.0
  H  H20  1  0.69985000  0.32243000  0.71172000  1.0
  H  H21  1  0.76135000  0.23460000  0.77315000  1.0
  H  H22  1  0.06711000  0.86366000  0.68608000  1.0
  H  H23  1  0.77881000  0.68609000  0.90855000  1.0
  H  H24  1  0.76730000  0.79211000  0.95864000  1.0
  H  H25  1  0.05115000  0.81575000  0.59513000  1.0
  H  H26  1  0.68058000  0.75176000  0.17866000  1.0
  H  H27  1  0.23803000  0.74403000  0.19451000  1.0
  H  H28  1  0.17020000  0.66365000  0.26357000  1.0
  H  H29  1  0.15008000  0.94455000  0.31516000  1.0
  H  H30  1  0.26284000  0.87357000  0.34650000  1.0
  H  H31  1  0.41156000  0.92451000  0.30129000  1.0
  H  H32  1  0.33059000  0.82420000  0.24874000  1.0
  H  H33  1  0.21654000  0.89470000  0.21861000  1.0
  H  H34  1  0.97977000  0.37811000  0.33989000  1.0
  H  H35  1  0.59816000  0.76620000  0.30321000  1.0
  H  H36  1  0.15466000  0.76554000  0.32277000  1.0
  H  H37  1  0.25413000  0.40261000  0.82439000  1.0
  H  H38  1  0.29718000  0.43564000  0.75524000  1.0
  H  H39  1  0.07249000  0.45769000  0.79574000  1.0
  H  H40  1  0.00873000  0.37707000  0.72044000  1.0
  H  H41  1  0.93984000  0.34877000  0.78880000  1.0
  H  H42  1  0.12127000  0.22615000  0.81766000  1.0
  H  H43  1  0.00728000  0.24019000  0.54260000  1.0
  H  H44  1  0.01194000  0.32731000  0.53930000  1.0
  H  H45  1  0.86098000  0.28942000  0.59323000  1.0
  H  H46  1  0.63988000  0.33232000  0.51932000  1.0
  H  H47  1  0.63585000  0.24579000  0.52208000  1.0
  H  H48  1  0.84231000  0.15998000  0.69660000  1.0
  H  H49  1  0.83160000  0.13073000  0.76769000  1.0
  H  H50  1  0.86460000  0.07467000  0.71099000  1.0
  H  H51  1  0.51006000  0.07694000  0.75495000  1.0
  H  H52  1  0.51985000  0.09541000  0.68232000  1.0
  H  H53  1  0.26371000  0.15941000  0.73775000  1.0
  H  H54  1  0.46115000  0.61601000  0.92719000  1.0
  H  H55  1  0.55016000  0.53257000  0.91988000  1.0
  H  H56  1  0.34508000  0.56328000  0.88056000  1.0
  H  H57  1  0.67052000  0.55379000  0.81991000  1.0
  H  H58  1  0.78827000  0.60500000  0.86548000  1.0
  H  H59  1  0.46811000  0.62152000  0.64843000  1.0
  H  H60  1  0.38075000  0.76523000  0.46968000  1.0
  H  H61  1  0.36597000  0.67871000  0.46363000  1.0
  H  H62  1  0.21627000  0.73081000  0.42168000  1.0
  H  H63  1  0.00023000  0.68741000  0.50171000  1.0
  H  H64  1  0.01295000  0.77378000  0.50636000  1.0
  H  H65  1  0.33274000  0.87145000  0.84742000  1.0
  H  H66  1  0.70370000  0.58212000  0.67609000  1.0
  H  H67  1  0.77089000  0.54504000  0.73979000  1.0
  H  H68  1  0.61562000  0.50301000  0.69421000  1.0
  H  H69  1  0.41013000  0.54981000  0.77754000  1.0
  H  H70  1  0.32713000  0.58231000  0.71451000  1.0
  H  H71  1  0.20878000  0.86492000  0.77888000  1.0
  H  H72  1  0.03218000  0.30544000  0.97145000  1.0
  H  H73  1  0.76464000  0.31128000  0.98347000  1.0
  H  H74  1  0.90349000  0.38371000  0.97401000  1.0
  H  H75  1  0.80744000  0.37100000  0.07535000  1.0
  H  H76  1  0.07158000  0.36377000  0.06362000  1.0
  H  H77  1  0.34247000  0.10370000  0.17955000  1.0
  H  H78  1  0.19429000  0.11643000  0.24351000  1.0
  H  H79  1  0.25841000  0.03509000  0.21995000  1.0
  H  H80  1  0.89950000  0.06283000  0.19824000  1.0
  H  H81  1  0.05428000  0.04908000  0.13770000  1.0
  H  H82  1  0.98416000  0.37824000  0.25745000  1.0
  H  H83  1  0.78843000  0.11587000  0.25018000  1.0
  H  H84  1  0.38608000  0.46208000  0.43615000  1.0
  H  H85  1  0.85140000  0.49157000  0.57153000  1.0
  H  H86  1  0.47069000  0.03390000  0.06085000  1.0
  H  H87  1  0.01036000  0.96315000  0.92628000  1.0
  C  C88  1  0.35268000  0.42960000  0.57889000  1.0
  C  C89  1  0.32185000  0.60529000  0.55230000  1.0
  C  C90  1  0.85145000  0.58298000  0.42255000  1.0
  C  C91  1  0.87923000  0.40316000  0.44624000  1.0
  C  C92  1  0.95021000  0.15465000  0.08884000  1.0
  C  C93  1  0.87023000  0.33779000  0.41809000  1.0
  C  C94  1  0.93393000  0.27380000  0.08796000  1.0
  C  C95  1  0.92450000  0.21490000  0.06004000  1.0
  C  C96  1  0.96383000  0.15036000  0.14718000  1.0
  C  C97  1  0.93770000  0.21072000  0.17849000  1.0
  C  C98  1  0.94464000  0.27185000  0.14798000  1.0
  C  C99  1  0.90298000  0.21408000  0.23958000  1.0
  C  C100  1  0.92609000  0.27408000  0.26854000  1.0
  C  C101  1  0.96484000  0.33180000  0.23626000  1.0
  C  C102  1  0.96337000  0.33112000  0.17868000  1.0
  C  C103  1  0.82627000  0.16006000  0.27185000  1.0
  C  C104  1  0.78579000  0.16339000  0.32896000  1.0
  C  C105  1  0.82059000  0.22127000  0.35969000  1.0
  C  C106  1  0.89354000  0.27703000  0.32937000  1.0
  C  C107  1  0.77410000  0.22564000  0.41850000  1.0
  C  C108  1  0.79232000  0.28302000  0.44849000  1.0
  C  C109  1  0.92153000  0.33441000  0.36078000  1.0
  C  C110  1  0.72159000  0.77891000  0.21599000  1.0
  C  C111  1  0.07700000  0.73256000  0.19757000  1.0
  C  C112  1  0.03033000  0.68320000  0.24568000  1.0
  C  C113  1  0.85969000  0.63197000  0.37864000  1.0
  C  C114  1  0.94675000  0.79690000  0.20760000  1.0
  C  C115  1  0.68762000  0.73795000  0.27043000  1.0
  C  C116  1  0.89497000  0.71725000  0.29352000  1.0
  C  C117  1  0.99989000  0.77989000  0.31137000  1.0
  C  C118  1  0.00687000  0.83114000  0.26277000  1.0
  C  C119  1  0.87221000  0.67206000  0.34062000  1.0
  C  C120  1  0.97055000  0.84046000  0.15936000  1.0
  C  C121  1  0.98516000  0.87672000  0.11864000  1.0
  C  C122  1  0.57108000  0.31621000  0.74228000  1.0
  C  C123  1  0.19017000  0.29458000  0.74866000  1.0
  C  C124  1  0.24560000  0.25719000  0.80278000  1.0
  C  C125  1  0.48943000  0.12743000  0.87452000  1.0
  C  C126  1  0.38636000  0.29757000  0.70904000  1.0
  C  C127  1  0.61982000  0.26186000  0.78557000  1.0
  C  C128  1  0.44317000  0.21413000  0.79140000  1.0
  C  C129  1  0.41985000  0.17661000  0.73469000  1.0
  C  C130  1  0.43546000  0.22703000  0.68600000  1.0
  C  C131  1  0.47108000  0.16778000  0.83705000  1.0
  C  C132  1  0.36233000  0.34324000  0.66277000  1.0
  C  C133  1  0.34975000  0.38246000  0.62422000  1.0
  C  C134  1  0.54207000  0.83691000  0.90619000  1.0
  C  C135  1  0.29123000  0.66594000  0.58699000  1.0
  C  C136  1  0.68182000  0.72643000  0.89394000  1.0
  C  C137  1  0.67515000  0.78522000  0.92265000  1.0
  C  C138  1  0.43096000  0.82999000  0.85898000  1.0
  C  C139  1  0.44955000  0.77237000  0.82582000  1.0
  C  C140  1  0.56883000  0.71788000  0.84551000  1.0
  C  C141  1  0.35721000  0.76756000  0.77230000  1.0
  C  C142  1  0.38724000  0.70931000  0.73928000  1.0
  C  C143  1  0.47428000  0.65091000  0.76585000  1.0
  C  C144  1  0.56363000  0.65573000  0.81726000  1.0
  C  C145  1  0.23849000  0.82195000  0.75217000  1.0
  C  C146  1  0.15955000  0.82181000  0.70030000  1.0
  C  C147  1  0.20253000  0.76798000  0.66313000  1.0
  C  C148  1  0.31975000  0.71192000  0.68175000  1.0
  C  C149  1  0.13569000  0.77120000  0.60749000  1.0
  C  C150  1  0.17273000  0.72107000  0.56875000  1.0
  C  C151  1  0.36778000  0.66333000  0.64023000  1.0
  C  C152  1  0.52643000  0.89935000  0.93849000  1.0
  C  C153  1  0.48923000  0.07752000  0.91790000  1.0
  C  C154  1  0.96305000  0.09506000  0.05201000  1.0
  C  C155  1  0.99632000  0.92216000  0.07185000  1.0
  C  C156  1  0.21232000  0.86322000  0.25646000  1.0
  C  C157  1  0.26153000  0.90343000  0.30773000  1.0
  C  C158  1  0.07109000  0.36002000  0.76026000  1.0
  C  C159  1  0.18127000  0.41665000  0.78531000  1.0
  C  C160  1  0.73280000  0.28705000  0.51076000  1.0
  C  C161  1  0.91410000  0.28587000  0.54854000  1.0
  C  C162  1  0.55642000  0.11446000  0.72379000  1.0
  C  C163  1  0.78598000  0.12090000  0.72485000  1.0
  C  C164  1  0.64096000  0.59550000  0.84850000  1.0
  C  C165  1  0.49109000  0.57564000  0.89693000  1.0
  C  C166  1  0.10237000  0.72724000  0.50948000  1.0
  C  C167  1  0.27667000  0.72540000  0.46372000  1.0
  C  C168  1  0.45448000  0.58228000  0.74213000  1.0
  C  C169  1  0.64631000  0.55154000  0.71128000  1.0
  C  C170  1  0.93060000  0.33865000  0.05638000  1.0
  C  C171  1  0.90643000  0.33427000  0.99285000  1.0
  C  C172  1  0.02380000  0.08397000  0.17239000  1.0
  C  C173  1  0.21532000  0.08506000  0.20600000  1.0
  O  O174  1  0.49595000  0.57587000  0.54917000  1.0
  O  O175  1  0.18327000  0.45320000  0.56332000  1.0
  O  O176  1  0.05017000  0.42283000  0.45966000  1.0
  O  O177  1  0.16487000  0.58503000  0.53041000  1.0
  O  O178  1  0.01868000  0.55362000  0.43332000  1.0
  O  O179  1  0.52861000  0.44369000  0.55873000  1.0
  O  O180  1  0.36625000  0.49604000  0.46471000  1.0
  O  O181  1  0.67854000  0.57248000  0.44642000  1.0
  O  O182  1  0.70981000  0.43487000  0.45347000  1.0
  O  O183  1  0.85115000  0.50996000  0.53376000  1.0
  O  O184  1  0.31503000  0.06541000  0.94017000  1.0
  O  O185  1  0.68736000  0.91741000  0.95995000  1.0
  O  O186  1  0.82965000  0.95096000  0.05973000  1.0
  O  O187  1  0.65838000  0.04964000  0.92908000  1.0
  O  O188  1  0.80023000  0.07979000  0.03016000  1.0
  O  O189  1  0.35550000  0.93097000  0.94221000  1.0
  O  O190  1  0.48521000  0.00508000  0.02836000  1.0
  O  O191  1  0.13424000  0.06470000  0.04415000  1.0
  O  O192  1  0.17080000  0.93030000  0.04788000  1.0
  O  O193  1  0.00047000  0.99150000  0.95907000  1.0
