# generated using pymatgen
data_K2P2H10C15Cl2O9
_symmetry_space_group_name_H-M   'P 1'
_cell_length_a   6.88285000
_cell_length_b   10.36170454
_cell_length_c   15.57060000
_cell_angle_alpha   102.30890983
_cell_angle_beta   96.78070000
_cell_angle_gamma   108.76789351
_symmetry_Int_Tables_number   1
_chemical_formula_structural   K2P2H10C15Cl2O9
_chemical_formula_sum   'K4 P4 H20 C30 Cl4 O18'
_cell_volume   1006.12231656
_cell_formula_units_Z   2
loop_
 _symmetry_equiv_pos_site_id
 _symmetry_equiv_pos_as_xyz
  1  'x, y, z'
loop_
 _atom_site_type_symbol
 _atom_site_label
 _atom_site_symmetry_multiplicity
 _atom_site_fract_x
 _atom_site_fract_y
 _atom_site_fract_z
 _atom_site_occupancy
  K  K0  1  0.68536000  0.36509000  0.48903000  1.0
  K  K1  1  0.31471000  0.63493000  0.51097000  1.0
  K  K2  1  0.77504000  0.03960000  0.55801000  1.0
  K  K3  1  0.22499000  0.96042000  0.44199000  1.0
  P  P4  1  0.33804000  0.26441000  0.65161000  1.0
  P  P5  1  0.66200000  0.73559000  0.34840000  1.0
  P  P6  1  0.27585000  0.96149000  0.65881000  1.0
  P  P7  1  0.72418000  0.03850000  0.34119000  1.0
  H  H8  1  0.61513000  0.55947000  0.87324000  1.0
  H  H9  1  0.38480000  0.44051000  0.12675000  1.0
  H  H10  1  0.75052000  0.78351000  0.99603000  1.0
  H  H11  1  0.24940000  0.21649000  0.00396000  1.0
  H  H12  1  0.86789000  0.01464000  0.95873000  1.0
  H  H13  1  0.13206000  0.98536000  0.04126000  1.0
  H  H14  1  0.86919000  0.02284000  0.80053000  1.0
  H  H15  1  0.13081000  0.97715000  0.19946000  1.0
  H  H16  1  0.74091000  0.79948000  0.67844000  1.0
  H  H17  1  0.25913000  0.20051000  0.32155000  1.0
  H  H18  1  0.08784000  0.48145000  0.74805000  1.0
  H  H19  1  0.91214000  0.51856000  0.25197000  1.0
  H  H20  1  0.11003000  0.40581000  0.88911000  1.0
  H  H21  1  0.88987000  0.59417000  0.11091000  1.0
  H  H22  1  0.23194000  0.58743000  0.03732000  1.0
  H  H23  1  0.76802000  0.41258000  0.96268000  1.0
  H  H24  1  0.32867000  0.84130000  0.04380000  1.0
  H  H25  1  0.67132000  0.15871000  0.95620000  1.0
  H  H26  1  0.30389000  0.91666000  0.90183000  1.0
  H  H27  1  0.69612000  0.08333000  0.09817000  1.0
  C  C28  1  0.40726000  0.15289000  0.72564000  1.0
  C  C29  1  0.59276000  0.84709000  0.27436000  1.0
  C  C30  1  0.57367000  0.53784000  0.69347000  1.0
  C  C31  1  0.42634000  0.46215000  0.30652000  1.0
  C  C32  1  0.66562000  0.66658000  0.76857000  1.0
  C  C33  1  0.33437000  0.33341000  0.23142000  1.0
  C  C34  1  0.67221000  0.66135000  0.85823000  1.0
  C  C35  1  0.32773000  0.33864000  0.14176000  1.0
  C  C36  1  0.74723000  0.78672000  0.92639000  1.0
  C  C37  1  0.25269000  0.21327000  0.07361000  1.0
  C  C38  1  0.81409000  0.91662000  0.90536000  1.0
  C  C39  1  0.18588000  0.08337000  0.09463000  1.0
  C  C40  1  0.81315000  0.92174000  0.81648000  1.0
  C  C41  1  0.18683000  0.07825000  0.18351000  1.0
  C  C42  1  0.73981000  0.79692000  0.74792000  1.0
  C  C43  1  0.26020000  0.20307000  0.25207000  1.0
  C  C44  1  0.18556000  0.74364000  0.73104000  1.0
  C  C45  1  0.81447000  0.25636000  0.26896000  1.0
  C  C46  1  0.19362000  0.70331000  0.81666000  1.0
  C  C47  1  0.80638000  0.29669000  0.18335000  1.0
  C  C48  1  0.13739000  0.55919000  0.81315000  1.0
  C  C49  1  0.86260000  0.44082000  0.18686000  1.0
  C  C50  1  0.15106000  0.51770000  0.89231000  1.0
  C  C51  1  0.84890000  0.48230000  0.10769000  1.0
  C  C52  1  0.21980000  0.61943000  0.97519000  1.0
  C  C53  1  0.78016000  0.38059000  0.02482000  1.0
  C  C54  1  0.27358000  0.76281000  0.97889000  1.0
  C  C55  1  0.72640000  0.23720000  0.02112000  1.0
  C  C56  1  0.26096000  0.80519000  0.89995000  1.0
  C  C57  1  0.73904000  0.19481000  0.10005000  1.0
  Cl  Cl58  1  0.68556000  0.20036000  0.75182000  1.0
  Cl  Cl59  1  0.31446000  0.79965000  0.24819000  1.0
  Cl  Cl60  1  0.31581000  0.18412000  0.82885000  1.0
  Cl  Cl61  1  0.68421000  0.81588000  0.17114000  1.0
  O  O62  1  0.41396000  0.20680000  0.57026000  1.0
  O  O63  1  0.58608000  0.79321000  0.42975000  1.0
  O  O64  1  0.10954000  0.24374000  0.67946000  1.0
  O  O65  1  0.89051000  0.75628000  0.32053000  1.0
  O  O66  1  0.50368000  0.41784000  0.72058000  1.0
  O  O67  1  0.49635000  0.58216000  0.27942000  1.0
  O  O68  1  0.55857000  0.53707000  0.61364000  1.0
  O  O69  1  0.44147000  0.46294000  0.38636000  1.0
  O  O70  1  0.41594000  0.91447000  0.60242000  1.0
  O  O71  1  0.58412000  0.08553000  0.39759000  1.0
  O  O72  1  0.05969000  0.94333000  0.61531000  1.0
  O  O73  1  0.94036000  0.05669000  0.38468000  1.0
  O  O74  1  0.26592000  0.88646000  0.74384000  1.0
  O  O75  1  0.73410000  0.11355000  0.25616000  1.0
  O  O76  1  0.11786000  0.65925000  0.65623000  1.0
  O  O77  1  0.88216000  0.34074000  0.34377000  1.0
  O  O78  1  0.83990000  0.66953000  0.39089000  1.0
  O  O79  1  0.16013000  0.33047000  0.60910000  1.0
