# generated using pymatgen
data_ZnH12C21N2O7
_symmetry_space_group_name_H-M   'P 1'
_cell_length_a   11.02000000
_cell_length_b   16.53430000
_cell_length_c   17.61130000
_cell_angle_alpha   89.56270000
_cell_angle_beta   90.15450000
_cell_angle_gamma   89.84950000
_symmetry_Int_Tables_number   1
_chemical_formula_structural   ZnH12C21N2O7
_chemical_formula_sum   'Zn2 H24 C42 N4 O14'
_cell_volume   3208.80312980
_cell_formula_units_Z   2
loop_
 _symmetry_equiv_pos_site_id
 _symmetry_equiv_pos_as_xyz
  1  'x, y, z'
loop_
 _atom_site_type_symbol
 _atom_site_label
 _atom_site_symmetry_multiplicity
 _atom_site_fract_x
 _atom_site_fract_y
 _atom_site_fract_z
 _atom_site_occupancy
  Zn  Zn0  1  0.51446000  0.41712000  0.49716000  1.0
  Zn  Zn1  1  0.50954000  0.58774000  0.49570000  1.0
  H  H2  1  0.24167000  0.41419000  0.38173000  1.0
  H  H3  1  0.79136000  0.43542000  0.36244000  1.0
  H  H4  1  0.41758000  0.37252000  0.87443000  1.0
  H  H5  1  0.41609000  0.37422000  0.11938000  1.0
  H  H6  1  0.47237000  0.37208000  0.73652000  1.0
  H  H7  1  0.46135000  0.37598000  0.25799000  1.0
  H  H8  1  0.45862000  0.63125000  0.73068000  1.0
  H  H9  1  0.43103000  0.63503000  0.25829000  1.0
  H  H10  1  0.40326000  0.63315000  0.86855000  1.0
  H  H11  1  0.38672000  0.63455000  0.11886000  1.0
  H  H12  1  0.38224000  0.14127000  0.39897000  1.0
  H  H13  1  0.63798000  0.13395000  0.58628000  1.0
  H  H14  1  0.39559000  0.29216000  0.40243000  1.0
  H  H15  1  0.63893000  0.28591000  0.58215000  1.0
  H  H16  1  0.35432000  0.86722000  0.41559000  1.0
  H  H17  1  0.64713000  0.86825000  0.58000000  1.0
  H  H18  1  0.36291000  0.71517000  0.42042000  1.0
  H  H19  1  0.64339000  0.71616000  0.57686000  1.0
  H  H20  1  0.05439000  0.66702000  0.63832000  1.0
  H  H21  1  0.20105000  0.66579000  0.59208000  1.0
  H  H22  1  0.18959000  0.64315000  0.69166000  1.0
  H  H23  1  0.94195000  0.49705000  0.70023000  1.0
  H  H24  1  0.80018000  0.46822000  0.65654000  1.0
  H  H25  1  0.80665000  0.55576000  0.71578000  1.0
  C  C26  1  0.47902000  0.50661000  0.34911000  1.0
  C  C27  1  0.50611000  0.50112000  0.64416000  1.0
  C  C28  1  0.27491000  0.49555000  0.50425000  1.0
  C  C29  1  0.74752000  0.50731000  0.48956000  1.0
  C  C30  1  0.14319000  0.41919000  0.37908000  1.0
  C  C31  1  0.88978000  0.43299000  0.36759000  1.0
  C  C32  1  0.08238000  0.38465000  0.31938000  1.0
  C  C33  1  0.95452000  0.39199000  0.31328000  1.0
  C  C34  1  0.94919000  0.46703000  0.43129000  1.0
  C  C35  1  0.07876000  0.46055000  0.43671000  1.0
  C  C36  1  0.13903000  0.49493000  0.50008000  1.0
  C  C37  1  0.88387000  0.50567000  0.49059000  1.0
  C  C38  1  0.07357000  0.53031000  0.55809000  1.0
  C  C39  1  0.94476000  0.53625000  0.55316000  1.0
  C  C40  1  0.42670000  0.42905000  0.84275000  1.0
  C  C41  1  0.41936000  0.43124000  0.14986000  1.0
  C  C42  1  0.45772000  0.42874000  0.76640000  1.0
  C  C43  1  0.44442000  0.43219000  0.22712000  1.0
  C  C44  1  0.47147000  0.50168000  0.72613000  1.0
  C  C45  1  0.44957000  0.50567000  0.26631000  1.0
  C  C46  1  0.44967000  0.57518000  0.76312000  1.0
  C  C47  1  0.42704000  0.57843000  0.22708000  1.0
  C  C48  1  0.41854000  0.57611000  0.83943000  1.0
  C  C49  1  0.40240000  0.57810000  0.14977000  1.0
  C  C50  1  0.40909000  0.50296000  0.88103000  1.0
  C  C51  1  0.40032000  0.50442000  0.10965000  1.0
  C  C52  1  0.39052000  0.50375000  0.96039000  1.0
  C  C53  1  0.38816000  0.50418000  0.02974000  1.0
  C  C54  1  0.44028000  0.17073000  0.44044000  1.0
  C  C55  1  0.58303000  0.16687000  0.54488000  1.0
  C  C56  1  0.44717000  0.25452000  0.44217000  1.0
  C  C57  1  0.58416000  0.25071000  0.54278000  1.0
  C  C58  1  0.50912000  0.12500000  0.49294000  1.0
  C  C59  1  0.50468000  0.03948000  0.49403000  1.0
  C  C60  1  0.50203000  0.96577000  0.49583000  1.0
  C  C61  1  0.41935000  0.83606000  0.45218000  1.0
  C  C62  1  0.58282000  0.83657000  0.54393000  1.0
  C  C63  1  0.42359000  0.75220000  0.45457000  1.0
  C  C64  1  0.58105000  0.75268000  0.54261000  1.0
  C  C65  1  0.50102000  0.88023000  0.49744000  1.0
  C  C66  1  0.14425000  0.63808000  0.63644000  1.0
  C  C67  1  0.85687000  0.51934000  0.67468000  1.0
  N  N68  1  0.51737000  0.29364000  0.49258000  1.0
  N  N69  1  0.50314000  0.71141000  0.49861000  1.0
  N  N70  1  0.15584000  0.34604000  0.26013000  1.0
  N  N71  1  0.88503000  0.34817000  0.25529000  1.0
  O  O72  1  0.48933000  0.43816000  0.38290000  1.0
  O  O73  1  0.52291000  0.43251000  0.61316000  1.0
  O  O74  1  0.49108000  0.57531000  0.38061000  1.0
  O  O75  1  0.51545000  0.56969000  0.61080000  1.0
  O  O76  1  0.32803000  0.42751000  0.50786000  1.0
  O  O77  1  0.69729000  0.43804000  0.49109000  1.0
  O  O78  1  0.32381000  0.56494000  0.50118000  1.0
  O  O79  1  0.69543000  0.57553000  0.48736000  1.0
  O  O80  1  0.13372000  0.55250000  0.62282000  1.0
  O  O81  1  0.88161000  0.57232000  0.61096000  1.0
  O  O82  1  0.24000000  0.30118000  0.28171000  1.0
  O  O83  1  0.13150000  0.36293000  0.19332000  1.0
  O  O84  1  0.79326000  0.38159000  0.22902000  1.0
  O  O85  1  0.92125000  0.27927000  0.23930000  1.0
