# generated using pymatgen
data_CdH4C2(N4O)2
_symmetry_space_group_name_H-M   'P 1'
_cell_length_a   6.64694000
_cell_length_b   8.97405000
_cell_length_c   13.13430000
_cell_angle_alpha   75.01890000
_cell_angle_beta   80.53920000
_cell_angle_gamma   68.29510000
_symmetry_Int_Tables_number   1
_chemical_formula_structural   CdH4C2(N4O)2
_chemical_formula_sum   'Cd4 H16 C8 N32 O8'
_cell_volume   701.10571192
_cell_formula_units_Z   4
loop_
 _symmetry_equiv_pos_site_id
 _symmetry_equiv_pos_as_xyz
  1  'x, y, z'
loop_
 _atom_site_type_symbol
 _atom_site_label
 _atom_site_symmetry_multiplicity
 _atom_site_fract_x
 _atom_site_fract_y
 _atom_site_fract_z
 _atom_site_occupancy
  Cd  Cd0  1  0.74151000  0.99094000  0.21027000  1.0
  Cd  Cd1  1  0.25848000  0.00906000  0.78973000  1.0
  Cd  Cd2  1  0.73782000  0.47047000  0.27967000  1.0
  Cd  Cd3  1  0.26218000  0.52954000  0.72033000  1.0
  H  H4  1  0.31495000  0.01747000  0.33026000  1.0
  H  H5  1  0.68504000  0.98253000  0.66974000  1.0
  H  H6  1  0.27517000  0.16548000  0.22791000  1.0
  H  H7  1  0.72482000  0.83452000  0.77209000  1.0
  H  H8  1  0.18338000  0.86096000  0.11758000  1.0
  H  H9  1  0.81662000  0.13904000  0.88242000  1.0
  H  H10  1  0.21404000  0.95291000  0.20050000  1.0
  H  H11  1  0.78595000  0.04709000  0.79950000  1.0
  H  H12  1  0.17939000  0.45822000  0.19372000  1.0
  H  H13  1  0.82061000  0.54178000  0.80628000  1.0
  H  H14  1  0.18802000  0.36719000  0.31700000  1.0
  H  H15  1  0.81198000  0.63281000  0.68300000  1.0
  H  H16  1  0.30893000  0.56830000  0.37955000  1.0
  H  H17  1  0.69107000  0.43170000  0.62045000  1.0
  H  H18  1  0.28030000  0.69554000  0.26614000  1.0
  H  H19  1  0.71969000  0.30446000  0.73386000  1.0
  C  C20  1  0.74319000  0.47645000  0.03469000  1.0
  C  C21  1  0.25683000  0.52355000  0.96531000  1.0
  C  C22  1  0.73931000  0.63767000  0.03704000  1.0
  C  C23  1  0.26070000  0.36233000  0.96296000  1.0
  C  C24  1  0.76540000  0.81508000  0.45734000  1.0
  C  C25  1  0.23460000  0.18492000  0.54266000  1.0
  C  C26  1  0.76115000  0.97796000  0.45476000  1.0
  C  C27  1  0.23885000  0.02204000  0.54524000  1.0
  N  N28  1  0.76356000  0.41437000  0.94901000  1.0
  N  N29  1  0.23645000  0.58562000  0.05100000  1.0
  N  N30  1  0.75990000  0.26180000  0.98747000  1.0
  N  N31  1  0.24010000  0.73820000  0.01253000  1.0
  N  N32  1  0.73840000  0.23371000  0.09219000  1.0
  N  N33  1  0.26159000  0.76629000  0.90781000  1.0
  N  N34  1  0.72781000  0.36631000  0.12439000  1.0
  N  N35  1  0.27219000  0.63368000  0.87561000  1.0
  N  N36  1  0.72927000  0.67991000  0.12920000  1.0
  N  N37  1  0.27073000  0.32009000  0.87080000  1.0
  N  N38  1  0.74856000  0.76062000  0.95456000  1.0
  N  N39  1  0.25144000  0.23937000  0.04544000  1.0
  N  N40  1  0.74388000  0.88197000  0.99721000  1.0
  N  N41  1  0.25612000  0.11802000  0.00279000  1.0
  N  N42  1  0.76736000  0.76926000  0.36734000  1.0
  N  N43  1  0.23264000  0.23074000  0.63265000  1.0
  N  N44  1  0.76029000  0.61702000  0.39875000  1.0
  N  N45  1  0.23971000  0.38298000  0.60125000  1.0
  N  N46  1  0.75461000  0.57261000  0.50267000  1.0
  N  N47  1  0.24539000  0.42739000  0.49733000  1.0
  N  N48  1  0.75800000  0.69498000  0.54210000  1.0
  N  N49  1  0.24200000  0.30502000  0.45790000  1.0
  N  N50  1  0.74803000  0.04528000  0.53703000  1.0
  N  N51  1  0.25197000  0.95473000  0.46297000  1.0
  N  N52  1  0.74669000  0.19851000  0.49474000  1.0
  N  N53  1  0.25331000  0.80149000  0.50526000  1.0
  N  N54  1  0.75711000  0.22174000  0.39087000  1.0
  N  N55  1  0.24289000  0.77826000  0.60913000  1.0
  N  N56  1  0.76555000  0.08597000  0.36270000  1.0
  N  N57  1  0.23445000  0.91403000  0.63730000  1.0
  N  N58  1  0.73269000  0.83344000  0.10132000  1.0
  N  N59  1  0.26731000  0.16656000  0.89868000  1.0
  O  O60  1  0.35544000  0.04607000  0.25191000  1.0
  O  O61  1  0.64455000  0.95393000  0.74809000  1.0
  O  O62  1  0.13838000  0.88036000  0.19068000  1.0
  O  O63  1  0.86161000  0.11964000  0.80932000  1.0
  O  O64  1  0.12775000  0.37917000  0.24940000  1.0
  O  O65  1  0.87225000  0.62083000  0.75060000  1.0
  O  O66  1  0.36337000  0.58253000  0.30399000  1.0
  O  O67  1  0.63663000  0.41747000  0.69601000  1.0
