# generated using pymatgen
data_LiH14C12NO4
_symmetry_space_group_name_H-M   'P 1'
_cell_length_a   10.06310000
_cell_length_b   10.53630000
_cell_length_c   11.70230000
_cell_angle_alpha   90.00000000
_cell_angle_beta   90.00000000
_cell_angle_gamma   90.00000000
_symmetry_Int_Tables_number   1
_chemical_formula_structural   LiH14C12NO4
_chemical_formula_sum   'Li4 H56 C48 N4 O16'
_cell_volume   1240.76959823
_cell_formula_units_Z   4
loop_
 _symmetry_equiv_pos_site_id
 _symmetry_equiv_pos_as_xyz
  1  'x, y, z'
loop_
 _atom_site_type_symbol
 _atom_site_label
 _atom_site_symmetry_multiplicity
 _atom_site_fract_x
 _atom_site_fract_y
 _atom_site_fract_z
 _atom_site_occupancy
  Li  Li0  1  0.50000000  0.50000000  0.61664000  1.0
  Li  Li1  1  0.00000000  0.00000000  0.38336000  1.0
  Li  Li2  1  0.50000000  0.00000000  0.67345000  1.0
  Li  Li3  1  0.00000000  0.50000000  0.32655000  1.0
  H  H4  1  0.19439000  0.24357000  0.44645000  1.0
  H  H5  1  0.80561000  0.75643000  0.44645000  1.0
  H  H6  1  0.69439000  0.25643000  0.55355000  1.0
  H  H7  1  0.30561000  0.74357000  0.55355000  1.0
  H  H8  1  0.35341000  0.29538000  0.63575000  1.0
  H  H9  1  0.64659000  0.70462000  0.63575000  1.0
  H  H10  1  0.85341000  0.20462000  0.36425000  1.0
  H  H11  1  0.14659000  0.79538000  0.36425000  1.0
  H  H12  1  0.29344000  0.15079000  0.59585000  1.0
  H  H13  1  0.70656000  0.84921000  0.59585000  1.0
  H  H14  1  0.79344000  0.34921000  0.40415000  1.0
  H  H15  1  0.20656000  0.65079000  0.40415000  1.0
  H  H16  1  0.24099000  0.27028000  0.79691000  1.0
  H  H17  1  0.75901000  0.72972000  0.79691000  1.0
  H  H18  1  0.74099000  0.22972000  0.20309000  1.0
  H  H19  1  0.25901000  0.77028000  0.20309000  1.0
  H  H20  1  0.15388000  0.13871000  0.73789000  1.0
  H  H21  1  0.84612000  0.86129000  0.73789000  1.0
  H  H22  1  0.65388000  0.36129000  0.26211000  1.0
  H  H23  1  0.34612000  0.63871000  0.26211000  1.0
  H  H24  1  0.97289000  0.29152000  0.74819000  1.0
  H  H25  1  0.02711000  0.70848000  0.74819000  1.0
  H  H26  1  0.47289000  0.20848000  0.25181000  1.0
  H  H27  1  0.52711000  0.79152000  0.25181000  1.0
  H  H28  1  0.08022000  0.42017000  0.71619000  1.0
  H  H29  1  0.91978000  0.57983000  0.71619000  1.0
  H  H30  1  0.58022000  0.07983000  0.28380000  1.0
  H  H31  1  0.41978000  0.92017000  0.28381000  1.0
  H  H32  1  0.97871000  0.37133000  0.52839000  1.0
  H  H33  1  0.02129000  0.62867000  0.52839000  1.0
  H  H34  1  0.47871000  0.12867000  0.47161000  1.0
  H  H35  1  0.52129000  0.87133000  0.47161000  1.0
  H  H36  1  0.99811000  0.20518000  0.55254000  1.0
  H  H37  1  0.00189000  0.79482000  0.55254000  1.0
  H  H38  1  0.49811000  0.29482000  0.44746000  1.0
  H  H39  1  0.50189000  0.70518000  0.44746000  1.0
  H  H40  1  0.29170000  0.90532000  0.86914000  1.0
  H  H41  1  0.70830000  0.09468000  0.86914000  1.0
  H  H42  1  0.79170000  0.59468000  0.13086000  1.0
  H  H43  1  0.20830000  0.40532000  0.13086000  1.0
  H  H44  1  0.09790000  0.85737000  0.99675000  1.0
  H  H45  1  0.90210000  0.14263000  0.99675000  1.0
  H  H46  1  0.59790000  0.64263000  0.00325000  1.0
  H  H47  1  0.40210000  0.35737000  0.00325000  1.0
  H  H48  1  0.03365000  0.63263000  0.03244000  1.0
  H  H49  1  0.96635000  0.36737000  0.03244000  1.0
  H  H50  1  0.53365000  0.86737000  0.96756000  1.0
  H  H51  1  0.46635000  0.13263000  0.96755000  1.0
  H  H52  1  0.15233000  0.45829000  0.93176000  1.0
  H  H53  1  0.84767000  0.54171000  0.93175000  1.0
  H  H54  1  0.65233000  0.04171000  0.06825000  1.0
  H  H55  1  0.34767000  0.95829000  0.06824000  1.0
  H  H56  1  0.34600000  0.50750000  0.80572000  1.0
  H  H57  1  0.65400000  0.49250000  0.80572000  1.0
  H  H58  1  0.84601000  0.99250000  0.19428000  1.0
  H  H59  1  0.15400000  0.00750000  0.19428000  1.0
  C  C60  1  0.23244000  0.43765000  0.49194000  1.0
  C  C61  1  0.76756000  0.56235000  0.49194000  1.0
  C  C62  1  0.73244000  0.06235000  0.50806000  1.0
  C  C63  1  0.26756000  0.93765000  0.50806000  1.0
  C  C64  1  0.18375000  0.30297000  0.52312000  1.0
  C  C65  1  0.81625000  0.69703000  0.52312000  1.0
  C  C66  1  0.68375000  0.19703000  0.47688000  1.0
  C  C67  1  0.31625000  0.80297000  0.47688000  1.0
  C  C68  1  0.18099000  0.23849000  0.72423000  1.0
  C  C69  1  0.81901000  0.76151000  0.72423000  1.0
  C  C70  1  0.68099000  0.26151000  0.27577000  1.0
  C  C71  1  0.31901000  0.73849000  0.27577000  1.0
  C  C72  1  0.05954000  0.31978000  0.69751000  1.0
  C  C73  1  0.94046000  0.68022000  0.69751000  1.0
  C  C74  1  0.55954000  0.18022000  0.30249000  1.0
  C  C75  1  0.44046000  0.81978000  0.30249000  1.0
  C  C76  1  0.04103000  0.29933000  0.56916000  1.0
  C  C77  1  0.95897000  0.70067000  0.56915000  1.0
  C  C78  1  0.54103000  0.20067000  0.43085000  1.0
  C  C79  1  0.45897000  0.79933000  0.43085000  1.0
  C  C80  1  0.45148000  0.74080000  0.76061000  1.0
  C  C81  1  0.54852000  0.25920000  0.76061000  1.0
  C  C82  1  0.95148000  0.75920000  0.23939000  1.0
  C  C83  1  0.04852000  0.24080000  0.23939000  1.0
  C  C84  1  0.33071000  0.70955000  0.83105000  1.0
  C  C85  1  0.66929000  0.29045000  0.83104000  1.0
  C  C86  1  0.83071000  0.79045000  0.16895000  1.0
  C  C87  1  0.16929000  0.20955000  0.16895000  1.0
  C  C88  1  0.25955000  0.80785000  0.88385000  1.0
  C  C89  1  0.74045000  0.19215000  0.88385000  1.0
  C  C90  1  0.75955000  0.69215000  0.11615000  1.0
  C  C91  1  0.24045000  0.30785000  0.11615000  1.0
  C  C92  1  0.15194000  0.78050000  0.95489000  1.0
  C  C93  1  0.84806000  0.21950000  0.95489000  1.0
  C  C94  1  0.65194000  0.71950000  0.04511000  1.0
  C  C95  1  0.34806000  0.28050000  0.04511000  1.0
  C  C96  1  0.11432000  0.65433000  0.97342000  1.0
  C  C97  1  0.88568000  0.34567000  0.97342000  1.0
  C  C98  1  0.61431000  0.84567000  0.02658000  1.0
  C  C99  1  0.38568000  0.15433000  0.02658000  1.0
  C  C100  1  0.18273000  0.55638000  0.91830000  1.0
  C  C101  1  0.81727000  0.44362000  0.91830000  1.0
  C  C102  1  0.68273000  0.94362000  0.08170000  1.0
  C  C103  1  0.31727000  0.05638000  0.08170000  1.0
  C  C104  1  0.29050000  0.58343000  0.84745000  1.0
  C  C105  1  0.70950000  0.41657000  0.84745000  1.0
  C  C106  1  0.79050000  0.91657000  0.15255000  1.0
  C  C107  1  0.20950000  0.08343000  0.15255000  1.0
  N  N108  1  0.26480000  0.24455000  0.61741000  1.0
  N  N109  1  0.73520000  0.75545000  0.61741000  1.0
  N  N110  1  0.76480000  0.25545000  0.38259000  1.0
  N  N111  1  0.23520000  0.74455000  0.38259000  1.0
  O  O112  1  0.34080000  0.47768000  0.53105000  1.0
  O  O113  1  0.65920000  0.52232000  0.53105000  1.0
  O  O114  1  0.84080000  0.02232000  0.46895000  1.0
  O  O115  1  0.15920000  0.97768000  0.46895000  1.0
  O  O116  1  0.15692000  0.49985000  0.42470000  1.0
  O  O117  1  0.84308000  0.50015000  0.42470000  1.0
  O  O118  1  0.65692000  0.00015000  0.57530000  1.0
  O  O119  1  0.34308000  0.99985000  0.57530000  1.0
  O  O120  1  0.50556000  0.65123000  0.70319000  1.0
  O  O121  1  0.49443000  0.34877000  0.70319000  1.0
  O  O122  1  0.00557000  0.84877000  0.29681000  1.0
  O  O123  1  0.99443000  0.15123000  0.29681000  1.0
  O  O124  1  0.49517000  0.85303000  0.76309000  1.0
  O  O125  1  0.50483000  0.14697000  0.76309000  1.0
  O  O126  1  0.99517000  0.64697000  0.23691000  1.0
  O  O127  1  0.00483000  0.35303000  0.23691000  1.0
