# generated using pymatgen
data_H2PbC2Br2N
_symmetry_space_group_name_H-M   'P 1'
_cell_length_a   7.45492000
_cell_length_b   7.88437000
_cell_length_c   11.36890000
_cell_angle_alpha   69.75200000
_cell_angle_beta   70.88400000
_cell_angle_gamma   89.98230000
_symmetry_Int_Tables_number   1
_chemical_formula_structural   H2PbC2Br2N
_chemical_formula_sum   'H8 Pb4 C8 Br8 N4'
_cell_volume   587.53342754
_cell_formula_units_Z   4
loop_
 _symmetry_equiv_pos_site_id
 _symmetry_equiv_pos_as_xyz
  1  'x, y, z'
loop_
 _atom_site_type_symbol
 _atom_site_label
 _atom_site_symmetry_multiplicity
 _atom_site_fract_x
 _atom_site_fract_y
 _atom_site_fract_z
 _atom_site_occupancy
  H  H0  1  0.32388000  0.99864000  0.00372000  1.0
  H  H1  1  0.67621000  0.00147000  0.99626000  1.0
  H  H2  1  0.67259000  0.49839000  0.00339000  1.0
  H  H3  1  0.32730000  0.50155000  0.99667000  1.0
  H  H4  1  0.95967000  0.10809000  0.78328000  1.0
  H  H5  1  0.04039000  0.89203000  0.21675000  1.0
  H  H6  1  0.25701000  0.60802000  0.78346000  1.0
  H  H7  1  0.74292000  0.39197000  0.21662000  1.0
  Pb  Pb8  1  0.47453000  0.17391000  0.65233000  1.0
  Pb  Pb9  1  0.52547000  0.82606000  0.34764000  1.0
  Pb  Pb10  1  0.87261000  0.67363000  0.65274000  1.0
  Pb  Pb11  1  0.12744000  0.32627000  0.34721000  1.0
  C  C12  1  0.17915000  0.99957000  0.00127000  1.0
  C  C13  1  0.82084000  0.00045000  0.99868000  1.0
  C  C14  1  0.81965000  0.49942000  0.00112000  1.0
  C  C15  1  0.18035000  0.50054000  0.99887000  1.0
  C  C16  1  0.97876000  0.05986000  0.87998000  1.0
  C  C17  1  0.02119000  0.94011000  0.12004000  1.0
  C  C18  1  0.14126000  0.55984000  0.88007000  1.0
  C  C19  1  0.85877000  0.44006000  0.11997000  1.0
  Br  Br20  1  0.21387000  0.46348000  0.57252000  1.0
  Br  Br21  1  0.78599000  0.03681000  0.42743000  1.0
  Br  Br22  1  0.78602000  0.53648000  0.42749000  1.0
  Br  Br23  1  0.21399000  0.96314000  0.57256000  1.0
  Br  Br24  1  0.59323000  0.34391000  0.81297000  1.0
  Br  Br25  1  0.40712000  0.15628000  0.18704000  1.0
  Br  Br26  1  0.40674000  0.65607000  0.18702000  1.0
  Br  Br27  1  0.59304000  0.84370000  0.81299000  1.0
  N  N28  1  0.15813000  0.05949000  0.88128000  1.0
  N  N29  1  0.84179000  0.94067000  0.11867000  1.0
  N  N30  1  0.96066000  0.55938000  0.88123000  1.0
  N  N31  1  0.03945000  0.44070000  0.11876000  1.0
