# generated using pymatgen
data_CdPH17C24(NO3)2
_symmetry_space_group_name_H-M   'P 1'
_cell_length_a   10.22430000
_cell_length_b   11.01380000
_cell_length_c   11.86190000
_cell_angle_alpha   67.46400000
_cell_angle_beta   65.15930000
_cell_angle_gamma   81.92960000
_symmetry_Int_Tables_number   1
_chemical_formula_structural   CdPH17C24(NO3)2
_chemical_formula_sum   'Cd2 P2 H34 C48 N4 O12'
_cell_volume   1119.26399816
_cell_formula_units_Z   2
loop_
 _symmetry_equiv_pos_site_id
 _symmetry_equiv_pos_as_xyz
  1  'x, y, z'
loop_
 _atom_site_type_symbol
 _atom_site_label
 _atom_site_symmetry_multiplicity
 _atom_site_fract_x
 _atom_site_fract_y
 _atom_site_fract_z
 _atom_site_occupancy
  Cd  Cd0  1  0.95787000  0.15899000  0.52196000  1.0
  Cd  Cd1  1  0.04213000  0.84101000  0.47804000  1.0
  P  P2  1  0.26611000  0.14501000  0.28272000  1.0
  P  P3  1  0.73389000  0.85498000  0.71728000  1.0
  H  H4  1  0.52689000  0.39087000  0.51100000  1.0
  H  H5  1  0.47310000  0.60913000  0.48900000  1.0
  H  H6  1  0.42630000  0.91061000  0.35312000  1.0
  H  H7  1  0.57370000  0.08939000  0.64688000  1.0
  H  H8  1  0.65922000  0.87124000  0.37940000  1.0
  H  H9  1  0.34078000  0.12876000  0.62060000  1.0
  H  H10  1  0.70431000  0.28270000  0.29131000  1.0
  H  H11  1  0.29569000  0.71730000  0.70869000  1.0
  H  H12  1  0.47494000  0.32475000  0.25941000  1.0
  H  H13  1  0.52506000  0.67525000  0.74059000  1.0
  H  H14  1  0.23428000  0.40973000  0.11371000  1.0
  H  H15  1  0.76572000  0.59027000  0.88630000  1.0
  H  H16  1  0.31119000  0.51863000  0.86556000  1.0
  H  H17  1  0.68881000  0.48137000  0.13444000  1.0
  H  H18  1  0.46998000  0.15005000  0.82014000  1.0
  H  H19  1  0.53002000  0.84995000  0.17986000  1.0
  H  H20  1  0.39637000  0.04337000  0.06617000  1.0
  H  H21  1  0.60363000  0.95663000  0.93383000  1.0
  H  H22  1  0.95852000  0.38412000  0.25280000  1.0
  H  H23  1  0.04148000  0.61588000  0.74720000  1.0
  H  H24  1  0.93085000  0.62925000  0.15282000  1.0
  H  H25  1  0.06915000  0.37075000  0.84718000  1.0
  H  H26  1  0.84172000  0.75757000  0.30722000  1.0
  H  H27  1  0.15828000  0.24243000  0.69278000  1.0
  H  H28  1  0.78003000  0.63988000  0.54721000  1.0
  H  H29  1  0.21997000  0.36012000  0.45279000  1.0
  H  H30  1  0.70314000  0.52383000  0.74756000  1.0
  H  H31  1  0.29686000  0.47618000  0.25244000  1.0
  H  H32  1  0.65123000  0.37741000  0.98345000  1.0
  H  H33  1  0.34877000  0.62259000  0.01655000  1.0
  H  H34  1  0.73222000  0.14442000  0.03243000  1.0
  H  H35  1  0.26778000  0.85558000  0.96757000  1.0
  H  H36  1  0.85955000  0.06612000  0.83828000  1.0
  H  H37  1  0.14045000  0.93388000  0.16172000  1.0
  C  C38  1  0.43712000  0.12047000  0.29982000  1.0
  C  C39  1  0.56288000  0.87953000  0.70018000  1.0
  C  C40  1  0.49038000  0.99300000  0.33387000  1.0
  C  C41  1  0.50962000  0.00700000  0.66613000  1.0
  C  C42  1  0.62065000  0.97083000  0.34896000  1.0
  C  C43  1  0.37935000  0.02917000  0.65104000  1.0
  C  C44  1  0.69948000  0.07537000  0.33181000  1.0
  C  C45  1  0.30052000  0.92463000  0.66819000  1.0
  C  C46  1  0.64578000  0.20276000  0.29877000  1.0
  C  C47  1  0.35422000  0.79724000  0.70124000  1.0
  C  C48  1  0.51641000  0.22532000  0.28221000  1.0
  C  C49  1  0.48359000  0.77468000  0.71779000  1.0
  C  C50  1  0.83319000  0.05018000  0.36089000  1.0
  C  C51  1  0.16681000  0.94981000  0.63911000  1.0
  C  C52  1  0.31519000  0.22156000  0.10400000  1.0
  C  C53  1  0.68481000  0.77844000  0.89600000  1.0
  C  C54  1  0.28871000  0.35491000  0.04781000  1.0
  C  C55  1  0.71129000  0.64509000  0.95219000  1.0
  C  C56  1  0.33003000  0.41481000  0.91090000  1.0
  C  C57  1  0.66998000  0.58519000  0.08910000  1.0
  C  C58  1  0.39741000  0.34139000  0.82854000  1.0
  C  C59  1  0.60259000  0.65861000  0.17146000  1.0
  C  C60  1  0.41966000  0.20680000  0.88458000  1.0
  C  C61  1  0.58034000  0.79321000  0.11542000  1.0
  C  C62  1  0.37916000  0.14782000  0.02157000  1.0
  C  C63  1  0.62084000  0.85218000  0.97843000  1.0
  C  C64  1  0.44586000  0.40983000  0.68298000  1.0
  C  C65  1  0.55413000  0.59018000  0.31702000  1.0
  C  C66  1  0.91862000  0.44542000  0.31354000  1.0
  C  C67  1  0.08138000  0.55458000  0.68646000  1.0
  C  C68  1  0.90262000  0.58065000  0.25940000  1.0
  C  C69  1  0.09738000  0.41935000  0.74060000  1.0
  C  C70  1  0.85149000  0.65106000  0.34477000  1.0
  C  C71  1  0.14851000  0.34894000  0.65522000  1.0
  C  C72  1  0.81605000  0.58459000  0.48072000  1.0
  C  C73  1  0.18395000  0.41541000  0.51928000  1.0
  C  C74  1  0.83511000  0.44844000  0.52751000  1.0
  C  C75  1  0.16489000  0.55156000  0.47250000  1.0
  C  C76  1  0.80346000  0.36952000  0.67027000  1.0
  C  C77  1  0.19654000  0.63048000  0.32973000  1.0
  C  C78  1  0.73411000  0.42130000  0.77153000  1.0
  C  C79  1  0.26589000  0.57870000  0.22847000  1.0
  C  C80  1  0.70736000  0.34011000  0.90276000  1.0
  C  C81  1  0.29264000  0.65989000  0.09724000  1.0
  C  C82  1  0.75167000  0.21013000  0.93072000  1.0
  C  C83  1  0.24833000  0.78987000  0.06928000  1.0
  C  C84  1  0.82131000  0.16624000  0.82448000  1.0
  C  C85  1  0.17869000  0.83376000  0.17552000  1.0
  N  N86  1  0.88668000  0.38183000  0.44349000  1.0
  N  N87  1  0.11332000  0.61817000  0.55651000  1.0
  N  N88  1  0.84532000  0.24369000  0.69869000  1.0
  N  N89  1  0.15468000  0.75631000  0.30131000  1.0
  O  O90  1  0.88472000  0.93553000  0.37596000  1.0
  O  O91  1  0.11528000  0.06447000  0.62404000  1.0
  O  O92  1  0.88055000  0.14472000  0.37072000  1.0
  O  O93  1  0.11945000  0.85527000  0.62929000  1.0
  O  O94  1  0.49965000  0.33435000  0.61134000  1.0
  O  O95  1  0.50035000  0.66566000  0.38867000  1.0
  O  O96  1  0.43604000  0.53180000  0.63423000  1.0
  O  O97  1  0.56396000  0.46819000  0.36578000  1.0
  O  O98  1  0.17900000  0.24486000  0.34390000  1.0
  O  O99  1  0.82100000  0.75514000  0.65610000  1.0
  O  O100  1  0.20141000  0.01072000  0.32694000  1.0
  O  O101  1  0.79859000  0.98928000  0.67306000  1.0
