# generated using pymatgen
data_ZnH12C20(NO2)2
_symmetry_space_group_name_H-M   'P 1'
_cell_length_a   13.19960000
_cell_length_b   13.21580000
_cell_length_c   14.01330000
_cell_angle_alpha   82.27680000
_cell_angle_beta   83.22150000
_cell_angle_gamma   84.04160000
_symmetry_Int_Tables_number   1
_chemical_formula_structural   ZnH12C20(NO2)2
_chemical_formula_sum   'Zn4 H48 C80 N8 O16'
_cell_volume   2395.79254468
_cell_formula_units_Z   4
loop_
 _symmetry_equiv_pos_site_id
 _symmetry_equiv_pos_as_xyz
  1  'x, y, z'
loop_
 _atom_site_type_symbol
 _atom_site_label
 _atom_site_symmetry_multiplicity
 _atom_site_fract_x
 _atom_site_fract_y
 _atom_site_fract_z
 _atom_site_occupancy
  Zn  Zn0  1  0.83001000  0.63442000  0.20174000  1.0
  Zn  Zn1  1  0.82477000  0.62582000  0.40689000  1.0
  Zn  Zn2  1  0.16998000  0.36558000  0.79826000  1.0
  Zn  Zn3  1  0.17523000  0.37418000  0.59311000  1.0
  H  H4  1  0.50834000  0.65257000  0.18163000  1.0
  H  H5  1  0.34398000  0.67222000  0.10392000  1.0
  H  H6  1  0.15415000  0.66840000  0.12069000  1.0
  H  H7  1  0.49946000  0.59990000  0.49115000  1.0
  H  H8  1  0.31070000  0.58757000  0.50641000  1.0
  H  H9  1  0.15019000  0.59849000  0.42953000  1.0
  H  H10  1  0.82316000  0.94483000  0.42099000  1.0
  H  H11  1  0.83540000  0.10248000  0.49747000  1.0
  H  H12  1  0.84320000  0.29038000  0.48189000  1.0
  H  H13  1  0.82219000  0.15515000  0.09726000  1.0
  H  H14  1  0.81902000  0.96516000  0.11306000  1.0
  H  H15  1  0.82727000  0.31394000  0.17496000  1.0
  H  H16  1  0.72195000  0.76731000  0.05108000  1.0
  H  H17  1  0.91547000  0.50132000  0.87183000  1.0
  H  H18  1  0.91768000  0.50134000  0.05072000  1.0
  H  H19  1  0.64509000  0.65653000  0.74699000  1.0
  H  H20  1  0.66046000  0.64679000  0.56824000  1.0
  H  H21  1  0.97744000  0.61299000  0.55021000  1.0
  H  H22  1  0.97535000  0.61933000  0.72790000  1.0
  H  H23  1  0.61386000  0.84325000  0.21513000  1.0
  H  H24  1  0.59159000  0.00748000  0.28733000  1.0
  H  H25  1  0.50213000  0.81490000  0.09256000  1.0
  H  H26  1  0.36825000  0.95350000  0.03925000  1.0
  H  H27  1  0.54373000  0.85575000  0.76454000  1.0
  H  H28  1  0.49166000  0.34743000  0.81837000  1.0
  H  H29  1  0.65602000  0.32778000  0.89608000  1.0
  H  H30  1  0.84585000  0.33160000  0.87931000  1.0
  H  H31  1  0.50054000  0.40010000  0.50884000  1.0
  H  H32  1  0.68930000  0.41242000  0.49359000  1.0
  H  H33  1  0.84981000  0.40151000  0.57047000  1.0
  H  H34  1  0.17684000  0.05517000  0.57901000  1.0
  H  H35  1  0.16460000  0.89752000  0.50252000  1.0
  H  H36  1  0.15680000  0.70962000  0.51811000  1.0
  H  H37  1  0.17781000  0.84485000  0.90274000  1.0
  H  H38  1  0.18099000  0.03484000  0.88694000  1.0
  H  H39  1  0.17273000  0.68606000  0.82504000  1.0
  H  H40  1  0.27805000  0.23269000  0.94892000  1.0
  H  H41  1  0.08453000  0.49868000  0.12817000  1.0
  H  H42  1  0.08232000  0.49866000  0.94928000  1.0
  H  H43  1  0.35491000  0.34347000  0.25301000  1.0
  H  H44  1  0.33954000  0.35321000  0.43176000  1.0
  H  H45  1  0.02256000  0.38701000  0.44979000  1.0
  H  H46  1  0.02465000  0.38067000  0.27210000  1.0
  H  H47  1  0.38614000  0.15675000  0.78487000  1.0
  H  H48  1  0.40841000  0.99252000  0.71268000  1.0
  H  H49  1  0.49787000  0.18509000  0.90744000  1.0
  H  H50  1  0.63175000  0.04650000  0.96076000  1.0
  H  H51  1  0.45627000  0.14425000  0.23547000  1.0
  C  C52  1  0.62764000  0.63162000  0.32591000  1.0
  C  C53  1  0.51398000  0.62800000  0.33470000  1.0
  C  C54  1  0.46361000  0.64081000  0.25207000  1.0
  C  C55  1  0.30140000  0.65612000  0.17516000  1.0
  C  C56  1  0.19664000  0.65380000  0.18399000  1.0
  C  C57  1  0.45797000  0.61039000  0.42737000  1.0
  C  C58  1  0.35381000  0.60454000  0.43580000  1.0
  C  C59  1  0.14131000  0.63291000  0.27678000  1.0
  C  C60  1  0.19276000  0.61611000  0.35875000  1.0
  C  C61  1  0.35613000  0.63896000  0.25827000  1.0
  C  C62  1  0.30013000  0.61959000  0.35214000  1.0
  C  C63  1  0.02771000  0.62777000  0.28643000  1.0
  C  C64  1  0.81901000  0.83053000  0.27762000  1.0
  C  C65  1  0.82039000  0.94467000  0.26872000  1.0
  C  C66  1  0.82321000  0.99172000  0.35071000  1.0
  C  C67  1  0.83360000  0.14864000  0.42685000  1.0
  C  C68  1  0.83772000  0.25305000  0.41839000  1.0
  C  C69  1  0.82256000  0.10908000  0.16807000  1.0
  C  C70  1  0.82052000  0.00433000  0.17642000  1.0
  C  C71  1  0.83454000  0.31351000  0.32679000  1.0
  C  C72  1  0.82924000  0.26673000  0.24494000  1.0
  C  C73  1  0.82730000  0.09894000  0.34422000  1.0
  C  C74  1  0.82619000  0.15938000  0.25101000  1.0
  C  C75  1  0.83641000  0.42772000  0.31823000  1.0
  C  C76  1  0.76368000  0.70954000  0.00921000  1.0
  C  C77  1  0.75410000  0.71415000  0.90994000  1.0
  C  C78  1  0.80991000  0.63843000  0.85771000  1.0
  C  C79  1  0.87131000  0.56181000  0.90891000  1.0
  C  C80  1  0.87417000  0.56164000  0.00758000  1.0
  C  C81  1  0.80983000  0.63868000  0.75217000  1.0
  C  C82  1  0.72007000  0.64733000  0.70611000  1.0
  C  C83  1  0.72792000  0.64230000  0.60713000  1.0
  C  C84  1  0.90559000  0.62299000  0.59638000  1.0
  C  C85  1  0.90380000  0.62614000  0.69523000  1.0
  C  C86  1  0.59568000  0.94441000  0.86500000  1.0
  C  C87  1  0.44551000  0.09730000  0.80666000  1.0
  C  C88  1  0.53291000  0.92835000  0.79469000  1.0
  C  C89  1  0.45816000  0.00465000  0.76617000  1.0
  C  C90  1  0.50827000  0.11333000  0.87581000  1.0
  C  C91  1  0.58303000  0.03719000  0.90545000  1.0
  C  C92  1  0.37235000  0.36838000  0.67409000  1.0
  C  C93  1  0.48601000  0.37200000  0.66530000  1.0
  C  C94  1  0.53639000  0.35920000  0.74793000  1.0
  C  C95  1  0.69860000  0.34388000  0.82484000  1.0
  C  C96  1  0.80336000  0.34619000  0.81600000  1.0
  C  C97  1  0.54203000  0.38961000  0.57263000  1.0
  C  C98  1  0.64619000  0.39546000  0.56420000  1.0
  C  C99  1  0.85869000  0.36709000  0.72322000  1.0
  C  C100  1  0.80724000  0.38389000  0.64125000  1.0
  C  C101  1  0.64387000  0.36105000  0.74173000  1.0
  C  C102  1  0.69987000  0.38041000  0.64786000  1.0
  C  C103  1  0.97229000  0.37223000  0.71356000  1.0
  C  C104  1  0.18099000  0.16948000  0.72238000  1.0
  C  C105  1  0.17961000  0.05533000  0.73128000  1.0
  C  C106  1  0.17678000  0.00828000  0.64928000  1.0
  C  C107  1  0.16640000  0.85136000  0.57315000  1.0
  C  C108  1  0.16228000  0.74695000  0.58161000  1.0
  C  C109  1  0.17744000  0.89093000  0.83193000  1.0
  C  C110  1  0.17948000  0.99567000  0.82358000  1.0
  C  C111  1  0.16546000  0.68649000  0.67321000  1.0
  C  C112  1  0.17076000  0.73327000  0.75506000  1.0
  C  C113  1  0.17270000  0.90107000  0.65577000  1.0
  C  C114  1  0.17381000  0.84062000  0.74899000  1.0
  C  C115  1  0.16359000  0.57228000  0.68177000  1.0
  C  C116  1  0.23632000  0.29046000  0.99079000  1.0
  C  C117  1  0.24590000  0.28585000  0.09006000  1.0
  C  C118  1  0.19010000  0.36157000  0.14229000  1.0
  C  C119  1  0.12869000  0.43819000  0.09109000  1.0
  C  C120  1  0.12583000  0.43836000  0.99241000  1.0
  C  C121  1  0.19017000  0.36132000  0.24783000  1.0
  C  C122  1  0.27993000  0.35268000  0.29388000  1.0
  C  C123  1  0.27208000  0.35770000  0.39287000  1.0
  C  C124  1  0.09441000  0.37701000  0.40362000  1.0
  C  C125  1  0.09621000  0.37386000  0.30477000  1.0
  C  C126  1  0.40432000  0.05559000  0.13500000  1.0
  C  C127  1  0.55449000  0.90269000  0.19334000  1.0
  C  C128  1  0.46709000  0.07165000  0.20531000  1.0
  C  C129  1  0.54184000  0.99535000  0.23383000  1.0
  C  C130  1  0.49173000  0.88667000  0.12419000  1.0
  C  C131  1  0.41697000  0.96280000  0.09456000  1.0
  N  N132  1  0.82194000  0.63509000  0.05648000  1.0
  N  N133  1  0.68692000  0.78948000  0.86309000  1.0
  N  N134  1  0.67058000  0.87133000  0.90286000  1.0
  N  N135  1  0.81896000  0.63071000  0.55298000  1.0
  N  N136  1  0.17806000  0.36491000  0.94352000  1.0
  N  N137  1  0.31308000  0.21051000  0.13691000  1.0
  N  N138  1  0.32942000  0.12867000  0.09714000  1.0
  N  N139  1  0.18104000  0.36929000  0.44702000  1.0
  O  O140  1  0.67388000  0.64640000  0.24078000  1.0
  O  O141  1  0.67017000  0.61935000  0.40426000  1.0
  O  O142  1  0.81005000  0.78224000  0.36266000  1.0
  O  O143  1  0.82726000  0.79039000  0.19883000  1.0
  O  O144  1  0.84071000  0.46723000  0.39572000  1.0
  O  O145  1  0.83416000  0.47711000  0.23370000  1.0
  O  O146  1  0.98687000  0.62335000  0.20900000  1.0
  O  O147  1  0.98027000  0.62718000  0.37106000  1.0
  O  O148  1  0.32612000  0.35360000  0.75922000  1.0
  O  O149  1  0.32983000  0.38065000  0.59574000  1.0
  O  O150  1  0.18994000  0.21776000  0.63734000  1.0
  O  O151  1  0.17274000  0.20961000  0.80117000  1.0
  O  O152  1  0.15929000  0.53277000  0.60428000  1.0
  O  O153  1  0.16584000  0.52289000  0.76630000  1.0
  O  O154  1  0.01313000  0.37665000  0.79099000  1.0
  O  O155  1  0.01973000  0.37282000  0.62893000  1.0
