# generated using pymatgen
data_CoH11C14N5O6
_symmetry_space_group_name_H-M   'P 1'
_cell_length_a   8.67196000
_cell_length_b   9.54078000
_cell_length_c   19.04050000
_cell_angle_alpha   79.34100000
_cell_angle_beta   89.99970000
_cell_angle_gamma   89.99980000
_symmetry_Int_Tables_number   1
_chemical_formula_structural   CoH11C14N5O6
_chemical_formula_sum   'Co4 H44 C56 N20 O24'
_cell_volume   1548.17666858
_cell_formula_units_Z   4
loop_
 _symmetry_equiv_pos_site_id
 _symmetry_equiv_pos_as_xyz
  1  'x, y, z'
loop_
 _atom_site_type_symbol
 _atom_site_label
 _atom_site_symmetry_multiplicity
 _atom_site_fract_x
 _atom_site_fract_y
 _atom_site_fract_z
 _atom_site_occupancy
  Co  Co0  1  0.11665000  0.49586000  0.37536000  1.0
  Co  Co1  1  0.61665000  0.00415000  0.12464000  1.0
  Co  Co2  1  0.88335000  0.50414000  0.62464000  1.0
  Co  Co3  1  0.38335000  0.99586000  0.87536000  1.0
  H  H4  1  0.54932000  0.56649000  0.41203000  1.0
  H  H5  1  0.04933000  0.93351000  0.08797000  1.0
  H  H6  1  0.45067000  0.43351000  0.58796000  1.0
  H  H7  1  0.95067000  0.06649000  0.91204000  1.0
  H  H8  1  0.44222000  0.40341000  0.16749000  1.0
  H  H9  1  0.94222000  0.09659000  0.33251000  1.0
  H  H10  1  0.55778000  0.59659000  0.83251000  1.0
  H  H11  1  0.05778000  0.90341000  0.66749000  1.0
  H  H12  1  0.42686000  0.73561000  0.56536000  1.0
  H  H13  1  0.92686000  0.76439000  0.93464000  1.0
  H  H14  1  0.57314000  0.26439000  0.43464000  1.0
  H  H15  1  0.07314000  0.23561000  0.06536000  1.0
  H  H16  1  0.31149000  0.17945000  0.55042000  1.0
  H  H17  1  0.81149000  0.32055000  0.94958000  1.0
  H  H18  1  0.68850000  0.82055000  0.44958000  1.0
  H  H19  1  0.18850000  0.67945000  0.05042000  1.0
  H  H20  1  0.13123000  0.94335000  0.39648000  1.0
  H  H21  1  0.63122000  0.55665000  0.10353000  1.0
  H  H22  1  0.86878000  0.05665000  0.60352000  1.0
  H  H23  1  0.36878000  0.44335000  0.89648000  1.0
  H  H24  1  0.82482000  0.59906000  0.45443000  1.0
  H  H25  1  0.32482000  0.90094000  0.04557000  1.0
  H  H26  1  0.17518000  0.40093000  0.54557000  1.0
  H  H27  1  0.67518000  0.09907000  0.95443000  1.0
  H  H28  1  0.54707000  0.45715000  0.29913000  1.0
  H  H29  1  0.04707000  0.04285000  0.20087000  1.0
  H  H30  1  0.45293000  0.54285000  0.70087000  1.0
  H  H31  1  0.95293000  0.95715000  0.79913000  1.0
  H  H32  1  0.85709000  0.42132000  0.26713000  1.0
  H  H33  1  0.35709000  0.07867000  0.23287000  1.0
  H  H34  1  0.14291000  0.57868000  0.73287000  1.0
  H  H35  1  0.64291000  0.92132000  0.76713000  1.0
  H  H36  1  0.26020000  0.29709000  0.27066000  1.0
  H  H37  1  0.76020000  0.20291000  0.22934000  1.0
  H  H38  1  0.73980000  0.70291000  0.72934000  1.0
  H  H39  1  0.23980000  0.79709000  0.77066000  1.0
  H  H40  1  0.45819000  0.67679000  0.15408000  1.0
  H  H41  1  0.95819000  0.82321000  0.34592000  1.0
  H  H42  1  0.54181000  0.32321000  0.84592000  1.0
  H  H43  1  0.04181000  0.17679000  0.65408000  1.0
  H  H44  1  0.28067000  0.74132000  0.26517000  1.0
  H  H45  1  0.78067000  0.75868000  0.23483000  1.0
  H  H46  1  0.71933000  0.25868000  0.73483000  1.0
  H  H47  1  0.21933000  0.24132000  0.76517000  1.0
  C  C48  1  0.27167000  0.69180000  0.44636000  1.0
  C  C49  1  0.77167000  0.80820000  0.05364000  1.0
  C  C50  1  0.72833000  0.30820000  0.55364000  1.0
  C  C51  1  0.22833000  0.19180000  0.94636000  1.0
  C  C52  1  0.27397000  0.82417000  0.47861000  1.0
  C  C53  1  0.77396000  0.67584000  0.02139000  1.0
  C  C54  1  0.72603000  0.17583000  0.52139000  1.0
  C  C55  1  0.22604000  0.32417000  0.97861000  1.0
  C  C56  1  0.36205000  0.82851000  0.53962000  1.0
  C  C57  1  0.86205000  0.67149000  0.96038000  1.0
  C  C58  1  0.63795000  0.17148000  0.46038000  1.0
  C  C59  1  0.13795000  0.32851000  0.03962000  1.0
  C  C60  1  0.36806000  0.95595000  0.56543000  1.0
  C  C61  1  0.86807000  0.54405000  0.93457000  1.0
  C  C62  1  0.63193000  0.04404000  0.43457000  1.0
  C  C63  1  0.13193000  0.45596000  0.06543000  1.0
  C  C64  1  0.29623000  0.08046000  0.53080000  1.0
  C  C65  1  0.79623000  0.41954000  0.96920000  1.0
  C  C66  1  0.70377000  0.91954000  0.46920000  1.0
  C  C67  1  0.20377000  0.58046000  0.03080000  1.0
  C  C68  1  0.20991000  0.07581000  0.46922000  1.0
  C  C69  1  0.70991000  0.42419000  0.03078000  1.0
  C  C70  1  0.79009000  0.92418000  0.53078000  1.0
  C  C71  1  0.29009000  0.57581000  0.96922000  1.0
  C  C72  1  0.19635000  0.94663000  0.44490000  1.0
  C  C73  1  0.69635000  0.55337000  0.05510000  1.0
  C  C74  1  0.80365000  0.05336000  0.55510000  1.0
  C  C75  1  0.30365000  0.44664000  0.94490000  1.0
  C  C76  1  0.14381000  0.20891000  0.42512000  1.0
  C  C77  1  0.64381000  0.29109000  0.07488000  1.0
  C  C78  1  0.85620000  0.79109000  0.57488000  1.0
  C  C79  1  0.35620000  0.70891000  0.92512000  1.0
  C  C80  1  0.79393000  0.55625000  0.40730000  1.0
  C  C81  1  0.29393000  0.94374000  0.09270000  1.0
  C  C82  1  0.20607000  0.44374000  0.59270000  1.0
  C  C83  1  0.70607000  0.05626000  0.90730000  1.0
  C  C84  1  0.65118000  0.48207000  0.32528000  1.0
  C  C85  1  0.15118000  0.01792000  0.17472000  1.0
  C  C86  1  0.34882000  0.51792000  0.67471000  1.0
  C  C87  1  0.84882000  0.98208000  0.82529000  1.0
  C  C88  1  0.80396000  0.46255000  0.31066000  1.0
  C  C89  1  0.30396000  0.03745000  0.18934000  1.0
  C  C90  1  0.19604000  0.53745000  0.68934000  1.0
  C  C91  1  0.69604000  0.96255000  0.81066000  1.0
  C  C92  1  0.28840000  0.40889000  0.25436000  1.0
  C  C93  1  0.78840000  0.09112000  0.24564000  1.0
  C  C94  1  0.71160000  0.59112000  0.74564000  1.0
  C  C95  1  0.21160000  0.90888000  0.75436000  1.0
  C  C96  1  0.38964000  0.60876000  0.19424000  1.0
  C  C97  1  0.88964000  0.89124000  0.30576000  1.0
  C  C98  1  0.61036000  0.39124000  0.80575000  1.0
  C  C99  1  0.11036000  0.10876000  0.69424000  1.0
  C  C100  1  0.30230000  0.63945000  0.24963000  1.0
  C  C101  1  0.80230000  0.86055000  0.25037000  1.0
  C  C102  1  0.69770000  0.36055000  0.75037000  1.0
  C  C103  1  0.19770000  0.13945000  0.74963000  1.0
  N  N104  1  0.46244000  0.96244000  0.62887000  1.0
  N  N105  1  0.96244000  0.53756000  0.87113000  1.0
  N  N106  1  0.53756000  0.03755000  0.37113000  1.0
  N  N107  1  0.03756000  0.46244000  0.12887000  1.0
  N  N108  1  0.89203000  0.50949000  0.36234000  1.0
  N  N109  1  0.39203000  0.99051000  0.13766000  1.0
  N  N110  1  0.10797000  0.49051000  0.63766000  1.0
  N  N111  1  0.60797000  0.00949000  0.86234000  1.0
  N  N112  1  0.64762000  0.54076000  0.38608000  1.0
  N  N113  1  0.14763000  0.95924000  0.11392000  1.0
  N  N114  1  0.35238000  0.45924000  0.61392000  1.0
  N  N115  1  0.85238000  0.04076000  0.88608000  1.0
  N  N116  1  0.23971000  0.51371000  0.28689000  1.0
  N  N117  1  0.73971000  0.98629000  0.21311000  1.0
  N  N118  1  0.76029000  0.48629000  0.71311000  1.0
  N  N119  1  0.26029000  0.01371000  0.78689000  1.0
  N  N120  1  0.37907000  0.46310000  0.19806000  1.0
  N  N121  1  0.87907000  0.03690000  0.30194000  1.0
  N  N122  1  0.62093000  0.53690000  0.80194000  1.0
  N  N123  1  0.12093000  0.96310000  0.69806000  1.0
  O  O124  1  0.14579000  0.67224000  0.41273000  1.0
  O  O125  1  0.64580000  0.82776000  0.08728000  1.0
  O  O126  1  0.85420000  0.32776000  0.58727000  1.0
  O  O127  1  0.35420000  0.17224000  0.91273000  1.0
  O  O128  1  0.38587000  0.61069000  0.45363000  1.0
  O  O129  1  0.88587000  0.88931000  0.04636000  1.0
  O  O130  1  0.61413000  0.38931000  0.54636000  1.0
  O  O131  1  0.11413000  0.11069000  0.95364000  1.0
  O  O132  1  0.17832000  0.32719000  0.44517000  1.0
  O  O133  1  0.67831000  0.17281000  0.05483000  1.0
  O  O134  1  0.82168000  0.67281000  0.55483000  1.0
  O  O135  1  0.32168000  0.82719000  0.94517000  1.0
  O  O136  1  0.06645000  0.20345000  0.36971000  1.0
  O  O137  1  0.56645000  0.29655000  0.13029000  1.0
  O  O138  1  0.93355000  0.79655000  0.63029000  1.0
  O  O139  1  0.43355000  0.70345000  0.86971000  1.0
  O  O140  1  0.47817000  0.07945000  0.64747000  1.0
  O  O141  1  0.97817000  0.42055000  0.85253000  1.0
  O  O142  1  0.52183000  0.92055000  0.35253000  1.0
  O  O143  1  0.02183000  0.57945000  0.14747000  1.0
  O  O144  1  0.52322000  0.84972000  0.66020000  1.0
  O  O145  1  0.02322000  0.65028000  0.83980000  1.0
  O  O146  1  0.47678000  0.15027000  0.33980000  1.0
  O  O147  1  0.97678000  0.34973000  0.16021000  1.0
