# generated using pymatgen
data_CuH3C4N2Cl
_symmetry_space_group_name_H-M   'P 1'
_cell_length_a   4.88566000
_cell_length_b   6.73452000
_cell_length_c   15.24880000
_cell_angle_alpha   89.99960000
_cell_angle_beta   89.99950000
_cell_angle_gamma   80.18750000
_symmetry_Int_Tables_number   1
_chemical_formula_structural   CuH3C4N2Cl
_chemical_formula_sum   'Cu4 H12 C16 N8 Cl4'
_cell_volume   494.38492359
_cell_formula_units_Z   4
loop_
 _symmetry_equiv_pos_site_id
 _symmetry_equiv_pos_as_xyz
  1  'x, y, z'
loop_
 _atom_site_type_symbol
 _atom_site_label
 _atom_site_symmetry_multiplicity
 _atom_site_fract_x
 _atom_site_fract_y
 _atom_site_fract_z
 _atom_site_occupancy
  Cu  Cu0  1  0.09075000  0.80274000  0.75313000  1.0
  Cu  Cu1  1  0.90926000  0.69725000  0.25313000  1.0
  Cu  Cu2  1  0.90923000  0.19726000  0.24687000  1.0
  Cu  Cu3  1  0.09078000  0.30274000  0.74687000  1.0
  H  H4  1  0.65979000  0.27502000  0.61797000  1.0
  H  H5  1  0.34025000  0.22495000  0.11797000  1.0
  H  H6  1  0.34023000  0.72496000  0.38202000  1.0
  H  H7  1  0.65975000  0.77506000  0.88202000  1.0
  H  H8  1  0.63665000  0.81522000  0.45976000  1.0
  H  H9  1  0.36333000  0.68478000  0.95976000  1.0
  H  H10  1  0.36332000  0.18480000  0.54025000  1.0
  H  H11  1  0.63668000  0.31521000  0.04025000  1.0
  H  H12  1  0.94124000  0.92272000  0.57583000  1.0
  H  H13  1  0.05873000  0.57729000  0.07583000  1.0
  H  H14  1  0.05876000  0.07728000  0.42417000  1.0
  H  H15  1  0.94125000  0.42271000  0.92417000  1.0
  C  C16  1  0.71122000  0.42257000  0.60267000  1.0
  C  C17  1  0.28880000  0.07743000  0.10267000  1.0
  C  C18  1  0.28880000  0.57742000  0.39734000  1.0
  C  C19  1  0.71120000  0.92258000  0.89733000  1.0
  C  C20  1  0.59950000  0.53597000  0.52950000  1.0
  C  C21  1  0.40051000  0.96403000  0.02950000  1.0
  C  C22  1  0.40050000  0.46404000  0.47050000  1.0
  C  C23  1  0.59950000  0.03596000  0.97049000  1.0
  C  C24  1  0.69418000  0.71881000  0.51662000  1.0
  C  C25  1  0.30581000  0.78119000  0.01662000  1.0
  C  C26  1  0.30582000  0.28119000  0.48339000  1.0
  C  C27  1  0.69418000  0.21882000  0.98338000  1.0
  C  C28  1  0.86642000  0.77947000  0.57972000  1.0
  C  C29  1  0.13357000  0.72054000  0.07972000  1.0
  C  C30  1  0.13357000  0.22053000  0.42027000  1.0
  C  C31  1  0.86641000  0.27946000  0.92027000  1.0
  N  N32  1  0.95256000  0.67111000  0.65137000  1.0
  N  N33  1  0.04744000  0.82889000  0.15138000  1.0
  N  N34  1  0.04744000  0.32887000  0.34863000  1.0
  N  N35  1  0.95257000  0.17114000  0.84863000  1.0
  N  N36  1  0.88655000  0.48496000  0.66015000  1.0
  N  N37  1  0.11345000  0.01503000  0.16016000  1.0
  N  N38  1  0.11347000  0.51503000  0.33984000  1.0
  N  N39  1  0.88653000  0.98494000  0.83984000  1.0
  Cl  Cl40  1  0.36109000  0.02549000  0.68296000  1.0
  Cl  Cl41  1  0.63891000  0.47452000  0.18296000  1.0
  Cl  Cl42  1  0.63892000  0.97450000  0.31705000  1.0
  Cl  Cl43  1  0.36109000  0.52549000  0.81705000  1.0
