# generated using pymatgen
data_Cu3H22C22N6(ClO3)2
_symmetry_space_group_name_H-M   'P 1'
_cell_length_a   11.64920000
_cell_length_b   18.34000916
_cell_length_c   18.33917373
_cell_angle_alpha   84.26590600
_cell_angle_beta   71.50745069
_cell_angle_gamma   71.52370425
_symmetry_Int_Tables_number   1
_chemical_formula_structural   Cu3H22C22N6(ClO3)2
_chemical_formula_sum   'Cu12 H88 C88 N24 Cl8 O24'
_cell_volume   3524.25604044
_cell_formula_units_Z   4
loop_
 _symmetry_equiv_pos_site_id
 _symmetry_equiv_pos_as_xyz
  1  'x, y, z'
loop_
 _atom_site_type_symbol
 _atom_site_label
 _atom_site_symmetry_multiplicity
 _atom_site_fract_x
 _atom_site_fract_y
 _atom_site_fract_z
 _atom_site_occupancy
  Cu  Cu0  1  0.27628000  0.40205000  0.74524000  1.0
  Cu  Cu1  1  0.92324000  0.09873000  0.75488000  1.0
  Cu  Cu2  1  0.52203000  0.25485000  0.90177000  1.0
  Cu  Cu3  1  0.17790000  0.24555000  0.59850000  1.0
  Cu  Cu4  1  0.72368000  0.59806000  0.25462000  1.0
  Cu  Cu5  1  0.07688000  0.90119000  0.24516000  1.0
  Cu  Cu6  1  0.47811000  0.74511000  0.09830000  1.0
  Cu  Cu7  1  0.82222000  0.75457000  0.40162000  1.0
  Cu  Cu8  1  0.49994000  0.50020000  0.50017000  1.0
  Cu  Cu9  1  0.00013000  0.99993000  1.00000000  1.0
  Cu  Cu10  1  0.49981000  0.50012000  0.00003000  1.0
  Cu  Cu11  1  0.49995000  0.99995000  0.50002000  1.0
  H  H12  1  0.28423000  0.24243000  0.43473000  1.0
  H  H13  1  0.37718000  0.27290000  0.29822000  1.0
  H  H14  1  0.49485000  0.37013000  0.26343000  1.0
  H  H15  1  0.51747000  0.43817000  0.36703000  1.0
  H  H16  1  0.03704000  0.36813000  0.76604000  1.0
  H  H17  1  0.06399000  0.32868000  0.95800000  1.0
  H  H18  1  0.89442000  0.35294000  0.99443000  1.0
  H  H19  1  0.98762000  0.25524000  0.96950000  1.0
  H  H20  1  0.87864000  0.32331000  0.79805000  1.0
  H  H21  1  0.88885000  0.24751000  0.86680000  1.0
  H  H22  1  0.77991000  0.34173000  0.89526000  1.0
  H  H23  1  0.46170000  0.25776000  0.06513000  1.0
  H  H24  1  0.44814000  0.22732000  0.20175000  1.0
  H  H25  1  0.62792000  0.13000000  0.23669000  1.0
  H  H26  1  0.82218000  0.06205000  0.13326000  1.0
  H  H27  1  0.67077000  0.13252000  0.73402000  1.0
  H  H28  1  0.85036000  0.17193000  0.54205000  1.0
  H  H29  1  0.74139000  0.14750000  0.50577000  1.0
  H  H30  1  0.71217000  0.24530000  0.53042000  1.0
  H  H31  1  0.49978000  0.17726000  0.70190000  1.0
  H  H32  1  0.50290000  0.25299000  0.63306000  1.0
  H  H33  1  0.51695000  0.15861000  0.60470000  1.0
  H  H34  1  0.21969000  0.56503000  0.74236000  1.0
  H  H35  1  0.17601000  0.70172000  0.77266000  1.0
  H  H36  1  0.25822000  0.73676000  0.87020000  1.0
  H  H37  1  0.38447000  0.63349000  0.93813000  1.0
  H  H38  1  0.30298000  0.23414000  0.86797000  1.0
  H  H39  1  0.52151000  0.04203000  0.82874000  1.0
  H  H40  1  0.38803000  0.00585000  0.85314000  1.0
  H  H41  1  0.45669000  0.03032000  0.75535000  1.0
  H  H42  1  0.17649000  0.20197000  0.82341000  1.0
  H  H43  1  0.25529000  0.13308000  0.74758000  1.0
  H  H44  1  0.17492000  0.10480000  0.84193000  1.0
  H  H45  1  0.02604000  0.93547000  0.75792000  1.0
  H  H46  1  0.14914000  0.79881000  0.72757000  1.0
  H  H47  1  0.36393000  0.76380000  0.63014000  1.0
  H  H48  1  0.45493000  0.86710000  0.56228000  1.0
  H  H49  1  0.90493000  0.26613000  0.63201000  1.0
  H  H50  1  0.89221000  0.45821000  0.67147000  1.0
  H  H51  1  0.74711000  0.49434000  0.64694000  1.0
  H  H52  1  0.74227000  0.46993000  0.74476000  1.0
  H  H53  1  0.70153000  0.29828000  0.67658000  1.0
  H  H54  1  0.63584000  0.36705000  0.75249000  1.0
  H  H55  1  0.62162000  0.39544000  0.65812000  1.0
  H  H56  1  0.71600000  0.75746000  0.56512000  1.0
  H  H57  1  0.62281000  0.72702000  0.70159000  1.0
  H  H58  1  0.50507000  0.62983000  0.73629000  1.0
  H  H59  1  0.48229000  0.56196000  0.63266000  1.0
  H  H60  1  0.96300000  0.63185000  0.23385000  1.0
  H  H61  1  0.93605000  0.67136000  0.04193000  1.0
  H  H62  1  0.10562000  0.64708000  0.00555000  1.0
  H  H63  1  0.01242000  0.74481000  0.03041000  1.0
  H  H64  1  0.12139000  0.67668000  0.20191000  1.0
  H  H65  1  0.11123000  0.75251000  0.13319000  1.0
  H  H66  1  0.22009000  0.65827000  0.10470000  1.0
  H  H67  1  0.53865000  0.74209000  0.93476000  1.0
  H  H68  1  0.55208000  0.77256000  0.79817000  1.0
  H  H69  1  0.37221000  0.86991000  0.76329000  1.0
  H  H70  1  0.17804000  0.93782000  0.86677000  1.0
  H  H71  1  0.32928000  0.86753000  0.26607000  1.0
  H  H72  1  0.14971000  0.82805000  0.45803000  1.0
  H  H73  1  0.25867000  0.85247000  0.49430000  1.0
  H  H74  1  0.28782000  0.75467000  0.46970000  1.0
  H  H75  1  0.50022000  0.82272000  0.29815000  1.0
  H  H76  1  0.49715000  0.74698000  0.36700000  1.0
  H  H77  1  0.48310000  0.84138000  0.39534000  1.0
  H  H78  1  0.78026000  0.43503000  0.25766000  1.0
  H  H79  1  0.82392000  0.29833000  0.22729000  1.0
  H  H80  1  0.74174000  0.26335000  0.12972000  1.0
  H  H81  1  0.61541000  0.36662000  0.06182000  1.0
  H  H82  1  0.69686000  0.76584000  0.13203000  1.0
  H  H83  1  0.47837000  0.95798000  0.17123000  1.0
  H  H84  1  0.61187000  0.99414000  0.14685000  1.0
  H  H85  1  0.54318000  0.96966000  0.24464000  1.0
  H  H86  1  0.82342000  0.79803000  0.17653000  1.0
  H  H87  1  0.74465000  0.86694000  0.25235000  1.0
  H  H88  1  0.82496000  0.89519000  0.15796000  1.0
  H  H89  1  0.97390000  0.06445000  0.24208000  1.0
  H  H90  1  0.85079000  0.20112000  0.27243000  1.0
  H  H91  1  0.63598000  0.23610000  0.36988000  1.0
  H  H92  1  0.54502000  0.13281000  0.43776000  1.0
  H  H93  1  0.09498000  0.73395000  0.36810000  1.0
  H  H94  1  0.10749000  0.54187000  0.32863000  1.0
  H  H95  1  0.25268000  0.50565000  0.35307000  1.0
  H  H96  1  0.25739000  0.53021000  0.25530000  1.0
  H  H97  1  0.29837000  0.70171000  0.32360000  1.0
  H  H98  1  0.36412000  0.63283000  0.24777000  1.0
  H  H99  1  0.37813000  0.60452000  0.34219000  1.0
  C  C100  1  0.36778000  0.40442000  0.58965000  1.0
  C  C101  1  0.29749000  0.34799000  0.60879000  1.0
  C  C102  1  0.34255000  0.32535000  0.47810000  1.0
  C  C103  1  0.33296000  0.28628000  0.41925000  1.0
  C  C104  1  0.38632000  0.30317000  0.34310000  1.0
  C  C105  1  0.45237000  0.35805000  0.32366000  1.0
  C  C106  1  0.46497000  0.39616000  0.38100000  1.0
  C  C107  1  0.40992000  0.38084000  0.45890000  1.0
  C  C108  1  0.05132000  0.36127000  0.82312000  1.0
  C  C109  1  0.98041000  0.31582000  0.95437000  1.0
  C  C110  1  0.87388000  0.30953000  0.85823000  1.0
  C  C111  1  0.86182000  0.09598000  0.91048000  1.0
  C  C112  1  0.75432000  0.15234000  0.89138000  1.0
  C  C113  1  0.64607000  0.17485000  0.02198000  1.0
  C  C114  1  0.53857000  0.21392000  0.08077000  1.0
  C  C115  1  0.53241000  0.19702000  0.15694000  1.0
  C  C116  1  0.63369000  0.14210000  0.17645000  1.0
  C  C117  1  0.74178000  0.10400000  0.11918000  1.0
  C  C118  1  0.74953000  0.11933000  0.04124000  1.0
  C  C119  1  0.73523000  0.13954000  0.67702000  1.0
  C  C120  1  0.75032000  0.18478000  0.54568000  1.0
  C  C121  1  0.54147000  0.19100000  0.64173000  1.0
  C  C122  1  0.45781000  0.41067000  0.90416000  1.0
  C  C123  1  0.40645000  0.39136000  0.84767000  1.0
  C  C124  1  0.32118000  0.52198000  0.82524000  1.0
  C  C125  1  0.25282000  0.58075000  0.78617000  1.0
  C  C126  1  0.22990000  0.65695000  0.80301000  1.0
  C  C127  1  0.27622000  0.67651000  0.85798000  1.0
  C  C128  1  0.34624000  0.61930000  0.89607000  1.0
  C  C129  1  0.36932000  0.54138000  0.88076000  1.0
  C  C130  1  0.37433000  0.17707000  0.86107000  1.0
  C  C131  1  0.43430000  0.04568000  0.81588000  1.0
  C  C132  1  0.23187000  0.14178000  0.80959000  1.0
  C  C133  1  0.27181000  0.08994000  0.59614000  1.0
  C  C134  1  0.14510000  0.10915000  0.65245000  1.0
  C  C135  1  0.16742000  0.97851000  0.67503000  1.0
  C  C136  1  0.11859000  0.91977000  0.71407000  1.0
  C  C137  1  0.18864000  0.84359000  0.69722000  1.0
  C  C138  1  0.30950000  0.82405000  0.64230000  1.0
  C  C139  1  0.36044000  0.88128000  0.60427000  1.0
  C  C140  1  0.29032000  0.95923000  0.61961000  1.0
  C  C141  1  0.91221000  0.32322000  0.63898000  1.0
  C  C142  1  0.79583000  0.45454000  0.68426000  1.0
  C  C143  1  0.68308000  0.35842000  0.69048000  1.0
  C  C144  1  0.63247000  0.59570000  0.41011000  1.0
  C  C145  1  0.70312000  0.65196000  0.39092000  1.0
  C  C146  1  0.65761000  0.67460000  0.52167000  1.0
  C  C147  1  0.66717000  0.71365000  0.58055000  1.0
  C  C148  1  0.61368000  0.69677000  0.65668000  1.0
  C  C149  1  0.54754000  0.64195000  0.67607000  1.0
  C  C150  1  0.53486000  0.60392000  0.61870000  1.0
  C  C151  1  0.59005000  0.61924000  0.54084000  1.0
  C  C152  1  0.94866000  0.63882000  0.17679000  1.0
  C  C153  1  0.01960000  0.68425000  0.04557000  1.0
  C  C154  1  0.12615000  0.69049000  0.14173000  1.0
  C  C155  1  0.13842000  0.90389000  0.08950000  1.0
  C  C156  1  0.24590000  0.84752000  0.10864000  1.0
  C  C157  1  0.35428000  0.82501000  0.97798000  1.0
  C  C158  1  0.46173000  0.78596000  0.91917000  1.0
  C  C159  1  0.46783000  0.80285000  0.84300000  1.0
  C  C160  1  0.36651000  0.85777000  0.82352000  1.0
  C  C161  1  0.25847000  0.89586000  0.88081000  1.0
  C  C162  1  0.25077000  0.88052000  0.95875000  1.0
  C  C163  1  0.26481000  0.86045000  0.32307000  1.0
  C  C164  1  0.24973000  0.81519000  0.45440000  1.0
  C  C165  1  0.45858000  0.80897000  0.35833000  1.0
  C  C166  1  0.54207000  0.58950000  0.09595000  1.0
  C  C167  1  0.59346000  0.60872000  0.15226000  1.0
  C  C168  1  0.67878000  0.47806000  0.17472000  1.0
  C  C169  1  0.74717000  0.41932000  0.21382000  1.0
  C  C170  1  0.77008000  0.34313000  0.19694000  1.0
  C  C171  1  0.72372000  0.32360000  0.14195000  1.0
  C  C172  1  0.65364000  0.38081000  0.10389000  1.0
  C  C173  1  0.63060000  0.45873000  0.11928000  1.0
  C  C174  1  0.62554000  0.82290000  0.13894000  1.0
  C  C175  1  0.56556000  0.95432000  0.18410000  1.0
  C  C176  1  0.76803000  0.85822000  0.19035000  1.0
  C  C177  1  0.72825000  0.91000000  0.40389000  1.0
  C  C178  1  0.85488000  0.89082000  0.34763000  1.0
  C  C179  1  0.83253000  0.02141000  0.32498000  1.0
  C  C180  1  0.88135000  0.08016000  0.28592000  1.0
  C  C181  1  0.81130000  0.15633000  0.30278000  1.0
  C  C182  1  0.69044000  0.17585000  0.35772000  1.0
  C  C183  1  0.63951000  0.11862000  0.39577000  1.0
  C  C184  1  0.70965000  0.04067000  0.38041000  1.0
  C  C185  1  0.08765000  0.67687000  0.36116000  1.0
  C  C186  1  0.20387000  0.54553000  0.31583000  1.0
  C  C187  1  0.31677000  0.64155000  0.30977000  1.0
  N  N188  1  0.41973000  0.41921000  0.51657000  1.0
  N  N189  1  0.28615000  0.31122000  0.55427000  1.0
  N  N190  1  0.97297000  0.33009000  0.87608000  1.0
  N  N191  1  0.85538000  0.08107000  0.98357000  1.0
  N  N192  1  0.65182000  0.18910000  0.94581000  1.0
  N  N193  1  0.67884000  0.17066000  0.62399000  1.0
  N  N194  1  0.43675000  0.48363000  0.91896000  1.0
  N  N195  1  0.34079000  0.44586000  0.81098000  1.0
  N  N196  1  0.34885000  0.12403000  0.82998000  1.0
  N  N197  1  0.33857000  0.01686000  0.58130000  1.0
  N  N198  1  0.09696000  0.05470000  0.68916000  1.0
  N  N199  1  0.80272000  0.37618000  0.67016000  1.0
  N  N200  1  0.58021000  0.58108000  0.48298000  1.0
  N  N201  1  0.71422000  0.68878000  0.44548000  1.0
  N  N202  1  0.02701000  0.67001000  0.12386000  1.0
  N  N203  1  0.14490000  0.91878000  0.01641000  1.0
  N  N204  1  0.34846000  0.81081000  0.05417000  1.0
  N  N205  1  0.32122000  0.82929000  0.37608000  1.0
  N  N206  1  0.56294000  0.51653000  0.08115000  1.0
  N  N207  1  0.65914000  0.55424000  0.18898000  1.0
  N  N208  1  0.65099000  0.87596000  0.17000000  1.0
  N  N209  1  0.66139000  0.98304000  0.41872000  1.0
  N  N210  1  0.90305000  0.94522000  0.31085000  1.0
  N  N211  1  0.19706000  0.62386000  0.33001000  1.0
  Cl  Cl212  1  0.68893000  0.41061000  0.49732000  1.0
  Cl  Cl213  1  0.09562000  0.08960000  0.00408000  1.0
  Cl  Cl214  1  0.68452000  0.50427000  0.91077000  1.0
  Cl  Cl215  1  0.59964000  0.99629000  0.58957000  1.0
  Cl  Cl216  1  0.31022000  0.59021000  0.50489000  1.0
  Cl  Cl217  1  0.90456000  0.91024000  0.99605000  1.0
  Cl  Cl218  1  0.31484000  0.49606000  0.08917000  1.0
  Cl  Cl219  1  0.40042000  0.00352000  0.41039000  1.0
  O  O220  1  0.37504000  0.43816000  0.64607000  1.0
  O  O221  1  0.24741000  0.33511000  0.68098000  1.0
  O  O222  1  0.13911000  0.38046000  0.83539000  1.0
  O  O223  1  0.95924000  0.06239000  0.85401000  1.0
  O  O224  1  0.76355000  0.16518000  0.81912000  1.0
  O  O225  1  0.85443000  0.12056000  0.66487000  1.0
  O  O226  1  0.52133000  0.35434000  0.93784000  1.0
  O  O227  1  0.42822000  0.31918000  0.83526000  1.0
  O  O228  1  0.47443000  0.16489000  0.88015000  1.0
  O  O229  1  0.31268000  0.14639000  0.56243000  1.0
  O  O230  1  0.08221000  0.18141000  0.66526000  1.0
  O  O231  1  0.01918000  0.33552000  0.61993000  1.0
  O  O232  1  0.62514000  0.56192000  0.35367000  1.0
  O  O233  1  0.75350000  0.66453000  0.31874000  1.0
  O  O234  1  0.86073000  0.61975000  0.16454000  1.0
  O  O235  1  0.04100000  0.93748000  0.14595000  1.0
  O  O236  1  0.23668000  0.83465000  0.18088000  1.0
  O  O237  1  0.14563000  0.87942000  0.33520000  1.0
  O  O238  1  0.47843000  0.64587000  0.06224000  1.0
  O  O239  1  0.57175000  0.68093000  0.16483000  1.0
  O  O240  1  0.52536000  0.83508000  0.11989000  1.0
  O  O241  1  0.68746000  0.85346000  0.43763000  1.0
  O  O242  1  0.91784000  0.81850000  0.33491000  1.0
  O  O243  1  0.98059000  0.66463000  0.38020000  1.0
