# generated using pymatgen
data_TbH22C31N2O7F3
_symmetry_space_group_name_H-M   'P 1'
_cell_length_a   9.58639000
_cell_length_b   12.74250000
_cell_length_c   13.09560000
_cell_angle_alpha   113.79700000
_cell_angle_beta   104.62900000
_cell_angle_gamma   97.05530000
_symmetry_Int_Tables_number   1
_chemical_formula_structural   TbH22C31N2O7F3
_chemical_formula_sum   'Tb2 H44 C62 N4 O14 F6'
_cell_volume   1369.84376043
_cell_formula_units_Z   2
loop_
 _symmetry_equiv_pos_site_id
 _symmetry_equiv_pos_as_xyz
  1  'x, y, z'
loop_
 _atom_site_type_symbol
 _atom_site_label
 _atom_site_symmetry_multiplicity
 _atom_site_fract_x
 _atom_site_fract_y
 _atom_site_fract_z
 _atom_site_occupancy
  Tb  Tb0  1  0.23859000  0.53690000  0.52435000  1.0
  Tb  Tb1  1  0.76142000  0.46310000  0.47566000  1.0
  H  H2  1  0.37261000  0.36867000  0.35840000  1.0
  H  H3  1  0.62739000  0.63133000  0.64160000  1.0
  H  H4  1  0.19634000  0.30558000  0.29488000  1.0
  H  H5  1  0.80365000  0.69442000  0.70512000  1.0
  H  H6  1  0.10297000  0.67771000  0.28893000  1.0
  H  H7  1  0.89703000  0.32230000  0.71107000  1.0
  H  H8  1  0.07429000  0.74853000  0.13388000  1.0
  H  H9  1  0.92570000  0.25147000  0.86611000  1.0
  H  H10  1  0.86422000  0.63447000  0.94073000  1.0
  H  H11  1  0.13577000  0.36551000  0.05926000  1.0
  H  H12  1  0.68547000  0.45468000  0.90824000  1.0
  H  H13  1  0.31453000  0.54531000  0.09176000  1.0
  H  H14  1  0.23449000  0.25208000  0.50009000  1.0
  H  H15  1  0.76551000  0.74794000  0.49992000  1.0
  H  H16  1  0.32410000  0.06979000  0.47652000  1.0
  H  H17  1  0.67590000  0.93022000  0.52348000  1.0
  H  H18  1  0.13828000  0.87364000  0.37671000  1.0
  H  H19  1  0.86172000  0.12636000  0.62329000  1.0
  H  H20  1  0.86648000  0.86181000  0.30352000  1.0
  H  H21  1  0.13353000  0.13819000  0.69648000  1.0
  H  H22  1  0.63978000  0.57837000  0.25361000  1.0
  H  H23  1  0.36023000  0.42163000  0.74639000  1.0
  H  H24  1  0.65630000  0.68206000  0.12979000  1.0
  H  H25  1  0.34370000  0.31793000  0.87020000  1.0
  H  H26  1  0.52814000  0.84541000  0.14739000  1.0
  H  H27  1  0.47186000  0.15458000  0.85260000  1.0
  H  H28  1  0.38308000  0.90028000  0.28834000  1.0
  H  H29  1  0.61691000  0.09971000  0.71166000  1.0
  H  H30  1  0.46742000  0.62049000  0.81587000  1.0
  H  H31  1  0.53258000  0.37951000  0.18413000  1.0
  H  H32  1  0.66148000  0.78291000  0.99612000  1.0
  H  H33  1  0.33852000  0.21709000  0.00388000  1.0
  H  H34  1  0.62523000  0.99872000  0.81200000  1.0
  H  H35  1  0.37477000  0.00127000  0.18800000  1.0
  H  H36  1  0.43146000  0.82674000  0.64030000  1.0
  H  H37  1  0.56853000  0.17326000  0.35970000  1.0
  H  H38  1  0.93982000  0.30038000  0.14458000  1.0
  H  H39  1  0.06017000  0.69962000  0.85542000  1.0
  H  H40  1  0.70965000  0.14933000  0.99624000  1.0
  H  H41  1  0.29034000  0.85067000  0.00375000  1.0
  H  H42  1  0.90212000  0.88744000  0.07096000  1.0
  H  H43  1  0.09787000  0.11256000  0.92904000  1.0
  H  H44  1  0.12151000  0.05136000  0.21952000  1.0
  H  H45  1  0.87849000  0.94864000  0.78048000  1.0
  C  C46  1  0.93226000  0.49900000  0.29001000  1.0
  C  C47  1  0.06775000  0.50101000  0.71000000  1.0
  C  C48  1  0.90918000  0.53322000  0.19010000  1.0
  C  C49  1  0.09083000  0.46678000  0.80990000  1.0
  C  C50  1  0.01017000  0.63263000  0.20583000  1.0
  C  C51  1  0.98983000  0.36737000  0.79417000  1.0
  C  C52  1  0.99395000  0.67080000  0.11865000  1.0
  C  C53  1  0.00605000  0.32920000  0.88134000  1.0
  C  C54  1  0.87677000  0.60773000  0.01117000  1.0
  C  C55  1  0.12322000  0.39226000  0.98883000  1.0
  C  C56  1  0.77590000  0.50728000  0.99186000  1.0
  C  C57  1  0.22411000  0.49271000  0.00813000  1.0
  C  C58  1  0.79350000  0.47288000  0.08152000  1.0
  C  C59  1  0.20651000  0.52712000  0.91848000  1.0
  C  C60  1  0.96212000  0.27582000  0.43765000  1.0
  C  C61  1  0.03788000  0.72418000  0.56236000  1.0
  C  C62  1  0.00461000  0.16173000  0.42040000  1.0
  C  C63  1  0.99539000  0.83827000  0.57961000  1.0
  C  C64  1  0.15663000  0.16543000  0.45883000  1.0
  C  C65  1  0.84337000  0.83458000  0.54118000  1.0
  C  C66  1  0.20555000  0.06357000  0.44360000  1.0
  C  C67  1  0.79445000  0.93644000  0.55640000  1.0
  C  C68  1  0.10138000  0.95360000  0.38732000  1.0
  C  C69  1  0.89862000  0.04640000  0.61268000  1.0
  C  C70  1  0.94977000  0.94630000  0.34686000  1.0
  C  C71  1  0.05023000  0.05370000  0.65314000  1.0
  C  C72  1  0.90395000  0.04989000  0.36473000  1.0
  C  C73  1  0.09605000  0.95012000  0.63528000  1.0
  C  C74  1  0.49439000  0.60894000  0.40713000  1.0
  C  C75  1  0.50561000  0.39106000  0.59288000  1.0
  C  C76  1  0.49899000  0.67557000  0.33534000  1.0
  C  C77  1  0.50102000  0.32443000  0.66466000  1.0
  C  C78  1  0.58171000  0.64760000  0.25741000  1.0
  C  C79  1  0.41830000  0.35240000  0.74259000  1.0
  C  C80  1  0.59193000  0.70691000  0.18970000  1.0
  C  C81  1  0.40807000  0.29309000  0.81029000  1.0
  C  C82  1  0.51949000  0.79745000  0.19900000  1.0
  C  C83  1  0.48051000  0.20255000  0.80100000  1.0
  C  C84  1  0.43824000  0.82843000  0.27635000  1.0
  C  C85  1  0.56176000  0.17156000  0.72365000  1.0
  C  C86  1  0.42991000  0.76788000  0.34325000  1.0
  C  C87  1  0.57010000  0.23212000  0.65675000  1.0
  C  C88  1  0.50589000  0.70608000  0.81912000  1.0
  C  C89  1  0.49411000  0.29392000  0.18088000  1.0
  C  C90  1  0.61386000  0.79754000  0.91960000  1.0
  C  C91  1  0.38614000  0.20246000  0.08040000  1.0
  C  C92  1  0.66131000  0.90635000  0.91995000  1.0
  C  C93  1  0.33868000  0.09365000  0.08005000  1.0
  C  C94  1  0.59193000  0.91709000  0.81788000  1.0
  C  C95  1  0.40806000  0.08291000  0.18212000  1.0
  C  C96  1  0.48532000  0.82122000  0.72110000  1.0
  C  C97  1  0.51467000  0.17877000  0.27889000  1.0
  C  C98  1  0.92764000  0.20760000  0.12539000  1.0
  C  C99  1  0.07235000  0.79240000  0.87461000  1.0
  C  C100  1  0.79877000  0.12211000  0.04161000  1.0
  C  C101  1  0.20122000  0.87789000  0.95838000  1.0
  C  C102  1  0.78623000  0.00293000  0.01782000  1.0
  C  C103  1  0.21376000  0.99707000  0.98218000  1.0
  C  C104  1  0.90396000  0.97800000  0.08522000  1.0
  C  C105  1  0.09604000  0.02200000  0.91478000  1.0
  C  C106  1  0.02836000  0.06945000  0.16719000  1.0
  C  C107  1  0.97164000  0.93055000  0.83281000  1.0
  N  N108  1  0.44336000  0.71609000  0.72037000  1.0
  N  N109  1  0.55664000  0.28390000  0.27962000  1.0
  N  N110  1  0.04280000  0.18269000  0.18664000  1.0
  N  N111  1  0.95719000  0.81731000  0.81336000  1.0
  O  O112  1  0.06682000  0.52130000  0.35225000  1.0
  O  O113  1  0.93319000  0.47872000  0.64775000  1.0
  O  O114  1  0.81780000  0.45381000  0.30481000  1.0
  O  O115  1  0.18221000  0.54619000  0.69519000  1.0
  O  O116  1  0.06679000  0.36481000  0.46700000  1.0
  O  O117  1  0.93320000  0.63519000  0.53300000  1.0
  O  O118  1  0.82740000  0.27929000  0.42373000  1.0
  O  O119  1  0.17260000  0.72072000  0.57628000  1.0
  O  O120  1  0.41392000  0.62954000  0.47258000  1.0
  O  O121  1  0.58608000  0.37046000  0.52742000  1.0
  O  O122  1  0.57479000  0.53563000  0.39736000  1.0
  O  O123  1  0.42521000  0.46437000  0.60264000  1.0
  O  O124  1  0.27351000  0.38203000  0.35158000  1.0
  O  O125  1  0.72649000  0.61797000  0.64842000  1.0
  F  F126  1  0.69479000  0.37240000  0.05861000  1.0
  F  F127  1  0.30521000  0.62760000  0.94140000  1.0
  F  F128  1  0.75474000  0.03785000  0.32210000  1.0
  F  F129  1  0.24526000  0.96215000  0.67791000  1.0
  F  F130  1  0.35357000  0.80512000  0.42064000  1.0
  F  F131  1  0.64644000  0.19488000  0.57936000  1.0
