# generated using pymatgen
data_DyH22C15S3(N3O2)4
_symmetry_space_group_name_H-M   'P 1'
_cell_length_a   9.25297000
_cell_length_b   11.66890000
_cell_length_c   14.26100000
_cell_angle_alpha   67.82310000
_cell_angle_beta   85.04040000
_cell_angle_gamma   84.79340000
_symmetry_Int_Tables_number   1
_chemical_formula_structural   DyH22C15S3(N3O2)4
_chemical_formula_sum   'Dy2 H44 C30 S6 N24 O16'
_cell_volume   1417.71945045
_cell_formula_units_Z   2
loop_
 _symmetry_equiv_pos_site_id
 _symmetry_equiv_pos_as_xyz
  1  'x, y, z'
loop_
 _atom_site_type_symbol
 _atom_site_label
 _atom_site_symmetry_multiplicity
 _atom_site_fract_x
 _atom_site_fract_y
 _atom_site_fract_z
 _atom_site_occupancy
  Dy  Dy0  1  0.79430000  0.96681000  0.00025000  1.0
  Dy  Dy1  1  0.20573000  0.03318000  0.99974000  1.0
  H  H2  1  0.86741000  0.37257000  0.84585000  1.0
  H  H3  1  0.99688000  0.38879000  0.73973000  1.0
  H  H4  1  0.31552000  0.37783000  0.88384000  1.0
  H  H5  1  0.28131000  0.50590000  0.78017000  1.0
  H  H6  1  0.85126000  0.95608000  0.55136000  1.0
  H  H7  1  0.87806000  0.09215000  0.44315000  1.0
  H  H8  1  0.22892000  0.21049000  0.45935000  1.0
  H  H9  1  0.29612000  0.29806000  0.33901000  1.0
  H  H10  1  0.84946000  0.09228000  0.29564000  1.0
  H  H11  1  0.81361000  0.23831000  0.19528000  1.0
  H  H12  1  0.14755000  0.52303000  0.43844000  1.0
  H  H13  1  0.11015000  0.38879000  0.54416000  1.0
  H  H14  1  0.65307000  0.13367000  0.56184000  1.0
  H  H15  1  0.65261000  0.06142000  0.69056000  1.0
  H  H16  1  0.44877000  0.85334000  0.80903000  1.0
  H  H17  1  0.61835000  0.86056000  0.73887000  1.0
  H  H18  1  0.03579000  0.48078000  0.89895000  1.0
  H  H19  1  0.08820000  0.37475000  0.01808000  1.0
  H  H20  1  0.63499000  0.20921000  0.99678000  1.0
  H  H21  1  0.54599000  0.15434000  0.93170000  1.0
  H  H22  1  0.51713000  0.93779000  0.14889000  1.0
  H  H23  1  0.63851000  0.82339000  0.18920000  1.0
  H  H24  1  0.13262000  0.62742000  0.15416000  1.0
  H  H25  1  0.00315000  0.61121000  0.26026000  1.0
  H  H26  1  0.68452000  0.62218000  0.11615000  1.0
  H  H27  1  0.71869000  0.49411000  0.21982000  1.0
  H  H28  1  0.14874000  0.04392000  0.44864000  1.0
  H  H29  1  0.12194000  0.90786000  0.55684000  1.0
  H  H30  1  0.77105000  0.78956000  0.54064000  1.0
  H  H31  1  0.70383000  0.70198000  0.66100000  1.0
  H  H32  1  0.15056000  0.90770000  0.70435000  1.0
  H  H33  1  0.18639000  0.76166000  0.80472000  1.0
  H  H34  1  0.85234000  0.47700000  0.56157000  1.0
  H  H35  1  0.88974000  0.61123000  0.45584000  1.0
  H  H36  1  0.34692000  0.86633000  0.43816000  1.0
  H  H37  1  0.34738000  0.93859000  0.30944000  1.0
  H  H38  1  0.55122000  0.14666000  0.19100000  1.0
  H  H39  1  0.38164000  0.13946000  0.26113000  1.0
  H  H40  1  0.96425000  0.51920000  0.10106000  1.0
  H  H41  1  0.91184000  0.62523000  0.98193000  1.0
  H  H42  1  0.36504000  0.79079000  0.00323000  1.0
  H  H43  1  0.45404000  0.84566000  0.06830000  1.0
  H  H44  1  0.48290000  0.06223000  0.85110000  1.0
  H  H45  1  0.36152000  0.17663000  0.81080000  1.0
  C  C46  1  0.92720000  0.09618000  0.14821000  1.0
  C  C47  1  0.89324000  0.20710000  0.67523000  1.0
  C  C48  1  0.01556000  0.21848000  0.86694000  1.0
  C  C49  1  0.92490000  0.32591000  0.79761000  1.0
  C  C50  1  0.92756000  0.02888000  0.51317000  1.0
  C  C51  1  0.99678000  0.30468000  0.31390000  1.0
  C  C52  1  0.89352000  0.15994000  0.22419000  1.0
  C  C53  1  0.94574000  0.09768000  0.57970000  1.0
  C  C54  1  0.00084000  0.40993000  0.41346000  1.0
  C  C55  1  0.05922000  0.46355000  0.48057000  1.0
  C  C56  1  0.56336000  0.81783000  0.81420000  1.0
  C  C57  1  0.63369000  0.86058000  0.88700000  1.0
  C  C58  1  0.40775000  0.61899000  0.90927000  1.0
  C  C59  1  0.19436000  0.54347000  0.96272000  1.0
  C  C60  1  0.06361000  0.47404000  0.97439000  1.0
  C  C61  1  0.07282000  0.90380000  0.85180000  1.0
  C  C62  1  0.10678000  0.79290000  0.32477000  1.0
  C  C63  1  0.98446000  0.78152000  0.13306000  1.0
  C  C64  1  0.07513000  0.67409000  0.20239000  1.0
  C  C65  1  0.07243000  0.97112000  0.48682000  1.0
  C  C66  1  0.00317000  0.69533000  0.68608000  1.0
  C  C67  1  0.10649000  0.84005000  0.77581000  1.0
  C  C68  1  0.05426000  0.90231000  0.42030000  1.0
  C  C69  1  0.99906000  0.59007000  0.58653000  1.0
  C  C70  1  0.94067000  0.53648000  0.51942000  1.0
  C  C71  1  0.43664000  0.18219000  0.18581000  1.0
  C  C72  1  0.36634000  0.13941000  0.11301000  1.0
  C  C73  1  0.59227000  0.38101000  0.09073000  1.0
  C  C74  1  0.80567000  0.45651000  0.03728000  1.0
  C  C75  1  0.93642000  0.52594000  0.02563000  1.0
  S  S76  1  0.06236000  0.21548000  0.24320000  1.0
  S  S77  1  0.57309000  0.65288000  0.84043000  1.0
  S  S78  1  0.78297000  0.28147000  0.74214000  1.0
  S  S79  1  0.93763000  0.78451000  0.75681000  1.0
  S  S80  1  0.42691000  0.34714000  0.15956000  1.0
  S  S81  1  0.21705000  0.71854000  0.25786000  1.0
  N  N82  1  0.31650000  0.53645000  0.90222000  1.0
  N  N83  1  0.21077000  0.62437000  0.00479000  1.0
  N  N84  1  0.08615000  0.33475000  0.37325000  1.0
  N  N85  1  0.03682000  0.19609000  0.66380000  1.0
  N  N86  1  0.34559000  0.67149000  0.97171000  1.0
  N  N87  1  0.83166000  0.14607000  0.62473000  1.0
  N  N88  1  0.34503000  0.46601000  0.84157000  1.0
  N  N89  1  0.22827000  0.29467000  0.40011000  1.0
  N  N90  1  0.06920000  0.12828000  0.60137000  1.0
  N  N91  1  0.86805000  0.42452000  0.38178000  1.0
  N  N92  1  0.86573000  0.35970000  0.31706000  1.0
  N  N93  1  0.68188000  0.13704000  0.62800000  1.0
  N  N94  1  0.68352000  0.46355000  0.09778000  1.0
  N  N95  1  0.78926000  0.37561000  0.99523000  1.0
  N  N96  1  0.91377000  0.66527000  0.62675000  1.0
  N  N97  1  0.96320000  0.80389000  0.33620000  1.0
  N  N98  1  0.65443000  0.32850000  0.02830000  1.0
  N  N99  1  0.16835000  0.85393000  0.37527000  1.0
  N  N100  1  0.65499000  0.53401000  0.15842000  1.0
  N  N101  1  0.77167000  0.70539000  0.59989000  1.0
  N  N102  1  0.93080000  0.87171000  0.39863000  1.0
  N  N103  1  0.13185000  0.57547000  0.61820000  1.0
  N  N104  1  0.13421000  0.64029000  0.68292000  1.0
  N  N105  1  0.31812000  0.86297000  0.37200000  1.0
  O  O106  1  0.82247000  0.04959000  0.12697000  1.0
  O  O107  1  0.95906000  0.11740000  0.92364000  1.0
  O  O108  1  0.14861000  0.23196000  0.87156000  1.0
  O  O109  1  0.05852000  0.09575000  0.11406000  1.0
  O  O110  1  0.68316000  0.78815000  0.96870000  1.0
  O  O111  1  0.64015000  0.97971000  0.85698000  1.0
  O  O112  1  0.62902000  0.13609000  0.97498000  1.0
  O  O113  1  0.59522000  0.88449000  0.12909000  1.0
  O  O114  1  0.17756000  0.95038000  0.87304000  1.0
  O  O115  1  0.04097000  0.88260000  0.07635000  1.0
  O  O116  1  0.85142000  0.76804000  0.12843000  1.0
  O  O117  1  0.94151000  0.90424000  0.88594000  1.0
  O  O118  1  0.31688000  0.21184000  0.03130000  1.0
  O  O119  1  0.35988000  0.02027000  0.14303000  1.0
  O  O120  1  0.37101000  0.86391000  0.02502000  1.0
  O  O121  1  0.40481000  0.11551000  0.87090000  1.0
