# generated using pymatgen
data_CsAgH12C4S4(NO4)2
_symmetry_space_group_name_H-M   'P 1'
_cell_length_a   5.41763000
_cell_length_b   10.16039097
_cell_length_c   14.84220303
_cell_angle_alpha   78.48112305
_cell_angle_beta   79.50455013
_cell_angle_gamma   74.54431577
_symmetry_Int_Tables_number   1
_chemical_formula_structural   CsAgH12C4S4(NO4)2
_chemical_formula_sum   'Cs2 Ag2 H24 C8 S8 N4 O16'
_cell_volume   764.36250283
_cell_formula_units_Z   2
loop_
 _symmetry_equiv_pos_site_id
 _symmetry_equiv_pos_as_xyz
  1  'x, y, z'
loop_
 _atom_site_type_symbol
 _atom_site_label
 _atom_site_symmetry_multiplicity
 _atom_site_fract_x
 _atom_site_fract_y
 _atom_site_fract_z
 _atom_site_occupancy
  Cs  Cs0  1  0.16165000  0.24978000  0.74989000  1.0
  Cs  Cs1  1  0.83834000  0.75022000  0.25012000  1.0
  Ag  Ag2  1  0.99997000  0.50001000  0.50000000  1.0
  Ag  Ag3  1  0.99997000  0.00000000  0.00001000  1.0
  H  H4  1  0.76699000  0.06139000  0.52926000  1.0
  H  H5  1  0.35718000  0.43892000  0.97082000  1.0
  H  H6  1  0.23305000  0.93863000  0.47073000  1.0
  H  H7  1  0.64283000  0.56106000  0.02917000  1.0
  H  H8  1  0.72663000  0.23458000  0.55355000  1.0
  H  H9  1  0.51516000  0.26596000  0.94637000  1.0
  H  H10  1  0.27343000  0.76542000  0.44644000  1.0
  H  H11  1  0.48480000  0.73403000  0.05364000  1.0
  H  H12  1  0.86261000  0.19499000  0.43970000  1.0
  H  H13  1  0.49731000  0.30535000  0.06033000  1.0
  H  H14  1  0.13739000  0.80502000  0.56030000  1.0
  H  H15  1  0.50267000  0.69464000  0.93967000  1.0
  H  H16  1  0.46960000  0.45201000  0.17896000  1.0
  H  H17  1  0.10197000  0.04821000  0.32087000  1.0
  H  H18  1  0.53041000  0.54799000  0.82103000  1.0
  H  H19  1  0.89806000  0.95178000  0.67912000  1.0
  H  H20  1  0.17447000  0.42284000  0.25147000  1.0
  H  H21  1  0.84985000  0.07729000  0.24843000  1.0
  H  H22  1  0.82554000  0.57716000  0.74852000  1.0
  H  H23  1  0.15015000  0.92270000  0.75159000  1.0
  H  H24  1  0.46196000  0.28557000  0.24779000  1.0
  H  H25  1  0.99671000  0.21450000  0.25190000  1.0
  H  H26  1  0.53808000  0.71444000  0.75220000  1.0
  H  H27  1  0.00330000  0.78550000  0.74812000  1.0
  C  C28  1  0.72645000  0.17219000  0.50135000  1.0
  C  C29  1  0.40011000  0.32812000  0.99864000  1.0
  C  C30  1  0.27356000  0.82783000  0.49865000  1.0
  C  C31  1  0.59990000  0.67187000  0.00136000  1.0
  C  C32  1  0.38610000  0.39747000  0.24380000  1.0
  C  C33  1  0.02854000  0.10264000  0.25603000  1.0
  C  C34  1  0.61391000  0.60253000  0.75620000  1.0
  C  C35  1  0.97144000  0.89737000  0.74398000  1.0
  S  S36  1  0.41296000  0.21424000  0.46949000  1.0
  S  S37  1  0.09705000  0.28564000  0.03035000  1.0
  S  S38  1  0.58706000  0.78576000  0.53050000  1.0
  S  S39  1  0.90294000  0.71437000  0.96965000  1.0
  S  S40  1  0.48075000  0.45263000  0.33548000  1.0
  S  S41  1  0.26975000  0.04723000  0.16435000  1.0
  S  S42  1  0.51929000  0.54734000  0.66452000  1.0
  S  S43  1  0.73024000  0.95277000  0.83565000  1.0
  N  N44  1  0.34099000  0.38198000  0.43279000  1.0
  N  N45  1  0.15675000  0.11785000  0.06699000  1.0
  N  N46  1  0.65899000  0.61802000  0.56720000  1.0
  N  N47  1  0.84322000  0.88214000  0.93301000  1.0
  O  O48  1  0.23202000  0.19547000  0.55385000  1.0
  O  O49  1  0.98202000  0.30420000  0.94592000  1.0
  O  O50  1  0.76803000  0.80453000  0.44614000  1.0
  O  O51  1  0.01794000  0.69579000  0.05409000  1.0
  O  O52  1  0.41582000  0.13618000  0.39697000  1.0
  O  O53  1  0.94914000  0.36358000  0.10287000  1.0
  O  O54  1  0.58420000  0.86382000  0.60302000  1.0
  O  O55  1  0.05086000  0.63641000  0.89714000  1.0
  O  O56  1  0.36689000  0.60134000  0.32978000  1.0
  O  O57  1  0.29807000  0.89861000  0.17012000  1.0
  O  O58  1  0.63305000  0.39869000  0.67022000  1.0
  O  O59  1  0.70191000  0.10138000  0.82989000  1.0
  O  O60  1  0.76183000  0.41002000  0.32932000  1.0
  O  O61  1  0.50235000  0.08961000  0.17046000  1.0
  O  O62  1  0.23818000  0.58999000  0.67068000  1.0
  O  O63  1  0.49764000  0.91038000  0.82954000  1.0
