# generated using pymatgen
data_EuH13C23N4O7
_symmetry_space_group_name_H-M   'P 1'
_cell_length_a   13.12150000
_cell_length_b   13.12150000
_cell_length_c   15.13120000
_cell_angle_alpha   93.11660000
_cell_angle_beta   93.12790000
_cell_angle_gamma   117.73600000
_symmetry_Int_Tables_number   1
_chemical_formula_structural   EuH13C23N4O7
_chemical_formula_sum   'Eu4 H52 C92 N16 O28'
_cell_volume   2293.03086410
_cell_formula_units_Z   4
loop_
 _symmetry_equiv_pos_site_id
 _symmetry_equiv_pos_as_xyz
  1  'x, y, z'
loop_
 _atom_site_type_symbol
 _atom_site_label
 _atom_site_symmetry_multiplicity
 _atom_site_fract_x
 _atom_site_fract_y
 _atom_site_fract_z
 _atom_site_occupancy
  Eu  Eu0  1  0.10011000  0.38468000  0.58018000  1.0
  Eu  Eu1  1  0.61533000  0.89990000  0.91983000  1.0
  Eu  Eu2  1  0.89989000  0.61532000  0.41982000  1.0
  Eu  Eu3  1  0.38467000  0.10010000  0.08017000  1.0
  H  H4  1  0.17324000  0.74297000  0.37662000  1.0
  H  H5  1  0.25702000  0.82677000  0.12338000  1.0
  H  H6  1  0.82676000  0.25703000  0.62338000  1.0
  H  H7  1  0.74298000  0.17323000  0.87662000  1.0
  H  H8  1  0.34393000  0.93521000  0.36009000  1.0
  H  H9  1  0.06479000  0.65607000  0.13991000  1.0
  H  H10  1  0.65607000  0.06479000  0.63991000  1.0
  H  H11  1  0.93521000  0.34393000  0.86009000  1.0
  H  H12  1  0.31002000  0.10758000  0.34821000  1.0
  H  H13  1  0.89242000  0.68998000  0.15179000  1.0
  H  H14  1  0.68998000  0.89242000  0.65179000  1.0
  H  H15  1  0.10758000  0.31002000  0.84821000  1.0
  H  H16  1  0.11192000  0.08278000  0.35400000  1.0
  H  H17  1  0.91722000  0.88808000  0.14600000  1.0
  H  H18  1  0.88808000  0.91722000  0.64600000  1.0
  H  H19  1  0.08278000  0.11192000  0.85400000  1.0
  H  H20  1  0.94920000  0.05124000  0.35667000  1.0
  H  H21  1  0.94876000  0.05081000  0.14334000  1.0
  H  H22  1  0.05080000  0.94876000  0.64333000  1.0
  H  H23  1  0.05124000  0.94919000  0.85666000  1.0
  H  H24  1  0.59388000  0.79917000  0.35948000  1.0
  H  H25  1  0.20084000  0.40612000  0.14052000  1.0
  H  H26  1  0.40612000  0.20083000  0.64052000  1.0
  H  H27  1  0.79916000  0.59388000  0.85948000  1.0
  H  H28  1  0.48321000  0.63019000  0.33037000  1.0
  H  H29  1  0.36982000  0.51678000  0.16963000  1.0
  H  H30  1  0.51679000  0.36981000  0.66963000  1.0
  H  H31  1  0.63018000  0.48322000  0.83037000  1.0
  H  H32  1  0.34655000  0.42690000  0.35258000  1.0
  H  H33  1  0.57311000  0.65345000  0.14742000  1.0
  H  H34  1  0.65345000  0.57310000  0.64742000  1.0
  H  H35  1  0.42689000  0.34655000  0.85258000  1.0
  H  H36  1  0.42691000  0.30080000  0.41235000  1.0
  H  H37  1  0.69920000  0.57309000  0.08765000  1.0
  H  H38  1  0.57309000  0.69920000  0.58765000  1.0
  H  H39  1  0.30080000  0.42691000  0.91235000  1.0
  H  H40  1  0.64190000  0.38634000  0.44446000  1.0
  H  H41  1  0.61365000  0.35810000  0.05554000  1.0
  H  H42  1  0.35810000  0.61366000  0.55554000  1.0
  H  H43  1  0.38635000  0.64190000  0.94446000  1.0
  H  H44  1  0.87943000  0.15171000  0.43554000  1.0
  H  H45  1  0.84829000  0.12059000  0.06447000  1.0
  H  H46  1  0.12057000  0.84829000  0.56446000  1.0
  H  H47  1  0.15171000  0.87941000  0.93553000  1.0
  H  H48  1  0.64862000  0.27572000  0.33581000  1.0
  H  H49  1  0.72427000  0.35137000  0.16418000  1.0
  H  H50  1  0.35138000  0.72427000  0.66419000  1.0
  H  H51  1  0.27573000  0.64863000  0.83582000  1.0
  H  H52  1  0.57794000  0.92887000  0.25612000  1.0
  H  H53  1  0.07114000  0.42206000  0.24389000  1.0
  H  H54  1  0.42206000  0.07113000  0.74388000  1.0
  H  H55  1  0.92885000  0.57794000  0.75611000  1.0
  C  C56  1  0.16374000  0.82080000  0.37204000  1.0
  C  C57  1  0.17920000  0.83627000  0.12795000  1.0
  C  C58  1  0.83626000  0.17920000  0.62796000  1.0
  C  C59  1  0.82080000  0.16373000  0.87205000  1.0
  C  C60  1  0.25804000  0.92770000  0.36340000  1.0
  C  C61  1  0.07230000  0.74196000  0.13660000  1.0
  C  C62  1  0.74196000  0.07230000  0.63660000  1.0
  C  C63  1  0.92770000  0.25804000  0.86340000  1.0
  C  C64  1  0.23876000  0.02310000  0.35747000  1.0
  C  C65  1  0.97690000  0.76124000  0.14253000  1.0
  C  C66  1  0.76124000  0.97690000  0.64253000  1.0
  C  C67  1  0.02310000  0.23876000  0.85747000  1.0
  C  C68  1  0.12675000  0.00833000  0.35959000  1.0
  C  C69  1  0.99167000  0.87325000  0.14041000  1.0
  C  C70  1  0.87325000  0.99167000  0.64041000  1.0
  C  C71  1  0.00833000  0.12675000  0.85959000  1.0
  C  C72  1  0.03568000  0.89756000  0.36682000  1.0
  C  C73  1  0.10244000  0.96433000  0.13318000  1.0
  C  C74  1  0.96432000  0.10244000  0.63318000  1.0
  C  C75  1  0.89756000  0.03567000  0.86682000  1.0
  C  C76  1  0.91314000  0.87355000  0.36422000  1.0
  C  C77  1  0.12645000  0.08686000  0.13577000  1.0
  C  C78  1  0.08686000  0.12645000  0.63578000  1.0
  C  C79  1  0.87355000  0.91314000  0.86423000  1.0
  C  C80  1  0.88289000  0.96219000  0.35850000  1.0
  C  C81  1  0.03782000  0.11711000  0.14150000  1.0
  C  C82  1  0.11711000  0.03781000  0.64150000  1.0
  C  C83  1  0.96218000  0.88289000  0.85850000  1.0
  C  C84  1  0.76643000  0.93644000  0.35487000  1.0
  C  C85  1  0.06357000  0.23358000  0.14514000  1.0
  C  C86  1  0.23357000  0.06356000  0.64513000  1.0
  C  C87  1  0.93643000  0.76642000  0.85486000  1.0
  C  C88  1  0.68470000  0.82136000  0.35914000  1.0
  C  C89  1  0.17864000  0.31530000  0.14086000  1.0
  C  C90  1  0.31530000  0.17864000  0.64086000  1.0
  C  C91  1  0.82136000  0.68470000  0.85914000  1.0
  C  C92  1  0.72021000  0.73672000  0.36551000  1.0
  C  C93  1  0.26328000  0.27979000  0.13448000  1.0
  C  C94  1  0.27979000  0.26328000  0.63449000  1.0
  C  C95  1  0.73672000  0.72022000  0.86552000  1.0
  C  C96  1  0.63509000  0.61540000  0.37517000  1.0
  C  C97  1  0.38460000  0.36491000  0.12483000  1.0
  C  C98  1  0.36491000  0.38460000  0.62483000  1.0
  C  C99  1  0.61540000  0.63509000  0.87517000  1.0
  C  C100  1  0.51609000  0.57434000  0.35622000  1.0
  C  C101  1  0.42566000  0.48391000  0.14378000  1.0
  C  C102  1  0.48391000  0.42566000  0.64378000  1.0
  C  C103  1  0.57434000  0.51609000  0.85622000  1.0
  C  C104  1  0.43914000  0.46036000  0.36855000  1.0
  C  C105  1  0.53965000  0.56085000  0.13145000  1.0
  C  C106  1  0.56086000  0.53964000  0.63145000  1.0
  C  C107  1  0.46035000  0.43915000  0.86855000  1.0
  C  C108  1  0.48336000  0.39047000  0.40126000  1.0
  C  C109  1  0.60953000  0.51664000  0.09874000  1.0
  C  C110  1  0.51664000  0.60953000  0.59874000  1.0
  C  C111  1  0.39047000  0.48336000  0.90126000  1.0
  C  C112  1  0.60264000  0.43717000  0.41894000  1.0
  C  C113  1  0.56283000  0.39736000  0.08106000  1.0
  C  C114  1  0.39736000  0.56283000  0.58106000  1.0
  C  C115  1  0.43717000  0.60264000  0.91894000  1.0
  C  C116  1  0.73151000  0.02772000  0.34861000  1.0
  C  C117  1  0.97229000  0.26850000  0.15140000  1.0
  C  C118  1  0.26849000  0.97228000  0.65139000  1.0
  C  C119  1  0.02771000  0.73150000  0.84860000  1.0
  C  C120  1  0.80100000  0.13565000  0.39554000  1.0
  C  C121  1  0.86435000  0.19901000  0.10447000  1.0
  C  C122  1  0.19900000  0.86435000  0.60446000  1.0
  C  C123  1  0.13565000  0.80099000  0.89554000  1.0
  C  C124  1  0.77140000  0.22473000  0.39256000  1.0
  C  C125  1  0.77527000  0.22860000  0.10744000  1.0
  C  C126  1  0.22860000  0.77527000  0.60744000  1.0
  C  C127  1  0.22473000  0.77140000  0.89256000  1.0
  C  C128  1  0.67113000  0.20616000  0.34153000  1.0
  C  C129  1  0.79384000  0.32887000  0.15847000  1.0
  C  C130  1  0.32887000  0.79385000  0.65847000  1.0
  C  C131  1  0.20616000  0.67113000  0.84153000  1.0
  C  C132  1  0.60084000  0.09899000  0.29397000  1.0
  C  C133  1  0.90102000  0.39916000  0.20603000  1.0
  C  C134  1  0.39916000  0.90101000  0.70603000  1.0
  C  C135  1  0.09898000  0.60084000  0.79397000  1.0
  C  C136  1  0.63110000  0.00978000  0.29723000  1.0
  C  C137  1  0.99023000  0.36891000  0.20278000  1.0
  C  C138  1  0.36890000  0.99022000  0.70277000  1.0
  C  C139  1  0.00977000  0.63109000  0.79722000  1.0
  C  C140  1  0.84988000  0.33977000  0.44268000  1.0
  C  C141  1  0.66022000  0.15012000  0.05732000  1.0
  C  C142  1  0.15011000  0.66023000  0.55732000  1.0
  C  C143  1  0.33978000  0.84989000  0.94268000  1.0
  C  C144  1  0.49818000  0.08350000  0.23451000  1.0
  C  C145  1  0.91650000  0.50180000  0.26549000  1.0
  C  C146  1  0.50182000  0.91650000  0.76549000  1.0
  C  C147  1  0.08350000  0.49820000  0.73451000  1.0
  N  N148  1  0.05544000  0.80578000  0.37413000  1.0
  N  N149  1  0.19421000  0.94456000  0.12587000  1.0
  N  N150  1  0.94456000  0.19422000  0.62587000  1.0
  N  N151  1  0.80579000  0.05544000  0.87413000  1.0
  N  N152  1  0.83259000  0.76205000  0.36721000  1.0
  N  N153  1  0.23795000  0.16741000  0.13279000  1.0
  N  N154  1  0.16741000  0.23795000  0.63279000  1.0
  N  N155  1  0.76205000  0.83259000  0.86721000  1.0
  N  N156  1  0.67755000  0.54624000  0.40525000  1.0
  N  N157  1  0.45375000  0.32244000  0.09475000  1.0
  N  N158  1  0.32245000  0.45376000  0.59475000  1.0
  N  N159  1  0.54625000  0.67756000  0.90525000  1.0
  N  N160  1  0.13763000  0.30382000  0.40413000  1.0
  N  N161  1  0.69619000  0.86237000  0.09588000  1.0
  N  N162  1  0.86237000  0.69618000  0.59587000  1.0
  N  N163  1  0.30382000  0.13763000  0.90412000  1.0
  O  O164  1  0.93941000  0.35085000  0.48712000  1.0
  O  O165  1  0.64915000  0.06060000  0.01288000  1.0
  O  O166  1  0.06060000  0.64915000  0.51288000  1.0
  O  O167  1  0.35085000  0.93939000  0.98712000  1.0
  O  O168  1  0.82058000  0.41907000  0.43695000  1.0
  O  O169  1  0.58092000  0.17941000  0.06304000  1.0
  O  O170  1  0.17942000  0.58092000  0.56305000  1.0
  O  O171  1  0.41909000  0.82059000  0.93696000  1.0
  O  O172  1  0.46894000  0.16418000  0.23570000  1.0
  O  O173  1  0.83581000  0.53104000  0.26429000  1.0
  O  O174  1  0.53107000  0.83582000  0.76430000  1.0
  O  O175  1  0.16419000  0.46896000  0.73571000  1.0
  O  O176  1  0.44598000  0.99296000  0.18015000  1.0
  O  O177  1  0.00704000  0.55400000  0.31986000  1.0
  O  O178  1  0.55402000  0.00704000  0.81985000  1.0
  O  O179  1  0.99296000  0.44600000  0.68015000  1.0
  O  O180  1  0.17156000  0.41073000  0.42588000  1.0
  O  O181  1  0.58928000  0.82843000  0.07412000  1.0
  O  O182  1  0.82844000  0.58927000  0.57412000  1.0
  O  O183  1  0.41072000  0.17156000  0.92588000  1.0
  O  O184  1  0.08341000  0.23215000  0.46066000  1.0
  O  O185  1  0.76785000  0.91659000  0.03935000  1.0
  O  O186  1  0.91659000  0.76785000  0.53934000  1.0
  O  O187  1  0.23215000  0.08341000  0.96065000  1.0
  O  O188  1  0.15690000  0.26958000  0.33173000  1.0
  O  O189  1  0.73044000  0.84310000  0.16829000  1.0
  O  O190  1  0.84310000  0.73042000  0.66828000  1.0
  O  O191  1  0.26956000  0.15690000  0.83170000  1.0
