# generated using pymatgen
data_CuH2C12(N2Cl)2
_symmetry_space_group_name_H-M   'P 1'
_cell_length_a   3.64539000
_cell_length_b   11.28922229
_cell_length_c   13.47280000
_cell_angle_alpha   90.80567672
_cell_angle_beta   90.06900000
_cell_angle_gamma   99.25664248
_symmetry_Int_Tables_number   1
_chemical_formula_structural   CuH2C12(N2Cl)2
_chemical_formula_sum   'Cu2 H4 C24 N8 Cl4'
_cell_volume   547.17672974
_cell_formula_units_Z   2
loop_
 _symmetry_equiv_pos_site_id
 _symmetry_equiv_pos_as_xyz
  1  'x, y, z'
loop_
 _atom_site_type_symbol
 _atom_site_label
 _atom_site_symmetry_multiplicity
 _atom_site_fract_x
 _atom_site_fract_y
 _atom_site_fract_z
 _atom_site_occupancy
  Cu  Cu0  1  0.89831000  0.99996000  0.24991000  1.0
  Cu  Cu1  1  0.10171000  0.00004000  0.75009000  1.0
  H  H2  1  0.81911000  0.61312000  0.14554000  1.0
  H  H3  1  0.20616000  0.38701000  0.35441000  1.0
  H  H4  1  0.18088000  0.38687000  0.85446000  1.0
  H  H5  1  0.79382000  0.61299000  0.64559000  1.0
  C  C6  1  0.81052000  0.16453000  0.07872000  1.0
  C  C7  1  0.64896000  0.83566000  0.42136000  1.0
  C  C8  1  0.18950000  0.83547000  0.92128000  1.0
  C  C9  1  0.35104000  0.16434000  0.57864000  1.0
  C  C10  1  0.88786000  0.24103000  0.99804000  1.0
  C  C11  1  0.64908000  0.75914000  0.50203000  1.0
  C  C12  1  0.11214000  0.75897000  0.00197000  1.0
  C  C13  1  0.35091000  0.24086000  0.49796000  1.0
  C  C14  1  0.94133000  0.37054000  0.00175000  1.0
  C  C15  1  0.57181000  0.62951000  0.49819000  1.0
  C  C16  1  0.05867000  0.62946000  0.99825000  1.0
  C  C17  1  0.42817000  0.37049000  0.50181000  1.0
  C  C18  1  0.84878000  0.44047000  0.08385000  1.0
  C  C19  1  0.40892000  0.55967000  0.41611000  1.0
  C  C20  1  0.15122000  0.55953000  0.91615000  1.0
  C  C21  1  0.59105000  0.44033000  0.58389000  1.0
  C  C22  1  0.90487000  0.56438000  0.08150000  1.0
  C  C23  1  0.34064000  0.43572000  0.41848000  1.0
  C  C24  1  0.09513000  0.43562000  0.91850000  1.0
  C  C25  1  0.65934000  0.56428000  0.58152000  1.0
  C  C26  1  0.92254000  0.17964000  0.90830000  1.0
  C  C27  1  0.74341000  0.82048000  0.59183000  1.0
  C  C28  1  0.07746000  0.82036000  0.09170000  1.0
  C  C29  1  0.25659000  0.17952000  0.40817000  1.0
  N  N30  1  0.74910000  0.09289000  0.14147000  1.0
  N  N31  1  0.65736000  0.90712000  0.35849000  1.0
  N  N32  1  0.25091000  0.90711000  0.85853000  1.0
  N  N33  1  0.34265000  0.09288000  0.64151000  1.0
  N  N34  1  0.93322000  0.12347000  0.83462000  1.0
  N  N35  1  0.80801000  0.87682000  0.66555000  1.0
  N  N36  1  0.06680000  0.87654000  0.16538000  1.0
  N  N37  1  0.19200000  0.12318000  0.33445000  1.0
  Cl  Cl38  1  0.65279000  0.37208000  0.18912000  1.0
  Cl  Cl39  1  0.27929000  0.62799000  0.31082000  1.0
  Cl  Cl40  1  0.34723000  0.62791000  0.81088000  1.0
  Cl  Cl41  1  0.72071000  0.37201000  0.68917000  1.0
