# generated using pymatgen
data_CuH10C10(NO)4
_symmetry_space_group_name_H-M   'P 1'
_cell_length_a   7.45595000
_cell_length_b   11.34470000
_cell_length_c   13.76650000
_cell_angle_alpha   89.99890000
_cell_angle_beta   90.00050000
_cell_angle_gamma   89.99930000
_symmetry_Int_Tables_number   1
_chemical_formula_structural   CuH10C10(NO)4
_chemical_formula_sum   'Cu4 H40 C40 N16 O16'
_cell_volume   1164.44650519
_cell_formula_units_Z   4
loop_
 _symmetry_equiv_pos_site_id
 _symmetry_equiv_pos_as_xyz
  1  'x, y, z'
loop_
 _atom_site_type_symbol
 _atom_site_label
 _atom_site_symmetry_multiplicity
 _atom_site_fract_x
 _atom_site_fract_y
 _atom_site_fract_z
 _atom_site_occupancy
  Cu  Cu0  1  0.00001000  0.50000000  0.50000000  1.0
  Cu  Cu1  1  0.99999000  0.00000000  0.00000000  1.0
  Cu  Cu2  1  0.49999000  0.50000000  0.00000000  1.0
  Cu  Cu3  1  0.50000000  0.00000000  0.50000000  1.0
  H  H4  1  0.71195000  0.70270000  0.73211000  1.0
  H  H5  1  0.28805000  0.79730000  0.23209000  1.0
  H  H6  1  0.21195000  0.29730000  0.76789000  1.0
  H  H7  1  0.78805000  0.20270000  0.26790000  1.0
  H  H8  1  0.28804000  0.29730000  0.26790000  1.0
  H  H9  1  0.71193000  0.20270000  0.76789000  1.0
  H  H10  1  0.78806000  0.70270000  0.23211000  1.0
  H  H11  1  0.21195000  0.79731000  0.73210000  1.0
  H  H12  1  0.73728000  0.56225000  0.78792000  1.0
  H  H13  1  0.26275000  0.93775000  0.28791000  1.0
  H  H14  1  0.23727000  0.43774000  0.71208000  1.0
  H  H15  1  0.76276000  0.06225000  0.21209000  1.0
  H  H16  1  0.26272000  0.43774000  0.21208000  1.0
  H  H17  1  0.73725000  0.06225000  0.71209000  1.0
  H  H18  1  0.76274000  0.56225000  0.28791000  1.0
  H  H19  1  0.23726000  0.93776000  0.78791000  1.0
  H  H20  1  0.82137000  0.87595000  0.81446000  1.0
  H  H21  1  0.17863000  0.62405000  0.31445000  1.0
  H  H22  1  0.32138000  0.12404000  0.68554000  1.0
  H  H23  1  0.67862000  0.37595000  0.18554000  1.0
  H  H24  1  0.17861000  0.12404000  0.18555000  1.0
  H  H25  1  0.82137000  0.37595000  0.68554000  1.0
  H  H26  1  0.67863000  0.87595000  0.31446000  1.0
  H  H27  1  0.32137000  0.62406000  0.81446000  1.0
  H  H28  1  0.12267000  0.72968000  0.04556000  1.0
  H  H29  1  0.87735000  0.77032000  0.54556000  1.0
  H  H30  1  0.62266000  0.27032000  0.45444000  1.0
  H  H31  1  0.37732000  0.22968000  0.95444000  1.0
  H  H32  1  0.87733000  0.27031000  0.95444000  1.0
  H  H33  1  0.12268000  0.22968000  0.45445000  1.0
  H  H34  1  0.37733000  0.72968000  0.54555000  1.0
  H  H35  1  0.62266000  0.77033000  0.04556000  1.0
  H  H36  1  0.01537000  0.55088000  0.92040000  1.0
  H  H37  1  0.98466000  0.94912000  0.42038000  1.0
  H  H38  1  0.51538000  0.44911000  0.57961000  1.0
  H  H39  1  0.48464000  0.05088000  0.07962000  1.0
  H  H40  1  0.98463000  0.44911000  0.07961000  1.0
  H  H41  1  0.01536000  0.05088000  0.57962000  1.0
  H  H42  1  0.48463000  0.55088000  0.42038000  1.0
  H  H43  1  0.51537000  0.94913000  0.92038000  1.0
  C  C44  1  0.93875000  0.60275000  0.68162000  1.0
  C  C45  1  0.06127000  0.89727000  0.18161000  1.0
  C  C46  1  0.43873000  0.39726000  0.81838000  1.0
  C  C47  1  0.56127000  0.10273000  0.31838000  1.0
  C  C48  1  0.06126000  0.39726000  0.31838000  1.0
  C  C49  1  0.93872000  0.10274000  0.81839000  1.0
  C  C50  1  0.56127000  0.60274000  0.18162000  1.0
  C  C51  1  0.43873000  0.89727000  0.68161000  1.0
  C  C52  1  0.81010000  0.64076000  0.76255000  1.0
  C  C53  1  0.18991000  0.85925000  0.26254000  1.0
  C  C54  1  0.31009000  0.35924000  0.73745000  1.0
  C  C55  1  0.68991000  0.14075000  0.23745000  1.0
  C  C56  1  0.18990000  0.35924000  0.23745000  1.0
  C  C57  1  0.81008000  0.14076000  0.73745000  1.0
  C  C58  1  0.68991000  0.64076000  0.26255000  1.0
  C  C59  1  0.31009000  0.85925000  0.76254000  1.0
  C  C60  1  0.89328000  0.81519000  0.86092000  1.0
  C  C61  1  0.10673000  0.68482000  0.36091000  1.0
  C  C62  1  0.39328000  0.18481000  0.63909000  1.0
  C  C63  1  0.60672000  0.31518000  0.13909000  1.0
  C  C64  1  0.10671000  0.18482000  0.13910000  1.0
  C  C65  1  0.89327000  0.31518000  0.63909000  1.0
  C  C66  1  0.60673000  0.81518000  0.36091000  1.0
  C  C67  1  0.39328000  0.68483000  0.86092000  1.0
  C  C68  1  0.04123000  0.73406000  0.98057000  1.0
  C  C69  1  0.95879000  0.76594000  0.48056000  1.0
  C  C70  1  0.54124000  0.26593000  0.51943000  1.0
  C  C71  1  0.45876000  0.23406000  0.01943000  1.0
  C  C72  1  0.95877000  0.26593000  0.01944000  1.0
  C  C73  1  0.04124000  0.23406000  0.51944000  1.0
  C  C74  1  0.45877000  0.73406000  0.48056000  1.0
  C  C75  1  0.54123000  0.76595000  0.98057000  1.0
  C  C76  1  0.98887000  0.64473000  0.91955000  1.0
  C  C77  1  0.01114000  0.85527000  0.41954000  1.0
  C  C78  1  0.48888000  0.35526000  0.58046000  1.0
  C  C79  1  0.51113000  0.14473000  0.08046000  1.0
  C  C80  1  0.01112000  0.35526000  0.08046000  1.0
  C  C81  1  0.98887000  0.14473000  0.58046000  1.0
  C  C82  1  0.51113000  0.64473000  0.41954000  1.0
  C  C83  1  0.48887000  0.85528000  0.91954000  1.0
  N  N84  1  0.89600000  0.69781000  0.84453000  1.0
  N  N85  1  0.10402000  0.80220000  0.34452000  1.0
  N  N86  1  0.39600000  0.30219000  0.65548000  1.0
  N  N87  1  0.60401000  0.19780000  0.15548000  1.0
  N  N88  1  0.10399000  0.30219000  0.15548000  1.0
  N  N89  1  0.89599000  0.19780000  0.65548000  1.0
  N  N90  1  0.60401000  0.69780000  0.34452000  1.0
  N  N91  1  0.39599000  0.80221000  0.84452000  1.0
  N  N92  1  0.98070000  0.84026000  0.94312000  1.0
  N  N93  1  0.01931000  0.65975000  0.44311000  1.0
  N  N94  1  0.48070000  0.15974000  0.55689000  1.0
  N  N95  1  0.51929000  0.34026000  0.05689000  1.0
  N  N96  1  0.01929000  0.15974000  0.05689000  1.0
  N  N97  1  0.98070000  0.34026000  0.55689000  1.0
  N  N98  1  0.51930000  0.84026000  0.44311000  1.0
  N  N99  1  0.48069000  0.65975000  0.94312000  1.0
  O  O100  1  0.85160000  0.56273000  0.60755000  1.0
  O  O101  1  0.14843000  0.93728000  0.10754000  1.0
  O  O102  1  0.35157000  0.43728000  0.89245000  1.0
  O  O103  1  0.64843000  0.06271000  0.39246000  1.0
  O  O104  1  0.14842000  0.43728000  0.39245000  1.0
  O  O105  1  0.85155000  0.06272000  0.89246000  1.0
  O  O106  1  0.64843000  0.56272000  0.10754000  1.0
  O  O107  1  0.35157000  0.93727000  0.60753000  1.0
  O  O108  1  0.10522000  0.60963000  0.69012000  1.0
  O  O109  1  0.89480000  0.89041000  0.19011000  1.0
  O  O110  1  0.60520000  0.39039000  0.80989000  1.0
  O  O111  1  0.39479000  0.10958000  0.30988000  1.0
  O  O112  1  0.89479000  0.39040000  0.30988000  1.0
  O  O113  1  0.10518000  0.10961000  0.80990000  1.0
  O  O114  1  0.39480000  0.60961000  0.19012000  1.0
  O  O115  1  0.60521000  0.89040000  0.69011000  1.0
