# generated using pymatgen
data_AlH27(C17O6)3
_symmetry_space_group_name_H-M   'P 1'
_cell_length_a   4.08620000
_cell_length_b   23.46320000
_cell_length_c   23.49780000
_cell_angle_alpha   60.30540000
_cell_angle_beta   86.92920000
_cell_angle_gamma   87.13470000
_symmetry_Int_Tables_number   1
_chemical_formula_structural   AlH27(C17O6)3
_chemical_formula_sum   'Al1 H27 C51 O18'
_cell_volume   1953.48541799
_cell_formula_units_Z   1
loop_
 _symmetry_equiv_pos_site_id
 _symmetry_equiv_pos_as_xyz
  1  'x, y, z'
loop_
 _atom_site_type_symbol
 _atom_site_label
 _atom_site_symmetry_multiplicity
 _atom_site_fract_x
 _atom_site_fract_y
 _atom_site_fract_z
 _atom_site_occupancy
  Al  Al0  1  0.99644000  0.50043000  0.49910000  1.0
  H  H1  1  0.67738000  0.32586000  0.67313000  1.0
  H  H2  1  0.67233000  0.20619000  0.74338000  1.0
  H  H3  1  0.23574000  0.97882000  0.84778000  1.0
  H  H4  1  0.44929000  0.73409000  0.19314000  1.0
  H  H5  1  0.74428000  0.75588000  0.11231000  1.0
  H  H6  1  0.76873000  0.82372000  0.99383000  1.0
  H  H7  1  0.52431000  0.88912000  0.90091000  1.0
  H  H8  1  0.53734000  0.49160000  0.32656000  1.0
  H  H9  1  0.54915000  0.54388000  0.20618000  1.0
  H  H10  1  0.23666000  0.67901000  0.97872000  1.0
  H  H11  1  0.25193000  0.58386000  0.73033000  1.0
  H  H12  1  0.70838000  0.62626000  0.75821000  1.0
  H  H13  1  0.74932000  0.67906000  0.82510000  1.0
  H  H14  1  0.49690000  0.71182000  0.88978000  1.0
  H  H15  1  0.67459000  0.67102000  0.50154000  1.0
  H  H16  1  0.67992000  0.74066000  0.55266000  1.0
  H  H17  1  0.21893000  0.84785000  0.68122000  1.0
  H  H18  1  0.33837000  0.18872000  0.58133000  1.0
  H  H19  1  0.76730000  0.11026000  0.62971000  1.0
  H  H20  1  0.79736000  0.99017000  0.68284000  1.0
  H  H21  1  0.51267000  0.89932000  0.71326000  1.0
  H  H22  1  0.97462000  0.49134000  0.63031000  1.0
  H  H23  1  0.04147000  0.38023000  0.48680000  1.0
  H  H24  1  0.15078000  0.69851000  0.35042000  1.0
  H  H25  1  0.82713000  0.84050000  0.63688000  1.0
  H  H26  1  0.84051000  0.03612000  0.83713000  1.0
  H  H27  1  0.84161000  0.63702000  0.03421000  1.0
  C  C28  1  0.50408000  0.39852000  0.54980000  1.0
  C  C29  1  0.46488000  0.55019000  0.55145000  1.0
  C  C30  1  0.51184000  0.54917000  0.40019000  1.0
  C  C31  1  0.59724000  0.29562000  0.65343000  1.0
  C  C32  1  0.59334000  0.22783000  0.69333000  1.0
  C  C33  1  0.33546000  0.07675000  0.77016000  1.0
  C  C34  1  0.35413000  0.00799000  0.79964000  1.0
  C  C35  1  0.50703000  0.65200000  0.28895000  1.0
  C  C36  1  0.47691000  0.68083000  0.22134000  1.0
  C  C37  1  0.62047000  0.73921000  0.08351000  1.0
  C  C38  1  0.63576000  0.77808000  0.01583000  1.0
  C  C39  1  0.50233000  0.32523000  0.58819000  1.0
  C  C40  1  0.48917000  0.18810000  0.66883000  1.0
  C  C41  1  0.48844000  0.11527000  0.70746000  1.0
  C  C42  1  0.51613000  0.97490000  0.76998000  1.0
  C  C43  1  0.52149000  0.90242000  0.80322000  1.0
  C  C44  1  0.52079000  0.86463000  0.87180000  1.0
  C  C45  1  0.52025000  0.54494000  0.29685000  1.0
  C  C46  1  0.52105000  0.57436000  0.22896000  1.0
  C  C47  1  0.32594000  0.65607000  0.07709000  1.0
  C  C48  1  0.34480000  0.69641000  0.00851000  1.0
  C  C49  1  0.33626000  0.56402000  0.65145000  1.0
  C  C50  1  0.33819000  0.60459000  0.67938000  1.0
  C  C51  1  0.59944000  0.67521000  0.74109000  1.0
  C  C52  1  0.61952000  0.70482000  0.77931000  1.0
  C  C53  1  0.51183000  0.58320000  0.32742000  1.0
  C  C54  1  0.48042000  0.64290000  0.18989000  1.0
  C  C55  1  0.46969000  0.67755000  0.11709000  1.0
  C  C56  1  0.49796000  0.75704000  0.97619000  1.0
  C  C57  1  0.51101000  0.79595000  0.90384000  1.0
  C  C58  1  0.50514000  0.76516000  0.86575000  1.0
  C  C59  1  0.57502000  0.65266000  0.55136000  1.0
  C  C60  1  0.57663000  0.69217000  0.58007000  1.0
  C  C61  1  0.31179000  0.77029000  0.65817000  1.0
  C  C62  1  0.32961000  0.79909000  0.69798000  1.0
  C  C63  1  0.41315000  0.28615000  0.56181000  1.0
  C  C64  1  0.40818000  0.21808000  0.60280000  1.0
  C  C65  1  0.64683000  0.08144000  0.67768000  1.0
  C  C66  1  0.66243000  0.01341000  0.70759000  1.0
  C  C67  1  0.45119000  0.58919000  0.58615000  1.0
  C  C68  1  0.44933000  0.66888000  0.64435000  1.0
  C  C69  1  0.45280000  0.70677000  0.67954000  1.0
  C  C70  1  0.48592000  0.76822000  0.75809000  1.0
  C  C71  1  0.50487000  0.80154000  0.79716000  1.0
  C  C72  1  0.51483000  0.87016000  0.76660000  1.0
  C  C73  1  0.24013000  0.49414000  0.69685000  1.0
  C  C74  1  0.35155000  0.31142000  0.49055000  1.0
  C  C75  1  0.58685000  0.69274000  0.31921000  1.0
  C  C76  1  0.14673000  0.80971000  0.59374000  1.0
  C  C77  1  0.15418000  0.10522000  0.80826000  1.0
  C  C78  1  0.16946000  0.59070000  0.09987000  1.0
  O  O79  1  0.73673000  0.56130000  0.42820000  1.0
  O  O80  1  0.75101000  0.42620000  0.51106000  1.0
  O  O81  1  0.71097000  0.51035000  0.56192000  1.0
  O  O82  1  0.28258000  0.50890000  0.42982000  1.0
  O  O83  1  0.23971000  0.56074000  0.51198000  1.0
  O  O84  1  0.26325000  0.42892000  0.56007000  1.0
  O  O85  1  0.08375000  0.46220000  0.67197000  1.0
  O  O86  1  0.31037000  0.46637000  0.75430000  1.0
  O  O87  1  0.17554000  0.36821000  0.45777000  1.0
  O  O88  1  0.46545000  0.28245000  0.46275000  1.0
  O  O89  1  0.38655000  0.69866000  0.36199000  1.0
  O  O90  1  0.85979000  0.71762000  0.30545000  1.0
  O  O91  1  0.90497000  0.85297000  0.59221000  1.0
  O  O92  1  0.21873000  0.80734000  0.54418000  1.0
  O  O93  1  0.90706000  0.06771000  0.84975000  1.0
  O  O94  1  0.21677000  0.15603000  0.80652000  1.0
  O  O95  1  0.92755000  0.59219000  0.06116000  1.0
  O  O96  1  0.25383000  0.53812000  0.14514000  1.0
