# generated using pymatgen
data_AgH5C5(NO)2
_symmetry_space_group_name_H-M   'P 1'
_cell_length_a   5.08130000
_cell_length_b   8.86272000
_cell_length_c   13.54650000
_cell_angle_alpha   90.00010000
_cell_angle_beta   90.00110000
_cell_angle_gamma   106.02100000
_symmetry_Int_Tables_number   1
_chemical_formula_structural   AgH5C5(NO)2
_chemical_formula_sum   'Ag4 H20 C20 N8 O8'
_cell_volume   586.36079990
_cell_formula_units_Z   4
loop_
 _symmetry_equiv_pos_site_id
 _symmetry_equiv_pos_as_xyz
  1  'x, y, z'
loop_
 _atom_site_type_symbol
 _atom_site_label
 _atom_site_symmetry_multiplicity
 _atom_site_fract_x
 _atom_site_fract_y
 _atom_site_fract_z
 _atom_site_occupancy
  Ag  Ag0  1  0.19291000  0.26982000  0.31557000  1.0
  Ag  Ag1  1  0.30709000  0.73019000  0.81558000  1.0
  Ag  Ag2  1  0.80709000  0.73018000  0.68442000  1.0
  Ag  Ag3  1  0.69291000  0.26981000  0.18442000  1.0
  H  H4  1  0.52218000  0.76024000  0.47593000  1.0
  H  H5  1  0.97785000  0.23977000  0.97593000  1.0
  H  H6  1  0.47782000  0.23976000  0.52407000  1.0
  H  H7  1  0.02216000  0.76023000  0.02407000  1.0
  H  H8  1  0.62271000  0.07676000  0.42182000  1.0
  H  H9  1  0.87731000  0.92325000  0.92182000  1.0
  H  H10  1  0.37728000  0.92325000  0.57819000  1.0
  H  H11  1  0.12269000  0.07674000  0.07818000  1.0
  H  H12  1  0.23491000  0.89593000  0.29923000  1.0
  H  H13  1  0.26510000  0.10408000  0.79923000  1.0
  H  H14  1  0.76508000  0.10407000  0.70077000  1.0
  H  H15  1  0.73493000  0.89592000  0.20076000  1.0
  H  H16  1  0.98584000  0.61873000  0.47936000  1.0
  H  H17  1  0.51417000  0.38127000  0.97936000  1.0
  H  H18  1  0.01417000  0.38127000  0.52064000  1.0
  H  H19  1  0.48583000  0.61872000  0.02064000  1.0
  H  H20  1  0.11001000  0.62491000  0.35732000  1.0
  H  H21  1  0.38999000  0.37509000  0.85732000  1.0
  H  H22  1  0.88997000  0.37509000  0.64268000  1.0
  H  H23  1  0.61001000  0.62490000  0.14268000  1.0
  C  C24  1  0.68067000  0.83637000  0.43085000  1.0
  C  C25  1  0.81934000  0.16365000  0.93085000  1.0
  C  C26  1  0.31931000  0.16363000  0.56916000  1.0
  C  C27  1  0.18066000  0.83635000  0.06915000  1.0
  C  C28  1  0.73411000  0.99202000  0.40506000  1.0
  C  C29  1  0.76589000  0.00798000  0.90506000  1.0
  C  C30  1  0.26587000  0.00798000  0.59494000  1.0
  C  C31  1  0.23411000  0.99202000  0.09494000  1.0
  C  C32  1  0.05393000  0.90471000  0.33833000  1.0
  C  C33  1  0.44608000  0.09530000  0.83833000  1.0
  C  C34  1  0.94606000  0.09529000  0.66168000  1.0
  C  C35  1  0.55393000  0.90470000  0.16167000  1.0
  C  C36  1  0.93137000  0.63004000  0.40149000  1.0
  C  C37  1  0.56865000  0.36996000  0.90150000  1.0
  C  C38  1  0.06863000  0.36995000  0.59851000  1.0
  C  C39  1  0.43137000  0.63004000  0.09851000  1.0
  C  C40  1  0.69658000  0.48816000  0.37365000  1.0
  C  C41  1  0.80343000  0.51185000  0.87365000  1.0
  C  C42  1  0.30342000  0.51184000  0.62635000  1.0
  C  C43  1  0.19658000  0.48816000  0.12635000  1.0
  N  N44  1  0.88438000  0.78311000  0.38772000  1.0
  N  N45  1  0.61563000  0.21689000  0.88772000  1.0
  N  N46  1  0.11560000  0.21688000  0.61228000  1.0
  N  N47  1  0.38440000  0.78311000  0.11228000  1.0
  N  N48  1  0.96784000  0.03335000  0.34744000  1.0
  N  N49  1  0.53218000  0.96667000  0.84745000  1.0
  N  N50  1  0.03215000  0.96666000  0.65256000  1.0
  N  N51  1  0.46783000  0.03333000  0.15255000  1.0
  O  O52  1  0.47873000  0.50807000  0.33538000  1.0
  O  O53  1  0.02127000  0.49195000  0.83538000  1.0
  O  O54  1  0.52128000  0.49193000  0.66462000  1.0
  O  O55  1  0.97872000  0.50806000  0.16462000  1.0
  O  O56  1  0.73871000  0.35654000  0.39151000  1.0
  O  O57  1  0.76129000  0.64347000  0.89152000  1.0
  O  O58  1  0.26128000  0.64346000  0.60849000  1.0
  O  O59  1  0.23871000  0.35653000  0.10849000  1.0
