# generated using pymatgen
data_NdH4C12(O4F3)2
_symmetry_space_group_name_H-M   'P 1'
_cell_length_a   8.96473000
_cell_length_b   8.96679000
_cell_length_c   11.10730000
_cell_angle_alpha   109.02600000
_cell_angle_beta   108.89700000
_cell_angle_gamma   101.21800000
_symmetry_Int_Tables_number   1
_chemical_formula_structural   NdH4C12(O4F3)2
_chemical_formula_sum   'Nd2 H8 C24 O16 F12'
_cell_volume   752.28788323
_cell_formula_units_Z   2
loop_
 _symmetry_equiv_pos_site_id
 _symmetry_equiv_pos_as_xyz
  1  'x, y, z'
loop_
 _atom_site_type_symbol
 _atom_site_label
 _atom_site_symmetry_multiplicity
 _atom_site_fract_x
 _atom_site_fract_y
 _atom_site_fract_z
 _atom_site_occupancy
  Nd  Nd0  1  0.12780000  0.83227000  0.95999000  1.0
  Nd  Nd1  1  0.87220000  0.16773000  0.04001000  1.0
  H  H2  1  0.31678000  0.71500000  0.75966000  1.0
  H  H3  1  0.95513000  0.55697000  0.24033000  1.0
  H  H4  1  0.68322000  0.28500000  0.24034000  1.0
  H  H5  1  0.04487000  0.44303000  0.75967000  1.0
  H  H6  1  0.39801000  0.90724000  0.84799000  1.0
  H  H7  1  0.05908000  0.54987000  0.15198000  1.0
  H  H8  1  0.60199000  0.09276000  0.15201000  1.0
  H  H9  1  0.94092000  0.45013000  0.84802000  1.0
  C  C10  1  0.75763000  0.75766000  0.00023000  1.0
  C  C11  1  0.24236000  0.24235000  0.99977000  1.0
  C  C12  1  0.62483000  0.62481000  0.00021000  1.0
  C  C13  1  0.37517000  0.37519000  0.99980000  1.0
  C  C14  1  0.13481000  0.14065000  0.27545000  1.0
  C  C15  1  0.86519000  0.85935000  0.72455000  1.0
  C  C16  1  0.26407000  0.13715000  0.40138000  1.0
  C  C17  1  0.73593000  0.86285000  0.59862000  1.0
  C  C18  1  0.22178000  0.03402000  0.46383000  1.0
  C  C19  1  0.57048000  0.75789000  0.53607000  1.0
  C  C20  1  0.77822000  0.96598000  0.53617000  1.0
  C  C21  1  0.42952000  0.24211000  0.46393000  1.0
  C  C22  1  0.33697000  0.04024000  0.58644000  1.0
  C  C23  1  0.45409000  0.75030000  0.41341000  1.0
  C  C24  1  0.66304000  0.95976000  0.41356000  1.0
  C  C25  1  0.54591000  0.24969000  0.58659000  1.0
  C  C26  1  0.50344000  0.15062000  0.65413000  1.0
  C  C27  1  0.49657000  0.84937000  0.34587000  1.0
  C  C28  1  0.64024000  0.60227000  0.12093000  1.0
  C  C29  1  0.48183000  0.51977000  0.87933000  1.0
  C  C30  1  0.35976000  0.39773000  0.87907000  1.0
  C  C31  1  0.51817000  0.48023000  0.12067000  1.0
  C  C32  1  0.62713000  0.16166000  0.78879000  1.0
  C  C33  1  0.37287000  0.83834000  0.21121000  1.0
  O  O34  1  0.86570000  0.70941000  0.96387000  1.0
  O  O35  1  0.74551000  0.90197000  0.03646000  1.0
  O  O36  1  0.13430000  0.29060000  0.03613000  1.0
  O  O37  1  0.25449000  0.09803000  0.96355000  1.0
  O  O38  1  0.58158000  0.06857000  0.84537000  1.0
  O  O39  1  0.22318000  0.73639000  0.15481000  1.0
  O  O40  1  0.41842000  0.93143000  0.15463000  1.0
  O  O41  1  0.77683000  0.26362000  0.84520000  1.0
  O  O42  1  0.32541000  0.80475000  0.84234000  1.0
  O  O43  1  0.96222000  0.48296000  0.15762000  1.0
  O  O44  1  0.67459000  0.19525000  0.15766000  1.0
  O  O45  1  0.03778000  0.51704000  0.84238000  1.0
  O  O46  1  0.11055000  0.04241000  0.15276000  1.0
  O  O47  1  0.88945000  0.95759000  0.84724000  1.0
  O  O48  1  0.05646000  0.24096000  0.29734000  1.0
  O  O49  1  0.94354000  0.75904000  0.70266000  1.0
  F  F50  1  0.27987000  0.93383000  0.63631000  1.0
  F  F51  1  0.29798000  0.64290000  0.36337000  1.0
  F  F52  1  0.72013000  0.06617000  0.36368000  1.0
  F  F53  1  0.70203000  0.35710000  0.63663000  1.0
  F  F54  1  0.06498000  0.92359000  0.40437000  1.0
  F  F55  1  0.51957000  0.66048000  0.59552000  1.0
  F  F56  1  0.93502000  0.07641000  0.59563000  1.0
  F  F57  1  0.48043000  0.33952000  0.40448000  1.0
  F  F58  1  0.77798000  0.69945000  0.24283000  1.0
  F  F59  1  0.45762000  0.53608000  0.75768000  1.0
  F  F60  1  0.22202000  0.30054000  0.75717000  1.0
  F  F61  1  0.54238000  0.46392000  0.24233000  1.0
