# generated using pymatgen
data_Zn4H2C24S4Br6O13
_symmetry_space_group_name_H-M   'P 1'
_cell_length_a   19.68480000
_cell_length_b   19.76650000
_cell_length_c   33.38290000
_cell_angle_alpha   78.93540000
_cell_angle_beta   79.17660000
_cell_angle_gamma   63.93960000
_symmetry_Int_Tables_number   1
_chemical_formula_structural   Zn4H2C24S4Br6O13
_chemical_formula_sum   'Zn16 H8 C96 S16 Br24 O52'
_cell_volume   11372.62695083
_cell_formula_units_Z   4
loop_
 _symmetry_equiv_pos_site_id
 _symmetry_equiv_pos_as_xyz
  1  'x, y, z'
loop_
 _atom_site_type_symbol
 _atom_site_label
 _atom_site_symmetry_multiplicity
 _atom_site_fract_x
 _atom_site_fract_y
 _atom_site_fract_z
 _atom_site_occupancy
  Zn  Zn0  1  0.05568000  0.40028000  0.47794000  1.0
  Zn  Zn1  1  0.98577000  0.48378000  0.56022000  1.0
  Zn  Zn2  1  0.05805000  0.56154000  0.48177000  1.0
  Zn  Zn3  1  0.90014000  0.55504000  0.48016000  1.0
  Zn  Zn4  1  0.69352000  0.34962000  0.27218000  1.0
  Zn  Zn5  1  0.69071000  0.18818000  0.26616000  1.0
  Zn  Zn6  1  0.76943000  0.26650000  0.19006000  1.0
  Zn  Zn7  1  0.84722000  0.19512000  0.27159000  1.0
  Zn  Zn8  1  0.26494000  0.76545000  0.68985000  1.0
  Zn  Zn9  1  0.34991000  0.69744000  0.77120000  1.0
  Zn  Zn10  1  0.19173000  0.84948000  0.77087000  1.0
  Zn  Zn11  1  0.19229000  0.68798000  0.76826000  1.0
  Zn  Zn12  1  0.55856000  0.06254000  0.98387000  1.0
  Zn  Zn13  1  0.40265000  0.05260000  0.97694000  1.0
  Zn  Zn14  1  0.55865000  0.90056000  0.97929000  1.0
  Zn  Zn15  1  0.48004000  0.98400000  0.05992000  1.0
  H  H16  1  0.74970000  0.44843000  0.34896000  1.0
  H  H17  1  0.99928000  0.30296000  0.40095000  1.0
  H  H18  1  0.20102000  0.69966000  0.60236000  1.0
  H  H19  1  0.04899000  0.55048000  0.64759000  1.0
  H  H20  1  0.64712000  0.14858000  0.04955000  1.0
  H  H21  1  0.60323000  0.10105000  0.20049000  1.0
  H  H22  1  0.30464000  0.99816000  0.90120000  1.0
  H  H23  1  0.44663000  0.75045000  0.84879000  1.0
  C  C24  1  0.06184000  0.31673000  0.56181000  1.0
  C  C25  1  0.06993000  0.57127000  0.56768000  1.0
  C  C26  1  0.18335000  0.43983000  0.43840000  1.0
  C  C27  1  0.93544000  0.68421000  0.43874000  1.0
  C  C28  1  0.92940000  0.43181000  0.43132000  1.0
  C  C29  1  0.81767000  0.56088000  0.56319000  1.0
  C  C30  1  0.56619000  0.30931000  0.31121000  1.0
  C  C31  1  0.68356000  0.18031000  0.17991000  1.0
  C  C32  1  0.68976000  0.43329000  0.18842000  1.0
  C  C33  1  0.93544000  0.18796000  0.18962000  1.0
  C  C34  1  0.81922000  0.31897000  0.31913000  1.0
  C  C35  1  0.81228000  0.06559000  0.31100000  1.0
  C  C36  1  0.43271000  0.68960000  0.68762000  1.0
  C  C37  1  0.31679000  0.82195000  0.81871000  1.0
  C  C38  1  0.18792000  0.93277000  0.68757000  1.0
  C  C39  1  0.06559000  0.80917000  0.81119000  1.0
  C  C40  1  0.18018000  0.67875000  0.68225000  1.0
  C  C41  1  0.31556000  0.56640000  0.81156000  1.0
  C  C42  1  0.43685000  0.18383000  0.93851000  1.0
  C  C43  1  0.43471000  0.92709000  0.93089000  1.0
  C  C44  1  0.68421000  0.94188000  0.93926000  1.0
  C  C45  1  0.56062000  0.81696000  0.06241000  1.0
  C  C46  1  0.56657000  0.06951000  0.07014000  1.0
  C  C47  1  0.31421000  0.06199000  0.05946000  1.0
  C  C48  1  0.89815000  0.40613000  0.40231000  1.0
  C  C49  1  0.85068000  0.34518000  0.34776000  1.0
  C  C50  1  0.82679000  0.44755000  0.38724000  1.0
  C  C51  1  0.92218000  0.30381000  0.36271000  1.0
  C  C52  1  0.80466000  0.41673000  0.36062000  1.0
  C  C53  1  0.94427000  0.33466000  0.38935000  1.0
  C  C54  1  0.09983000  0.60054000  0.59553000  1.0
  C  C55  1  0.15013000  0.64963000  0.65441000  1.0
  C  C56  1  0.14339000  0.64325000  0.58274000  1.0
  C  C57  1  0.10655000  0.60694000  0.66720000  1.0
  C  C58  1  0.16742000  0.66666667  0.61204000  1.0
  C  C59  1  0.08253000  0.58347000  0.63791000  1.0
  C  C60  1  0.30522000  0.45384000  0.40061000  1.0
  C  C61  1  0.44465000  0.29494000  0.34949000  1.0
  C  C62  1  0.25850000  0.41570000  0.41385000  1.0
  C  C63  1  0.49134000  0.33306000  0.33613000  1.0
  C  C64  1  0.37690000  0.33886000  0.37301000  1.0
  C  C65  1  0.37310000  0.40987000  0.37717000  1.0
  C  C66  1  0.72553000  0.57562000  0.63093000  1.0
  C  C67  1  0.52494000  0.67372000  0.61989000  1.0
  C  C68  1  0.74340000  0.58482000  0.58849000  1.0
  C  C69  1  0.50707000  0.66484000  0.66235000  1.0
  C  C70  1  0.60455000  0.64121000  0.60840000  1.0
  C  C71  1  0.64592000  0.60800000  0.64241000  1.0
  C  C72  1  0.07679000  0.22463000  0.62973000  1.0
  C  C73  1  0.17402000  0.02462000  0.61960000  1.0
  C  C74  1  0.08607000  0.24245000  0.58724000  1.0
  C  C75  1  0.16446000  0.00693000  0.66209000  1.0
  C  C76  1  0.14208000  0.10396000  0.60775000  1.0
  C  C77  1  0.10884000  0.14529000  0.64154000  1.0
  C  C78  1  0.84143000  0.80189000  0.39694000  1.0
  C  C79  1  0.90605000  0.94810000  0.35295000  1.0
  C  C80  1  0.90956000  0.75872000  0.41374000  1.0
  C  C81  1  0.83793000  0.99115000  0.33609000  1.0
  C  C82  1  0.90747000  0.87899000  0.37509000  1.0
  C  C83  1  0.84019000  0.87085000  0.37474000  1.0
  C  C84  1  0.65526000  0.15325000  0.15012000  1.0
  C  C85  1  0.59510000  0.09636000  0.09993000  1.0
  C  C86  1  0.66762000  0.16670000  0.10686000  1.0
  C  C87  1  0.58279000  0.08293000  0.14318000  1.0
  C  C88  1  0.63772000  0.13837000  0.08290000  1.0
  C  C89  1  0.61268000  0.11121000  0.16715000  1.0
  C  C90  1  0.67353000  0.52510000  0.12041000  1.0
  C  C91  1  0.57586000  0.72515000  0.13039000  1.0
  C  C92  1  0.66472000  0.50749000  0.16293000  1.0
  C  C93  1  0.58494000  0.74283000  0.08790000  1.0
  C  C94  1  0.60818000  0.64583000  0.14227000  1.0
  C  C95  1  0.64121000  0.60442000  0.10852000  1.0
  C  C96  1  0.08289000  0.12334000  0.17751000  1.0
  C  C97  1  0.16666000  0.12741000  0.07168000  1.0
  C  C98  1  0.01039000  0.16278000  0.16514000  1.0
  C  C99  1  0.23920000  0.08796000  0.08397000  1.0
  C  C100  1  0.10968000  0.14044000  0.10576000  1.0
  C  C101  1  0.13994000  0.11052000  0.14346000  1.0
  C  C102  1  0.34378000  0.85202000  0.84769000  1.0
  C  C103  1  0.40750000  0.89658000  0.90227000  1.0
  C  C104  1  0.30340000  0.92285000  0.86287000  1.0
  C  C105  1  0.44777000  0.82565000  0.88723000  1.0
  C  C106  1  0.33556000  0.94355000  0.88950000  1.0
  C  C107  1  0.41566000  0.80499000  0.86055000  1.0
  C  C108  1  0.40953000  0.44763000  0.85306000  1.0
  C  C109  1  0.34322000  0.30248000  0.89688000  1.0
  C  C110  1  0.34147000  0.49151000  0.83631000  1.0
  C  C111  1  0.41128000  0.25863000  0.91367000  1.0
  C  C112  1  0.34255000  0.37133000  0.87474000  1.0
  C  C113  1  0.41026000  0.37869000  0.87511000  1.0
  C  C114  1  0.94373000  0.79581000  0.84956000  1.0
  C  C115  1  0.80563000  0.95570000  0.90035000  1.0
  C  C116  1  0.99074000  0.83349000  0.83594000  1.0
  C  C117  1  0.75867000  0.91799000  0.91406000  1.0
  C  C118  1  0.87307000  0.91122000  0.87683000  1.0
  C  C119  1  0.87622000  0.84029000  0.87303000  1.0
  S  S120  1  0.29784000  0.32587000  0.39769000  1.0
  S  S121  1  0.45215000  0.42282000  0.35241000  1.0
  S  S122  1  0.66273000  0.63292000  0.56258000  1.0
  S  S123  1  0.58776000  0.61661000  0.68824000  1.0
  S  S124  1  0.13409000  0.16194000  0.56173000  1.0
  S  S125  1  0.11650000  0.08744000  0.68757000  1.0
  S  S126  1  0.97217000  0.80250000  0.40233000  1.0
  S  S127  1  0.77555000  0.94717000  0.34737000  1.0
  S  S128  1  0.61659000  0.58807000  0.18835000  1.0
  S  S129  1  0.63312000  0.66225000  0.06244000  1.0
  S  S130  1  0.01195000  0.18418000  0.11187000  1.0
  S  S131  1  0.23769000  0.06686000  0.13728000  1.0
  S  S132  1  0.27827000  0.44837000  0.84754000  1.0
  S  S133  1  0.47440000  0.30181000  0.90247000  1.0
  S  S134  1  0.95221000  0.92355000  0.85175000  1.0
  S  S135  1  0.79707000  0.82801000  0.89814000  1.0
  Br  Br136  1  0.75502000  0.54540000  0.40022000  1.0
  Br  Br137  1  0.99433000  0.20621000  0.34953000  1.0
  Br  Br138  1  0.17417000  0.67240000  0.52719000  1.0
  Br  Br139  1  0.07617000  0.57733000  0.72275000  1.0
  Br  Br140  1  0.72310000  0.22216000  0.07696000  1.0
  Br  Br141  1  0.52703000  0.02779000  0.17315000  1.0
  Br  Br142  1  0.20564000  0.99584000  0.84971000  1.0
  Br  Br143  1  0.54553000  0.75280000  0.90043000  1.0
  Br  Br144  1  0.28622000  0.55108000  0.41089000  1.0
  Br  Br145  1  0.46360000  0.19764000  0.33933000  1.0
  Br  Br146  1  0.79402000  0.52719000  0.67044000  1.0
  Br  Br147  1  0.45663000  0.72208000  0.58026000  1.0
  Br  Br148  1  0.02863000  0.29266000  0.66913000  1.0
  Br  Br149  1  0.22211000  0.95633000  0.58036000  1.0
  Br  Br150  1  0.75864000  0.77674000  0.40105000  1.0
  Br  Br151  1  0.98901000  0.97307000  0.34878000  1.0
  Br  Br152  1  0.72071000  0.45692000  0.08106000  1.0
  Br  Br153  1  0.52844000  0.79343000  0.16967000  1.0
  Br  Br154  1  0.10784000  0.08923000  0.23155000  1.0
  Br  Br155  1  0.14143000  0.16147000  0.01768000  1.0
  Br  Br156  1  0.49292000  0.47187000  0.84885000  1.0
  Br  Br157  1  0.25936000  0.27878000  0.90144000  1.0
  Br  Br158  1  0.96206000  0.69866000  0.83948000  1.0
  Br  Br159  1  0.78722000  0.05304000  0.91013000  1.0
  O  O160  1  0.00075000  0.49871000  0.49983000  1.0
  O  O161  1  0.07768000  0.31517000  0.52284000  1.0
  O  O162  1  0.03447000  0.53067000  0.58527000  1.0
  O  O163  1  0.15417000  0.50608000  0.44933000  1.0
  O  O164  1  0.02763000  0.37537000  0.58053000  1.0
  O  O165  1  0.15410000  0.39147000  0.44639000  1.0
  O  O166  1  0.08176000  0.58889000  0.52922000  1.0
  O  O167  1  0.00321000  0.65758000  0.44852000  1.0
  O  O168  1  0.88729000  0.49561000  0.44399000  1.0
  O  O169  1  0.88925000  0.65292000  0.44851000  1.0
  O  O170  1  0.99596000  0.38707000  0.44099000  1.0
  O  O171  1  0.87720000  0.52663000  0.58157000  1.0
  O  O172  1  0.81510000  0.57729000  0.52427000  1.0
  O  O173  1  0.74826000  0.25117000  0.25027000  1.0
  O  O174  1  0.59547000  0.35766000  0.30375000  1.0
  O  O175  1  0.66561000  0.16317000  0.21807000  1.0
  O  O176  1  0.72658000  0.37473000  0.16979000  1.0
  O  O177  1  0.59497000  0.24375000  0.29941000  1.0
  O  O178  1  0.67210000  0.43477000  0.22733000  1.0
  O  O179  1  0.72284000  0.21779000  0.16505000  1.0
  O  O180  1  0.87812000  0.22468000  0.16920000  1.0
  O  O181  1  0.86067000  0.25415000  0.30753000  1.0
  O  O182  1  0.93360000  0.17144000  0.22847000  1.0
  O  O183  1  0.75321000  0.36397000  0.30879000  1.0
  O  O184  1  0.74594000  0.09135000  0.29940000  1.0
  O  O185  1  0.85773000  0.09773000  0.30304000  1.0
  O  O186  1  0.25009000  0.75033000  0.75024000  1.0
  O  O187  1  0.37351000  0.72294000  0.66895000  1.0
  O  O188  1  0.36311000  0.75745000  0.80738000  1.0
  O  O189  1  0.17033000  0.93472000  0.72645000  1.0
  O  O190  1  0.43483000  0.67491000  0.72661000  1.0
  O  O191  1  0.22304000  0.87384000  0.66913000  1.0
  O  O192  1  0.25078000  0.86231000  0.80785000  1.0
  O  O193  1  0.09376000  0.85841000  0.80228000  1.0
  O  O194  1  0.16721000  0.66219000  0.72072000  1.0
  O  O195  1  0.09574000  0.74234000  0.80096000  1.0
  O  O196  1  0.21685000  0.71818000  0.66465000  1.0
  O  O197  1  0.36066000  0.59900000  0.80286000  1.0
  O  O198  1  0.24844000  0.59200000  0.80101000  1.0
  O  O199  1  0.50061000  0.99993000  0.99971000  1.0
  O  O200  1  0.50279000  0.15874000  0.95052000  1.0
  O  O201  1  0.38945000  0.99301000  0.94076000  1.0
  O  O202  1  0.65579000  0.89282000  0.94747000  1.0
  O  O203  1  0.39216000  0.15083000  0.94580000  1.0
  O  O204  1  0.65483000  0.00785000  0.95059000  1.0
  O  O205  1  0.49960000  0.88589000  0.94296000  1.0
  O  O206  1  0.58066000  0.81520000  0.02365000  1.0
  O  O207  1  0.52772000  0.03160000  0.08499000  1.0
  O  O208  1  0.52211000  0.87575000  0.08069000  1.0
  O  O209  1  0.58393000  0.08726000  0.03197000  1.0
  O  O210  1  0.31632000  0.07588000  0.02051000  1.0
  O  O211  1  0.37130000  0.02702000  0.08017000  1.0
