# generated using pymatgen
data_ZnPH5CNO3
_symmetry_space_group_name_H-M   'P 1'
_cell_length_a   5.21573000
_cell_length_b   8.43881000
_cell_length_c   10.77490000
_cell_angle_alpha   90.00000000
_cell_angle_beta   89.99780000
_cell_angle_gamma   100.78400000
_symmetry_Int_Tables_number   1
_chemical_formula_structural   ZnPH5CNO3
_chemical_formula_sum   'Zn4 P4 H20 C4 N4 O12'
_cell_volume   465.87690638
_cell_formula_units_Z   4
loop_
 _symmetry_equiv_pos_site_id
 _symmetry_equiv_pos_as_xyz
  1  'x, y, z'
loop_
 _atom_site_type_symbol
 _atom_site_label
 _atom_site_symmetry_multiplicity
 _atom_site_fract_x
 _atom_site_fract_y
 _atom_site_fract_z
 _atom_site_occupancy
  Zn  Zn0  1  0.98403000  0.18090000  0.37046000  1.0
  Zn  Zn1  1  0.51600000  0.31913000  0.87047000  1.0
  Zn  Zn2  1  0.01598000  0.81912000  0.62954000  1.0
  Zn  Zn3  1  0.48399000  0.68086000  0.12954000  1.0
  P  P4  1  0.76726000  0.37506000  0.14332000  1.0
  P  P5  1  0.73274000  0.12495000  0.64333000  1.0
  P  P6  1  0.23274000  0.62493000  0.85667000  1.0
  P  P7  1  0.26726000  0.87506000  0.35668000  1.0
  H  H8  1  0.99820000  0.48722000  0.16479000  1.0
  H  H9  1  0.50177000  0.01278000  0.66478000  1.0
  H  H10  1  0.00180000  0.51277000  0.83520000  1.0
  H  H11  1  0.49824000  0.98721000  0.33522000  1.0
  H  H12  1  0.46256000  0.25246000  0.42083000  1.0
  H  H13  1  0.03745000  0.24752000  0.92085000  1.0
  H  H14  1  0.53745000  0.74755000  0.57917000  1.0
  H  H15  1  0.96253000  0.75247000  0.07916000  1.0
  H  H16  1  0.39044000  0.38067000  0.31706000  1.0
  H  H17  1  0.10958000  0.11935000  0.81706000  1.0
  H  H18  1  0.60956000  0.61933000  0.68295000  1.0
  H  H19  1  0.89039000  0.88066000  0.18294000  1.0
  H  H20  1  0.31648000  0.39025000  0.58936000  1.0
  H  H21  1  0.18350000  0.10972000  0.08936000  1.0
  H  H22  1  0.68355000  0.60976000  0.41065000  1.0
  H  H23  1  0.81647000  0.89025000  0.91063000  1.0
  H  H24  1  0.22149000  0.53055000  0.48324000  1.0
  H  H25  1  0.27850000  0.96943000  0.98323000  1.0
  H  H26  1  0.77855000  0.46947000  0.51676000  1.0
  H  H27  1  0.72148000  0.03055000  0.01675000  1.0
  C  C28  1  0.36086000  0.45029000  0.49931000  1.0
  C  C29  1  0.13912000  0.04968000  0.99930000  1.0
  C  C30  1  0.63916000  0.54973000  0.50070000  1.0
  C  C31  1  0.86087000  0.95030000  0.00069000  1.0
  N  N32  1  0.32974000  0.32568000  0.40090000  1.0
  N  N33  1  0.17021000  0.17429000  0.90093000  1.0
  N  N34  1  0.67028000  0.67433000  0.59911000  1.0
  N  N35  1  0.82976000  0.82571000  0.09907000  1.0
  O  O36  1  0.76911000  0.23169000  0.23050000  1.0
  O  O37  1  0.73088000  0.26832000  0.73054000  1.0
  O  O38  1  0.23090000  0.76831000  0.76949000  1.0
  O  O39  1  0.26911000  0.73168000  0.26947000  1.0
  O  O40  1  0.53501000  0.45995000  0.17145000  1.0
  O  O41  1  0.96497000  0.04003000  0.67147000  1.0
  O  O42  1  0.46499000  0.54004000  0.82854000  1.0
  O  O43  1  0.03503000  0.95998000  0.32854000  1.0
  O  O44  1  0.77045000  0.32603000  0.00583000  1.0
  O  O45  1  0.72957000  0.17399000  0.50583000  1.0
  O  O46  1  0.22954000  0.67395000  0.99416000  1.0
  O  O47  1  0.27044000  0.82603000  0.49416000  1.0
