# generated using pymatgen
data_AgPH19C19BrN
_symmetry_space_group_name_H-M   'P 1'
_cell_length_a   9.17984000
_cell_length_b   9.79502000
_cell_length_c   11.36450000
_cell_angle_alpha   76.70340000
_cell_angle_beta   67.55240000
_cell_angle_gamma   72.87160000
_symmetry_Int_Tables_number   1
_chemical_formula_structural   AgPH19C19BrN
_chemical_formula_sum   'Ag2 P2 H38 C38 Br2 N2'
_cell_volume   894.51615191
_cell_formula_units_Z   2
loop_
 _symmetry_equiv_pos_site_id
 _symmetry_equiv_pos_as_xyz
  1  'x, y, z'
loop_
 _atom_site_type_symbol
 _atom_site_label
 _atom_site_symmetry_multiplicity
 _atom_site_fract_x
 _atom_site_fract_y
 _atom_site_fract_z
 _atom_site_occupancy
  Ag  Ag0  1  0.66510000  0.84624000  0.50214000  1.0
  Ag  Ag1  1  0.33492000  0.15375000  0.49785000  1.0
  P  P2  1  0.75979000  0.65860000  0.37319000  1.0
  P  P3  1  0.24021000  0.34140000  0.62680000  1.0
  H  H4  1  0.95517000  0.87374000  0.58160000  1.0
  H  H5  1  0.04484000  0.12626000  0.41840000  1.0
  H  H6  1  0.02960000  0.84842000  0.77497000  1.0
  H  H7  1  0.97040000  0.15158000  0.22503000  1.0
  H  H8  1  0.81855000  0.81147000  0.99484000  1.0
  H  H9  1  0.18145000  0.18853000  0.00516000  1.0
  H  H10  1  0.53995000  0.80965000  0.00617000  1.0
  H  H11  1  0.46005000  0.19036000  0.99383000  1.0
  H  H12  1  0.48546000  0.84094000  0.79962000  1.0
  H  H13  1  0.51454000  0.15906000  0.20038000  1.0
  H  H14  1  0.71473000  0.43906000  0.50970000  1.0
  H  H15  1  0.28527000  0.56093000  0.49030000  1.0
  H  H16  1  0.89713000  0.40220000  0.37911000  1.0
  H  H17  1  0.10287000  0.59780000  0.62089000  1.0
  H  H18  1  0.84404000  0.54297000  0.61245000  1.0
  H  H19  1  0.15596000  0.45703000  0.38756000  1.0
  H  H20  1  0.94757000  0.36440000  0.58552000  1.0
  H  H21  1  0.05243000  0.63560000  0.41448000  1.0
  H  H22  1  0.90722000  0.90116000  0.23749000  1.0
  H  H23  1  0.09278000  0.09884000  0.76250000  1.0
  H  H24  1  0.12572000  0.93846000  0.02755000  1.0
  H  H25  1  0.87428000  0.06154000  0.97244000  1.0
  H  H26  1  0.26495000  0.74093000  0.89153000  1.0
  H  H27  1  0.73504000  0.25907000  0.10847000  1.0
  H  H28  1  0.19539000  0.50113000  0.97030000  1.0
  H  H29  1  0.80461000  0.49886000  0.02970000  1.0
  H  H30  1  0.97881000  0.46306000  0.17740000  1.0
  H  H31  1  0.02119000  0.53694000  0.82260000  1.0
  H  H32  1  0.68333000  0.40892000  0.31221000  1.0
  H  H33  1  0.31667000  0.59108000  0.68779000  1.0
  H  H34  1  0.47967000  0.40030000  0.22557000  1.0
  H  H35  1  0.52033000  0.59970000  0.77444000  1.0
  H  H36  1  0.28510000  0.62441000  0.17730000  1.0
  H  H37  1  0.71489000  0.37559000  0.82270000  1.0
  H  H38  1  0.29067000  0.85864000  0.22396000  1.0
  H  H39  1  0.70933000  0.14136000  0.77605000  1.0
  H  H40  1  0.49509000  0.86880000  0.31409000  1.0
  H  H41  1  0.50491000  0.13120000  0.68591000  1.0
  C  C42  1  0.86618000  0.85910000  0.67751000  1.0
  C  C43  1  0.13381000  0.14090000  0.32249000  1.0
  C  C44  1  0.90701000  0.84474000  0.78675000  1.0
  C  C45  1  0.09298000  0.15526000  0.21325000  1.0
  C  C46  1  0.78987000  0.82535000  0.90748000  1.0
  C  C47  1  0.21013000  0.17465000  0.09252000  1.0
  C  C48  1  0.63540000  0.82387000  0.91409000  1.0
  C  C49  1  0.36460000  0.17614000  0.08591000  1.0
  C  C50  1  0.60470000  0.83963000  0.80014000  1.0
  C  C51  1  0.39530000  0.16037000  0.19986000  1.0
  C  C52  1  0.82607000  0.47627000  0.45117000  1.0
  C  C53  1  0.17394000  0.52373000  0.54883000  1.0
  C  C54  1  0.92140000  0.47497000  0.53632000  1.0
  C  C55  1  0.07860000  0.52503000  0.46369000  1.0
  C  C56  1  0.92750000  0.68016000  0.22149000  1.0
  C  C57  1  0.07250000  0.31984000  0.77850000  1.0
  C  C58  1  0.97075000  0.81364000  0.17843000  1.0
  C  C59  1  0.02924000  0.18637000  0.82156000  1.0
  C  C60  1  0.09279000  0.83453000  0.06047000  1.0
  C  C61  1  0.90721000  0.16547000  0.93952000  1.0
  C  C62  1  0.17254000  0.72306000  0.98474000  1.0
  C  C63  1  0.82746000  0.27694000  0.01526000  1.0
  C  C64  1  0.13189000  0.58913000  0.02823000  1.0
  C  C65  1  0.86812000  0.41087000  0.97177000  1.0
  C  C66  1  0.00987000  0.56790000  0.14565000  1.0
  C  C67  1  0.99013000  0.43210000  0.85435000  1.0
  C  C68  1  0.60718000  0.64130000  0.31475000  1.0
  C  C69  1  0.39283000  0.35870000  0.68525000  1.0
  C  C70  1  0.60089000  0.50924000  0.29084000  1.0
  C  C71  1  0.39911000  0.49076000  0.70916000  1.0
  C  C72  1  0.48502000  0.50392000  0.24165000  1.0
  C  C73  1  0.51498000  0.49608000  0.75835000  1.0
  C  C74  1  0.37505000  0.62938000  0.21569000  1.0
  C  C75  1  0.62495000  0.37061000  0.78431000  1.0
  C  C76  1  0.37863000  0.76082000  0.24169000  1.0
  C  C77  1  0.62137000  0.23917000  0.75832000  1.0
  C  C78  1  0.49391000  0.76687000  0.29132000  1.0
  C  C79  1  0.50609000  0.23313000  0.70869000  1.0
  Br  Br80  1  0.67333000  0.11977000  0.37819000  1.0
  Br  Br81  1  0.32668000  0.88023000  0.62182000  1.0
  N  N82  1  0.71802000  0.85540000  0.68333000  1.0
  N  N83  1  0.28198000  0.14460000  0.31667000  1.0
