# generated using pymatgen
data_Hf3H20C33N3O16
_symmetry_space_group_name_H-M   'P 1'
_cell_length_a   14.13660000
_cell_length_b   14.13510000
_cell_length_c   14.14050000
_cell_angle_alpha   88.75950000
_cell_angle_beta   88.75840000
_cell_angle_gamma   88.79580000
_symmetry_Int_Tables_number   1
_chemical_formula_structural   Hf3H20C33N3O16
_chemical_formula_sum   'Hf6 H40 C66 N6 O32'
_cell_volume   2823.66433713
_cell_formula_units_Z   2
loop_
 _symmetry_equiv_pos_site_id
 _symmetry_equiv_pos_as_xyz
  1  'x, y, z'
loop_
 _atom_site_type_symbol
 _atom_site_label
 _atom_site_symmetry_multiplicity
 _atom_site_fract_x
 _atom_site_fract_y
 _atom_site_fract_z
 _atom_site_occupancy
  Hf  Hf0  1  0.80740000  0.81777000  0.95274000  1.0
  Hf  Hf1  1  0.01378000  0.71745000  0.84701000  1.0
  Hf  Hf2  1  0.91856000  0.03425000  0.96594000  1.0
  Hf  Hf3  1  0.90808000  0.92381000  0.74656000  1.0
  Hf  Hf4  1  0.02664000  0.82853000  0.06347000  1.0
  Hf  Hf5  1  0.12439000  0.93689000  0.85788000  1.0
  H  H6  1  0.53538000  0.16859000  0.20651000  1.0
  H  H7  1  0.35127000  0.14901000  0.19641000  1.0
  H  H8  1  0.39560000  0.59118000  0.61015000  1.0
  H  H9  1  0.58040000  0.61208000  0.62130000  1.0
  H  H10  1  0.25849000  0.17718000  0.47405000  1.0
  H  H11  1  0.23840000  0.16671000  0.29015000  1.0
  H  H12  1  0.68120000  0.58106000  0.33507000  1.0
  H  H13  1  0.70252000  0.59277000  0.51963000  1.0
  H  H14  1  0.26808000  0.44570000  0.19769000  1.0
  H  H15  1  0.25762000  0.26164000  0.17834000  1.0
  H  H16  1  0.67091000  0.30534000  0.62017000  1.0
  H  H17  1  0.68222000  0.49007000  0.64095000  1.0
  H  H18  1  0.83177000  0.74161000  0.77046000  1.0
  H  H19  1  0.85991000  0.91202000  0.11886000  1.0
  H  H20  1  0.00214000  0.08987000  0.79925000  1.0
  H  H21  1  0.17972000  0.77015000  0.94132000  1.0
  H  H22  1  0.65129000  0.21962000  0.88519000  1.0
  H  H23  1  0.70898000  0.16576000  0.68097000  1.0
  H  H24  1  0.79132000  0.49349000  0.78132000  1.0
  H  H25  1  0.61815000  0.57789000  0.89045000  1.0
  H  H26  1  0.14662000  0.24612000  0.04833000  1.0
  H  H27  1  0.31586000  0.17634000  0.92397000  1.0
  H  H28  1  0.20805000  0.57048000  0.13376000  1.0
  H  H29  1  0.28014000  0.53187000  0.92997000  1.0
  H  H30  1  0.74146000  0.61873000  0.19519000  1.0
  H  H31  1  0.94597000  0.56169000  0.24876000  1.0
  H  H32  1  0.95182000  0.52837000  0.60722000  1.0
  H  H33  1  0.84302000  0.70156000  0.52258000  1.0
  H  H34  1  0.10836000  0.05654000  0.27536000  1.0
  H  H35  1  0.98420000  0.22583000  0.20540000  1.0
  H  H36  1  0.19486000  0.11875000  0.59994000  1.0
  H  H37  1  0.99096000  0.19023000  0.56083000  1.0
  H  H38  1  0.25617000  0.65175000  0.64857000  1.0
  H  H39  1  0.30984000  0.85621000  0.59108000  1.0
  H  H40  1  0.66854000  0.86139000  0.55712000  1.0
  H  H41  1  0.58367000  0.75250000  0.73020000  1.0
  H  H42  1  0.26632000  0.89446000  0.25517000  1.0
  H  H43  1  0.33595000  0.01904000  0.08593000  1.0
  H  H44  1  0.62187000  0.90078000  0.21984000  1.0
  H  H45  1  0.65956000  0.10448000  0.14648000  1.0
  C  C46  1  0.53664000  0.02270000  0.26497000  1.0
  C  C47  1  0.49654000  0.10975000  0.23736000  1.0
  C  C48  1  0.39838000  0.09941000  0.23225000  1.0
  C  C49  1  0.37486000  0.00817000  0.26114000  1.0
  C  C50  1  0.39432000  0.73449000  0.54588000  1.0
  C  C51  1  0.43482000  0.64889000  0.57755000  1.0
  C  C52  1  0.53279000  0.66023000  0.58397000  1.0
  C  C53  1  0.55573000  0.75099000  0.55271000  1.0
  C  C54  1  0.11272000  0.23586000  0.47569000  1.0
  C  C55  1  0.19961000  0.20807000  0.43536000  1.0
  C  C56  1  0.18904000  0.20281000  0.33729000  1.0
  C  C57  1  0.09781000  0.23180000  0.31401000  1.0
  C  C58  1  0.82441000  0.51656000  0.33360000  1.0
  C  C59  1  0.73894000  0.54848000  0.37418000  1.0
  C  C60  1  0.75050000  0.55522000  0.47205000  1.0
  C  C61  1  0.84122000  0.52393000  0.49485000  1.0
  C  C62  1  0.32607000  0.44687000  0.05169000  1.0
  C  C63  1  0.29873000  0.40679000  0.13883000  1.0
  C  C64  1  0.29348000  0.30862000  0.12862000  1.0
  C  C65  1  0.32205000  0.28508000  0.03734000  1.0
  C  C66  1  0.60646000  0.30405000  0.76342000  1.0
  C  C67  1  0.63828000  0.34454000  0.67783000  1.0
  C  C68  1  0.64492000  0.44248000  0.68916000  1.0
  C  C69  1  0.61375000  0.46543000  0.77992000  1.0
  C  C70  1  0.71950000  0.99162000  0.06669000  1.0
  C  C71  1  0.81285000  0.60921000  0.87652000  1.0
  C  C72  1  0.69945000  0.84765000  0.75176000  1.0
  C  C73  1  0.85313000  0.70598000  0.14356000  1.0
  C  C74  1  0.20475000  0.76337000  0.73569000  1.0
  C  C75  1  0.12247000  0.13930000  0.94472000  1.0
  C  C76  1  0.93808000  0.72299000  0.63835000  1.0
  C  C77  1  0.12764000  0.62961000  0.02095000  1.0
  C  C78  1  0.00491000  0.03225000  0.16850000  1.0
  C  C79  1  0.79620000  0.11449000  0.79259000  1.0
  C  C80  1  0.08203000  0.03801000  0.65894000  1.0
  C  C81  1  0.22918000  0.91537000  0.06170000  1.0
  C  C82  1  0.65119000  0.22219000  0.80788000  1.0
  C  C83  1  0.71209000  0.16579000  0.75801000  1.0
  C  C84  1  0.75278000  0.54166000  0.82822000  1.0
  C  C85  1  0.65714000  0.53626000  0.83770000  1.0
  C  C86  1  0.18406000  0.20261000  0.99637000  1.0
  C  C87  1  0.27852000  0.21317000  0.98121000  1.0
  C  C88  1  0.20922000  0.57521000  0.05664000  1.0
  C  C89  1  0.27635000  0.52579000  0.00711000  1.0
  C  C90  1  0.50445000  0.37677000  0.88607000  1.0
  C  C91  1  0.42828000  0.37446000  0.92878000  1.0
  C  C92  1  0.81854000  0.62198000  0.19514000  1.0
  C  C93  1  0.86865000  0.56129000  0.25158000  1.0
  C  C94  1  0.89917000  0.56734000  0.56550000  1.0
  C  C95  1  0.88983000  0.66299000  0.57078000  1.0
  C  C96  1  0.05640000  0.09392000  0.23180000  1.0
  C  C97  1  0.04140000  0.18843000  0.24226000  1.0
  C  C98  1  0.11772000  0.11966000  0.60461000  1.0
  C  C99  1  0.06813000  0.18654000  0.55487000  1.0
  C  C100  1  0.94690000  0.41426000  0.40611000  1.0
  C  C101  1  0.98960000  0.33808000  0.40368000  1.0
  C  C102  1  0.25621000  0.72883000  0.65171000  1.0
  C  C103  1  0.31250000  0.77886000  0.59079000  1.0
  C  C104  1  0.62663000  0.80879000  0.59605000  1.0
  C  C105  1  0.63195000  0.79932000  0.69168000  1.0
  C  C106  1  0.30299000  0.95183000  0.21779000  1.0
  C  C107  1  0.29246000  0.96698000  0.12334000  1.0
  C  C108  1  0.61566000  0.97795000  0.21555000  1.0
  C  C109  1  0.66477000  0.02736000  0.14804000  1.0
  C  C110  1  0.46690000  0.85695000  0.44342000  1.0
  C  C111  1  0.46439000  0.89970000  0.36729000  1.0
  N  N112  1  0.45954000  0.96483000  0.29570000  1.0
  N  N113  1  0.47130000  0.79238000  0.51548000  1.0
  N  N114  1  0.05470000  0.26652000  0.39873000  1.0
  N  N115  1  0.88238000  0.48635000  0.41050000  1.0
  N  N116  1  0.35664000  0.36973000  0.99381000  1.0
  N  N117  1  0.57635000  0.38107000  0.82127000  1.0
  O  O118  1  0.77819000  0.05135000  0.03122000  1.0
  O  O119  1  0.90240000  0.60188000  0.86217000  1.0
  O  O120  1  0.69199000  0.83324000  0.84130000  1.0
  O  O121  1  0.79171000  0.74453000  0.08832000  1.0
  O  O122  1  0.93437000  0.74018000  0.15965000  1.0
  O  O123  1  0.76344000  0.89592000  0.70887000  1.0
  O  O124  1  0.76987000  0.67315000  0.92468000  1.0
  O  O125  1  0.70580000  0.90908000  0.03406000  1.0
  O  O126  1  0.94535000  0.76655000  0.96503000  1.0
  O  O127  1  0.85666000  0.93588000  0.88451000  1.0
  O  O128  1  0.87043000  0.78031000  0.80929000  1.0
  O  O129  1  0.88801000  0.90287000  0.05647000  1.0
  O  O130  1  0.14959000  0.70189000  0.77440000  1.0
  O  O131  1  0.03330000  0.14771000  0.96126000  1.0
  O  O132  1  0.92363000  0.81257000  0.63108000  1.0
  O  O133  1  0.09201000  0.68820000  0.08066000  1.0
  O  O134  1  0.02156000  0.94308000  0.17703000  1.0
  O  O135  1  0.83508000  0.05953000  0.73111000  1.0
  O  O136  1  0.14168000  0.00227000  0.71754000  1.0
  O  O137  1  0.23775000  0.93195000  0.97254000  1.0
  O  O138  1  0.99953000  0.00531000  0.64506000  1.0
  O  O139  1  0.17060000  0.85866000  0.10176000  1.0
  O  O140  1  0.98624000  0.68004000  0.70232000  1.0
  O  O141  1  0.83024000  0.13058000  0.87386000  1.0
  O  O142  1  0.94825000  0.07231000  0.10993000  1.0
  O  O143  1  0.09493000  0.61578000  0.93850000  1.0
  O  O144  1  0.22078000  0.84468000  0.76977000  1.0
  O  O145  1  0.16262000  0.08087000  0.88797000  1.0
  O  O146  1  0.03886000  0.94891000  0.97815000  1.0
  O  O147  1  0.02608000  0.85551000  0.79580000  1.0
  O  O148  1  0.99312000  0.02747000  0.82741000  1.0
  O  O149  1  0.11731000  0.79822000  0.93227000  1.0
