# generated using pymatgen
data_CuH12C14NClO4
_symmetry_space_group_name_H-M   'P 1'
_cell_length_a   7.77813000
_cell_length_b   7.91598000
_cell_length_c   13.55350000
_cell_angle_alpha   91.21300000
_cell_angle_beta   103.65100000
_cell_angle_gamma   118.12000000
_symmetry_Int_Tables_number   1
_chemical_formula_structural   CuH12C14NClO4
_chemical_formula_sum   'Cu2 H24 C28 N2 Cl2 O8'
_cell_volume   706.62844077
_cell_formula_units_Z   2
loop_
 _symmetry_equiv_pos_site_id
 _symmetry_equiv_pos_as_xyz
  1  'x, y, z'
loop_
 _atom_site_type_symbol
 _atom_site_label
 _atom_site_symmetry_multiplicity
 _atom_site_fract_x
 _atom_site_fract_y
 _atom_site_fract_z
 _atom_site_occupancy
  Cu  Cu0  1  0.70022000  0.43262000  0.37525000  1.0
  Cu  Cu1  1  0.54924000  0.69728000  0.45305000  1.0
  H  H2  1  0.73507000  0.48954000  0.64200000  1.0
  H  H3  1  0.19932000  0.05431000  0.88370000  1.0
  H  H4  1  0.38305000  0.30132000  0.78230000  1.0
  H  H5  1  0.32187000  0.20528000  0.59424000  1.0
  H  H6  1  0.06837000  0.86910000  0.51041000  1.0
  H  H7  1  0.31993000  0.46479000  0.18410000  1.0
  H  H8  1  0.68879000  0.69827000  0.94100000  1.0
  H  H9  1  0.02478000  0.97049000  0.03839000  1.0
  H  H10  1  0.09035000  0.07604000  0.22566000  1.0
  H  H11  1  0.82468000  0.90321000  0.31235000  1.0
  H  H12  1  0.98105000  0.59246000  0.25171000  1.0
  H  H13  1  0.99455000  0.50366000  0.07932000  1.0
  H  H14  1  0.41598000  0.98307000  0.04427000  1.0
  H  H15  1  0.42603000  0.09683000  0.21618000  1.0
  H  H16  1  0.83960000  0.28877000  0.91695000  1.0
  H  H17  1  0.46643000  0.89619000  0.91295000  1.0
  H  H18  1  0.82525000  0.21475000  0.75555000  1.0
  H  H19  1  0.79969000  0.07951000  0.58545000  1.0
  H  H20  1  0.34021000  0.53518000  0.60276000  1.0
  H  H21  1  0.34355000  0.64798000  0.77484000  1.0
  H  H22  1  0.31514000  0.15729000  0.41301000  1.0
  H  H23  1  0.38902000  0.00786000  0.38682000  1.0
  H  H24  1  0.22330000  0.37709000  0.37369000  1.0
  H  H25  1  0.06375000  0.31230000  0.43754000  1.0
  C  C26  1  0.93236000  0.44798000  0.57014000  1.0
  C  C27  1  0.83106000  0.56755000  0.59203000  1.0
  C  C28  1  0.99177000  0.76877000  0.64808000  1.0
  C  C29  1  0.03557000  0.82422000  0.75379000  1.0
  C  C30  1  0.17269000  0.01492000  0.80180000  1.0
  C  C31  1  0.27537000  0.15291000  0.74444000  1.0
  C  C32  1  0.24115000  0.09970000  0.63987000  1.0
  C  C33  1  0.09945000  0.91026000  0.59264000  1.0
  C  C34  1  0.35795000  0.72790000  0.25721000  1.0
  C  C35  1  0.44701000  0.59796000  0.23424000  1.0
  C  C36  1  0.60397000  0.70249000  0.17720000  1.0
  C  C37  1  0.56898000  0.65079000  0.07196000  1.0
  C  C38  1  0.71953000  0.74476000  0.02239000  1.0
  C  C39  1  0.90776000  0.89739000  0.07751000  1.0
  C  C40  1  0.94453000  0.95589000  0.18168000  1.0
  C  C41  1  0.79421000  0.85813000  0.23060000  1.0
  C  C42  1  0.86056000  0.45779000  0.20346000  1.0
  C  C43  1  0.86581000  0.40656000  0.10622000  1.0
  C  C44  1  0.70671000  0.23311000  0.04442000  1.0
  C  C45  1  0.54554000  0.12009000  0.08575000  1.0
  C  C46  1  0.54908000  0.18194000  0.18289000  1.0
  C  C47  1  0.71530000  0.17957000  0.94314000  1.0
  C  C48  1  0.58523000  0.00552000  0.88375000  1.0
  C  C49  1  0.58647000  0.94230000  0.78271000  1.0
  C  C50  1  0.71458000  0.06301000  0.72644000  1.0
  C  C51  1  0.70087000  0.98905000  0.62972000  1.0
  C  C52  1  0.44580000  0.68415000  0.63991000  1.0
  C  C53  1  0.45005000  0.74877000  0.73671000  1.0
  N  N54  1  0.70471000  0.34729000  0.24168000  1.0
  N  N55  1  0.56815000  0.80285000  0.58671000  1.0
  Cl  Cl56  1  0.91825000  0.65503000  0.83012000  1.0
  Cl  Cl57  1  0.33418000  0.46385000  0.99762000  1.0
  O  O58  1  0.91017000  0.39878000  0.47335000  1.0
  O  O59  1  0.02747000  0.40550000  0.64240000  1.0
  O  O60  1  0.71343000  0.57352000  0.49729000  1.0
  O  O61  1  0.38578000  0.78061000  0.35464000  1.0
  O  O62  1  0.26744000  0.77607000  0.18595000  1.0
  O  O63  1  0.52805000  0.55544000  0.32876000  1.0
  O  O64  1  0.43282000  0.14554000  0.40750000  1.0
  O  O65  1  0.15605000  0.27740000  0.41357000  1.0
