# generated using pymatgen
data_AlH5C12NO7F
_symmetry_space_group_name_H-M   'P 1'
_cell_length_a   6.82236000
_cell_length_b   11.08896225
_cell_length_c   17.68385931
_cell_angle_alpha   84.36664189
_cell_angle_beta   80.50469575
_cell_angle_gamma   73.20215867
_symmetry_Int_Tables_number   1
_chemical_formula_structural   AlH5C12NO7F
_chemical_formula_sum   'Al2 H10 C24 N2 O14 F2'
_cell_volume   1261.39569956
_cell_formula_units_Z   2
loop_
 _symmetry_equiv_pos_site_id
 _symmetry_equiv_pos_as_xyz
  1  'x, y, z'
loop_
 _atom_site_type_symbol
 _atom_site_label
 _atom_site_symmetry_multiplicity
 _atom_site_fract_x
 _atom_site_fract_y
 _atom_site_fract_z
 _atom_site_occupancy
  Al  Al0  1  0.50288000  0.49935000  0.49945000  1.0
  Al  Al1  1  0.00250000  0.49935000  0.50008000  1.0
  H  H2  1  0.27275000  0.38838000  0.58015000  1.0
  H  H3  1  0.73287000  0.61218000  0.42017000  1.0
  H  H4  1  0.35621000  0.88691000  0.52856000  1.0
  H  H5  1  0.64816000  0.11179000  0.47248000  1.0
  H  H6  1  0.32669000  0.55442000  0.72139000  1.0
  H  H7  1  0.23745000  0.55846000  0.86387000  1.0
  H  H8  1  0.89113000  0.44699000  0.88276000  1.0
  H  H9  1  0.09702000  0.55197000  0.11935000  1.0
  H  H10  1  0.67306000  0.44940000  0.27523000  1.0
  H  H11  1  0.75349000  0.44702000  0.13245000  1.0
  C  C12  1  0.69871000  0.50443000  0.63621000  1.0
  C  C13  1  0.85408000  0.27435000  0.49596000  1.0
  C  C14  1  0.30500000  0.49466000  0.36338000  1.0
  C  C15  1  0.15090000  0.72442000  0.50417000  1.0
  C  C16  1  0.93330000  0.13323000  0.49545000  1.0
  C  C17  1  0.07109000  0.86548000  0.50558000  1.0
  C  C18  1  0.13253000  0.06743000  0.51029000  1.0
  C  C19  1  0.87160000  0.93124000  0.49101000  1.0
  C  C20  1  0.20138000  0.93684000  0.51620000  1.0
  C  C21  1  0.80295000  0.06183000  0.48494000  1.0
  C  C22  1  0.65445000  0.50466000  0.72154000  1.0
  C  C23  1  0.44789000  0.53325000  0.75779000  1.0
  C  C24  1  0.39844000  0.53457000  0.83702000  1.0
  C  C25  1  0.55726000  0.50389000  0.88368000  1.0
  C  C26  1  0.76508000  0.47339000  0.84844000  1.0
  C  C27  1  0.80955000  0.47517000  0.76909000  1.0
  C  C28  1  0.51113000  0.50234000  0.96461000  1.0
  C  C29  1  0.47436000  0.50048000  0.03459000  1.0
  C  C30  1  0.43174000  0.49848000  0.11560000  1.0
  C  C31  1  0.22554000  0.52682000  0.15249000  1.0
  C  C32  1  0.18599000  0.52428000  0.23195000  1.0
  C  C33  1  0.34451000  0.49598000  0.27797000  1.0
  C  C34  1  0.54924000  0.46970000  0.24005000  1.0
  C  C35  1  0.59381000  0.46933000  0.16071000  1.0
  N  N36  1  0.28667000  0.13536000  0.51340000  1.0
  N  N37  1  0.71742000  0.86327000  0.48801000  1.0
  O  O38  1  0.55804000  0.48661000  0.60272000  1.0
  O  O39  1  0.98235000  0.33010000  0.50954000  1.0
  O  O40  1  0.13424000  0.47772000  0.39651000  1.0
  O  O41  1  0.33799000  0.67410000  0.51317000  1.0
  O  O42  1  0.44755000  0.51177000  0.39616000  1.0
  O  O43  1  0.02224000  0.66876000  0.49083000  1.0
  O  O44  1  0.87062000  0.52072000  0.60383000  1.0
  O  O45  1  0.66776000  0.32472000  0.48594000  1.0
  O  O46  1  0.26402000  0.44488000  0.53454000  1.0
  O  O47  1  0.74154000  0.55418000  0.46510000  1.0
  O  O48  1  0.36546000  0.17067000  0.45010000  1.0
  O  O49  1  0.33516000  0.14498000  0.57640000  1.0
  O  O50  1  0.66834000  0.85387000  0.42508000  1.0
  O  O51  1  0.63901000  0.82779000  0.55135000  1.0
  F  F52  1  0.01304000  0.44278000  0.73863000  1.0
  F  F53  1  0.98368000  0.55471000  0.26403000  1.0
