# generated using pymatgen
data_ZnH24C24(N3O2)2
_symmetry_space_group_name_H-M   'P 1'
_cell_length_a   8.69594000
_cell_length_b   15.29940000
_cell_length_c   19.16620000
_cell_angle_alpha   90.00000000
_cell_angle_beta   90.00000000
_cell_angle_gamma   89.99970000
_symmetry_Int_Tables_number   1
_chemical_formula_structural   ZnH24C24(N3O2)2
_chemical_formula_sum   'Zn4 H96 C96 N24 O16'
_cell_volume   2549.92231508
_cell_formula_units_Z   4
loop_
 _symmetry_equiv_pos_site_id
 _symmetry_equiv_pos_as_xyz
  1  'x, y, z'
loop_
 _atom_site_type_symbol
 _atom_site_label
 _atom_site_symmetry_multiplicity
 _atom_site_fract_x
 _atom_site_fract_y
 _atom_site_fract_z
 _atom_site_occupancy
  Zn  Zn0  1  0.55791000  0.96110000  0.25926000  1.0
  Zn  Zn1  1  0.94209000  0.03890000  0.75926000  1.0
  Zn  Zn2  1  0.44209000  0.46110000  0.24074000  1.0
  Zn  Zn3  1  0.05791000  0.53890000  0.74074000  1.0
  H  H4  1  0.94790000  0.85486000  0.14616000  1.0
  H  H5  1  0.55210000  0.14514000  0.64616000  1.0
  H  H6  1  0.05211000  0.35486000  0.35384000  1.0
  H  H7  1  0.44788000  0.64514000  0.85384000  1.0
  H  H8  1  0.08553000  0.75578000  0.06054000  1.0
  H  H9  1  0.41447000  0.24422000  0.56054000  1.0
  H  H10  1  0.91447000  0.25579000  0.43945000  1.0
  H  H11  1  0.58553000  0.74421000  0.93946000  1.0
  H  H12  1  0.98373000  0.74647000  0.93948000  1.0
  H  H13  1  0.51626000  0.25354000  0.43948000  1.0
  H  H14  1  0.01627000  0.24646000  0.56052000  1.0
  H  H15  1  0.48374000  0.75353000  0.06052000  1.0
  H  H16  1  0.46806000  0.06130000  0.83744000  1.0
  H  H17  1  0.03195000  0.93871000  0.33744000  1.0
  H  H18  1  0.53195000  0.56130000  0.66256000  1.0
  H  H19  1  0.96805000  0.43870000  0.16256000  1.0
  H  H20  1  0.22092000  0.03015000  0.90265000  1.0
  H  H21  1  0.27908000  0.96985000  0.40265000  1.0
  H  H22  1  0.77908000  0.53015000  0.59735000  1.0
  H  H23  1  0.72092000  0.46985000  0.09735000  1.0
  H  H24  1  0.23702000  0.94479000  0.01366000  1.0
  H  H25  1  0.26298000  0.05521000  0.51366000  1.0
  H  H26  1  0.76298000  0.44479000  0.48634000  1.0
  H  H27  1  0.73703000  0.55520000  0.98634000  1.0
  H  H28  1  0.49070000  0.84744000  0.39782000  1.0
  H  H29  1  0.00930000  0.15256000  0.89782000  1.0
  H  H30  1  0.50930000  0.34743000  0.10218000  1.0
  H  H31  1  0.99070000  0.65257000  0.60218000  1.0
  H  H32  1  0.32596000  0.68875000  0.38554000  1.0
  H  H33  1  0.17404000  0.31125000  0.88554000  1.0
  H  H34  1  0.67404000  0.18875000  0.11446000  1.0
  H  H35  1  0.82596000  0.81125000  0.61446000  1.0
  H  H36  1  0.28091000  0.77040000  0.14319000  1.0
  H  H37  1  0.21909000  0.22960000  0.64319000  1.0
  H  H38  1  0.71909000  0.27041000  0.35681000  1.0
  H  H39  1  0.78091000  0.72960000  0.85681000  1.0
  H  H40  1  0.40536000  0.86251000  0.14732000  1.0
  H  H41  1  0.09464000  0.13749000  0.64732000  1.0
  H  H42  1  0.59464000  0.36251000  0.35268000  1.0
  H  H43  1  0.90536000  0.63749000  0.85268000  1.0
  H  H44  1  0.20799000  0.87416000  0.16897000  1.0
  H  H45  1  0.29201000  0.12584000  0.66896000  1.0
  H  H46  1  0.79201000  0.37416000  0.33103000  1.0
  H  H47  1  0.70799000  0.62585000  0.83103000  1.0
  H  H48  1  0.21582000  0.61042000  0.28627000  1.0
  H  H49  1  0.28418000  0.38958000  0.78627000  1.0
  H  H50  1  0.78419000  0.11042000  0.21373000  1.0
  H  H51  1  0.71581000  0.88958000  0.71373000  1.0
  H  H52  1  0.24787000  0.64996000  0.20055000  1.0
  H  H53  1  0.25213000  0.35004000  0.70054000  1.0
  H  H54  1  0.75213000  0.14996000  0.29946000  1.0
  H  H55  1  0.74787000  0.85004000  0.79946000  1.0
  H  H56  1  0.02232000  0.74934000  0.20991000  1.0
  H  H57  1  0.47769000  0.25066000  0.70991000  1.0
  H  H58  1  0.97768000  0.24934000  0.29010000  1.0
  H  H59  1  0.52232000  0.75066000  0.79009000  1.0
  H  H60  1  0.97176000  0.63892000  0.22048000  1.0
  H  H61  1  0.52824000  0.36108000  0.72048000  1.0
  H  H62  1  0.02824000  0.13892000  0.27952000  1.0
  H  H63  1  0.47176000  0.86108000  0.77952000  1.0
  H  H64  1  0.02531000  0.76715000  0.34243000  1.0
  H  H65  1  0.47469000  0.23285000  0.84243000  1.0
  H  H66  1  0.97468000  0.26715000  0.15757000  1.0
  H  H67  1  0.52531000  0.73285000  0.65757000  1.0
  H  H68  1  0.96197000  0.65836000  0.35015000  1.0
  H  H69  1  0.53803000  0.34164000  0.85015000  1.0
  H  H70  1  0.03803000  0.15836000  0.14985000  1.0
  H  H71  1  0.46197000  0.84164000  0.64985000  1.0
  H  H72  1  0.74145000  0.76144000  0.35896000  1.0
  H  H73  1  0.75855000  0.23856000  0.85896000  1.0
  H  H74  1  0.25855000  0.26145000  0.14104000  1.0
  H  H75  1  0.24145000  0.73856000  0.64104000  1.0
  H  H76  1  0.79227000  0.81191000  0.27953000  1.0
  H  H77  1  0.70773000  0.18809000  0.77953000  1.0
  H  H78  1  0.20773000  0.31191000  0.22047000  1.0
  H  H79  1  0.29227000  0.68809000  0.72047000  1.0
  H  H80  1  0.68164000  0.75769000  0.17109000  1.0
  H  H81  1  0.81836000  0.24231000  0.67109000  1.0
  H  H82  1  0.31836000  0.25770000  0.32891000  1.0
  H  H83  1  0.18163000  0.74231000  0.82891000  1.0
  H  H84  1  0.51580000  0.60696000  0.13448000  1.0
  H  H85  1  0.98420000  0.39303000  0.63448000  1.0
  H  H86  1  0.48420000  0.10696000  0.36552000  1.0
  H  H87  1  0.01580000  0.89304000  0.86552000  1.0
  H  H88  1  0.57300000  0.53092000  0.37748000  1.0
  H  H89  1  0.92701000  0.46908000  0.87748000  1.0
  H  H90  1  0.42700000  0.03092000  0.12252000  1.0
  H  H91  1  0.07299000  0.96908000  0.62252000  1.0
  H  H92  1  0.66209000  0.62976000  0.40303000  1.0
  H  H93  1  0.83791000  0.37023000  0.90302000  1.0
  H  H94  1  0.33791000  0.12977000  0.09698000  1.0
  H  H95  1  0.16209000  0.87024000  0.59698000  1.0
  H  H96  1  0.77636000  0.54340000  0.36943000  1.0
  H  H97  1  0.72364000  0.45660000  0.86943000  1.0
  H  H98  1  0.22364000  0.04340000  0.13057000  1.0
  H  H99  1  0.27635000  0.95660000  0.63057000  1.0
  C  C100  1  0.70529000  0.95730000  0.12139000  1.0
  C  C101  1  0.79471000  0.04268000  0.62139000  1.0
  C  C102  1  0.29472000  0.45730000  0.37861000  1.0
  C  C103  1  0.20528000  0.54271000  0.87861000  1.0
  C  C104  1  0.78685000  0.90024000  0.06929000  1.0
  C  C105  1  0.71315000  0.09976000  0.56929000  1.0
  C  C106  1  0.21316000  0.40024000  0.43071000  1.0
  C  C107  1  0.28684000  0.59976000  0.93071000  1.0
  C  C108  1  0.91235000  0.85053000  0.09168000  1.0
  C  C109  1  0.58765000  0.14946000  0.59168000  1.0
  C  C110  1  0.08766000  0.35054000  0.40832000  1.0
  C  C111  1  0.41234000  0.64946000  0.90832000  1.0
  C  C112  1  0.98783000  0.79589000  0.04494000  1.0
  C  C113  1  0.51217000  0.20411000  0.54494000  1.0
  C  C114  1  0.01218000  0.29589000  0.45506000  1.0
  C  C115  1  0.48783000  0.70411000  0.95506000  1.0
  C  C116  1  0.93174000  0.79151000  0.97684000  1.0
  C  C117  1  0.56826000  0.20849000  0.47684000  1.0
  C  C118  1  0.06826000  0.29151000  0.52316000  1.0
  C  C119  1  0.43174000  0.70849000  0.02316000  1.0
  C  C120  1  0.74157000  0.89318000  0.99921000  1.0
  C  C121  1  0.75843000  0.10682000  0.49920000  1.0
  C  C122  1  0.25843000  0.39318000  0.50079000  1.0
  C  C123  1  0.24157000  0.60682000  0.00079000  1.0
  C  C124  1  0.60312000  0.94013000  0.97250000  1.0
  C  C125  1  0.89687000  0.05987000  0.47249000  1.0
  C  C126  1  0.39688000  0.44013000  0.52751000  1.0
  C  C127  1  0.10313000  0.55987000  0.02751000  1.0
  C  C128  1  0.60742000  0.99127000  0.91138000  1.0
  C  C129  1  0.89258000  0.00874000  0.41137000  1.0
  C  C130  1  0.39259000  0.49127000  0.58862000  1.0
  C  C131  1  0.10742000  0.50873000  0.08863000  1.0
  C  C132  1  0.46763000  0.02337000  0.88563000  1.0
  C  C133  1  0.03237000  0.97663000  0.38562000  1.0
  C  C134  1  0.53237000  0.52337000  0.61437000  1.0
  C  C135  1  0.96763000  0.47663000  0.11437000  1.0
  C  C136  1  0.33159000  0.00658000  0.92155000  1.0
  C  C137  1  0.16841000  0.99342000  0.42154000  1.0
  C  C138  1  0.66841000  0.50658000  0.57845000  1.0
  C  C139  1  0.83159000  0.49342000  0.07846000  1.0
  C  C140  1  0.34069000  0.95848000  0.98329000  1.0
  C  C141  1  0.15931000  0.04152000  0.48328000  1.0
  C  C142  1  0.65931000  0.45848000  0.51671000  1.0
  C  C143  1  0.84069000  0.54151000  0.01671000  1.0
  C  C144  1  0.75612000  0.01354000  0.87538000  1.0
  C  C145  1  0.74389000  0.98646000  0.37537000  1.0
  C  C146  1  0.24388000  0.51354000  0.62463000  1.0
  C  C147  1  0.25611000  0.48646000  0.12463000  1.0
  C  C148  1  0.43016000  0.81812000  0.35421000  1.0
  C  C149  1  0.06984000  0.18188000  0.85421000  1.0
  C  C150  1  0.56984000  0.31812000  0.14579000  1.0
  C  C151  1  0.93016000  0.68188000  0.64579000  1.0
  C  C152  1  0.34857000  0.74165000  0.34926000  1.0
  C  C153  1  0.15144000  0.25835000  0.84926000  1.0
  C  C154  1  0.65143000  0.24165000  0.15074000  1.0
  C  C155  1  0.84857000  0.75835000  0.65074000  1.0
  C  C156  1  0.34448000  0.80972000  0.24641000  1.0
  C  C157  1  0.15552000  0.19028000  0.74641000  1.0
  C  C158  1  0.65552000  0.30972000  0.25359000  1.0
  C  C159  1  0.84448000  0.69028000  0.75359000  1.0
  C  C160  1  0.30767000  0.83003000  0.17261000  1.0
  C  C161  1  0.19233000  0.16997000  0.67261000  1.0
  C  C162  1  0.69233000  0.33003000  0.32739000  1.0
  C  C163  1  0.80767000  0.66997000  0.82739000  1.0
  C  C164  1  0.20141000  0.66719000  0.25194000  1.0
  C  C165  1  0.29859000  0.33281000  0.75194000  1.0
  C  C166  1  0.79859000  0.16719000  0.24806000  1.0
  C  C167  1  0.70141000  0.83281000  0.74806000  1.0
  C  C168  1  0.03292000  0.69339000  0.24573000  1.0
  C  C169  1  0.46708000  0.30661000  0.74573000  1.0
  C  C170  1  0.96708000  0.19339000  0.25427000  1.0
  C  C171  1  0.53292000  0.80661000  0.75427000  1.0
  C  C172  1  0.95886000  0.71588000  0.31562000  1.0
  C  C173  1  0.54114000  0.28412000  0.81562000  1.0
  C  C174  1  0.04114000  0.21588000  0.18438000  1.0
  C  C175  1  0.45886000  0.78412000  0.68438000  1.0
  C  C176  1  0.79436000  0.74952000  0.30780000  1.0
  C  C177  1  0.70564000  0.25048000  0.80779000  1.0
  C  C178  1  0.20564000  0.24952000  0.19220000  1.0
  C  C179  1  0.29436000  0.75048000  0.69221000  1.0
  C  C180  1  0.65394000  0.69861000  0.19979000  1.0
  C  C181  1  0.84606000  0.30138000  0.69978000  1.0
  C  C182  1  0.34606000  0.19862000  0.30022000  1.0
  C  C183  1  0.15394000  0.80138000  0.80022000  1.0
  C  C184  1  0.57149000  0.62537000  0.18289000  1.0
  C  C185  1  0.92852000  0.37463000  0.68289000  1.0
  C  C186  1  0.42851000  0.12537000  0.31711000  1.0
  C  C187  1  0.07148000  0.87463000  0.81711000  1.0
  C  C188  1  0.64112000  0.61117000  0.29277000  1.0
  C  C189  1  0.85888000  0.38883000  0.79277000  1.0
  C  C190  1  0.35888000  0.11117000  0.20723000  1.0
  C  C191  1  0.14112000  0.88883000  0.70723000  1.0
  C  C192  1  0.66489000  0.57689000  0.36430000  1.0
  C  C193  1  0.83511000  0.42311000  0.86429000  1.0
  C  C194  1  0.33511000  0.07689000  0.13571000  1.0
  C  C195  1  0.16489000  0.92311000  0.63571000  1.0
  N  N196  1  0.42761000  0.85957000  0.28994000  1.0
  N  N197  1  0.07239000  0.14044000  0.78994000  1.0
  N  N198  1  0.57239000  0.35956000  0.21006000  1.0
  N  N199  1  0.92761000  0.64044000  0.71006000  1.0
  N  N200  1  0.29603000  0.73725000  0.28113000  1.0
  N  N201  1  0.20397000  0.26275000  0.78112000  1.0
  N  N202  1  0.70397000  0.23725000  0.21888000  1.0
  N  N203  1  0.79603000  0.76275000  0.71888000  1.0
  N  N204  1  0.56347000  0.57179000  0.24108000  1.0
  N  N205  1  0.93653000  0.42821000  0.74107000  1.0
  N  N206  1  0.43652000  0.07179000  0.25892000  1.0
  N  N207  1  0.06347000  0.92821000  0.75893000  1.0
  N  N208  1  0.69663000  0.68888000  0.26895000  1.0
  N  N209  1  0.80337000  0.31112000  0.76895000  1.0
  N  N210  1  0.30337000  0.18888000  0.23105000  1.0
  N  N211  1  0.19663000  0.81112000  0.73106000  1.0
  N  N212  1  0.47254000  0.92563000  0.00836000  1.0
  N  N213  1  0.02746000  0.07437000  0.50836000  1.0
  N  N214  1  0.52746000  0.42563000  0.49164000  1.0
  N  N215  1  0.97254000  0.57437000  0.99164000  1.0
  N  N216  1  0.81168000  0.83851000  0.95412000  1.0
  N  N217  1  0.68831000  0.16150000  0.45412000  1.0
  N  N218  1  0.18831000  0.33850000  0.54588000  1.0
  N  N219  1  0.31169000  0.66149000  0.04588000  1.0
  O  O220  1  0.70283000  0.03820000  0.11473000  1.0
  O  O221  1  0.79716000  0.96180000  0.61472000  1.0
  O  O222  1  0.29718000  0.53821000  0.38527000  1.0
  O  O223  1  0.20282000  0.46179000  0.88527000  1.0
  O  O224  1  0.64586000  0.91229000  0.17212000  1.0
  O  O225  1  0.85414000  0.08771000  0.67212000  1.0
  O  O226  1  0.35415000  0.41228000  0.32788000  1.0
  O  O227  1  0.14586000  0.58771000  0.82788000  1.0
  O  O228  1  0.87856000  0.02030000  0.90899000  1.0
  O  O229  1  0.62144000  0.97970000  0.40898000  1.0
  O  O230  1  0.12144000  0.52030000  0.59102000  1.0
  O  O231  1  0.37856000  0.47970000  0.09102000  1.0
  O  O232  1  0.74293000  0.02557000  0.80843000  1.0
  O  O233  1  0.75708000  0.97443000  0.30843000  1.0
  O  O234  1  0.25708000  0.52557000  0.69157000  1.0
  O  O235  1  0.24292000  0.47443000  0.19157000  1.0
