# generated using pymatgen
data_CuH6C9(IN3)2
_symmetry_space_group_name_H-M   'P 1'
_cell_length_a   4.41595000
_cell_length_b   11.94530000
_cell_length_c   12.23940000
_cell_angle_alpha   74.21900000
_cell_angle_beta   86.03430000
_cell_angle_gamma   81.62000000
_symmetry_Int_Tables_number   1
_chemical_formula_structural   CuH6C9(IN3)2
_chemical_formula_sum   'Cu2 H12 C18 I4 N12'
_cell_volume   614.36267475
_cell_formula_units_Z   2
loop_
 _symmetry_equiv_pos_site_id
 _symmetry_equiv_pos_as_xyz
  1  'x, y, z'
loop_
 _atom_site_type_symbol
 _atom_site_label
 _atom_site_symmetry_multiplicity
 _atom_site_fract_x
 _atom_site_fract_y
 _atom_site_fract_z
 _atom_site_occupancy
  Cu  Cu0  1  0.87753000  0.91495000  0.56049000  1.0
  Cu  Cu1  1  0.12249000  0.08505000  0.43951000  1.0
  H  H2  1  0.77838000  0.55369000  0.26759000  1.0
  H  H3  1  0.22157000  0.44630000  0.73240000  1.0
  H  H4  1  0.52394000  0.55614000  0.86908000  1.0
  H  H5  1  0.47605000  0.44386000  0.13091000  1.0
  H  H6  1  0.48009000  0.04944000  0.86842000  1.0
  H  H7  1  0.51993000  0.95056000  0.13159000  1.0
  H  H8  1  0.19189000  0.98660000  0.70176000  1.0
  H  H9  1  0.80813000  0.01340000  0.29824000  1.0
  H  H10  1  0.55808000  0.68157000  0.64198000  1.0
  H  H11  1  0.44193000  0.31844000  0.35801000  1.0
  H  H12  1  0.11045000  0.74256000  0.20603000  1.0
  H  H13  1  0.88952000  0.25743000  0.79398000  1.0
  C  C14  1  0.82874000  0.60777000  0.18335000  1.0
  C  C15  1  0.17122000  0.39222000  0.81665000  1.0
  C  C16  1  0.82657000  0.66788000  0.00202000  1.0
  C  C17  1  0.17342000  0.33211000  0.99798000  1.0
  C  C18  1  0.62806000  0.63472000  0.82686000  1.0
  C  C19  1  0.37194000  0.36529000  0.17314000  1.0
  C  C20  1  0.34063000  0.97981000  0.87634000  1.0
  C  C21  1  0.65938000  0.02019000  0.12366000  1.0
  C  C22  1  0.88776000  0.78602000  0.80891000  1.0
  C  C23  1  0.11225000  0.21398000  0.19108000  1.0
  C  C24  1  0.11454000  0.83234000  0.96328000  1.0
  C  C25  1  0.88546000  0.16766000  0.03672000  1.0
  C  C26  1  0.20033000  0.95102000  0.79296000  1.0
  C  C27  1  0.79967000  0.04898000  0.20705000  1.0
  C  C28  1  0.64739000  0.69784000  0.71568000  1.0
  C  C29  1  0.35262000  0.30217000  0.28432000  1.0
  C  C30  1  0.99358000  0.70121000  0.15587000  1.0
  C  C31  1  0.00640000  0.29879000  0.84413000  1.0
  I  I32  1  0.35610000  0.87011000  0.43912000  1.0
  I  I33  1  0.64390000  0.12989000  0.56087000  1.0
  I  I34  1  0.11163000  0.61043000  0.47938000  1.0
  I  I35  1  0.88840000  0.38958000  0.52061000  1.0
  N  N36  1  0.05263000  0.85500000  0.84875000  1.0
  N  N37  1  0.94738000  0.14500000  0.15125000  1.0
  N  N38  1  0.78247000  0.69174000  0.88665000  1.0
  N  N39  1  0.21753000  0.30827000  0.11334000  1.0
  N  N40  1  0.99235000  0.74012000  0.03798000  1.0
  N  N41  1  0.00765000  0.25988000  0.96202000  1.0
  N  N42  1  0.28761000  0.90460000  0.98260000  1.0
  N  N43  1  0.71239000  0.09540000  0.01741000  1.0
  N  N44  1  0.72484000  0.58725000  0.08674000  1.0
  N  N45  1  0.27514000  0.41275000  0.91326000  1.0
  N  N46  1  0.80868000  0.79285000  0.70439000  1.0
  N  N47  1  0.19133000  0.20716000  0.29561000  1.0
