# generated using pymatgen
data_Sn2H22C11O5
_symmetry_space_group_name_H-M   'P 1'
_cell_length_a   9.09604000
_cell_length_b   9.43705000
_cell_length_c   9.94040000
_cell_angle_alpha   107.09100000
_cell_angle_beta   100.63300000
_cell_angle_gamma   92.62050000
_symmetry_Int_Tables_number   1
_chemical_formula_structural   Sn2H22C11O5
_chemical_formula_sum   'Sn4 H44 C22 O10'
_cell_volume   797.04598283
_cell_formula_units_Z   2
loop_
 _symmetry_equiv_pos_site_id
 _symmetry_equiv_pos_as_xyz
  1  'x, y, z'
loop_
 _atom_site_type_symbol
 _atom_site_label
 _atom_site_symmetry_multiplicity
 _atom_site_fract_x
 _atom_site_fract_y
 _atom_site_fract_z
 _atom_site_occupancy
  Sn  Sn0  1  0.93833000  0.24144000  0.80292000  1.0
  Sn  Sn1  1  0.06167000  0.75856000  0.19709000  1.0
  Sn  Sn2  1  0.13505000  0.12919000  0.50649000  1.0
  Sn  Sn3  1  0.86495000  0.87081000  0.49351000  1.0
  H  H4  1  0.24212000  0.56131000  0.64111000  1.0
  H  H5  1  0.75788000  0.43869000  0.35889000  1.0
  H  H6  1  0.37759000  0.46480000  0.71685000  1.0
  H  H7  1  0.62242000  0.53520000  0.28315000  1.0
  H  H8  1  0.30414000  0.77744000  0.87172000  1.0
  H  H9  1  0.69586000  0.22255000  0.12827000  1.0
  H  H10  1  0.56830000  0.67575000  0.72615000  1.0
  H  H11  1  0.43170000  0.32425000  0.27384000  1.0
  H  H12  1  0.41881000  0.76211000  0.65565000  1.0
  H  H13  1  0.58119000  0.23789000  0.34435000  1.0
  H  H14  1  0.49565000  0.99470000  0.86295000  1.0
  H  H15  1  0.50435000  0.00530000  0.13705000  1.0
  H  H16  1  0.63691000  0.91038000  0.94590000  1.0
  H  H17  1  0.36309000  0.08962000  0.05409000  1.0
  H  H18  1  0.40394000  0.63613000  0.03730000  1.0
  H  H19  1  0.59606000  0.36388000  0.96271000  1.0
  H  H20  1  0.53703000  0.78420000  0.05282000  1.0
  H  H21  1  0.46297000  0.21581000  0.94717000  1.0
  H  H22  1  0.56149000  0.60013000  0.95374000  1.0
  H  H23  1  0.43851000  0.39988000  0.04627000  1.0
  H  H24  1  0.82099000  0.43303000  0.67067000  1.0
  H  H25  1  0.17901000  0.56697000  0.32934000  1.0
  H  H26  1  0.75746000  0.46102000  0.83617000  1.0
  H  H27  1  0.24254000  0.53898000  0.16384000  1.0
  H  H28  1  0.67162000  0.30669000  0.68046000  1.0
  H  H29  1  0.32839000  0.69331000  0.31955000  1.0
  H  H30  1  0.07681000  0.08777000  0.96834000  1.0
  H  H31  1  0.92320000  0.91224000  0.03166000  1.0
  H  H32  1  0.05829000  0.27273000  0.07821000  1.0
  H  H33  1  0.94172000  0.72727000  0.92179000  1.0
  H  H34  1  0.20293000  0.24364000  0.97462000  1.0
  H  H35  1  0.79707000  0.75636000  0.02538000  1.0
  H  H36  1  0.37275000  0.99459000  0.58915000  1.0
  H  H37  1  0.62726000  0.00542000  0.41084000  1.0
  H  H38  1  0.41067000  0.19037000  0.68285000  1.0
  H  H39  1  0.58933000  0.80963000  0.31715000  1.0
  H  H40  1  0.28820000  0.07632000  0.74056000  1.0
  H  H41  1  0.71180000  0.92369000  0.25944000  1.0
  H  H42  1  0.94075000  0.32368000  0.45972000  1.0
  H  H43  1  0.05925000  0.67631000  0.54028000  1.0
  H  H44  1  0.11022000  0.36317000  0.40269000  1.0
  H  H45  1  0.88978000  0.63683000  0.59731000  1.0
  H  H46  1  0.97565000  0.21103000  0.29021000  1.0
  H  H47  1  0.02434000  0.78896000  0.70979000  1.0
  C  C48  1  0.17877000  0.48495000  0.80406000  1.0
  C  C49  1  0.82123000  0.51505000  0.19594000  1.0
  C  C50  1  0.29936000  0.54949000  0.74458000  1.0
  C  C51  1  0.70065000  0.45050000  0.25542000  1.0
  C  C52  1  0.38638000  0.69777000  0.84141000  1.0
  C  C53  1  0.61362000  0.30223000  0.15859000  1.0
  C  C54  1  0.48734000  0.75651000  0.75733000  1.0
  C  C55  1  0.51266000  0.24349000  0.24267000  1.0
  C  C56  1  0.57312000  0.90886000  0.84013000  1.0
  C  C57  1  0.42688000  0.09114000  0.15986000  1.0
  C  C58  1  0.68615000  0.96335000  0.76691000  1.0
  C  C59  1  0.31385000  0.03665000  0.23308000  1.0
  C  C60  1  0.47744000  0.67863000  0.97902000  1.0
  C  C61  1  0.52256000  0.32138000  0.02098000  1.0
  C  C62  1  0.77589000  0.37796000  0.73947000  1.0
  C  C63  1  0.22412000  0.62205000  0.26054000  1.0
  C  C64  1  0.08854000  0.20682000  0.97872000  1.0
  C  C65  1  0.91146000  0.79318000  0.02128000  1.0
  C  C66  1  0.32599000  0.09360000  0.64765000  1.0
  C  C67  1  0.67401000  0.90641000  0.35235000  1.0
  C  C68  1  0.02673000  0.27533000  0.40174000  1.0
  C  C69  1  0.97327000  0.72467000  0.59826000  1.0
  O  O70  1  0.12431000  0.34708000  0.73027000  1.0
  O  O71  1  0.87570000  0.65291000  0.26973000  1.0
  O  O72  1  0.13283000  0.55667000  0.91179000  1.0
  O  O73  1  0.86717000  0.44332000  0.08820000  1.0
  O  O74  1  0.69969000  0.88048000  0.64481000  1.0
  O  O75  1  0.30030000  0.11952000  0.35518000  1.0
  O  O76  1  0.76036000  0.09042000  0.83649000  1.0
  O  O77  1  0.23965000  0.90957000  0.16351000  1.0
  O  O78  1  0.96254000  0.08406000  0.61664000  1.0
  O  O79  1  0.03746000  0.91594000  0.38336000  1.0
