# generated using pymatgen
data_Al6H74C105Br6O31
_symmetry_space_group_name_H-M   'P 1'
_cell_length_a   13.61280000
_cell_length_b   13.94077659
_cell_length_c   27.16780000
_cell_angle_alpha   88.88819361
_cell_angle_beta   88.77220000
_cell_angle_gamma   61.15286892
_symmetry_Int_Tables_number   1
_chemical_formula_structural   Al6H74C105Br6O31
_chemical_formula_sum   'Al6 H74 C105 Br6 O31'
_cell_volume   4514.66407002
_cell_formula_units_Z   1
loop_
 _symmetry_equiv_pos_site_id
 _symmetry_equiv_pos_as_xyz
  1  'x, y, z'
loop_
 _atom_site_type_symbol
 _atom_site_label
 _atom_site_symmetry_multiplicity
 _atom_site_fract_x
 _atom_site_fract_y
 _atom_site_fract_z
 _atom_site_occupancy
  Al  Al0  1  0.58324000  0.56611000  0.50728000  1.0
  Al  Al1  1  0.81394000  0.57497000  0.50550000  1.0
  Al  Al2  1  0.59962000  0.78734000  0.50186000  1.0
  Al  Al3  1  0.07184000  0.09439000  0.01777000  1.0
  Al  Al4  1  0.85957000  0.05267000  0.01910000  1.0
  Al  Al5  1  0.08790000  0.85689000  0.01321000  1.0
  H  H6  1  0.68499000  0.95530000  0.79702000  1.0
  H  H7  1  0.03526000  0.71185000  0.79506000  1.0
  H  H8  1  0.19874000  0.05352000  0.78085000  1.0
  H  H9  1  0.70712000  0.24212000  0.79487000  1.0
  H  H10  1  0.76638000  0.99637000  0.13897000  1.0
  H  H11  1  0.20220000  0.75435000  0.14525000  1.0
  H  H12  1  0.02229000  0.19671000  0.14658000  1.0
  H  H13  1  0.66815000  0.93275000  0.37893000  1.0
  H  H14  1  0.37750000  0.64692000  0.38172000  1.0
  H  H15  1  0.97732000  0.36849000  0.38148000  1.0
  H  H16  1  0.65894000  0.07326000  0.21563000  1.0
  H  H17  1  0.39052000  0.70434000  0.80293000  1.0
  H  H18  1  0.21797000  0.65538000  0.22444000  1.0
  H  H19  1  0.10834000  0.23213000  0.21876000  1.0
  H  H20  1  0.62490000  0.05150000  0.30416000  1.0
  H  H21  1  0.28011000  0.61737000  0.31107000  1.0
  H  H22  1  0.09297000  0.29311000  0.30508000  1.0
  H  H23  1  0.07127000  0.54102000  0.20931000  1.0
  H  H24  1  0.41123000  0.02383000  0.20491000  1.0
  H  H25  1  0.57747000  0.30282000  0.23522000  1.0
  H  H26  1  0.03789000  0.51979000  0.29707000  1.0
  H  H27  1  0.46433000  0.99224000  0.29211000  1.0
  H  H28  1  0.94709000  0.35520000  0.81338000  1.0
  H  H29  1  0.56505000  0.35725000  0.32179000  1.0
  H  H30  1  0.67174000  0.91568000  0.71531000  1.0
  H  H31  1  0.38621000  0.68935000  0.71748000  1.0
  H  H32  1  0.96602000  0.34769000  0.72702000  1.0
  H  H33  1  0.93331000  0.59893000  0.37569000  1.0
  H  H34  1  0.48171000  0.89254000  0.37105000  1.0
  H  H35  1  0.64673000  0.40273000  0.39304000  1.0
  H  H36  1  0.94707000  0.90106000  0.68953000  1.0
  H  H37  1  0.12305000  0.94489000  0.69875000  1.0
  H  H38  1  0.87367000  0.14078000  0.71149000  1.0
  H  H39  1  0.72134000  0.77643000  0.73042000  1.0
  H  H40  1  0.80087000  0.98807000  0.69578000  1.0
  H  H41  1  0.18618000  0.80024000  0.69990000  1.0
  H  H42  1  0.99154000  0.16192000  0.70613000  1.0
  H  H43  1  0.83016000  0.01404000  0.77772000  1.0
  H  H44  1  0.17934000  0.79581000  0.78582000  1.0
  H  H45  1  0.01147000  0.15976000  0.79197000  1.0
  H  H46  1  0.97307000  0.91442000  0.77278000  1.0
  H  H47  1  0.10031000  0.94041000  0.78452000  1.0
  H  H48  1  0.91875000  0.10500000  0.79561000  1.0
  H  H49  1  0.92879000  0.67493000  0.80527000  1.0
  H  H50  1  0.47980000  0.74317000  0.71352000  1.0
  H  H51  1  0.34406000  0.99285000  0.79285000  1.0
  H  H52  1  0.65855000  0.38057000  0.81071000  1.0
  H  H53  1  0.05801000  0.74320000  0.63928000  1.0
  H  H54  1  0.04159000  0.62409000  0.64600000  1.0
  H  H55  1  0.25352000  0.63339000  0.67547000  1.0
  H  H56  1  0.23461000  0.51669000  0.67649000  1.0
  H  H57  1  0.21291000  0.53158000  0.58322000  1.0
  H  H58  1  0.34363000  0.51931000  0.60047000  1.0
  H  H59  1  0.23341000  0.64823000  0.58300000  1.0
  H  H60  1  0.14601000  0.20164000  0.65872000  1.0
  H  H61  1  0.83155000  0.46451000  0.72635000  1.0
  H  H62  1  0.29465000  0.14102000  0.66240000  1.0
  H  H63  1  0.13154000  0.23402000  0.75066000  1.0
  H  H64  1  0.27894000  0.17602000  0.75274000  1.0
  H  H65  1  0.26971000  0.32032000  0.69150000  1.0
  H  H66  1  0.19088000  0.38064000  0.74608000  1.0
  H  H67  1  0.12163000  0.38066000  0.69178000  1.0
  H  H68  1  0.50572000  0.33769000  0.69336000  1.0
  H  H69  1  0.53677000  0.34776000  0.75544000  1.0
  H  H70  1  0.59697000  0.13801000  0.69858000  1.0
  H  H71  1  0.66179000  0.13608000  0.75448000  1.0
  H  H72  1  0.72621000  0.81761000  0.81287000  1.0
  H  H73  1  0.47786000  0.22282000  0.79905000  1.0
  H  H74  1  0.49264000  0.10545000  0.76762000  1.0
  H  H75  1  0.40617000  0.23801000  0.74328000  1.0
  H  H76  1  0.45835000  0.78500000  0.79737000  1.0
  H  H77  1  0.80225000  0.45057000  0.81013000  1.0
  H  H78  1  0.51794000  0.44833000  0.53712000  1.0
  H  H79  1  0.18345000  0.16666000  0.04567000  1.0
  C  C80  1  0.44716000  0.77776000  0.56587000  1.0
  C  C81  1  0.87825000  0.86615000  0.85093000  1.0
  C  C82  1  0.21797000  0.15600000  0.68300000  1.0
  C  C83  1  0.20604000  0.22147000  0.72901000  1.0
  C  C84  1  0.19657000  0.33175000  0.71390000  1.0
  C  C85  1  0.56753000  0.29623000  0.72252000  1.0
  C  C86  1  0.58426000  0.18190000  0.73337000  1.0
  C  C87  1  0.48492000  0.18704000  0.76256000  1.0
  C  C88  1  0.25800000  0.88975000  0.84892000  1.0
  C  C89  1  0.84223000  0.26148000  0.86096000  1.0
  C  C90  1  0.83186000  0.79951000  0.65394000  1.0
  C  C91  1  0.33165000  0.84439000  0.64857000  1.0
  C  C92  1  0.82590000  0.33924000  0.66082000  1.0
  C  C93  1  0.80968000  0.78271000  0.61290000  1.0
  C  C94  1  0.37239000  0.82001000  0.60750000  1.0
  C  C95  1  0.81167000  0.37914000  0.61972000  1.0
  C  C96  1  0.88116000  0.17413000  0.09371000  1.0
  C  C97  1  0.77486000  0.44691000  0.57617000  1.0
  C  C98  1  0.92160000  0.86289000  0.08008000  1.0
  C  C99  1  0.20702000  0.89867000  0.08384000  1.0
  C  C100  1  0.87258000  0.20066000  0.95407000  1.0
  C  C101  1  0.91432000  0.89547000  0.94368000  1.0
  C  C102  1  0.19845000  0.91459000  0.94304000  1.0
  C  C103  1  0.73474000  0.86561000  0.35837000  1.0
  C  C104  1  0.38424000  0.71000000  0.35981000  1.0
  C  C105  1  0.90998000  0.35975000  0.36471000  1.0
  C  C106  1  0.75385000  0.88042000  0.30856000  1.0
  C  C107  1  0.34532000  0.73243000  0.31129000  1.0
  C  C108  1  0.77900000  0.74867000  0.56878000  1.0
  C  C109  1  0.92265000  0.32045000  0.31653000  1.0
  C  C110  1  0.79308000  0.90583000  0.20715000  1.0
  C  C111  1  0.27552000  0.77480000  0.21147000  1.0
  C  C112  1  0.94026000  0.25099000  0.21743000  1.0
  C  C113  1  0.47990000  0.73993000  0.43119000  1.0
  C  C114  1  0.78977000  0.44182000  0.44059000  1.0
  C  C115  1  0.77283000  0.74735000  0.43384000  1.0
  C  C116  1  0.70787000  0.99508000  0.23466000  1.0
  C  C117  1  0.25861000  0.69757000  0.24111000  1.0
  C  C118  1  0.03173000  0.25575000  0.24040000  1.0
  C  C119  1  0.94995000  0.73127000  0.78495000  1.0
  C  C120  1  0.68915000  0.98290000  0.28334000  1.0
  C  C121  1  0.29266000  0.67679000  0.28888000  1.0
  C  C122  1  0.02313000  0.28939000  0.28789000  1.0
  C  C123  1  0.81454000  0.91753000  0.15748000  1.0
  C  C124  1  0.24308000  0.79598000  0.16218000  1.0
  C  C125  1  0.94634000  0.21947000  0.16851000  1.0
  C  C126  1  0.89957000  0.83163000  0.13044000  1.0
  C  C127  1  0.25992000  0.87146000  0.13337000  1.0
  C  C128  1  0.85684000  0.21586000  0.14546000  1.0
  C  C129  1  0.88490000  0.67695000  0.35657000  1.0
  C  C130  1  0.28031000  0.98090000  0.77420000  1.0
  C  C131  1  0.44360000  0.84874000  0.35382000  1.0
  C  C132  1  0.72288000  0.37892000  0.37109000  1.0
  C  C133  1  0.90527000  0.68775000  0.30649000  1.0
  C  C134  1  0.40995000  0.87051000  0.30470000  1.0
  C  C135  1  0.73134000  0.34224000  0.32282000  1.0
  C  C136  1  0.83978000  0.79026000  0.28191000  1.0
  C  C137  1  0.35998000  0.81234000  0.28286000  1.0
  C  C138  1  0.83147000  0.31332000  0.29476000  1.0
  C  C139  1  0.98903000  0.59868000  0.27856000  1.0
  C  C140  1  0.42604000  0.94810000  0.27525000  1.0
  C  C141  1  0.72197000  0.31238000  0.78922000  1.0
  C  C142  1  0.64104000  0.33569000  0.30001000  1.0
  C  C143  1  0.00765000  0.61032000  0.22977000  1.0
  C  C144  1  0.39671000  0.96570000  0.22693000  1.0
  C  C145  1  0.64800000  0.30526000  0.25210000  1.0
  C  C146  1  0.94473000  0.71261000  0.20408000  1.0
  C  C147  1  0.34603000  0.90906000  0.20380000  1.0
  C  C148  1  0.74681000  0.27656000  0.22259000  1.0
  C  C149  1  0.73929000  0.84461000  0.73390000  1.0
  C  C150  1  0.39734000  0.75931000  0.72766000  1.0
  C  C151  1  0.87850000  0.37955000  0.73920000  1.0
  C  C152  1  0.95040000  0.71525000  0.72905000  1.0
  C  C153  1  0.85938000  0.80279000  0.23107000  1.0
  C  C154  1  0.32651000  0.83259000  0.23278000  1.0
  C  C155  1  0.83972000  0.27957000  0.24505000  1.0
  C  C156  1  0.96324000  0.72888000  0.15382000  1.0
  C  C157  1  0.31385000  0.92543000  0.15398000  1.0
  C  C158  1  0.75696000  0.24599000  0.17258000  1.0
  C  C159  1  0.79981000  0.76498000  0.38226000  1.0
  C  C160  1  0.43263000  0.76794000  0.38082000  1.0
  C  C161  1  0.81063000  0.38951000  0.39151000  1.0
  C  C162  1  0.87243000  0.91482000  0.71109000  1.0
  C  C163  1  0.30134000  0.96859000  0.71790000  1.0
  C  C164  1  0.19019000  0.87032000  0.71535000  1.0
  C  C165  1  0.91090000  0.18918000  0.72547000  1.0
  C  C166  1  0.88765000  0.92984000  0.76622000  1.0
  C  C167  1  0.17917000  0.87055000  0.77211000  1.0
  C  C168  1  0.92733000  0.17512000  0.78184000  1.0
  C  C169  1  0.89293000  0.87533000  0.89425000  1.0
  C  C170  1  0.23938000  0.89699000  0.89301000  1.0
  C  C171  1  0.84371000  0.24429000  0.90501000  1.0
  C  C172  1  0.84947000  0.81702000  0.70488000  1.0
  C  C173  1  0.30509000  0.86111000  0.70065000  1.0
  C  C174  1  0.71504000  0.34052000  0.73381000  1.0
  C  C175  1  0.83284000  0.31196000  0.71288000  1.0
  C  C176  1  0.74579000  0.86997000  0.78845000  1.0
  C  C177  1  0.38823000  0.77539000  0.78371000  1.0
  C  C178  1  0.86849000  0.37275000  0.79547000  1.0
  C  C179  1  0.86513000  0.85027000  0.79915000  1.0
  C  C180  1  0.27693000  0.87909000  0.79616000  1.0
  C  C181  1  0.83996000  0.28054000  0.80838000  1.0
  C  C182  1  0.08570000  0.66610000  0.66023000  1.0
  C  C183  1  0.21197000  0.59388000  0.65649000  1.0
  C  C184  1  0.25242000  0.57198000  0.60293000  1.0
  Br  Br185  1  0.07326000  0.60614000  0.11839000  1.0
  Br  Br186  1  0.35380000  0.01638000  0.11444000  1.0
  Br  Br187  1  0.62724000  0.25434000  0.14258000  1.0
  Br  Br188  1  0.92442000  0.58430000  0.71825000  1.0
  Br  Br189  1  0.45644000  0.95365000  0.70325000  1.0
  Br  Br190  1  0.61285000  0.50871000  0.72710000  1.0
  O  O191  1  0.67291000  0.48473000  0.56509000  1.0
  O  O192  1  0.70076000  0.45992000  0.46322000  1.0
  O  O193  1  0.84149000  0.65938000  0.45606000  1.0
  O  O194  1  0.49668000  0.81253000  0.45248000  1.0
  O  O195  1  0.50351000  0.64690000  0.44899000  1.0
  O  O196  1  0.86130000  0.47038000  0.45603000  1.0
  O  O197  1  0.67882000  0.81936000  0.45233000  1.0
  O  O198  1  0.66658000  0.64368000  0.50521000  1.0
  O  O199  1  0.17176000  0.99494000  0.06774000  1.0
  O  O200  1  0.81845000  0.13884000  0.07498000  1.0
  O  O201  1  0.01864000  0.80708000  0.06037000  1.0
  O  O202  1  0.84686000  0.65191000  0.55342000  1.0
  O  O203  1  0.96580000  0.17133000  0.07256000  1.0
  O  O204  1  0.84339000  0.95022000  0.06076000  1.0
  O  O205  1  0.19414000  0.82390000  0.06238000  1.0
  O  O206  1  0.00570000  0.00012000  0.01623000  1.0
  O  O207  1  0.96544000  0.18680000  0.96921000  1.0
  O  O208  1  0.83796000  0.98168000  0.96444000  1.0
  O  O209  1  0.19361000  0.83311000  0.96452000  1.0
  O  O210  1  0.05598000  0.69105000  0.71184000  1.0
  O  O211  1  0.22010000  0.05230000  0.68976000  1.0
  O  O212  1  0.67128000  0.29069000  0.70515000  1.0
  O  O213  1  0.48533000  0.84048000  0.54808000  1.0
  O  O214  1  0.16676000  0.00759000  0.96113000  1.0
  O  O215  1  0.80523000  0.17430000  0.97740000  1.0
  O  O216  1  0.00898000  0.82883000  0.96233000  1.0
  O  O217  1  0.47379000  0.68252000  0.55170000  1.0
  O  O218  1  0.84754000  0.46644000  0.55328000  1.0
  O  O219  1  0.68520000  0.81469000  0.54947000  1.0
  O  O220  1  0.50695000  0.49402000  0.50831000  1.0
  O  O221  1  0.13418000  0.17885000  0.01838000  1.0
