# generated using pymatgen
data_HgH13C17N5(ClO)2
_symmetry_space_group_name_H-M   'P 1'
_cell_length_a   8.19048000
_cell_length_b   10.26320000
_cell_length_c   12.81690000
_cell_angle_alpha   106.93800000
_cell_angle_beta   105.24200000
_cell_angle_gamma   91.67430000
_symmetry_Int_Tables_number   1
_chemical_formula_structural   HgH13C17N5(ClO)2
_chemical_formula_sum   'Hg2 H26 C34 N10 Cl4 O4'
_cell_volume   987.84825727
_cell_formula_units_Z   2
loop_
 _symmetry_equiv_pos_site_id
 _symmetry_equiv_pos_as_xyz
  1  'x, y, z'
loop_
 _atom_site_type_symbol
 _atom_site_label
 _atom_site_symmetry_multiplicity
 _atom_site_fract_x
 _atom_site_fract_y
 _atom_site_fract_z
 _atom_site_occupancy
  Hg  Hg0  1  0.85580000  0.34153000  0.05788000  1.0
  Hg  Hg1  1  0.14419000  0.65848000  0.94212000  1.0
  H  H2  1  0.82071000  0.40907000  0.49725000  1.0
  H  H3  1  0.17927000  0.59093000  0.50274000  1.0
  H  H4  1  0.69873000  0.77998000  0.89850000  1.0
  H  H5  1  0.30130000  0.22003000  0.10152000  1.0
  H  H6  1  0.90345000  0.26201000  0.79823000  1.0
  H  H7  1  0.09655000  0.73797000  0.20176000  1.0
  H  H8  1  0.66204000  0.49974000  0.58363000  1.0
  H  H9  1  0.33796000  0.50026000  0.41637000  1.0
  H  H10  1  0.63461000  0.57425000  0.92681000  1.0
  H  H11  1  0.36540000  0.42572000  0.07320000  1.0
  H  H12  1  0.06626000  0.10499000  0.47904000  1.0
  H  H13  1  0.93374000  0.89502000  0.52095000  1.0
  H  H14  1  0.14191000  0.99451000  0.30021000  1.0
  H  H15  1  0.85808000  0.00549000  0.69978000  1.0
  H  H16  1  0.06526000  0.09838000  0.14043000  1.0
  H  H17  1  0.93473000  0.90163000  0.85956000  1.0
  H  H18  1  0.85920000  0.41399000  0.32866000  1.0
  H  H19  1  0.14078000  0.58600000  0.67133000  1.0
  H  H20  1  0.31343000  0.86783000  0.70869000  1.0
  H  H21  1  0.68659000  0.13217000  0.29132000  1.0
  H  H22  1  0.24753000  0.11231000  0.75073000  1.0
  H  H23  1  0.75246000  0.88768000  0.24926000  1.0
  H  H24  1  0.45482000  0.29398000  0.90720000  1.0
  H  H25  1  0.54517000  0.70601000  0.09280000  1.0
  H  H26  1  0.77251000  0.00760000  0.98745000  1.0
  H  H27  1  0.22749000  0.99242000  0.01256000  1.0
  C  C28  1  0.82496000  0.34206000  0.78263000  1.0
  C  C29  1  0.17503000  0.65793000  0.21736000  1.0
  C  C30  1  0.79383000  0.36851000  0.67824000  1.0
  C  C31  1  0.20617000  0.63149000  0.32175000  1.0
  C  C32  1  0.69672000  0.47475000  0.66330000  1.0
  C  C33  1  0.30326000  0.52524000  0.33670000  1.0
  C  C34  1  0.64143000  0.55337000  0.75382000  1.0
  C  C35  1  0.35859000  0.44663000  0.24619000  1.0
  C  C36  1  0.67880000  0.51867000  0.85488000  1.0
  C  C37  1  0.32122000  0.48133000  0.14514000  1.0
  C  C38  1  0.87709000  0.28224000  0.59549000  1.0
  C  C39  1  0.12293000  0.71776000  0.40450000  1.0
  C  C40  1  0.95472000  0.26774000  0.41838000  1.0
  C  C41  1  0.04527000  0.73227000  0.58161000  1.0
  C  C42  1  0.04002000  0.14988000  0.41037000  1.0
  C  C43  1  0.95996000  0.85013000  0.58962000  1.0
  C  C44  1  0.08218000  0.08898000  0.31018000  1.0
  C  C45  1  0.91782000  0.91104000  0.68981000  1.0
  C  C46  1  0.04075000  0.14586000  0.22183000  1.0
  C  C47  1  0.95924000  0.85415000  0.77816000  1.0
  C  C48  1  0.92420000  0.32209000  0.32696000  1.0
  C  C49  1  0.07579000  0.67792000  0.67304000  1.0
  C  C50  1  0.54755000  0.67287000  0.73968000  1.0
  C  C51  1  0.45249000  0.32713000  0.26033000  1.0
  C  C52  1  0.54626000  0.91792000  0.84633000  1.0
  C  C53  1  0.45374000  0.08207000  0.15368000  1.0
  C  C54  1  0.39819000  0.94889000  0.77786000  1.0
  C  C55  1  0.60182000  0.05111000  0.22214000  1.0
  C  C56  1  0.36308000  0.08464000  0.80069000  1.0
  C  C57  1  0.63690000  0.91536000  0.19932000  1.0
  C  C58  1  0.47736000  0.18650000  0.88853000  1.0
  C  C59  1  0.52263000  0.81351000  0.11147000  1.0
  C  C60  1  0.65455000  0.02681000  0.93332000  1.0
  C  C61  1  0.34545000  0.97320000  0.06668000  1.0
  N  N62  1  0.76714000  0.41374000  0.86791000  1.0
  N  N63  1  0.23286000  0.58623000  0.13209000  1.0
  N  N64  1  0.89217000  0.33257000  0.50963000  1.0
  N  N65  1  0.10782000  0.66744000  0.49037000  1.0
  N  N66  1  0.96545000  0.26157000  0.23157000  1.0
  N  N67  1  0.03453000  0.73844000  0.76842000  1.0
  N  N68  1  0.59448000  0.78584000  0.83460000  1.0
  N  N69  1  0.40553000  0.21416000  0.16541000  1.0
  N  N70  1  0.62096000  0.15703000  0.95262000  1.0
  N  N71  1  0.37904000  0.84298000  0.04738000  1.0
  Cl  Cl72  1  0.05886000  0.20124000  0.97043000  1.0
  Cl  Cl73  1  0.94116000  0.79877000  0.02958000  1.0
  Cl  Cl74  1  0.74541000  0.53620000  0.16720000  1.0
  Cl  Cl75  1  0.25460000  0.46380000  0.83281000  1.0
  O  O76  1  0.93301000  0.17551000  0.60808000  1.0
  O  O77  1  0.06699000  0.82448000  0.39190000  1.0
  O  O78  1  0.44385000  0.66849000  0.64828000  1.0
  O  O79  1  0.55617000  0.33152000  0.35172000  1.0
