# generated using pymatgen
data_CdH19C31N5O4
_symmetry_space_group_name_H-M   'P 1'
_cell_length_a   10.80840000
_cell_length_b   12.15762121
_cell_length_c   12.21510000
_cell_angle_alpha   119.45396521
_cell_angle_beta   97.28840000
_cell_angle_gamma   94.63655814
_symmetry_Int_Tables_number   1
_chemical_formula_structural   CdH19C31N5O4
_chemical_formula_sum   'Cd2 H38 C62 N10 O8'
_cell_volume   1367.17396965
_cell_formula_units_Z   2
loop_
 _symmetry_equiv_pos_site_id
 _symmetry_equiv_pos_as_xyz
  1  'x, y, z'
loop_
 _atom_site_type_symbol
 _atom_site_label
 _atom_site_symmetry_multiplicity
 _atom_site_fract_x
 _atom_site_fract_y
 _atom_site_fract_z
 _atom_site_occupancy
  Cd  Cd0  1  0.28194000  0.50308000  0.56767000  1.0
  Cd  Cd1  1  0.71806000  0.49692000  0.43233000  1.0
  H  H2  1  0.10758000  0.85053000  0.13034000  1.0
  H  H3  1  0.89242000  0.14947000  0.86966000  1.0
  H  H4  1  0.30794000  0.99994000  0.19634000  1.0
  H  H5  1  0.69207000  0.00006000  0.80366000  1.0
  H  H6  1  0.45445000  0.96781000  0.05025000  1.0
  H  H7  1  0.54555000  0.03219000  0.94975000  1.0
  H  H8  1  0.40575000  0.77946000  0.82349000  1.0
  H  H9  1  0.59425000  0.22054000  0.17651000  1.0
  H  H10  1  0.00648000  0.46725000  0.67399000  1.0
  H  H11  1  0.99352000  0.53275000  0.32601000  1.0
  H  H12  1  0.80665000  0.51890000  0.73401000  1.0
  H  H13  1  0.19335000  0.48110000  0.26599000  1.0
  H  H14  1  0.67036000  0.51728000  0.05111000  1.0
  H  H15  1  0.32963000  0.48272000  0.94889000  1.0
  H  H16  1  0.04570000  0.66544000  0.10560000  1.0
  H  H17  1  0.95430000  0.33456000  0.89440000  1.0
  H  H18  1  0.60292000  0.29083000  0.91481000  1.0
  H  H19  1  0.39708000  0.70918000  0.08520000  1.0
  H  H20  1  0.41169000  0.13270000  0.85762000  1.0
  H  H21  1  0.58831000  0.86730000  0.14238000  1.0
  H  H22  1  0.21820000  0.11666000  0.71500000  1.0
  H  H23  1  0.78179000  0.88334000  0.28500000  1.0
  H  H24  1  0.21058000  0.25965000  0.62147000  1.0
  H  H25  1  0.78942000  0.74035000  0.37853000  1.0
  H  H26  1  0.59268000  0.57519000  0.71701000  1.0
  H  H27  1  0.40732000  0.42481000  0.28299000  1.0
  H  H28  1  0.20913000  0.19546000  0.12467000  1.0
  H  H29  1  0.79087000  0.80454000  0.87533000  1.0
  H  H30  1  0.18840000  0.05322000  0.88871000  1.0
  H  H31  1  0.81160000  0.94678000  0.11129000  1.0
  H  H32  1  0.06987000  0.86529000  0.68153000  1.0
  H  H33  1  0.93013000  0.13471000  0.31847000  1.0
  H  H34  1  0.26790000  0.84846000  0.44985000  1.0
  H  H35  1  0.73210000  0.15154000  0.55015000  1.0
  H  H36  1  0.26542000  0.02002000  0.39366000  1.0
  H  H37  1  0.73458000  0.97998000  0.60634000  1.0
  H  H38  1  0.38300000  0.19768000  0.38013000  1.0
  H  H39  1  0.61700000  0.80232000  0.61987000  1.0
  C  C40  1  0.14734000  0.72704000  0.93988000  1.0
  C  C41  1  0.85266000  0.27296000  0.06012000  1.0
  C  C42  1  0.17282000  0.83187000  0.06461000  1.0
  C  C43  1  0.82719000  0.16813000  0.93539000  1.0
  C  C44  1  0.28462000  0.91668000  0.10044000  1.0
  C  C45  1  0.71538000  0.08333000  0.89957000  1.0
  C  C46  1  0.36819000  0.89812000  0.01587000  1.0
  C  C47  1  0.63182000  0.10188000  0.98413000  1.0
  C  C48  1  0.34296000  0.79415000  0.89108000  1.0
  C  C49  1  0.65704000  0.20585000  0.10892000  1.0
  C  C50  1  0.23044000  0.70839000  0.85364000  1.0
  C  C51  1  0.76956000  0.29161000  0.14636000  1.0
  C  C52  1  0.06933000  0.55374000  0.74839000  1.0
  C  C53  1  0.93067000  0.44626000  0.25161000  1.0
  C  C54  1  0.93981000  0.59899000  0.91480000  1.0
  C  C55  1  0.06019000  0.40101000  0.08519000  1.0
  C  C56  1  0.82247000  0.54051000  0.83303000  1.0
  C  C57  1  0.17754000  0.45949000  0.16697000  1.0
  C  C58  1  0.72401000  0.51102000  0.88285000  1.0
  C  C59  1  0.27599000  0.48898000  0.11715000  1.0
  C  C60  1  0.74645000  0.53810000  0.00989000  1.0
  C  C61  1  0.25355000  0.46190000  0.99011000  1.0
  C  C62  1  0.95403000  0.62321000  0.04091000  1.0
  C  C63  1  0.04597000  0.37679000  0.95909000  1.0
  C  C64  1  0.51203000  0.36579000  0.80111000  1.0
  C  C65  1  0.48797000  0.63421000  0.19889000  1.0
  C  C66  1  0.51809000  0.28671000  0.85365000  1.0
  C  C67  1  0.48192000  0.71329000  0.14635000  1.0
  C  C68  1  0.40987000  0.19767000  0.82029000  1.0
  C  C69  1  0.59013000  0.80233000  0.17971000  1.0
  C  C70  1  0.30021000  0.18806000  0.73844000  1.0
  C  C71  1  0.69979000  0.81194000  0.26156000  1.0
  C  C72  1  0.29439000  0.26693000  0.68606000  1.0
  C  C73  1  0.70561000  0.73307000  0.31394000  1.0
  C  C74  1  0.40228000  0.35615000  0.71803000  1.0
  C  C75  1  0.59772000  0.64385000  0.28197000  1.0
  C  C76  1  0.54398000  0.50159000  0.72989000  1.0
  C  C77  1  0.45602000  0.49841000  0.27010000  1.0
  C  C78  1  0.14750000  0.28646000  0.35617000  1.0
  C  C79  1  0.85250000  0.71354000  0.64383000  1.0
  C  C80  1  0.07726000  0.17421000  0.23219000  1.0
  C  C81  1  0.92274000  0.82579000  0.76781000  1.0
  C  C82  1  0.12184000  0.14042000  0.12017000  1.0
  C  C83  1  0.87816000  0.85958000  0.87983000  1.0
  C  C84  1  0.05678000  0.03599000  0.00140000  1.0
  C  C85  1  0.94322000  0.96401000  0.99860000  1.0
  C  C86  1  0.10086000  0.99916000  0.88525000  1.0
  C  C87  1  0.89914000  0.00084000  0.11475000  1.0
  C  C88  1  0.03595000  0.89635000  0.77100000  1.0
  C  C89  1  0.96405000  0.10365000  0.22901000  1.0
  C  C90  1  0.36924000  0.70862000  0.54396000  1.0
  C  C91  1  0.63076000  0.29138000  0.45604000  1.0
  C  C92  1  0.43545000  0.81731000  0.53687000  1.0
  C  C93  1  0.56455000  0.18268000  0.46312000  1.0
  C  C94  1  0.36971000  0.87919000  0.48495000  1.0
  C  C95  1  0.63029000  0.12081000  0.51505000  1.0
  C  C96  1  0.43287000  0.98093000  0.47707000  1.0
  C  C97  1  0.56713000  0.01907000  0.52292000  1.0
  C  C98  1  0.36791000  0.04727000  0.42586000  1.0
  C  C99  1  0.63209000  0.95272000  0.57413000  1.0
  C  C100  1  0.43184000  0.14496000  0.41808000  1.0
  C  C101  1  0.56816000  0.85504000  0.58192000  1.0
  N  N102  1  0.04480000  0.62705000  0.86951000  1.0
  N  N103  1  0.95520000  0.37295000  0.13049000  1.0
  N  N104  1  0.17825000  0.59937000  0.73590000  1.0
  N  N105  1  0.82176000  0.40063000  0.26410000  1.0
  N  N106  1  0.85969000  0.59273000  0.08691000  1.0
  N  N107  1  0.14031000  0.40727000  0.91309000  1.0
  N  N108  1  0.60094000  0.45976000  0.80682000  1.0
  N  N109  1  0.39906000  0.54024000  0.19318000  1.0
  N  N110  1  0.42605000  0.44268000  0.67664000  1.0
  N  N111  1  0.57395000  0.55732000  0.32336000  1.0
  O  O112  1  0.10839000  0.31605000  0.45946000  1.0
  O  O113  1  0.89161000  0.68394000  0.54053000  1.0
  O  O114  1  0.24637000  0.35058000  0.35282000  1.0
  O  O115  1  0.75363000  0.64942000  0.64718000  1.0
  O  O116  1  0.25650000  0.65737000  0.48400000  1.0
  O  O117  1  0.74350000  0.34263000  0.51599000  1.0
  O  O118  1  0.43294000  0.67027000  0.61160000  1.0
  O  O119  1  0.56706000  0.32972000  0.38838000  1.0
