# generated using pymatgen
data_NaCuH10C16(SN)6
_symmetry_space_group_name_H-M   'P 1'
_cell_length_a   8.22942000
_cell_length_b   10.08350000
_cell_length_c   13.01610000
_cell_angle_alpha   89.99970000
_cell_angle_beta   103.72900000
_cell_angle_gamma   89.99960000
_symmetry_Int_Tables_number   1
_chemical_formula_structural   NaCuH10C16(SN)6
_chemical_formula_sum   'Na2 Cu2 H20 C32 S12 N12'
_cell_volume   1049.23441063
_cell_formula_units_Z   2
loop_
 _symmetry_equiv_pos_site_id
 _symmetry_equiv_pos_as_xyz
  1  'x, y, z'
loop_
 _atom_site_type_symbol
 _atom_site_label
 _atom_site_symmetry_multiplicity
 _atom_site_fract_x
 _atom_site_fract_y
 _atom_site_fract_z
 _atom_site_occupancy
  Na  Na0  1  0.00000000  0.00001000  0.00000000  1.0
  Na  Na1  1  0.50001000  0.50000000  0.00001000  1.0
  Cu  Cu2  1  0.00000000  0.50000000  0.50000000  1.0
  Cu  Cu3  1  0.50001000  0.00000000  0.50000000  1.0
  H  H4  1  0.77353000  0.62292000  0.80436000  1.0
  H  H5  1  0.72648000  0.12292000  0.19563000  1.0
  H  H6  1  0.22647000  0.37707000  0.19563000  1.0
  H  H7  1  0.27353000  0.87708000  0.80437000  1.0
  H  H8  1  0.06334000  0.18297000  0.79413000  1.0
  H  H9  1  0.43665000  0.68298000  0.20586000  1.0
  H  H10  1  0.93665000  0.81703000  0.20587000  1.0
  H  H11  1  0.56335000  0.31704000  0.79413000  1.0
  H  H12  1  0.94216000  0.08434000  0.38761000  1.0
  H  H13  1  0.55783000  0.58433000  0.61238000  1.0
  H  H14  1  0.05784000  0.91566000  0.61239000  1.0
  H  H15  1  0.44215000  0.41567000  0.38762000  1.0
  H  H16  1  0.16285000  0.09966000  0.43805000  1.0
  H  H17  1  0.33714000  0.59965000  0.56195000  1.0
  H  H18  1  0.83715000  0.90033000  0.56194000  1.0
  H  H19  1  0.66284000  0.40034000  0.43806000  1.0
  H  H20  1  0.07291000  0.93937000  0.40438000  1.0
  H  H21  1  0.42707000  0.43937000  0.59563000  1.0
  H  H22  1  0.92709000  0.06062000  0.59563000  1.0
  H  H23  1  0.57290000  0.56062000  0.40439000  1.0
  C  C24  1  0.83519000  0.52771000  0.80237000  1.0
  C  C25  1  0.66480000  0.02769000  0.19763000  1.0
  C  C26  1  0.16480000  0.47230000  0.19763000  1.0
  C  C27  1  0.33521000  0.97231000  0.80237000  1.0
  C  C28  1  0.00149000  0.27795000  0.79625000  1.0
  C  C29  1  0.49851000  0.77796000  0.20376000  1.0
  C  C30  1  0.99850000  0.72204000  0.20376000  1.0
  C  C31  1  0.50149000  0.22204000  0.79624000  1.0
  C  C32  1  0.93377000  0.31085000  0.88259000  1.0
  C  C33  1  0.56622000  0.81084000  0.11740000  1.0
  C  C34  1  0.06622000  0.68916000  0.11740000  1.0
  C  C35  1  0.43378000  0.18916000  0.88259000  1.0
  C  C36  1  0.84817000  0.43562000  0.88564000  1.0
  C  C37  1  0.65182000  0.93562000  0.11436000  1.0
  C  C38  1  0.15182000  0.56438000  0.11436000  1.0
  C  C39  1  0.34818000  0.06439000  0.88564000  1.0
  C  C40  1  0.98587000  0.36859000  0.71460000  1.0
  C  C41  1  0.51414000  0.86860000  0.28539000  1.0
  C  C42  1  0.01413000  0.63140000  0.28539000  1.0
  C  C43  1  0.48587000  0.13141000  0.71460000  1.0
  C  C44  1  0.08569000  0.05914000  0.27595000  1.0
  C  C45  1  0.41431000  0.55914000  0.72406000  1.0
  C  C46  1  0.91431000  0.94085000  0.72405000  1.0
  C  C47  1  0.58568000  0.44085000  0.27595000  1.0
  C  C48  1  0.06467000  0.04491000  0.38239000  1.0
  C  C49  1  0.43533000  0.54490000  0.61761000  1.0
  C  C50  1  0.93533000  0.95509000  0.61761000  1.0
  C  C51  1  0.56466000  0.45509000  0.38240000  1.0
  C  C52  1  0.90422000  0.49415000  0.71821000  1.0
  C  C53  1  0.59578000  0.99414000  0.28179000  1.0
  C  C54  1  0.09577000  0.50585000  0.28179000  1.0
  C  C55  1  0.40423000  0.00586000  0.71821000  1.0
  S  S56  1  0.84253000  0.31632000  0.04440000  1.0
  S  S57  1  0.65748000  0.81632000  0.95561000  1.0
  S  S58  1  0.15747000  0.68368000  0.95561000  1.0
  S  S59  1  0.34253000  0.18368000  0.04439000  1.0
  S  S60  1  0.06495000  0.32996000  0.60519000  1.0
  S  S61  1  0.43506000  0.82997000  0.39481000  1.0
  S  S62  1  0.93504000  0.67003000  0.39481000  1.0
  S  S63  1  0.56495000  0.17004000  0.60518000  1.0
  S  S64  1  0.89298000  0.60560000  0.61444000  1.0
  S  S65  1  0.60703000  0.10560000  0.38556000  1.0
  S  S66  1  0.10701000  0.39440000  0.38556000  1.0
  S  S67  1  0.39300000  0.89440000  0.61444000  1.0
  N  N68  1  0.93762000  0.23478000  0.96879000  1.0
  N  N69  1  0.56240000  0.73478000  0.03121000  1.0
  N  N70  1  0.06239000  0.76523000  0.03121000  1.0
  N  N71  1  0.43761000  0.26523000  0.96878000  1.0
  N  N72  1  0.09839000  0.06794000  0.18894000  1.0
  N  N73  1  0.40162000  0.56795000  0.81106000  1.0
  N  N74  1  0.90161000  0.93205000  0.81106000  1.0
  N  N75  1  0.59838000  0.43204000  0.18894000  1.0
  N  N76  1  0.78879000  0.44932000  0.97383000  1.0
  N  N77  1  0.71122000  0.94931000  0.02617000  1.0
  N  N78  1  0.21121000  0.55069000  0.02618000  1.0
  N  N79  1  0.28879000  0.05070000  0.97382000  1.0
