# generated using pymatgen
data_AlCuP2H36(C12Cl)2
_symmetry_space_group_name_H-M   'P 1'
_cell_length_a   12.35110000
_cell_length_b   13.19620000
_cell_length_c   20.07250000
_cell_angle_alpha   90.00000000
_cell_angle_beta   90.00010000
_cell_angle_gamma   113.94800000
_symmetry_Int_Tables_number   1
_chemical_formula_structural   AlCuP2H36(C12Cl)2
_chemical_formula_sum   'Al4 Cu4 P8 H144 C96 Cl8'
_cell_volume   2989.93281853
_cell_formula_units_Z   4
loop_
 _symmetry_equiv_pos_site_id
 _symmetry_equiv_pos_as_xyz
  1  'x, y, z'
loop_
 _atom_site_type_symbol
 _atom_site_label
 _atom_site_symmetry_multiplicity
 _atom_site_fract_x
 _atom_site_fract_y
 _atom_site_fract_z
 _atom_site_occupancy
  Al  Al0  1  0.64119000  0.88122000  0.82242000  1.0
  Al  Al1  1  0.35882000  0.61878000  0.32242000  1.0
  Al  Al2  1  0.35881000  0.11878000  0.17758000  1.0
  Al  Al3  1  0.64119000  0.38122000  0.67758000  1.0
  Cu  Cu4  1  0.65583000  0.60651000  0.70711000  1.0
  Cu  Cu5  1  0.34417000  0.89349000  0.20711000  1.0
  Cu  Cu6  1  0.34417000  0.39349000  0.29289000  1.0
  Cu  Cu7  1  0.65583000  0.10651000  0.79289000  1.0
  P  P8  1  0.46392000  0.53231000  0.68161000  1.0
  P  P9  1  0.53608000  0.96769000  0.18161000  1.0
  P  P10  1  0.53608000  0.46769000  0.31839000  1.0
  P  P11  1  0.46392000  0.03231000  0.81839000  1.0
  P  P12  1  0.83210000  0.66103000  0.65782000  1.0
  P  P13  1  0.16790000  0.83897000  0.15782000  1.0
  P  P14  1  0.16790000  0.33897000  0.34218000  1.0
  P  P15  1  0.83210000  0.16103000  0.84218000  1.0
  H  H16  1  0.41801000  0.62016000  0.77265000  1.0
  H  H17  1  0.58199000  0.87984000  0.27265000  1.0
  H  H18  1  0.58199000  0.37984000  0.22735000  1.0
  H  H19  1  0.41801000  0.12016000  0.72735000  1.0
  H  H20  1  0.19146000  0.42303000  0.72966000  1.0
  H  H21  1  0.80854000  0.07697000  0.22966000  1.0
  H  H22  1  0.80854000  0.57697000  0.27034000  1.0
  H  H23  1  0.19146000  0.92303000  0.77034000  1.0
  H  H24  1  0.23206000  0.56138000  0.70117000  1.0
  H  H25  1  0.76794000  0.93862000  0.20117000  1.0
  H  H26  1  0.76794000  0.43862000  0.29883000  1.0
  H  H27  1  0.23206000  0.06138000  0.79883000  1.0
  H  H28  1  0.20510000  0.53008000  0.78705000  1.0
  H  H29  1  0.79491000  0.96992000  0.28705000  1.0
  H  H30  1  0.79490000  0.46992000  0.21295000  1.0
  H  H31  1  0.20509000  0.03008000  0.71296000  1.0
  H  H32  1  0.33738000  0.46375000  0.85444000  1.0
  H  H33  1  0.66262000  0.03625000  0.35444000  1.0
  H  H34  1  0.66262000  0.53625000  0.14556000  1.0
  H  H35  1  0.33738000  0.96375000  0.64556000  1.0
  H  H36  1  0.47717000  0.47778000  0.82175000  1.0
  H  H37  1  0.52283000  0.02222000  0.32175000  1.0
  H  H38  1  0.52283000  0.52222000  0.17825000  1.0
  H  H39  1  0.47717000  0.97779000  0.67825000  1.0
  H  H40  1  0.34422000  0.37059000  0.79236000  1.0
  H  H41  1  0.65577000  0.12941000  0.29236000  1.0
  H  H42  1  0.65578000  0.62941000  0.20764000  1.0
  H  H43  1  0.34423000  0.87059000  0.70764000  1.0
  H  H44  1  0.32681000  0.57007000  0.61009000  1.0
  H  H45  1  0.67319000  0.92992000  0.11009000  1.0
  H  H46  1  0.67319000  0.42992000  0.38991000  1.0
  H  H47  1  0.32681000  0.07008000  0.88991000  1.0
  H  H48  1  0.55474000  0.77187000  0.64675000  1.0
  H  H49  1  0.44526000  0.72813000  0.14675000  1.0
  H  H50  1  0.44526000  0.22813000  0.35325000  1.0
  H  H51  1  0.55474000  0.27187000  0.85325000  1.0
  H  H52  1  0.41530000  0.73613000  0.68504000  1.0
  H  H53  1  0.58470000  0.76387000  0.18504000  1.0
  H  H54  1  0.58470000  0.26387000  0.31496000  1.0
  H  H55  1  0.41530000  0.23613000  0.81496000  1.0
  H  H56  1  0.43466000  0.77577000  0.59970000  1.0
  H  H57  1  0.56534000  0.72423000  0.09970000  1.0
  H  H58  1  0.56534000  0.22423000  0.40030000  1.0
  H  H59  1  0.43466000  0.27577000  0.90030000  1.0
  H  H60  1  0.57711000  0.62594000  0.55670000  1.0
  H  H61  1  0.42289000  0.87406000  0.05670000  1.0
  H  H62  1  0.42289000  0.37406000  0.44330000  1.0
  H  H63  1  0.57711000  0.12594000  0.94330000  1.0
  H  H64  1  0.46796000  0.65546000  0.51285000  1.0
  H  H65  1  0.53204000  0.84454000  0.01285000  1.0
  H  H66  1  0.53204000  0.34454000  0.48715000  1.0
  H  H67  1  0.46796000  0.15546000  0.98715000  1.0
  H  H68  1  0.44223000  0.51634000  0.53173000  1.0
  H  H69  1  0.55777000  0.98366000  0.03173000  1.0
  H  H70  1  0.55777000  0.48366000  0.46827000  1.0
  H  H71  1  0.44223000  0.01634000  0.96827000  1.0
  H  H72  1  0.23250000  0.39393000  0.62556000  1.0
  H  H73  1  0.76750000  0.10608000  0.12557000  1.0
  H  H74  1  0.76750000  0.60607000  0.37444000  1.0
  H  H75  1  0.23250000  0.89393000  0.87444000  1.0
  H  H76  1  0.91760000  0.55697000  0.71548000  1.0
  H  H77  1  0.08240000  0.94303000  0.21548000  1.0
  H  H78  1  0.08240000  0.44303000  0.28452000  1.0
  H  H79  1  0.91760000  0.05697000  0.78452000  1.0
  H  H80  1  0.10847000  0.78040000  0.66839000  1.0
  H  H81  1  0.89153000  0.71960000  0.16839000  1.0
  H  H82  1  0.89153000  0.21960000  0.33161000  1.0
  H  H83  1  0.10847000  0.28040000  0.83161000  1.0
  H  H84  1  0.06516000  0.65064000  0.62683000  1.0
  H  H85  1  0.93484000  0.84936000  0.12683000  1.0
  H  H86  1  0.93484000  0.34936000  0.37317000  1.0
  H  H87  1  0.06516000  0.15064000  0.87317000  1.0
  H  H88  1  0.13456000  0.67153000  0.70645000  1.0
  H  H89  1  0.86544000  0.82847000  0.20645000  1.0
  H  H90  1  0.86544000  0.32847000  0.29355000  1.0
  H  H91  1  0.13456000  0.17153000  0.79355000  1.0
  H  H92  1  0.01934000  0.67300000  0.81107000  1.0
  H  H93  1  0.98066000  0.82700000  0.31107000  1.0
  H  H94  1  0.98066000  0.32700000  0.18893000  1.0
  H  H95  1  0.01934000  0.17300000  0.68893000  1.0
  H  H96  1  0.87155000  0.66398000  0.80511000  1.0
  H  H97  1  0.12845000  0.83602000  0.30511000  1.0
  H  H98  1  0.12845000  0.33602000  0.19489000  1.0
  H  H99  1  0.87155000  0.16398000  0.69489000  1.0
  H  H100  1  0.99267000  0.78663000  0.78037000  1.0
  H  H101  1  0.00733000  0.71337000  0.28037000  1.0
  H  H102  1  0.00733000  0.21337000  0.21963000  1.0
  H  H103  1  0.99267000  0.28663000  0.71963000  1.0
  H  H104  1  0.97563000  0.80720000  0.59142000  1.0
  H  H105  1  0.02437000  0.69280000  0.09141000  1.0
  H  H106  1  0.02437000  0.19280000  0.40859000  1.0
  H  H107  1  0.97563000  0.30720000  0.90859000  1.0
  H  H108  1  0.73060000  0.81545000  0.60010000  1.0
  H  H109  1  0.26941000  0.68455000  0.10010000  1.0
  H  H110  1  0.26940000  0.18455000  0.39990000  1.0
  H  H111  1  0.73060000  0.31545000  0.89990000  1.0
  H  H112  1  0.77245000  0.74619000  0.53565000  1.0
  H  H113  1  0.22755000  0.75381000  0.03565000  1.0
  H  H114  1  0.22755000  0.25381000  0.46435000  1.0
  H  H115  1  0.77245000  0.24619000  0.96435000  1.0
  H  H116  1  0.84719000  0.89232000  0.54466000  1.0
  H  H117  1  0.15281000  0.60768000  0.04466000  1.0
  H  H118  1  0.15281000  0.10768000  0.45534000  1.0
  H  H119  1  0.84719000  0.39232000  0.95534000  1.0
  H  H120  1  0.94110000  0.68688000  0.52149000  1.0
  H  H121  1  0.05889000  0.81311000  0.02149000  1.0
  H  H122  1  0.05889000  0.31311000  0.47851000  1.0
  H  H123  1  0.94111000  0.18689000  0.97851000  1.0
  H  H124  1  0.96033000  0.97343000  0.64831000  1.0
  H  H125  1  0.03967000  0.52657000  0.14831000  1.0
  H  H126  1  0.03967000  0.02657000  0.35169000  1.0
  H  H127  1  0.96033000  0.47343000  0.85169000  1.0
  H  H128  1  0.01077000  0.89467000  0.70189000  1.0
  H  H129  1  0.98923000  0.60533000  0.20189000  1.0
  H  H130  1  0.98923000  0.10533000  0.29811000  1.0
  H  H131  1  0.01077000  0.39467000  0.79811000  1.0
  H  H132  1  0.86174000  0.88182000  0.70706000  1.0
  H  H133  1  0.13826000  0.61819000  0.20706000  1.0
  H  H134  1  0.13826000  0.11818000  0.29294000  1.0
  H  H135  1  0.86174000  0.38182000  0.79294000  1.0
  H  H136  1  0.92974000  0.55043000  0.43493000  1.0
  H  H137  1  0.07026000  0.94957000  0.93493000  1.0
  H  H138  1  0.07026000  0.44958000  0.56507000  1.0
  H  H139  1  0.92974000  0.05043000  0.06507000  1.0
  H  H140  1  0.80643000  0.34893000  0.45425000  1.0
  H  H141  1  0.19357000  0.15107000  0.95425000  1.0
  H  H142  1  0.19357000  0.65107000  0.54575000  1.0
  H  H143  1  0.80643000  0.84894000  0.04575000  1.0
  H  H144  1  0.69847000  0.28702000  0.55998000  1.0
  H  H145  1  0.30153000  0.21298000  0.05998000  1.0
  H  H146  1  0.30153000  0.71297000  0.44002000  1.0
  H  H147  1  0.69847000  0.78702000  0.94002000  1.0
  H  H148  1  0.47195000  0.17040000  0.61872000  1.0
  H  H149  1  0.52805000  0.32961000  0.11872000  1.0
  H  H150  1  0.52805000  0.82960000  0.38128000  1.0
  H  H151  1  0.47195000  0.67039000  0.88128000  1.0
  H  H152  1  0.26763000  0.09252000  0.57527000  1.0
  H  H153  1  0.73237000  0.40748000  0.07527000  1.0
  H  H154  1  0.73238000  0.90748000  0.42473000  1.0
  H  H155  1  0.26762000  0.59252000  0.92473000  1.0
  H  H156  1  0.14536000  0.20405000  0.58083000  1.0
  H  H157  1  0.85464000  0.29595000  0.08083000  1.0
  H  H158  1  0.85464000  0.79594000  0.41917000  1.0
  H  H159  1  0.14536000  0.70406000  0.91917000  1.0
  C  C160  1  0.37274000  0.53405000  0.75508000  1.0
  C  C161  1  0.62726000  0.96595000  0.25508000  1.0
  C  C162  1  0.62726000  0.46595000  0.24492000  1.0
  C  C163  1  0.37274000  0.03405000  0.74492000  1.0
  C  C164  1  0.24325000  0.51073000  0.74178000  1.0
  C  C165  1  0.75675000  0.98927000  0.24178000  1.0
  C  C166  1  0.75674000  0.48926000  0.25822000  1.0
  C  C167  1  0.24325000  0.01073000  0.75822000  1.0
  C  C168  1  0.38423000  0.45735000  0.80903000  1.0
  C  C169  1  0.61576000  0.04264000  0.30903000  1.0
  C  C170  1  0.61576000  0.54264000  0.19097000  1.0
  C  C171  1  0.38424000  0.95736000  0.69097000  1.0
  C  C172  1  0.42358000  0.61005000  0.61642000  1.0
  C  C173  1  0.57642000  0.88995000  0.11642000  1.0
  C  C174  1  0.57642000  0.38995000  0.38358000  1.0
  C  C175  1  0.42358000  0.11005000  0.88358000  1.0
  C  C176  1  0.45880000  0.72977000  0.63849000  1.0
  C  C177  1  0.54120000  0.77023000  0.13849000  1.0
  C  C178  1  0.54120000  0.27023000  0.36151000  1.0
  C  C179  1  0.45880000  0.22977000  0.86151000  1.0
  C  C180  1  0.48127000  0.60141000  0.55066000  1.0
  C  C181  1  0.51873000  0.89859000  0.05066000  1.0
  C  C182  1  0.51873000  0.39859000  0.44934000  1.0
  C  C183  1  0.48127000  0.10141000  0.94934000  1.0
  C  C184  1  0.40175000  0.38954000  0.65074000  1.0
  C  C185  1  0.59825000  0.11046000  0.15074000  1.0
  C  C186  1  0.59825000  0.61046000  0.34926000  1.0
  C  C187  1  0.40175000  0.88954000  0.84926000  1.0
  C  C188  1  0.28509000  0.34464000  0.62598000  1.0
  C  C189  1  0.71491000  0.15536000  0.12598000  1.0
  C  C190  1  0.71491000  0.65536000  0.37402000  1.0
  C  C191  1  0.28509000  0.84464000  0.87402000  1.0
  C  C192  1  0.95095000  0.64787000  0.71055000  1.0
  C  C193  1  0.04905000  0.85213000  0.21055000  1.0
  C  C194  1  0.04905000  0.35213000  0.28945000  1.0
  C  C195  1  0.95096000  0.14787000  0.78945000  1.0
  C  C196  1  0.07120000  0.69008000  0.67569000  1.0
  C  C197  1  0.92880000  0.80992000  0.17569000  1.0
  C  C198  1  0.92880000  0.30992000  0.32431000  1.0
  C  C199  1  0.07120000  0.19009000  0.82431000  1.0
  C  C200  1  0.95842000  0.69579000  0.78070000  1.0
  C  C201  1  0.04158000  0.80421000  0.28070000  1.0
  C  C202  1  0.04158000  0.30421000  0.21930000  1.0
  C  C203  1  0.95842000  0.19579000  0.71930000  1.0
  C  C204  1  0.89680000  0.80112000  0.61981000  1.0
  C  C205  1  0.10320000  0.69888000  0.11981000  1.0
  C  C206  1  0.10320000  0.19888000  0.38019000  1.0
  C  C207  1  0.89680000  0.30113000  0.88019000  1.0
  C  C208  1  0.80631000  0.81364000  0.57219000  1.0
  C  C209  1  0.19369000  0.68636000  0.07219000  1.0
  C  C210  1  0.19369000  0.18636000  0.42781000  1.0
  C  C211  1  0.80631000  0.31364000  0.92781000  1.0
  C  C212  1  0.82303000  0.56468000  0.59026000  1.0
  C  C213  1  0.17697000  0.93531000  0.09026000  1.0
  C  C214  1  0.17696000  0.43531000  0.40974000  1.0
  C  C215  1  0.82303000  0.06469000  0.90974000  1.0
  C  C216  1  0.88582000  0.59939000  0.53028000  1.0
  C  C217  1  0.11418000  0.90060000  0.03028000  1.0
  C  C218  1  0.11418000  0.40060000  0.46972000  1.0
  C  C219  1  0.88582000  0.09940000  0.96972000  1.0
  C  C220  1  0.93483000  0.89235000  0.67277000  1.0
  C  C221  1  0.06517000  0.60765000  0.17277000  1.0
  C  C222  1  0.06516000  0.10765000  0.32723000  1.0
  C  C223  1  0.93484000  0.39235000  0.82723000  1.0
  C  C224  1  0.87961000  0.52254000  0.48106000  1.0
  C  C225  1  0.12039000  0.97746000  0.98106000  1.0
  C  C226  1  0.12040000  0.47746000  0.51894000  1.0
  C  C227  1  0.87960000  0.02254000  0.01894000  1.0
  C  C228  1  0.81174000  0.41006000  0.49216000  1.0
  C  C229  1  0.18826000  0.08994000  0.99216000  1.0
  C  C230  1  0.18826000  0.58994000  0.50784000  1.0
  C  C231  1  0.81174000  0.91006000  0.00784000  1.0
  C  C232  1  0.75285000  0.45106000  0.60249000  1.0
  C  C233  1  0.24715000  0.04894000  0.10249000  1.0
  C  C234  1  0.24715000  0.54894000  0.39751000  1.0
  C  C235  1  0.75285000  0.95106000  0.89751000  1.0
  C  C236  1  0.75051000  0.37566000  0.55217000  1.0
  C  C237  1  0.24948000  0.12434000  0.05217000  1.0
  C  C238  1  0.24948000  0.62433000  0.44783000  1.0
  C  C239  1  0.75051000  0.87566000  0.94783000  1.0
  C  C240  1  0.47186000  0.32727000  0.64982000  1.0
  C  C241  1  0.52813000  0.17273000  0.14982000  1.0
  C  C242  1  0.52814000  0.67273000  0.35018000  1.0
  C  C243  1  0.47186000  0.82727000  0.85018000  1.0
  C  C244  1  0.41989000  0.22026000  0.62154000  1.0
  C  C245  1  0.58011000  0.27974000  0.12154000  1.0
  C  C246  1  0.58012000  0.77974000  0.37846000  1.0
  C  C247  1  0.41988000  0.72026000  0.87846000  1.0
  C  C248  1  0.30409000  0.17542000  0.59714000  1.0
  C  C249  1  0.69591000  0.32458000  0.09714000  1.0
  C  C250  1  0.69592000  0.82458000  0.40286000  1.0
  C  C251  1  0.30409000  0.67542000  0.90286000  1.0
  C  C252  1  0.23582000  0.23763000  0.59995000  1.0
  C  C253  1  0.76418000  0.26237000  0.09995000  1.0
  C  C254  1  0.76418000  0.76237000  0.40005000  1.0
  C  C255  1  0.23582000  0.73763000  0.90005000  1.0
  Cl  Cl256  1  0.68049000  0.45673000  0.77813000  1.0
  Cl  Cl257  1  0.31951000  0.04327000  0.27813000  1.0
  Cl  Cl258  1  0.31951000  0.54327000  0.22187000  1.0
  Cl  Cl259  1  0.68049000  0.95673000  0.72187000  1.0
  Cl  Cl260  1  0.67267000  0.72595000  0.80472000  1.0
  Cl  Cl261  1  0.32733000  0.77405000  0.30472000  1.0
  Cl  Cl262  1  0.32733000  0.27405000  0.19528000  1.0
  Cl  Cl263  1  0.67267000  0.22595000  0.69528000  1.0
