# generated using pymatgen
data_CuSiH16C24N8(O4F3)2
_symmetry_space_group_name_H-M   'P 1'
_cell_length_a   7.84182000
_cell_length_b   13.48860000
_cell_length_c   13.48920000
_cell_angle_alpha   89.49310000
_cell_angle_beta   83.00200000
_cell_angle_gamma   83.00530000
_symmetry_Int_Tables_number   1
_chemical_formula_structural   CuSiH16C24N8(O4F3)2
_chemical_formula_sum   'Cu1 Si1 H16 C24 N8 O8 F6'
_cell_volume   1405.62710616
_cell_formula_units_Z   1
loop_
 _symmetry_equiv_pos_site_id
 _symmetry_equiv_pos_as_xyz
  1  'x, y, z'
loop_
 _atom_site_type_symbol
 _atom_site_label
 _atom_site_symmetry_multiplicity
 _atom_site_fract_x
 _atom_site_fract_y
 _atom_site_fract_z
 _atom_site_occupancy
  Cu  Cu0  1  0.49999000  0.49804000  0.50198000  1.0
  Si  Si1  1  0.99999000  0.49811000  0.50192000  1.0
  H  H2  1  0.27066000  0.56914000  0.35241000  1.0
  H  H3  1  0.28372000  0.58203000  0.17081000  1.0
  H  H4  1  0.81004000  0.43055000  0.14996000  1.0
  H  H5  1  0.77970000  0.43302000  0.33474000  1.0
  H  H6  1  0.21495000  0.43295000  0.85280000  1.0
  H  H7  1  0.68113000  0.58068000  0.83426000  1.0
  H  H8  1  0.70060000  0.56787000  0.65236000  1.0
  H  H9  1  0.24399000  0.43545000  0.66800000  1.0
  H  H10  1  0.29936000  0.34768000  0.43219000  1.0
  H  H11  1  0.31880000  0.16579000  0.41928000  1.0
  H  H12  1  0.78505000  0.14722000  0.56698000  1.0
  H  H13  1  0.75596000  0.33202000  0.56456000  1.0
  H  H14  1  0.18998000  0.85008000  0.56938000  1.0
  H  H15  1  0.71622000  0.82921000  0.41794000  1.0
  H  H16  1  0.72935000  0.64760000  0.43084000  1.0
  H  H17  1  0.22021000  0.66531000  0.56697000  1.0
  C  C18  1  0.38874000  0.54027000  0.30486000  1.0
  C  C19  1  0.39585000  0.54449000  0.20163000  1.0
  C  C20  1  0.54649000  0.50300000  0.14184000  1.0
  C  C21  1  0.68754000  0.46246000  0.19084000  1.0
  C  C22  1  0.67179000  0.46226000  0.29455000  1.0
  C  C23  1  0.56017000  0.50167000  0.03247000  1.0
  C  C24  1  0.43579000  0.50301000  0.97104000  1.0
  C  C25  1  0.32466000  0.46410000  0.81214000  1.0
  C  C26  1  0.44957000  0.50363000  0.86163000  1.0
  C  C27  1  0.58419000  0.54393000  0.80257000  1.0
  C  C28  1  0.59340000  0.53970000  0.69926000  1.0
  C  C29  1  0.34072000  0.46384000  0.70839000  1.0
  C  C30  1  0.40654000  0.30077000  0.46033000  1.0
  C  C31  1  0.41572000  0.19745000  0.45605000  1.0
  C  C32  1  0.55044000  0.13839000  0.49630000  1.0
  C  C33  1  0.67534000  0.18789000  0.53586000  1.0
  C  C34  1  0.65924000  0.29164000  0.53617000  1.0
  C  C35  1  0.56426000  0.02900000  0.49689000  1.0
  C  C36  1  0.43987000  0.96757000  0.49830000  1.0
  C  C37  1  0.31247000  0.80918000  0.53750000  1.0
  C  C38  1  0.45348000  0.85818000  0.49695000  1.0
  C  C39  1  0.60409000  0.79838000  0.45546000  1.0
  C  C40  1  0.61122000  0.69515000  0.45970000  1.0
  C  C41  1  0.32821000  0.70546000  0.53774000  1.0
  N  N42  1  0.52385000  0.49945000  0.35028000  1.0
  N  N43  1  0.47435000  0.49998000  0.65324000  1.0
  N  N44  1  0.52562000  0.34677000  0.50002000  1.0
  N  N45  1  0.47612000  0.64972000  0.50055000  1.0
  N  N46  1  0.74272000  0.49683000  0.98437000  1.0
  N  N47  1  0.25398000  0.50319000  0.01891000  1.0
  N  N48  1  0.74611000  0.98113000  0.49648000  1.0
  N  N49  1  0.25726000  0.01569000  0.50329000  1.0
  O  O50  1  0.80657000  0.57622000  0.98181000  1.0
  O  O51  1  0.81573000  0.41475000  0.95364000  1.0
  O  O52  1  0.16351000  0.58494000  0.02313000  1.0
  O  O53  1  0.20803000  0.42251000  0.04807000  1.0
  O  O54  1  0.83629000  0.97704000  0.41464000  1.0
  O  O55  1  0.79235000  0.95183000  0.57704000  1.0
  O  O56  1  0.19320000  0.01824000  0.42398000  1.0
  O  O57  1  0.18446000  0.04640000  0.58542000  1.0
  F  F58  1  0.21609000  0.50524000  0.50903000  1.0
  F  F59  1  0.78388000  0.49096000  0.49478000  1.0
  F  F60  1  0.99997000  0.58874000  0.41132000  1.0
  F  F61  1  0.99996000  0.40806000  0.59197000  1.0
  F  F62  1  0.05311000  0.40836000  0.41037000  1.0
  F  F63  1  0.94686000  0.58965000  0.59169000  1.0
