# generated using pymatgen
data_Ho2PH19C11NO16
_symmetry_space_group_name_H-M   'P 1'
_cell_length_a   9.62821000
_cell_length_b   10.64580000
_cell_length_c   11.92560000
_cell_angle_alpha   70.47740000
_cell_angle_beta   68.95950000
_cell_angle_gamma   64.50510000
_symmetry_Int_Tables_number   1
_chemical_formula_structural   Ho2PH19C11NO16
_chemical_formula_sum   'Ho4 P2 H38 C22 N2 O32'
_cell_volume   1006.09525792
_cell_formula_units_Z   2
loop_
 _symmetry_equiv_pos_site_id
 _symmetry_equiv_pos_as_xyz
  1  'x, y, z'
loop_
 _atom_site_type_symbol
 _atom_site_label
 _atom_site_symmetry_multiplicity
 _atom_site_fract_x
 _atom_site_fract_y
 _atom_site_fract_z
 _atom_site_occupancy
  Ho  Ho0  1  0.92848000  0.18957000  0.25054000  1.0
  Ho  Ho1  1  0.07152000  0.81043000  0.74947000  1.0
  Ho  Ho2  1  0.58463000  0.83757000  0.21581000  1.0
  Ho  Ho3  1  0.41537000  0.16242000  0.78419000  1.0
  P  P4  1  0.33451000  0.18476000  0.09861000  1.0
  P  P5  1  0.66549000  0.81524000  0.90140000  1.0
  H  H6  1  0.13737000  0.39920000  0.24676000  1.0
  H  H7  1  0.86263000  0.60080000  0.75324000  1.0
  H  H8  1  0.46033000  0.34878000  0.07943000  1.0
  H  H9  1  0.53967000  0.65123000  0.92056000  1.0
  H  H10  1  0.27691000  0.43954000  0.03516000  1.0
  H  H11  1  0.72308000  0.56046000  0.96484000  1.0
  H  H12  1  0.17802000  0.61616000  0.13688000  1.0
  H  H13  1  0.82197000  0.38384000  0.86312000  1.0
  H  H14  1  0.35919000  0.55189000  0.18375000  1.0
  H  H15  1  0.64080000  0.44811000  0.81625000  1.0
  H  H16  1  0.13185000  0.70825000  0.32178000  1.0
  H  H17  1  0.86814000  0.29175000  0.67822000  1.0
  H  H18  1  0.02072000  0.60246000  0.35009000  1.0
  H  H19  1  0.97928000  0.39753000  0.64992000  1.0
  H  H20  1  0.14220000  0.53111000  0.52400000  1.0
  H  H21  1  0.85782000  0.46889000  0.47600000  1.0
  H  H22  1  0.33390000  0.50426000  0.42296000  1.0
  H  H23  1  0.66611000  0.49575000  0.57703000  1.0
  H  H24  1  0.12306000  0.33191000  0.47186000  1.0
  H  H25  1  0.87695000  0.66809000  0.52814000  1.0
  H  H26  1  0.30132000  0.26986000  0.51611000  1.0
  H  H27  1  0.69870000  0.73014000  0.48389000  1.0
  H  H28  1  0.45382000  0.30545000  0.29608000  1.0
  H  H29  1  0.54618000  0.69455000  0.70391000  1.0
  H  H30  1  0.34551000  0.19201000  0.32673000  1.0
  H  H31  1  0.65449000  0.80800000  0.67327000  1.0
  H  H32  1  0.33372000  0.76737000  0.45151000  1.0
  H  H33  1  0.66628000  0.23263000  0.54849000  1.0
  H  H34  1  0.40691000  0.85090000  0.48404000  1.0
  H  H35  1  0.59309000  0.14909000  0.51596000  1.0
  H  H36  1  0.26311000  0.96493000  0.19469000  1.0
  H  H37  1  0.73689000  0.03507000  0.80530000  1.0
  H  H38  1  0.28847000  0.80270000  0.23478000  1.0
  H  H39  1  0.71153000  0.19730000  0.76521000  1.0
  H  H40  1  0.00704000  0.20611000  0.99241000  1.0
  H  H41  1  0.99296000  0.79389000  0.00759000  1.0
  H  H42  1  0.09326000  0.29083000  0.00127000  1.0
  H  H43  1  0.90674000  0.70917000  0.99873000  1.0
  C  C44  1  0.33626000  0.35556000  0.10386000  1.0
  C  C45  1  0.66374000  0.64443000  0.89614000  1.0
  C  C46  1  0.23767000  0.55091000  0.21099000  1.0
  C  C47  1  0.76232000  0.44909000  0.78901000  1.0
  C  C48  1  0.14297000  0.59800000  0.33179000  1.0
  C  C49  1  0.85703000  0.40200000  0.66820000  1.0
  C  C50  1  0.21732000  0.49777000  0.43751000  1.0
  C  C51  1  0.78268000  0.50223000  0.56249000  1.0
  C  C52  1  0.23918000  0.34430000  0.44561000  1.0
  C  C53  1  0.76083000  0.65570000  0.55439000  1.0
  C  C54  1  0.33431000  0.29982000  0.32396000  1.0
  C  C55  1  0.66569000  0.70019000  0.67603000  1.0
  C  C56  1  0.70669000  0.01052000  0.30799000  1.0
  C  C57  1  0.29331000  0.98947000  0.69201000  1.0
  C  C58  1  0.83017000  0.98253000  0.18399000  1.0
  C  C59  1  0.16983000  0.01746000  0.81601000  1.0
  C  C60  1  0.82165000  0.51788000  0.25436000  1.0
  C  C61  1  0.17835000  0.48213000  0.74564000  1.0
  C  C62  1  0.67106000  0.50103000  0.25090000  1.0
  C  C63  1  0.32894000  0.49898000  0.74910000  1.0
  C  C64  1  0.04479000  0.93341000  0.47111000  1.0
  C  C65  1  0.95522000  0.06658000  0.52890000  1.0
  N  N66  1  0.25368000  0.39971000  0.22382000  1.0
  N  N67  1  0.74632000  0.60029000  0.77618000  1.0
  O  O68  1  0.19047000  0.15409000  0.19874000  1.0
  O  O69  1  0.80953000  0.84591000  0.80126000  1.0
  O  O70  1  0.48932000  0.06863000  0.12156000  1.0
  O  O71  1  0.51067000  0.93138000  0.87844000  1.0
  O  O72  1  0.31008000  0.21874000  0.97000000  1.0
  O  O73  1  0.68991000  0.78126000  0.03000000  1.0
  O  O74  1  0.60560000  0.94992000  0.34770000  1.0
  O  O75  1  0.39440000  0.05009000  0.65230000  1.0
  O  O76  1  0.71786000  0.09189000  0.35911000  1.0
  O  O77  1  0.28214000  0.90812000  0.64089000  1.0
  O  O78  1  0.82016000  0.90097000  0.13370000  1.0
  O  O79  1  0.17984000  0.09903000  0.86631000  1.0
  O  O80  1  0.93136000  0.04388000  0.14417000  1.0
  O  O81  1  0.06865000  0.95612000  0.85583000  1.0
  O  O82  1  0.80826000  0.63744000  0.26289000  1.0
  O  O83  1  0.19175000  0.36256000  0.73712000  1.0
  O  O84  1  0.94804000  0.40785000  0.24841000  1.0
  O  O85  1  0.05196000  0.59214000  0.75160000  1.0
  O  O86  1  0.54748000  0.61084000  0.25240000  1.0
  O  O87  1  0.45252000  0.38915000  0.74761000  1.0
  O  O88  1  0.68617000  0.37774000  0.24687000  1.0
  O  O89  1  0.31384000  0.62225000  0.75313000  1.0
  O  O90  1  0.04945000  0.95150000  0.36016000  1.0
  O  O91  1  0.95055000  0.04850000  0.63984000  1.0
  O  O92  1  0.10760000  0.81612000  0.54029000  1.0
  O  O93  1  0.89240000  0.18388000  0.45971000  1.0
  O  O94  1  0.42576000  0.79774000  0.42291000  1.0
  O  O95  1  0.57424000  0.20226000  0.57709000  1.0
  O  O96  1  0.34191000  0.86960000  0.18334000  1.0
  O  O97  1  0.65809000  0.13040000  0.81666000  1.0
  O  O98  1  0.98527000  0.28525000  0.02948000  1.0
  O  O99  1  0.01473000  0.71475000  0.97052000  1.0
