# generated using pymatgen
data_YbH21(C9O2)3
_symmetry_space_group_name_H-M   'P 1'
_cell_length_a   7.80495000
_cell_length_b   11.36170000
_cell_length_c   12.91310000
_cell_angle_alpha   93.41250000
_cell_angle_beta   89.99980000
_cell_angle_gamma   89.99980000
_symmetry_Int_Tables_number   1
_chemical_formula_structural   YbH21(C9O2)3
_chemical_formula_sum   'Yb2 H42 C54 O12'
_cell_volume   1143.07101177
_cell_formula_units_Z   2
loop_
 _symmetry_equiv_pos_site_id
 _symmetry_equiv_pos_as_xyz
  1  'x, y, z'
loop_
 _atom_site_type_symbol
 _atom_site_label
 _atom_site_symmetry_multiplicity
 _atom_site_fract_x
 _atom_site_fract_y
 _atom_site_fract_z
 _atom_site_occupancy
  Yb  Yb0  1  0.57502000  0.46013000  0.52592000  1.0
  Yb  Yb1  1  0.07502000  0.53987000  0.47408000  1.0
  H  H2  1  0.75214000  0.87140000  0.39070000  1.0
  H  H3  1  0.25215000  0.12860000  0.60930000  1.0
  H  H4  1  0.41110000  0.73393000  0.39601000  1.0
  H  H5  1  0.91111000  0.26607000  0.60399000  1.0
  H  H6  1  0.61866000  0.03873000  0.40428000  1.0
  H  H7  1  0.11866000  0.96127000  0.59572000  1.0
  H  H8  1  0.45629000  0.21977000  0.37558000  1.0
  H  H9  1  0.95630000  0.78023000  0.62442000  1.0
  H  H10  1  0.14463000  0.20984000  0.33600000  1.0
  H  H11  1  0.64464000  0.79016000  0.66400000  1.0
  H  H12  1  0.99294000  0.01644000  0.33007000  1.0
  H  H13  1  0.49294000  0.98356000  0.66993000  1.0
  H  H14  1  0.15586000  0.83304000  0.36104000  1.0
  H  H15  1  0.65587000  0.16696000  0.63896000  1.0
  H  H16  1  0.48639000  0.37482000  0.24459000  1.0
  H  H17  1  0.98639000  0.62518000  0.75541000  1.0
  H  H18  1  0.25156000  0.54757000  0.13560000  1.0
  H  H19  1  0.75155000  0.45243000  0.86441000  1.0
  H  H20  1  0.52444000  0.26826000  0.09841000  1.0
  H  H21  1  0.02443000  0.73175000  0.90159000  1.0
  H  H22  1  0.58614000  0.17285000  0.92577000  1.0
  H  H23  1  0.08614000  0.82715000  0.07423000  1.0
  H  H24  1  0.48385000  0.26435000  0.76580000  1.0
  H  H25  1  0.98385000  0.73565000  0.23420000  1.0
  H  H26  1  0.31711000  0.45008000  0.78008000  1.0
  H  H27  1  0.81711000  0.54993000  0.21992000  1.0
  H  H28  1  0.25458000  0.54687000  0.95411000  1.0
  H  H29  1  0.75458000  0.45314000  0.04589000  1.0
  H  H30  1  0.21573000  0.81560000  0.73415000  1.0
  H  H31  1  0.71573000  0.18440000  0.26585000  1.0
  H  H32  1  0.51486000  0.66862000  0.81385000  1.0
  H  H33  1  0.01486000  0.33138000  0.18615000  1.0
  H  H34  1  0.26929000  0.95724000  0.85705000  1.0
  H  H35  1  0.76929000  0.04276000  0.14295000  1.0
  H  H36  1  0.26010000  0.07155000  0.02519000  1.0
  H  H37  1  0.76010000  0.92844000  0.97481000  1.0
  H  H38  1  0.39979000  0.99465000  0.18072000  1.0
  H  H39  1  0.89979000  0.00535000  0.81928000  1.0
  H  H40  1  0.55154000  0.80090000  0.16636000  1.0
  H  H41  1  0.05155000  0.19910000  0.83364000  1.0
  H  H42  1  0.56257000  0.68610000  0.99713000  1.0
  H  H43  1  0.06256000  0.31390000  0.00286000  1.0
  C  C44  1  0.73988000  0.68253000  0.40852000  1.0
  C  C45  1  0.23989000  0.31747000  0.59148000  1.0
  C  C46  1  0.66247000  0.79832000  0.39523000  1.0
  C  C47  1  0.16248000  0.20168000  0.60477000  1.0
  C  C48  1  0.49079000  0.81254000  0.39185000  1.0
  C  C49  1  0.99080000  0.18746000  0.60815000  1.0
  C  C50  1  0.39945000  0.92238000  0.38087000  1.0
  C  C51  1  0.89946000  0.07762000  0.61913000  1.0
  C  C52  1  0.48243000  0.03283000  0.38572000  1.0
  C  C53  1  0.98244000  0.96717000  0.61428000  1.0
  C  C54  1  0.39095000  0.13499000  0.36948000  1.0
  C  C55  1  0.89095000  0.86501000  0.63052000  1.0
  C  C56  1  0.21508000  0.12923000  0.34836000  1.0
  C  C57  1  0.71509000  0.87078000  0.65163000  1.0
  C  C58  1  0.13043000  0.02075000  0.34540000  1.0
  C  C59  1  0.63044000  0.97926000  0.65460000  1.0
  C  C60  1  0.22135000  0.91806000  0.36251000  1.0
  C  C61  1  0.72135000  0.08194000  0.63749000  1.0
  C  C62  1  0.31840000  0.50206000  0.32594000  1.0
  C  C63  1  0.81840000  0.49794000  0.67407000  1.0
  C  C64  1  0.39512000  0.44536000  0.23283000  1.0
  C  C65  1  0.89511000  0.55463000  0.76717000  1.0
  C  C66  1  0.34211000  0.47418000  0.13786000  1.0
  C  C67  1  0.84211000  0.52582000  0.86214000  1.0
  C  C68  1  0.38664000  0.41573000  0.03844000  1.0
  C  C69  1  0.88664000  0.58427000  0.96156000  1.0
  C  C70  1  0.48008000  0.30940000  0.02906000  1.0
  C  C71  1  0.98008000  0.69061000  0.97094000  1.0
  C  C72  1  0.51406000  0.25510000  0.93183000  1.0
  C  C73  1  0.01406000  0.74490000  0.06817000  1.0
  C  C74  1  0.45555000  0.30553000  0.84209000  1.0
  C  C75  1  0.95556000  0.69447000  0.15791000  1.0
  C  C76  1  0.36226000  0.41068000  0.84998000  1.0
  C  C77  1  0.86226000  0.58932000  0.15002000  1.0
  C  C78  1  0.32797000  0.46508000  0.94726000  1.0
  C  C79  1  0.82797000  0.53492000  0.05274000  1.0
  C  C80  1  0.33301000  0.67094000  0.64104000  1.0
  C  C81  1  0.83301000  0.32906000  0.35896000  1.0
  C  C82  1  0.31822000  0.75039000  0.73486000  1.0
  C  C83  1  0.81822000  0.24961000  0.26514000  1.0
  C  C84  1  0.42038000  0.73991000  0.81836000  1.0
  C  C85  1  0.92038000  0.26009000  0.18164000  1.0
  C  C86  1  0.41467000  0.81201000  0.91525000  1.0
  C  C87  1  0.91467000  0.18799000  0.08475000  1.0
  C  C88  1  0.33033000  0.92189000  0.92457000  1.0
  C  C89  1  0.83033000  0.07811000  0.07543000  1.0
  C  C90  1  0.32598000  0.98688000  0.01927000  1.0
  C  C91  1  0.82597000  0.01312000  0.98073000  1.0
  C  C92  1  0.40498000  0.94368000  0.10663000  1.0
  C  C93  1  0.90498000  0.05632000  0.89337000  1.0
  C  C94  1  0.48992000  0.83521000  0.09862000  1.0
  C  C95  1  0.98992000  0.16479000  0.90138000  1.0
  C  C96  1  0.49576000  0.77050000  0.00355000  1.0
  C  C97  1  0.99577000  0.22950000  0.99645000  1.0
  O  O98  1  0.64282000  0.59206000  0.41387000  1.0
  O  O99  1  0.14283000  0.40794000  0.58613000  1.0
  O  O100  1  0.90336000  0.67705000  0.41396000  1.0
  O  O101  1  0.40337000  0.32295000  0.58604000  1.0
  O  O102  1  0.34617000  0.45713000  0.41548000  1.0
  O  O103  1  0.84617000  0.54286000  0.58452000  1.0
  O  O104  1  0.21264000  0.58686000  0.32326000  1.0
  O  O105  1  0.71264000  0.41314000  0.67674000  1.0
  O  O106  1  0.21072000  0.67312000  0.57470000  1.0
  O  O107  1  0.71072000  0.32688000  0.42530000  1.0
  O  O108  1  0.46289000  0.60334000  0.62922000  1.0
  O  O109  1  0.96289000  0.39666000  0.37078000  1.0
