# generated using pymatgen
data_CaH8C5N2O7
_symmetry_space_group_name_H-M   'P 1'
_cell_length_a   6.31783000
_cell_length_b   8.58548000
_cell_length_c   16.90860000
_cell_angle_alpha   89.99940000
_cell_angle_beta   96.83630000
_cell_angle_gamma   90.00000000
_symmetry_Int_Tables_number   1
_chemical_formula_structural   CaH8C5N2O7
_chemical_formula_sum   'Ca4 H32 C20 N8 O28'
_cell_volume   910.62890597
_cell_formula_units_Z   4
loop_
 _symmetry_equiv_pos_site_id
 _symmetry_equiv_pos_as_xyz
  1  'x, y, z'
loop_
 _atom_site_type_symbol
 _atom_site_label
 _atom_site_symmetry_multiplicity
 _atom_site_fract_x
 _atom_site_fract_y
 _atom_site_fract_z
 _atom_site_occupancy
  Ca  Ca0  1  0.71342000  0.99837000  0.71202000  1.0
  Ca  Ca1  1  0.78660000  0.49838000  0.78798000  1.0
  Ca  Ca2  1  0.28659000  0.00163000  0.28799000  1.0
  Ca  Ca3  1  0.21340000  0.50163000  0.21202000  1.0
  H  H4  1  0.65930000  0.66258000  0.99205000  1.0
  H  H5  1  0.84071000  0.16256000  0.50795000  1.0
  H  H6  1  0.34070000  0.33744000  0.00794000  1.0
  H  H7  1  0.15930000  0.83742000  0.49205000  1.0
  H  H8  1  0.80794000  0.13786000  0.03084000  1.0
  H  H9  1  0.69206000  0.63784000  0.46916000  1.0
  H  H10  1  0.19205000  0.86217000  0.96917000  1.0
  H  H11  1  0.30794000  0.36214000  0.53083000  1.0
  H  H12  1  0.29263000  0.13757000  0.63678000  1.0
  H  H13  1  0.20739000  0.63757000  0.86323000  1.0
  H  H14  1  0.70739000  0.86243000  0.36323000  1.0
  H  H15  1  0.79262000  0.36243000  0.13678000  1.0
  H  H16  1  0.44755000  0.27263000  0.66740000  1.0
  H  H17  1  0.05247000  0.77264000  0.83260000  1.0
  H  H18  1  0.55246000  0.72737000  0.33260000  1.0
  H  H19  1  0.94754000  0.22737000  0.16740000  1.0
  H  H20  1  0.17958000  0.92359000  0.75649000  1.0
  H  H21  1  0.32044000  0.42359000  0.74350000  1.0
  H  H22  1  0.82043000  0.07640000  0.24351000  1.0
  H  H23  1  0.67956000  0.57641000  0.25649000  1.0
  H  H24  1  0.12243000  0.02120000  0.83257000  1.0
  H  H25  1  0.37760000  0.52119000  0.66743000  1.0
  H  H26  1  0.87759000  0.97880000  0.16743000  1.0
  H  H27  1  0.62241000  0.47880000  0.33257000  1.0
  H  H28  1  0.43452000  0.77666000  0.75615000  1.0
  H  H29  1  0.06549000  0.27667000  0.74385000  1.0
  H  H30  1  0.56549000  0.22333000  0.24385000  1.0
  H  H31  1  0.93450000  0.72333000  0.25615000  1.0
  H  H32  1  0.33244000  0.78740000  0.66522000  1.0
  H  H33  1  0.16759000  0.28740000  0.83478000  1.0
  H  H34  1  0.66758000  0.21260000  0.33478000  1.0
  H  H35  1  0.83242000  0.71260000  0.16522000  1.0
  C  C36  1  0.71677000  0.21724000  0.87320000  1.0
  C  C37  1  0.78322000  0.71724000  0.62679000  1.0
  C  C38  1  0.28320000  0.78277000  0.12681000  1.0
  C  C39  1  0.21677000  0.28275000  0.37320000  1.0
  C  C40  1  0.70470000  0.05841000  0.91184000  1.0
  C  C41  1  0.79528000  0.55839000  0.58815000  1.0
  C  C42  1  0.29529000  0.94162000  0.08817000  1.0
  C  C43  1  0.20470000  0.44159000  0.41184000  1.0
  C  C44  1  0.75715000  0.03955000  0.99269000  1.0
  C  C45  1  0.74282000  0.53953000  0.50731000  1.0
  C  C46  1  0.24283000  0.96047000  0.00732000  1.0
  C  C47  1  0.25715000  0.46044000  0.49268000  1.0
  C  C48  1  0.74493000  0.88768000  0.02533000  1.0
  C  C49  1  0.75505000  0.38767000  0.47467000  1.0
  C  C50  1  0.25504000  0.11234000  0.97467000  1.0
  C  C51  1  0.24494000  0.61232000  0.52533000  1.0
  C  C52  1  0.61892000  0.79813000  0.89071000  1.0
  C  C53  1  0.88107000  0.29810000  0.60929000  1.0
  C  C54  1  0.38105000  0.20190000  0.10929000  1.0
  C  C55  1  0.11891000  0.70187000  0.39071000  1.0
  N  N56  1  0.67541000  0.77285000  0.97122000  1.0
  N  N57  1  0.82457000  0.27283000  0.52877000  1.0
  N  N58  1  0.32457000  0.22717000  0.02877000  1.0
  N  N59  1  0.17541000  0.72715000  0.47122000  1.0
  N  N60  1  0.64119000  0.94116000  0.86066000  1.0
  N  N61  1  0.85882000  0.44114000  0.63934000  1.0
  N  N62  1  0.35881000  0.05887000  0.13934000  1.0
  N  N63  1  0.14117000  0.55884000  0.36066000  1.0
  O  O64  1  0.73403000  0.33946000  0.91474000  1.0
  O  O65  1  0.76596000  0.83945000  0.58525000  1.0
  O  O66  1  0.26591000  0.66056000  0.08526000  1.0
  O  O67  1  0.23404000  0.16054000  0.41475000  1.0
  O  O68  1  0.70968000  0.21750000  0.79695000  1.0
  O  O69  1  0.79039000  0.71751000  0.70305000  1.0
  O  O70  1  0.29036000  0.78251000  0.20306000  1.0
  O  O71  1  0.20964000  0.28249000  0.29695000  1.0
  O  O72  1  0.54608000  0.68345000  0.84727000  1.0
  O  O73  1  0.95392000  0.18343000  0.65272000  1.0
  O  O74  1  0.45392000  0.31657000  0.15272000  1.0
  O  O75  1  0.04607000  0.81653000  0.34727000  1.0
  O  O76  1  0.78902000  0.85236000  0.09815000  1.0
  O  O77  1  0.71098000  0.35234000  0.40185000  1.0
  O  O78  1  0.21099000  0.14765000  0.90186000  1.0
  O  O79  1  0.28903000  0.64764000  0.59814000  1.0
  O  O80  1  0.44282000  0.16762000  0.64111000  1.0
  O  O81  1  0.05721000  0.66762000  0.85889000  1.0
  O  O82  1  0.55720000  0.83238000  0.35889000  1.0
  O  O83  1  0.94281000  0.33238000  0.14111000  1.0
  O  O84  1  0.06082000  0.94995000  0.78881000  1.0
  O  O85  1  0.43920000  0.44995000  0.71119000  1.0
  O  O86  1  0.93919000  0.05005000  0.21119000  1.0
  O  O87  1  0.56080000  0.55004000  0.28881000  1.0
  O  O88  1  0.37729000  0.85128000  0.71354000  1.0
  O  O89  1  0.12276000  0.35129000  0.78646000  1.0
  O  O90  1  0.62274000  0.14871000  0.28646000  1.0
  O  O91  1  0.87725000  0.64871000  0.21354000  1.0
