# generated using pymatgen
data_ZnH17C25NO4
_symmetry_space_group_name_H-M   'P 1'
_cell_length_a   9.55284000
_cell_length_b   15.78740000
_cell_length_c   15.87920000
_cell_angle_alpha   89.66930000
_cell_angle_beta   89.98470000
_cell_angle_gamma   89.15310000
_symmetry_Int_Tables_number   1
_chemical_formula_structural   ZnH17C25NO4
_chemical_formula_sum   'Zn2 H34 C50 N2 O8'
_cell_volume   2394.51217286
_cell_formula_units_Z   2
loop_
 _symmetry_equiv_pos_site_id
 _symmetry_equiv_pos_as_xyz
  1  'x, y, z'
loop_
 _atom_site_type_symbol
 _atom_site_label
 _atom_site_symmetry_multiplicity
 _atom_site_fract_x
 _atom_site_fract_y
 _atom_site_fract_z
 _atom_site_occupancy
  Zn  Zn0  1  0.14565000  0.00214000  0.99898000  1.0
  Zn  Zn1  1  0.85222000  0.00208000  0.00018000  1.0
  H  H2  1  0.61219000  0.88867000  0.07121000  1.0
  H  H3  1  0.36732000  0.87415000  0.04483000  1.0
  H  H4  1  0.63134000  0.03012000  0.12784000  1.0
  H  H5  1  0.38711000  0.00002000  0.12959000  1.0
  H  H6  1  0.60674000  0.11668000  0.05813000  1.0
  H  H7  1  0.39015000  0.88452000  0.93465000  1.0
  H  H8  1  0.63598000  0.87129000  0.96205000  1.0
  H  H9  1  0.63074000  0.09539000  0.90641000  1.0
  H  H10  1  0.36508000  0.02170000  0.86762000  1.0
  H  H11  1  0.38560000  0.11261000  0.93049000  1.0
  H  H12  1  0.61094000  0.99141000  0.86814000  1.0
  H  H13  1  0.22570000  0.28700000  0.31454000  1.0
  H  H14  1  0.22466000  0.75363000  0.65523000  1.0
  H  H15  1  0.23333000  0.75159000  0.34479000  1.0
  H  H16  1  0.22052000  0.26155000  0.66071000  1.0
  H  H17  1  0.77016000  0.26612000  0.66082000  1.0
  H  H18  1  0.99897000  0.21049000  0.49364000  1.0
  H  H19  1  0.78504000  0.73170000  0.33382000  1.0
  H  H20  1  0.01155000  0.79397000  0.50608000  1.0
  H  H21  1  0.01531000  0.43014000  0.28359000  1.0
  H  H22  1  0.98972000  0.41865000  0.71249000  1.0
  H  H23  1  0.78197000  0.71517000  0.68313000  1.0
  H  H24  1  0.78249000  0.25340000  0.34555000  1.0
  H  H25  1  0.78162000  0.82135000  0.20329000  1.0
  H  H26  1  0.77070000  0.17817000  0.79236000  1.0
  H  H27  1  0.78100000  0.80706000  0.81097000  1.0
  H  H28  1  0.77857000  0.16483000  0.21537000  1.0
  H  H29  1  0.22280000  0.84280000  0.78510000  1.0
  H  H30  1  0.22088000  0.19644000  0.18604000  1.0
  H  H31  1  0.22849000  0.83991000  0.21339000  1.0
  H  H32  1  0.21955000  0.17367000  0.79235000  1.0
  H  H33  1  0.36251000  0.10125000  0.08365000  1.0
  H  H34  1  0.99213000  0.57437000  0.71594000  1.0
  H  H35  1  0.01608000  0.58587000  0.28702000  1.0
  C  C36  1  0.58106000  0.91110000  0.00829000  1.0
  C  C37  1  0.42050000  0.91083000  0.99572000  1.0
  C  C38  1  0.99997000  0.59060000  0.57986000  1.0
  C  C39  1  0.00392000  0.54752000  0.50074000  1.0
  C  C40  1  0.12739000  0.26043000  0.29278000  1.0
  C  C41  1  0.00432000  0.27572000  0.33895000  1.0
  C  C42  1  0.00542000  0.32434000  0.41894000  1.0
  C  C43  1  0.12748000  0.76484000  0.68979000  1.0
  C  C44  1  0.00333000  0.72886000  0.66041000  1.0
  C  C45  1  0.00404000  0.68009000  0.58061000  1.0
  C  C46  1  0.01247000  0.54959000  0.34559000  1.0
  C  C47  1  0.13420000  0.76666000  0.31359000  1.0
  C  C48  1  0.12182000  0.24323000  0.68966000  1.0
  C  C49  1  0.86881000  0.24583000  0.68969000  1.0
  C  C50  1  0.99537000  0.26921000  0.65189000  1.0
  C  C51  1  0.99697000  0.32043000  0.57294000  1.0
  C  C52  1  0.99993000  0.27959000  0.49513000  1.0
  C  C53  1  0.99776000  0.40991000  0.57589000  1.0
  C  C54  1  0.88235000  0.75548000  0.30730000  1.0
  C  C55  1  0.00940000  0.73595000  0.34794000  1.0
  C  C56  1  0.01017000  0.68423000  0.42657000  1.0
  C  C57  1  0.00986000  0.72489000  0.50447000  1.0
  C  C58  1  0.00860000  0.59472000  0.42358000  1.0
  C  C59  1  0.01222000  0.46313000  0.34371000  1.0
  C  C60  1  0.00796000  0.41388000  0.41969000  1.0
  C  C61  1  0.00335000  0.45707000  0.49874000  1.0
  C  C62  1  0.99478000  0.54137000  0.65583000  1.0
  C  C63  1  0.99361000  0.45493000  0.65393000  1.0
  C  C64  1  0.87882000  0.74306000  0.70555000  1.0
  C  C65  1  0.87855000  0.24124000  0.31019000  1.0
  C  C66  1  0.00225000  0.89097000  0.12339000  1.0
  C  C67  1  0.00493000  0.83567000  0.20039000  1.0
  C  C68  1  0.99787000  0.11734000  0.11849000  1.0
  C  C69  1  0.99942000  0.17517000  0.19301000  1.0
  C  C70  1  0.00060000  0.88807000  0.88004000  1.0
  C  C71  1  0.00189000  0.83030000  0.80558000  1.0
  C  C72  1  0.99632000  0.11502000  0.87711000  1.0
  C  C73  1  0.99517000  0.17068000  0.80028000  1.0
  C  C74  1  0.88006000  0.80514000  0.23455000  1.0
  C  C75  1  0.86876000  0.19701000  0.76312000  1.0
  C  C76  1  0.87793000  0.79396000  0.77692000  1.0
  C  C77  1  0.87587000  0.19199000  0.23774000  1.0
  C  C78  1  0.12695000  0.81446000  0.76200000  1.0
  C  C79  1  0.12505000  0.21015000  0.22096000  1.0
  C  C80  1  0.13199000  0.81574000  0.24039000  1.0
  C  C81  1  0.12174000  0.19452000  0.76302000  1.0
  C  C82  1  0.57847000  0.03513000  0.91829000  1.0
  C  C83  1  0.57741000  0.05072000  0.07008000  1.0
  C  C84  1  0.41763000  0.04036000  0.07627000  1.0
  C  C85  1  0.41806000  0.04601000  0.92365000  1.0
  N  N86  1  0.63342000  0.99920000  0.99900000  1.0
  N  N87  1  0.36437000  0.99938000  0.99851000  1.0
  O  O88  1  0.12000000  0.91468000  0.09435000  1.0
  O  O89  1  0.88270000  0.91127000  0.09325000  1.0
  O  O90  1  0.11596000  0.09637000  0.08703000  1.0
  O  O91  1  0.87922000  0.09193000  0.09317000  1.0
  O  O92  1  0.11889000  0.91093000  0.90844000  1.0
  O  O93  1  0.88139000  0.91130000  0.90860000  1.0
  O  O94  1  0.11571000  0.09115000  0.90473000  1.0
  O  O95  1  0.87859000  0.09429000  0.90821000  1.0
