# generated using pymatgen
data_Al2H12C21(O5F)2
_symmetry_space_group_name_H-M   'P 1'
_cell_length_a   6.80334000
_cell_length_b   11.01350000
_cell_length_c   11.06209522
_cell_angle_alpha   89.22011419
_cell_angle_beta   73.15213148
_cell_angle_gamma   73.91980000
_symmetry_Int_Tables_number   1
_chemical_formula_structural   Al2H12C21(O5F)2
_chemical_formula_sum   'Al2 H12 C21 O10 F2'
_cell_volume   760.24714983
_cell_formula_units_Z   1
loop_
 _symmetry_equiv_pos_site_id
 _symmetry_equiv_pos_as_xyz
  1  'x, y, z'
loop_
 _atom_site_type_symbol
 _atom_site_label
 _atom_site_symmetry_multiplicity
 _atom_site_fract_x
 _atom_site_fract_y
 _atom_site_fract_z
 _atom_site_occupancy
  Al  Al0  1  0.99466000  0.50424000  0.49814000  1.0
  Al  Al1  1  0.49611000  0.49890000  0.49824000  1.0
  H  H2  1  0.63545000  0.58446000  0.64825000  1.0
  H  H3  1  0.35191000  0.43147000  0.34446000  1.0
  H  H4  1  0.62142000  0.10097000  0.51085000  1.0
  H  H5  1  0.23589000  0.14108000  0.49603000  1.0
  H  H6  1  0.77360000  0.86390000  0.51332000  1.0
  H  H7  1  0.47011000  0.31686000  0.76040000  1.0
  H  H8  1  0.69796000  0.18382000  0.87661000  1.0
  H  H9  1  0.21496000  0.32722000  0.23114000  1.0
  H  H10  1  0.56941000  0.18882000  0.11310000  1.0
  H  H11  1  0.54790000  0.93367000  0.41935000  1.0
  H  H12  1  0.50428000  0.80099000  0.50508000  1.0
  H  H13  1  0.45795000  0.94938000  0.58683000  1.0
  C  C14  1  0.13962000  0.48505000  0.72199000  1.0
  C  C15  1  0.15045000  0.72904000  0.50401000  1.0
  C  C16  1  0.85694000  0.50644000  0.27365000  1.0
  C  C17  1  0.84509000  0.27491000  0.49583000  1.0
  C  C18  1  0.08368000  0.87084000  0.50480000  1.0
  C  C19  1  0.92212000  0.13500000  0.50167000  1.0
  C  C20  1  0.21830000  0.94842000  0.50154000  1.0
  C  C21  1  0.78739000  0.05774000  0.50820000  1.0
  C  C22  1  0.13385000  0.07945000  0.49940000  1.0
  C  C23  1  0.87009000  0.92783000  0.50938000  1.0
  C  C24  1  0.07334000  0.48142000  0.86293000  1.0
  C  C25  1  0.21102000  0.40526000  0.92876000  1.0
  C  C26  1  0.87308000  0.55607000  0.93148000  1.0
  C  C27  1  0.41457000  0.32164000  0.86335000  1.0
  C  C28  1  0.54197000  0.24695000  0.92869000  1.0
  C  C29  1  0.93322000  0.49275000  0.13202000  1.0
  C  C30  1  0.80408000  0.56221000  0.06490000  1.0
  C  C31  1  0.13908000  0.41007000  0.06484000  1.0
  C  C32  1  0.27220000  0.32895000  0.12860000  1.0
  C  C33  1  0.46987000  0.25004000  0.06208000  1.0
  C  C34  1  0.44514000  0.90330000  0.50315000  1.0
  O  O35  1  0.00651000  0.47215000  0.66650000  1.0
  O  O36  1  0.34761000  0.67136000  0.48675000  1.0
  O  O37  1  0.67459000  0.49017000  0.32686000  1.0
  O  O38  1  0.98784000  0.33366000  0.47315000  1.0
  O  O39  1  0.98286000  0.53164000  0.32850000  1.0
  O  O40  1  0.64526000  0.32490000  0.51172000  1.0
  O  O41  1  0.32128000  0.50296000  0.66977000  1.0
  O  O42  1  0.00164000  0.67480000  0.52143000  1.0
  O  O43  1  0.69139000  0.55567000  0.55909000  1.0
  O  O44  1  0.29878000  0.44664000  0.43606000  1.0
  F  F45  1  0.61020000  0.64321000  0.12423000  1.0
  F  F46  1  0.73831000  0.63195000  0.87436000  1.0
