# generated using pymatgen
data_CoH14C14N4(ClO)2
_symmetry_space_group_name_H-M   'P 1'
_cell_length_a   7.34361000
_cell_length_b   11.93030000
_cell_length_c   22.53510000
_cell_angle_alpha   90.00000000
_cell_angle_beta   90.00010000
_cell_angle_gamma   89.99980000
_symmetry_Int_Tables_number   1
_chemical_formula_structural   CoH14C14N4(ClO)2
_chemical_formula_sum   'Co4 H56 C56 N16 Cl8 O8'
_cell_volume   1974.33324621
_cell_formula_units_Z   4
loop_
 _symmetry_equiv_pos_site_id
 _symmetry_equiv_pos_as_xyz
  1  'x, y, z'
loop_
 _atom_site_type_symbol
 _atom_site_label
 _atom_site_symmetry_multiplicity
 _atom_site_fract_x
 _atom_site_fract_y
 _atom_site_fract_z
 _atom_site_occupancy
  Co  Co0  1  0.75000000  0.50000000  0.25729000  1.0
  Co  Co1  1  0.75000000  0.00000000  0.24271000  1.0
  Co  Co2  1  0.25000000  0.50000000  0.74271000  1.0
  Co  Co3  1  0.25000000  0.00000000  0.75729000  1.0
  H  H4  1  0.50227000  0.98995000  0.09396000  1.0
  H  H5  1  0.99773000  0.01005000  0.09396000  1.0
  H  H6  1  0.99773000  0.48995000  0.40604000  1.0
  H  H7  1  0.50227000  0.51005000  0.40604000  1.0
  H  H8  1  0.49773000  0.01005000  0.90604000  1.0
  H  H9  1  0.00227000  0.98995000  0.90604000  1.0
  H  H10  1  0.00227000  0.51005000  0.59396000  1.0
  H  H11  1  0.49773000  0.48995000  0.59396000  1.0
  H  H12  1  0.85955000  0.66357000  0.16529000  1.0
  H  H13  1  0.64045000  0.33643000  0.16529000  1.0
  H  H14  1  0.64045000  0.16357000  0.33471000  1.0
  H  H15  1  0.85955000  0.83643000  0.33471000  1.0
  H  H16  1  0.14045000  0.33643000  0.83471000  1.0
  H  H17  1  0.35955000  0.66357000  0.83471000  1.0
  H  H18  1  0.35955000  0.83643000  0.66529000  1.0
  H  H19  1  0.14045000  0.16357000  0.66529000  1.0
  H  H20  1  0.70854000  0.80088000  0.09867000  1.0
  H  H21  1  0.79147000  0.19912000  0.09867000  1.0
  H  H22  1  0.79146000  0.30088000  0.40133000  1.0
  H  H23  1  0.70853000  0.69912000  0.40133000  1.0
  H  H24  1  0.29147000  0.19912000  0.90133000  1.0
  H  H25  1  0.20854000  0.80088000  0.90133000  1.0
  H  H26  1  0.20854000  0.69912000  0.59867000  1.0
  H  H27  1  0.29146000  0.30088000  0.59867000  1.0
  H  H28  1  0.19621000  0.70478000  0.17891000  1.0
  H  H29  1  0.30380000  0.29522000  0.17891000  1.0
  H  H30  1  0.30379000  0.20478000  0.32109000  1.0
  H  H31  1  0.19620000  0.79522000  0.32109000  1.0
  H  H32  1  0.80380000  0.29522000  0.82109000  1.0
  H  H33  1  0.69620000  0.70478000  0.82109000  1.0
  H  H34  1  0.69620000  0.79522000  0.67891000  1.0
  H  H35  1  0.80380000  0.20478000  0.67891000  1.0
  H  H36  1  0.36878000  0.56924000  0.24141000  1.0
  H  H37  1  0.13122000  0.43076000  0.24141000  1.0
  H  H38  1  0.13122000  0.06924000  0.25859000  1.0
  H  H39  1  0.36878000  0.93076000  0.25859000  1.0
  H  H40  1  0.63122000  0.43076000  0.75859000  1.0
  H  H41  1  0.86878000  0.56924000  0.75859000  1.0
  H  H42  1  0.86878000  0.93076000  0.74141000  1.0
  H  H43  1  0.63122000  0.06924000  0.74141000  1.0
  H  H44  1  0.26558000  0.79814000  0.05752000  1.0
  H  H45  1  0.23442000  0.20185000  0.05752000  1.0
  H  H46  1  0.23443000  0.29814000  0.44248000  1.0
  H  H47  1  0.26558000  0.70186000  0.44248000  1.0
  H  H48  1  0.73443000  0.20185000  0.94248000  1.0
  H  H49  1  0.76557000  0.79814000  0.94248000  1.0
  H  H50  1  0.76557000  0.70186000  0.55752000  1.0
  H  H51  1  0.73443000  0.29814000  0.55752000  1.0
  H  H52  1  0.22337000  0.88041000  0.12112000  1.0
  H  H53  1  0.27663000  0.11959000  0.12112000  1.0
  H  H54  1  0.27663000  0.38041000  0.37888000  1.0
  H  H55  1  0.22337000  0.61959000  0.37888000  1.0
  H  H56  1  0.77664000  0.11959000  0.87888000  1.0
  H  H57  1  0.72336000  0.88042000  0.87888000  1.0
  H  H58  1  0.72336000  0.61959000  0.62112000  1.0
  H  H59  1  0.77664000  0.38041000  0.62112000  1.0
  C  C60  1  0.71204000  0.67333000  0.16584000  1.0
  C  C61  1  0.78797000  0.32667000  0.16584000  1.0
  C  C62  1  0.78796000  0.17333000  0.33417000  1.0
  C  C63  1  0.71204000  0.82667000  0.33416000  1.0
  C  C64  1  0.28797000  0.32667000  0.83416000  1.0
  C  C65  1  0.21204000  0.67333000  0.83416000  1.0
  C  C66  1  0.21203000  0.82667000  0.66584000  1.0
  C  C67  1  0.28797000  0.17333000  0.66584000  1.0
  C  C68  1  0.62663000  0.75027000  0.12887000  1.0
  C  C69  1  0.87337000  0.24973000  0.12887000  1.0
  C  C70  1  0.87337000  0.25027000  0.37113000  1.0
  C  C71  1  0.62663000  0.74973000  0.37113000  1.0
  C  C72  1  0.37337000  0.24973000  0.87113000  1.0
  C  C73  1  0.12664000  0.75027000  0.87113000  1.0
  C  C74  1  0.12663000  0.74973000  0.62887000  1.0
  C  C75  1  0.37337000  0.25027000  0.62887000  1.0
  C  C76  1  0.43747000  0.76234000  0.13211000  1.0
  C  C77  1  0.06253000  0.23766000  0.13211000  1.0
  C  C78  1  0.06253000  0.26234000  0.36790000  1.0
  C  C79  1  0.43747000  0.73766000  0.36789000  1.0
  C  C80  1  0.56253000  0.23766000  0.86789000  1.0
  C  C81  1  0.93747000  0.76234000  0.86789000  1.0
  C  C82  1  0.93747000  0.73766000  0.63211000  1.0
  C  C83  1  0.56253000  0.26234000  0.63211000  1.0
  C  C84  1  0.34292000  0.69589000  0.17308000  1.0
  C  C85  1  0.15708000  0.30411000  0.17308000  1.0
  C  C86  1  0.15708000  0.19589000  0.32692000  1.0
  C  C87  1  0.34292000  0.80411000  0.32692000  1.0
  C  C88  1  0.65708000  0.30411000  0.82692000  1.0
  C  C89  1  0.84292000  0.69589000  0.82692000  1.0
  C  C90  1  0.84292000  0.80411000  0.67308000  1.0
  C  C91  1  0.65708000  0.19589000  0.67308000  1.0
  C  C92  1  0.43736000  0.62084000  0.20840000  1.0
  C  C93  1  0.06264000  0.37916000  0.20840000  1.0
  C  C94  1  0.06264000  0.12084000  0.29160000  1.0
  C  C95  1  0.43736000  0.87916000  0.29160000  1.0
  C  C96  1  0.56264000  0.37916000  0.79160000  1.0
  C  C97  1  0.93736000  0.62084000  0.79160000  1.0
  C  C98  1  0.93736000  0.87916000  0.70840000  1.0
  C  C99  1  0.56264000  0.12084000  0.70840000  1.0
  C  C100  1  0.33278000  0.84336000  0.09408000  1.0
  C  C101  1  0.16722000  0.15664000  0.09408000  1.0
  C  C102  1  0.16722000  0.34336000  0.40592000  1.0
  C  C103  1  0.33278000  0.65664000  0.40592000  1.0
  C  C104  1  0.66722000  0.15664000  0.90592000  1.0
  C  C105  1  0.83278000  0.84336000  0.90592000  1.0
  C  C106  1  0.83278000  0.65664000  0.59408000  1.0
  C  C107  1  0.66722000  0.34336000  0.59408000  1.0
  C  C108  1  0.44942000  0.94603000  0.00862000  1.0
  C  C109  1  0.05058000  0.05396000  0.00862000  1.0
  C  C110  1  0.05058000  0.44603000  0.49138000  1.0
  C  C111  1  0.44942000  0.55397000  0.49138000  1.0
  C  C112  1  0.55058000  0.05396000  0.99138000  1.0
  C  C113  1  0.94942000  0.94603000  0.99138000  1.0
  C  C114  1  0.94942000  0.55397000  0.50862000  1.0
  C  C115  1  0.55058000  0.44603000  0.50862000  1.0
  N  N116  1  0.62036000  0.60884000  0.20500000  1.0
  N  N117  1  0.87964000  0.39117000  0.20500000  1.0
  N  N118  1  0.87964000  0.10884000  0.29500000  1.0
  N  N119  1  0.62036000  0.89116000  0.29500000  1.0
  N  N120  1  0.37964000  0.39116000  0.79500000  1.0
  N  N121  1  0.12037000  0.60884000  0.79500000  1.0
  N  N122  1  0.12036000  0.89116000  0.70500000  1.0
  N  N123  1  0.37963000  0.10884000  0.70500000  1.0
  N  N124  1  0.44062000  0.93112000  0.06764000  1.0
  N  N125  1  0.05938000  0.06888000  0.06764000  1.0
  N  N126  1  0.05938000  0.43112000  0.43236000  1.0
  N  N127  1  0.44062000  0.56888000  0.43236000  1.0
  N  N128  1  0.55938000  0.06888000  0.93236000  1.0
  N  N129  1  0.94062000  0.93112000  0.93236000  1.0
  N  N130  1  0.94062000  0.56888000  0.56764000  1.0
  N  N131  1  0.55938000  0.43112000  0.56764000  1.0
  Cl  Cl132  1  0.97105000  0.58517000  0.30682000  1.0
  Cl  Cl133  1  0.52895000  0.41483000  0.30682000  1.0
  Cl  Cl134  1  0.52895000  0.08517000  0.19318000  1.0
  Cl  Cl135  1  0.97105000  0.91483000  0.19318000  1.0
  Cl  Cl136  1  0.02895000  0.41483000  0.69318000  1.0
  Cl  Cl137  1  0.47105000  0.58517000  0.69318000  1.0
  Cl  Cl138  1  0.47105000  0.91483000  0.80682000  1.0
  Cl  Cl139  1  0.02895000  0.08517000  0.80682000  1.0
  O  O140  1  0.38298000  0.88254000  0.97064000  1.0
  O  O141  1  0.11702000  0.11746000  0.97064000  1.0
  O  O142  1  0.11702000  0.38254000  0.52936000  1.0
  O  O143  1  0.38298000  0.61746000  0.52936000  1.0
  O  O144  1  0.61702000  0.11746000  0.02936000  1.0
  O  O145  1  0.88298000  0.88254000  0.02936000  1.0
  O  O146  1  0.88298000  0.61746000  0.47064000  1.0
  O  O147  1  0.61702000  0.38254000  0.47064000  1.0
