# generated using pymatgen
data_FeH10Au2(C7N3)2
_symmetry_space_group_name_H-M   'P 1'
_cell_length_a   6.95841000
_cell_length_b   8.33695000
_cell_length_c   13.89890000
_cell_angle_alpha   90.00640000
_cell_angle_beta   90.00540000
_cell_angle_gamma   82.79230000
_symmetry_Int_Tables_number   1
_chemical_formula_structural   FeH10Au2(C7N3)2
_chemical_formula_sum   'Fe2 H20 Au4 C28 N12'
_cell_volume   799.93029622
_cell_formula_units_Z   2
loop_
 _symmetry_equiv_pos_site_id
 _symmetry_equiv_pos_as_xyz
  1  'x, y, z'
loop_
 _atom_site_type_symbol
 _atom_site_label
 _atom_site_symmetry_multiplicity
 _atom_site_fract_x
 _atom_site_fract_y
 _atom_site_fract_z
 _atom_site_occupancy
  Fe  Fe0  1  0.01044000  0.99605000  0.01420000  1.0
  Fe  Fe1  1  0.01052000  0.49616000  0.48578000  1.0
  H  H2  1  0.81973000  0.47920000  0.16783000  1.0
  H  H3  1  0.17963000  0.99751000  0.66216000  1.0
  H  H4  1  0.17980000  0.49735000  0.83788000  1.0
  H  H5  1  0.81989000  0.97920000  0.33215000  1.0
  H  H6  1  0.94229000  0.74781000  0.16264000  1.0
  H  H7  1  0.06699000  0.72614000  0.64369000  1.0
  H  H8  1  0.06708000  0.22602000  0.85631000  1.0
  H  H9  1  0.94245000  0.24780000  0.33734000  1.0
  H  H10  1  0.69027000  0.36846000  0.01609000  1.0
  H  H11  1  0.31233000  0.12763000  0.51757000  1.0
  H  H12  1  0.31242000  0.62752000  0.98250000  1.0
  H  H13  1  0.69023000  0.86861000  0.48388000  1.0
  H  H14  1  0.81446000  0.80292000  0.87264000  1.0
  H  H15  1  0.19307000  0.71350000  0.35248000  1.0
  H  H16  1  0.19290000  0.21349000  0.14755000  1.0
  H  H17  1  0.81437000  0.30315000  0.62731000  1.0
  H  H18  1  0.68517000  0.53726000  0.86597000  1.0
  H  H19  1  0.31994000  0.98011000  0.35987000  1.0
  H  H20  1  0.31980000  0.48008000  0.14021000  1.0
  H  H21  1  0.68500000  0.03754000  0.63396000  1.0
  Au  Au22  1  0.46313000  0.26195000  0.74749000  1.0
  Au  Au23  1  0.52299000  0.24980000  0.25871000  1.0
  Au  Au24  1  0.52299000  0.74989000  0.24130000  1.0
  Au  Au25  1  0.46312000  0.76192000  0.75251000  1.0
  C  C26  1  0.65339000  0.16184000  0.84227000  1.0
  C  C27  1  0.32139000  0.35395000  0.34688000  1.0
  C  C28  1  0.32132000  0.85395000  0.15314000  1.0
  C  C29  1  0.65346000  0.66195000  0.65772000  1.0
  C  C30  1  0.27728000  0.85898000  0.85034000  1.0
  C  C31  1  0.71976000  0.64619000  0.33312000  1.0
  C  C32  1  0.71969000  0.14608000  0.16686000  1.0
  C  C33  1  0.27728000  0.35909000  0.64969000  1.0
  C  C34  1  0.81310000  0.54757000  0.10100000  1.0
  C  C35  1  0.18960000  0.93732000  0.59251000  1.0
  C  C36  1  0.18966000  0.43719000  0.90752000  1.0
  C  C37  1  0.81321000  0.04761000  0.39897000  1.0
  C  C38  1  0.88213000  0.69732000  0.09885000  1.0
  C  C39  1  0.12494000  0.78680000  0.58297000  1.0
  C  C40  1  0.12498000  0.28669000  0.91705000  1.0
  C  C41  1  0.88222000  0.19736000  0.40113000  1.0
  C  C42  1  0.74107000  0.48662000  0.01709000  1.0
  C  C43  1  0.26247000  0.00949000  0.51238000  1.0
  C  C44  1  0.26250000  0.50939000  0.98767000  1.0
  C  C45  1  0.74107000  0.98675000  0.48287000  1.0
  C  C46  1  0.81124000  0.72755000  0.93637000  1.0
  C  C47  1  0.19596000  0.77947000  0.41991000  1.0
  C  C48  1  0.19585000  0.27944000  0.08012000  1.0
  C  C49  1  0.81118000  0.22775000  0.56358000  1.0
  C  C50  1  0.73919000  0.57975000  0.93375000  1.0
  C  C51  1  0.26603000  0.92798000  0.42489000  1.0
  C  C52  1  0.26598000  0.42792000  0.07517000  1.0
  C  C53  1  0.73910000  0.07997000  0.56619000  1.0
  N  N54  1  0.76708000  0.10313000  0.89815000  1.0
  N  N55  1  0.19910000  0.41295000  0.39889000  1.0
  N  N56  1  0.19901000  0.91290000  0.10111000  1.0
  N  N57  1  0.76708000  0.60330000  0.60182000  1.0
  N  N58  1  0.17003000  0.91257000  0.91076000  1.0
  N  N59  1  0.83625000  0.58691000  0.38792000  1.0
  N  N60  1  0.83616000  0.08680000  0.11205000  1.0
  N  N61  1  0.17008000  0.41270000  0.58924000  1.0
  N  N62  1  0.88390000  0.78532000  0.01772000  1.0
  N  N63  1  0.12567000  0.70951000  0.49768000  1.0
  N  N64  1  0.12564000  0.20943000  0.00234000  1.0
  N  N65  1  0.88393000  0.28544000  0.48224000  1.0
