# generated using pymatgen
data_NdH4C3O8
_symmetry_space_group_name_H-M   'P 1'
_cell_length_a   6.07792000
_cell_length_b   7.77785000
_cell_length_c   8.27746000
_cell_angle_alpha   96.46930000
_cell_angle_beta   93.29830000
_cell_angle_gamma   110.09600000
_symmetry_Int_Tables_number   1
_chemical_formula_structural   NdH4C3O8
_chemical_formula_sum   'Nd2 H8 C6 O16'
_cell_volume   363.19102837
_cell_formula_units_Z   2
loop_
 _symmetry_equiv_pos_site_id
 _symmetry_equiv_pos_as_xyz
  1  'x, y, z'
loop_
 _atom_site_type_symbol
 _atom_site_label
 _atom_site_symmetry_multiplicity
 _atom_site_fract_x
 _atom_site_fract_y
 _atom_site_fract_z
 _atom_site_occupancy
  Nd  Nd0  1  0.50106000  0.81484000  0.78252000  1.0
  Nd  Nd1  1  0.49893000  0.18515000  0.21748000  1.0
  H  H2  1  0.07121000  0.87206000  0.62761000  1.0
  H  H3  1  0.92878000  0.12794000  0.37239000  1.0
  H  H4  1  0.19341000  0.82184000  0.46808000  1.0
  H  H5  1  0.80657000  0.17814000  0.53192000  1.0
  H  H6  1  0.50812000  0.17069000  0.64914000  1.0
  H  H7  1  0.49187000  0.82930000  0.35086000  1.0
  H  H8  1  0.68706000  0.23368000  0.81074000  1.0
  H  H9  1  0.31292000  0.76631000  0.18924000  1.0
  C  C10  1  0.38664000  0.50578000  0.03538000  1.0
  C  C11  1  0.61337000  0.49423000  0.96463000  1.0
  C  C12  1  0.05962000  0.98348000  0.92252000  1.0
  C  C13  1  0.94040000  0.01652000  0.07748000  1.0
  C  C14  1  0.58946000  0.57357000  0.45686000  1.0
  C  C15  1  0.41054000  0.42642000  0.54313000  1.0
  O  O16  1  0.32702000  0.64195000  0.00466000  1.0
  O  O17  1  0.67297000  0.35806000  0.99534000  1.0
  O  O18  1  0.27109000  0.98877000  0.94594000  1.0
  O  O19  1  0.72891000  0.01123000  0.05406000  1.0
  O  O20  1  0.62453000  0.74289000  0.51019000  1.0
  O  O21  1  0.37548000  0.25711000  0.48981000  1.0
  O  O22  1  0.28131000  0.38352000  0.11928000  1.0
  O  O23  1  0.71871000  0.61650000  0.88072000  1.0
  O  O24  1  0.93984000  0.95464000  0.78659000  1.0
  O  O25  1  0.06016000  0.04536000  0.21341000  1.0
  O  O26  1  0.68279000  0.51707000  0.34105000  1.0
  O  O27  1  0.31721000  0.48293000  0.65895000  1.0
  O  O28  1  0.18656000  0.81819000  0.58649000  1.0
  O  O29  1  0.81343000  0.18180000  0.41352000  1.0
  O  O30  1  0.63453000  0.14200000  0.70900000  1.0
  O  O31  1  0.36547000  0.85801000  0.29102000  1.0
