# generated using pymatgen
data_NiH9C4NO6
_symmetry_space_group_name_H-M   'P 1'
_cell_length_a   7.74195000
_cell_length_b   9.38828000
_cell_length_c   10.56610000
_cell_angle_alpha   89.90490000
_cell_angle_beta   88.78160000
_cell_angle_gamma   88.94250000
_symmetry_Int_Tables_number   1
_chemical_formula_structural   NiH9C4NO6
_chemical_formula_sum   'Ni4 H36 C16 N4 O24'
_cell_volume   767.67709799
_cell_formula_units_Z   4
loop_
 _symmetry_equiv_pos_site_id
 _symmetry_equiv_pos_as_xyz
  1  'x, y, z'
loop_
 _atom_site_type_symbol
 _atom_site_label
 _atom_site_symmetry_multiplicity
 _atom_site_fract_x
 _atom_site_fract_y
 _atom_site_fract_z
 _atom_site_occupancy
  Ni  Ni0  1  0.14438000  0.94681000  0.10903000  1.0
  Ni  Ni1  1  0.86164000  0.53546000  0.59362000  1.0
  Ni  Ni2  1  0.38008000  0.47138000  0.91112000  1.0
  Ni  Ni3  1  0.62226000  0.04608000  0.40593000  1.0
  H  H4  1  0.87567000  0.93703000  0.25295000  1.0
  H  H5  1  0.14709000  0.54356000  0.70689000  1.0
  H  H6  1  0.65722000  0.43723000  0.79643000  1.0
  H  H7  1  0.38816000  0.06823000  0.24503000  1.0
  H  H8  1  0.81924000  0.86494000  0.11913000  1.0
  H  H9  1  0.17088000  0.63917000  0.57697000  1.0
  H  H10  1  0.66315000  0.34656000  0.93092000  1.0
  H  H11  1  0.30345000  0.14058000  0.37335000  1.0
  H  H12  1  0.86850000  0.69472000  0.30129000  1.0
  H  H13  1  0.13829000  0.77394000  0.78888000  1.0
  H  H14  1  0.62324000  0.21683000  0.70969000  1.0
  H  H15  1  0.37628000  0.31134000  0.19951000  1.0
  H  H16  1  0.97747000  0.51340000  0.16139000  1.0
  H  H17  1  0.00659000  0.97323000  0.67913000  1.0
  H  H18  1  0.51483000  0.01434000  0.82174000  1.0
  H  H19  1  0.47674000  0.49065000  0.33937000  1.0
  H  H20  1  0.85159000  0.62965000  0.07030000  1.0
  H  H21  1  0.14818000  0.88290000  0.57452000  1.0
  H  H22  1  0.65980000  0.09830000  0.91921000  1.0
  H  H23  1  0.33446000  0.38428000  0.42527000  1.0
  H  H24  1  0.95860000  0.16952000  0.18935000  1.0
  H  H25  1  0.03822000  0.28568000  0.65572000  1.0
  H  H26  1  0.56075000  0.70748000  0.75374000  1.0
  H  H27  1  0.45051000  0.82985000  0.32336000  1.0
  H  H28  1  0.14093000  0.20659000  0.11318000  1.0
  H  H29  1  0.84832000  0.26693000  0.59931000  1.0
  H  H30  1  0.41417000  0.78526000  0.83184000  1.0
  H  H31  1  0.62272000  0.78240000  0.39867000  1.0
  H  H32  1  0.95330000  0.94428000  0.90467000  1.0
  H  H33  1  0.04882000  0.52237000  0.38912000  1.0
  H  H34  1  0.57334000  0.47487000  0.09948000  1.0
  H  H35  1  0.40238000  0.05563000  0.60242000  1.0
  H  H36  1  0.01647000  0.10924000  0.91662000  1.0
  H  H37  1  0.97148000  0.36215000  0.40375000  1.0
  H  H38  1  0.50439000  0.64177000  0.06841000  1.0
  H  H39  1  0.48405000  0.89867000  0.62556000  1.0
  C  C40  1  0.13949000  0.73832000  0.29838000  1.0
  C  C41  1  0.86896000  0.72914000  0.79446000  1.0
  C  C42  1  0.35676000  0.27505000  0.73041000  1.0
  C  C43  1  0.64546000  0.25790000  0.20818000  1.0
  C  C44  1  0.96485000  0.73055000  0.23099000  1.0
  C  C45  1  0.03966000  0.74804000  0.71993000  1.0
  C  C46  1  0.53250000  0.24073000  0.78842000  1.0
  C  C47  1  0.46578000  0.27309000  0.27206000  1.0
  C  C48  1  0.97211000  0.62209000  0.12361000  1.0
  C  C49  1  0.02474000  0.87262000  0.62744000  1.0
  C  C50  1  0.53179000  0.11199000  0.87685000  1.0
  C  C51  1  0.46291000  0.38317000  0.37843000  1.0
  C  C52  1  0.12157000  0.63846000  0.03012000  1.0
  C  C53  1  0.88119000  0.86338000  0.53211000  1.0
  C  C54  1  0.39528000  0.11478000  0.98268000  1.0
  C  C55  1  0.59588000  0.36395000  0.48061000  1.0
  N  N56  1  0.91876000  0.87205000  0.18084000  1.0
  N  N57  1  0.08635000  0.61700000  0.65009000  1.0
  N  N58  1  0.58686000  0.37187000  0.85534000  1.0
  N  N59  1  0.41528000  0.13251000  0.32043000  1.0
  O  O60  1  0.23158000  0.84849000  0.27899000  1.0
  O  O61  1  0.77444000  0.62329000  0.76438000  1.0
  O  O62  1  0.28614000  0.39533000  0.76439000  1.0
  O  O63  1  0.73845000  0.14940000  0.23722000  1.0
  O  O64  1  0.18535000  0.63628000  0.36892000  1.0
  O  O65  1  0.82492000  0.81835000  0.87867000  1.0
  O  O66  1  0.28549000  0.19516000  0.65281000  1.0
  O  O67  1  0.69506000  0.35246000  0.13000000  1.0
  O  O68  1  0.20827000  0.75118000  0.01960000  1.0
  O  O69  1  0.79783000  0.74850000  0.51626000  1.0
  O  O70  1  0.29380000  0.22149000  0.99378000  1.0
  O  O71  1  0.67783000  0.24469000  0.49402000  1.0
  O  O72  1  0.15388000  0.52624000  0.96428000  1.0
  O  O73  1  0.85260000  0.97854000  0.47115000  1.0
  O  O74  1  0.39180000  0.00374000  0.05341000  1.0
  O  O75  1  0.61971000  0.47198000  0.54974000  1.0
  O  O76  1  0.08642000  0.15601000  0.18707000  1.0
  O  O77  1  0.91708000  0.31973000  0.66234000  1.0
  O  O78  1  0.45467000  0.76695000  0.74509000  1.0
  O  O79  1  0.57831000  0.84023000  0.32747000  1.0
  O  O80  1  0.05097000  0.00998000  0.92763000  1.0
  O  O81  1  0.94266000  0.46302000  0.41267000  1.0
  O  O82  1  0.47431000  0.54145000  0.06868000  1.0
  O  O83  1  0.47460000  0.97755000  0.56313000  1.0
