# generated using pymatgen
data_Pr3Cu7H45C53I7(N6O11)2
_symmetry_space_group_name_H-M   'P 1'
_cell_length_a   14.95840000
_cell_length_b   16.49560000
_cell_length_c   17.94860000
_cell_angle_alpha   115.03600000
_cell_angle_beta   101.96700000
_cell_angle_gamma   90.65860000
_symmetry_Int_Tables_number   1
_chemical_formula_structural   Pr3Cu7H45C53I7(N6O11)2
_chemical_formula_sum   'Pr6 Cu14 H90 C106 I14 N24 O44'
_cell_volume   3900.76880592
_cell_formula_units_Z   2
loop_
 _symmetry_equiv_pos_site_id
 _symmetry_equiv_pos_as_xyz
  1  'x, y, z'
loop_
 _atom_site_type_symbol
 _atom_site_label
 _atom_site_symmetry_multiplicity
 _atom_site_fract_x
 _atom_site_fract_y
 _atom_site_fract_z
 _atom_site_occupancy
  Pr  Pr0  1  0.97460000  0.39717000  0.54777000  1.0
  Pr  Pr1  1  0.02540000  0.60283000  0.45223000  1.0
  Pr  Pr2  1  0.75232000  0.28663000  0.62103000  1.0
  Pr  Pr3  1  0.24768000  0.71337000  0.37897000  1.0
  Pr  Pr4  1  0.50784000  0.40147000  0.54558000  1.0
  Pr  Pr5  1  0.49216000  0.59853000  0.45442000  1.0
  Cu  Cu6  1  0.56689000  0.71414000  0.08998000  1.0
  Cu  Cu7  1  0.43311000  0.28586000  0.91002000  1.0
  Cu  Cu8  1  0.72844000  0.80190000  0.17481000  1.0
  Cu  Cu9  1  0.27156000  0.19810000  0.82519000  1.0
  Cu  Cu10  1  0.78234000  0.80728000  0.01555000  1.0
  Cu  Cu11  1  0.21766000  0.19272000  0.98445000  1.0
  Cu  Cu12  1  0.92120000  0.98960000  0.92981000  1.0
  Cu  Cu13  1  0.07880000  0.01040000  0.07018000  1.0
  Cu  Cu14  1  0.79379000  0.07592000  0.00399000  1.0
  Cu  Cu15  1  0.20621000  0.92409000  0.99601000  1.0
  Cu  Cu16  1  0.66631000  0.09633000  0.87768000  1.0
  Cu  Cu17  1  0.33369000  0.90367000  0.12232000  1.0
  Cu  Cu18  1  0.58046000  0.17755000  0.99341000  1.0
  Cu  Cu19  1  0.41954000  0.82246000  0.00659000  1.0
  H  H20  1  0.98199000  0.23575000  0.65033000  1.0
  H  H21  1  0.01801000  0.76425000  0.34967000  1.0
  H  H22  1  0.07665000  0.21133000  0.71084000  1.0
  H  H23  1  0.92335000  0.78867000  0.28916000  1.0
  H  H24  1  0.75402000  0.33722000  0.81703000  1.0
  H  H25  1  0.24598000  0.66278000  0.18297000  1.0
  H  H26  1  0.82844000  0.34231000  0.91193000  1.0
  H  H27  1  0.17156000  0.65769000  0.08808000  1.0
  H  H28  1  0.50393000  0.21898000  0.60102000  1.0
  H  H29  1  0.49607000  0.78102000  0.39898000  1.0
  H  H30  1  0.47019000  0.19831000  0.67964000  1.0
  H  H31  1  0.52981000  0.80169000  0.32036000  1.0
  H  H32  1  0.29266000  0.42980000  0.57982000  1.0
  H  H33  1  0.70734000  0.57020000  0.42018000  1.0
  H  H34  1  0.19332000  0.36266000  0.57135000  1.0
  H  H35  1  0.80668000  0.63733000  0.42864000  1.0
  H  H36  1  0.79489000  0.11142000  0.18167000  1.0
  H  H37  1  0.20511000  0.88858000  0.81833000  1.0
  H  H38  1  0.82847000  0.24548000  0.32423000  1.0
  H  H39  1  0.17153000  0.75452000  0.67577000  1.0
  H  H40  1  0.86831000  0.41056000  0.19925000  1.0
  H  H41  1  0.13169000  0.58944000  0.80075000  1.0
  H  H42  1  0.83520000  0.27005000  0.06152000  1.0
  H  H43  1  0.16480000  0.72995000  0.93848000  1.0
  H  H44  1  0.94270000  0.80194000  0.90058000  1.0
  H  H45  1  0.05731000  0.19806000  0.09942000  1.0
  H  H46  1  0.93888000  0.65236000  0.77677000  1.0
  H  H47  1  0.06112000  0.34765000  0.22323000  1.0
  H  H48  1  0.88698000  0.78646000  0.61479000  1.0
  H  H49  1  0.11302000  0.21354000  0.38521000  1.0
  H  H50  1  0.88827000  0.93079000  0.74460000  1.0
  H  H51  1  0.11173000  0.06922000  0.25540000  1.0
  H  H52  1  0.85853000  0.95233000  0.20454000  1.0
  H  H53  1  0.14147000  0.04767000  0.79546000  1.0
  H  H54  1  0.91757000  0.10752000  0.31978000  1.0
  H  H55  1  0.08242000  0.89248000  0.68022000  1.0
  H  H56  1  0.77848000  0.04440000  0.47925000  1.0
  H  H57  1  0.22152000  0.95560000  0.52075000  1.0
  H  H58  1  0.72242000  0.89195000  0.35667000  1.0
  H  H59  1  0.27758000  0.10805000  0.64333000  1.0
  H  H60  1  0.20856000  0.51054000  0.93336000  1.0
  H  H61  1  0.79145000  0.48947000  0.06664000  1.0
  H  H62  1  0.10048000  0.41382000  0.79399000  1.0
  H  H63  1  0.89952000  0.58619000  0.20601000  1.0
  H  H64  1  0.89453000  0.59036000  0.87575000  1.0
  H  H65  1  0.10547000  0.40964000  0.12426000  1.0
  H  H66  1  0.01277000  0.68453000  0.00826000  1.0
  H  H67  1  0.98723000  0.31547000  0.99175000  1.0
  H  H68  1  0.52959000  0.94424000  0.19478000  1.0
  H  H69  1  0.47041000  0.05576000  0.80522000  1.0
  H  H70  1  0.63820000  0.06300000  0.32184000  1.0
  H  H71  1  0.36180000  0.93700000  0.67816000  1.0
  H  H72  1  0.40385000  0.16269000  0.42368000  1.0
  H  H73  1  0.59615000  0.83731000  0.57631000  1.0
  H  H74  1  0.30362000  0.03861000  0.29261000  1.0
  H  H75  1  0.69638000  0.96139000  0.70739000  1.0
  H  H76  1  0.71391000  0.59800000  0.03879000  1.0
  H  H77  1  0.28609000  0.40200000  0.96121000  1.0
  H  H78  1  0.73782000  0.48223000  0.90125000  1.0
  H  H79  1  0.26219000  0.51778000  0.09876000  1.0
  H  H80  1  0.44916000  0.47112000  0.79504000  1.0
  H  H81  1  0.55084000  0.52888000  0.20495000  1.0
  H  H82  1  0.43485000  0.57889000  0.94049000  1.0
  H  H83  1  0.56515000  0.42111000  0.05951000  1.0
  H  H84  1  0.52981000  0.13925000  0.12638000  1.0
  H  H85  1  0.47019000  0.86075000  0.87363000  1.0
  H  H86  1  0.53570000  0.22541000  0.28125000  1.0
  H  H87  1  0.46430000  0.77459000  0.71875000  1.0
  H  H88  1  0.66378000  0.45619000  0.27332000  1.0
  H  H89  1  0.33622000  0.54381000  0.72668000  1.0
  H  H90  1  0.65832000  0.35937000  0.12044000  1.0
  H  H91  1  0.34168000  0.64063000  0.87956000  1.0
  H  H92  1  0.75153000  0.62118000  0.87912000  1.0
  H  H93  1  0.24847000  0.37882000  0.12088000  1.0
  H  H94  1  0.68467000  0.54578000  0.72287000  1.0
  H  H95  1  0.31534000  0.45422000  0.27713000  1.0
  H  H96  1  0.66234000  0.80988000  0.73193000  1.0
  H  H97  1  0.33766000  0.19012000  0.26807000  1.0
  H  H98  1  0.73097000  0.87510000  0.88770000  1.0
  H  H99  1  0.26903000  0.12490000  0.11230000  1.0
  H  H100  1  0.73782000  0.47912000  0.53507000  1.0
  H  H101  1  0.26218000  0.52089000  0.46494000  1.0
  H  H102  1  0.18264000  0.25904000  0.65975000  1.0
  H  H103  1  0.81735000  0.74096000  0.34025000  1.0
  H  H104  1  0.93356000  0.26290000  0.83752000  1.0
  H  H105  1  0.06644000  0.73710000  0.16248000  1.0
  H  H106  1  0.60543000  0.13965000  0.71101000  1.0
  H  H107  1  0.39457000  0.86035000  0.28899000  1.0
  H  H108  1  0.27209000  0.24154000  0.55904000  1.0
  H  H109  1  0.72791000  0.75846000  0.44096000  1.0
  C  C110  1  0.81189000  0.17909000  0.18849000  1.0
  C  C111  1  0.18811000  0.82091000  0.81151000  1.0
  C  C112  1  0.82966000  0.25337000  0.26712000  1.0
  C  C113  1  0.17034000  0.74662000  0.73288000  1.0
  C  C114  1  0.85118000  0.33853000  0.27205000  1.0
  C  C115  1  0.14882000  0.66147000  0.72795000  1.0
  C  C116  1  0.85255000  0.34504000  0.19715000  1.0
  C  C117  1  0.14745000  0.65496000  0.80285000  1.0
  C  C118  1  0.83465000  0.26764000  0.12121000  1.0
  C  C119  1  0.16535000  0.73236000  0.87879000  1.0
  C  C120  1  0.87737000  0.42140000  0.35542000  1.0
  C  C121  1  0.12263000  0.57860000  0.64458000  1.0
  C  C122  1  0.92957000  0.79530000  0.83598000  1.0
  C  C123  1  0.07043000  0.20470000  0.16402000  1.0
  C  C124  1  0.92720000  0.71274000  0.76748000  1.0
  C  C125  1  0.07280000  0.28726000  0.23251000  1.0
  C  C126  1  0.91209000  0.70832000  0.68631000  1.0
  C  C127  1  0.08791000  0.29168000  0.31369000  1.0
  C  C128  1  0.89776000  0.78767000  0.67719000  1.0
  C  C129  1  0.10224000  0.21233000  0.32280000  1.0
  C  C130  1  0.89943000  0.86730000  0.74866000  1.0
  C  C131  1  0.10057000  0.13270000  0.25134000  1.0
  C  C132  1  0.91780000  0.62190000  0.61134000  1.0
  C  C133  1  0.08220000  0.37810000  0.38865000  1.0
  C  C134  1  0.84213000  0.97557000  0.26632000  1.0
  C  C135  1  0.15787000  0.02443000  0.73368000  1.0
  C  C136  1  0.87495000  0.06111000  0.33020000  1.0
  C  C137  1  0.12505000  0.93889000  0.66980000  1.0
  C  C138  1  0.85167000  0.08764000  0.40816000  1.0
  C  C139  1  0.14833000  0.91236000  0.59184000  1.0
  C  C140  1  0.79770000  0.02573000  0.41929000  1.0
  C  C141  1  0.20231000  0.97427000  0.58071000  1.0
  C  C142  1  0.76668000  0.94186000  0.35191000  1.0
  C  C143  1  0.23332000  0.05814000  0.64809000  1.0
  C  C144  1  0.88038000  0.18165000  0.47663000  1.0
  C  C145  1  0.11962000  0.81835000  0.52337000  1.0
  C  C146  1  0.13851000  0.52663000  0.91802000  1.0
  C  C147  1  0.86149000  0.47337000  0.08198000  1.0
  C  C148  1  0.07853000  0.47247000  0.84085000  1.0
  C  C149  1  0.92147000  0.52753000  0.15916000  1.0
  C  C150  1  0.98917000  0.49527000  0.82428000  1.0
  C  C151  1  0.01083000  0.50473000  0.17573000  1.0
  C  C152  1  0.96388000  0.57136000  0.88594000  1.0
  C  C153  1  0.03612000  0.42865000  0.11407000  1.0
  C  C154  1  0.02952000  0.62311000  0.95992000  1.0
  C  C155  1  0.97048000  0.37690000  0.04008000  1.0
  C  C156  1  0.92317000  0.43903000  0.74123000  1.0
  C  C157  1  0.07682000  0.56097000  0.25877000  1.0
  C  C158  1  0.50435000  0.99360000  0.24701000  1.0
  C  C159  1  0.49565000  0.00639000  0.75299000  1.0
  C  C160  1  0.56440000  0.05953000  0.31729000  1.0
  C  C161  1  0.43560000  0.94047000  0.68271000  1.0
  C  C162  1  0.52902000  0.12192000  0.38255000  1.0
  C  C163  1  0.47098000  0.87808000  0.61745000  1.0
  C  C164  1  0.43376000  0.11481000  0.37441000  1.0
  C  C165  1  0.56624000  0.88518000  0.62559000  1.0
  C  C166  1  0.37827000  0.04667000  0.30182000  1.0
  C  C167  1  0.62173000  0.95332000  0.69818000  1.0
  C  C168  1  0.59285000  0.19284000  0.45961000  1.0
  C  C169  1  0.40715000  0.80716000  0.54039000  1.0
  C  C170  1  0.65638000  0.56581000  0.98378000  1.0
  C  C171  1  0.34362000  0.43419000  0.01622000  1.0
  C  C172  1  0.66932000  0.50203000  0.90680000  1.0
  C  C173  1  0.33068000  0.49797000  0.09320000  1.0
  C  C174  1  0.59485000  0.46913000  0.83621000  1.0
  C  C175  1  0.40515000  0.53087000  0.16378000  1.0
  C  C176  1  0.50881000  0.49667000  0.84813000  1.0
  C  C177  1  0.49120000  0.50333000  0.15187000  1.0
  C  C178  1  0.50090000  0.55715000  0.92784000  1.0
  C  C179  1  0.49911000  0.44285000  0.07216000  1.0
  C  C180  1  0.60502000  0.41113000  0.74826000  1.0
  C  C181  1  0.39499000  0.58887000  0.25174000  1.0
  C  C182  1  0.55929000  0.20957000  0.16162000  1.0
  C  C183  1  0.44071000  0.79043000  0.83839000  1.0
  C  C184  1  0.56240000  0.25746000  0.24713000  1.0
  C  C185  1  0.43759000  0.74254000  0.75288000  1.0
  C  C186  1  0.59879000  0.34817000  0.28891000  1.0
  C  C187  1  0.40121000  0.65183000  0.71109000  1.0
  C  C188  1  0.63382000  0.38619000  0.24315000  1.0
  C  C189  1  0.36618000  0.61381000  0.75685000  1.0
  C  C190  1  0.63014000  0.33313000  0.15822000  1.0
  C  C191  1  0.36986000  0.66687000  0.84178000  1.0
  C  C192  1  0.59576000  0.40367000  0.37948000  1.0
  C  C193  1  0.40424000  0.59633000  0.62052000  1.0
  C  C194  1  0.73084000  0.66050000  0.84395000  1.0
  C  C195  1  0.26916000  0.33950000  0.15605000  1.0
  C  C196  1  0.69280000  0.61877000  0.75738000  1.0
  C  C197  1  0.30721000  0.38123000  0.24262000  1.0
  C  C198  1  0.66637000  0.67256000  0.71558000  1.0
  C  C199  1  0.33363000  0.32744000  0.28442000  1.0
  C  C200  1  0.68139000  0.76614000  0.76272000  1.0
  C  C201  1  0.31862000  0.23385000  0.23728000  1.0
  C  C202  1  0.71918000  0.80245000  0.84906000  1.0
  C  C203  1  0.28082000  0.19755000  0.15094000  1.0
  C  C204  1  0.61955000  0.63358000  0.62362000  1.0
  C  C205  1  0.38045000  0.36642000  0.37638000  1.0
  C  C206  1  0.74206000  0.42470000  0.55556000  1.0
  C  C207  1  0.25794000  0.57530000  0.44444000  1.0
  C  C208  1  0.10978000  0.26469000  0.63587000  1.0
  C  C209  1  0.89021000  0.73531000  0.36414000  1.0
  C  C210  1  0.87127000  0.27739000  0.80202000  1.0
  C  C211  1  0.12873000  0.72261000  0.19799000  1.0
  C  C212  1  0.59740000  0.16411000  0.66175000  1.0
  C  C213  1  0.40260000  0.83589000  0.33825000  1.0
  C  C214  1  0.31086000  0.30272000  0.56602000  1.0
  C  C215  1  0.68914000  0.69727000  0.43398000  1.0
  I  I216  1  0.64799000  0.70448000  0.22982000  1.0
  I  I217  1  0.35201000  0.29552000  0.77018000  1.0
  I  I218  1  0.62379000  0.85100000  0.06445000  1.0
  I  I219  1  0.37621000  0.14900000  0.93555000  1.0
  I  I220  1  0.86823000  0.73349000  0.10519000  1.0
  I  I221  1  0.13177000  0.26651000  0.89481000  1.0
  I  I222  1  0.89087000  0.96040000  0.05338000  1.0
  I  I223  1  0.10913000  0.03960000  0.94661000  1.0
  I  I224  1  0.84344000  0.10898000  0.88589000  1.0
  I  I225  1  0.15656000  0.89102000  0.11410000  1.0
  I  I226  1  0.61798000  0.01637000  0.96743000  1.0
  I  I227  1  0.38203000  0.98363000  0.03257000  1.0
  I  I228  1  0.61237000  0.26465000  0.91103000  1.0
  I  I229  1  0.38763000  0.73535000  0.08897000  1.0
  N  N230  1  0.81549000  0.18524000  0.11644000  1.0
  N  N231  1  0.18451000  0.81476000  0.88356000  1.0
  N  N232  1  0.91569000  0.87185000  0.82730000  1.0
  N  N233  1  0.08430000  0.12815000  0.17270000  1.0
  N  N234  1  0.78732000  0.91678000  0.27597000  1.0
  N  N235  1  0.21268000  0.08322000  0.72403000  1.0
  N  N236  1  0.11540000  0.60140000  0.97632000  1.0
  N  N237  1  0.88460000  0.39860000  0.02368000  1.0
  N  N238  1  0.41216000  0.98697000  0.23838000  1.0
  N  N239  1  0.58784000  0.01302000  0.76162000  1.0
  N  N240  1  0.57390000  0.59515000  0.99423000  1.0
  N  N241  1  0.42610000  0.40485000  0.00577000  1.0
  N  N242  1  0.59189000  0.24686000  0.11702000  1.0
  N  N243  1  0.40811000  0.75314000  0.88298000  1.0
  N  N244  1  0.74312000  0.75075000  0.89009000  1.0
  N  N245  1  0.25688000  0.24924000  0.10990000  1.0
  N  N246  1  0.05125000  0.23226000  0.66550000  1.0
  N  N247  1  0.94874000  0.76774000  0.33450000  1.0
  N  N248  1  0.81243000  0.32019000  0.84649000  1.0
  N  N249  1  0.18757000  0.67981000  0.15351000  1.0
  N  N250  1  0.51604000  0.19066000  0.64267000  1.0
  N  N251  1  0.48396000  0.80934000  0.35733000  1.0
  N  N252  1  0.26159000  0.37042000  0.57260000  1.0
  N  N253  1  0.73841000  0.62958000  0.42740000  1.0
  O  O254  1  0.89244000  0.41041000  0.42274000  1.0
  O  O255  1  0.10757000  0.58958000  0.57727000  1.0
  O  O256  1  0.88649000  0.49701000  0.35319000  1.0
  O  O257  1  0.11351000  0.50299000  0.64681000  1.0
  O  O258  1  0.92332000  0.55068000  0.62204000  1.0
  O  O259  1  0.07668000  0.44932000  0.37796000  1.0
  O  O260  1  0.91973000  0.62776000  0.54332000  1.0
  O  O261  1  0.08027000  0.37224000  0.45667000  1.0
  O  O262  1  0.91798000  0.23706000  0.45755000  1.0
  O  O263  1  0.08202000  0.76294000  0.54245000  1.0
  O  O264  1  0.86451000  0.19985000  0.54904000  1.0
  O  O265  1  0.13550000  0.80016000  0.45096000  1.0
  O  O266  1  0.95849000  0.39513000  0.67888000  1.0
  O  O267  1  0.04151000  0.60487000  0.32112000  1.0
  O  O268  1  0.83777000  0.43591000  0.73804000  1.0
  O  O269  1  0.16223000  0.56409000  0.26197000  1.0
  O  O270  1  0.67851000  0.19073000  0.46679000  1.0
  O  O271  1  0.32149000  0.80927000  0.53321000  1.0
  O  O272  1  0.55838000  0.25124000  0.51705000  1.0
  O  O273  1  0.44162000  0.74876000  0.48295000  1.0
  O  O274  1  0.66819000  0.35914000  0.73786000  1.0
  O  O275  1  0.33181000  0.64086000  0.26214000  1.0
  O  O276  1  0.54908000  0.42014000  0.68935000  1.0
  O  O277  1  0.45092000  0.57986000  0.31065000  1.0
  O  O278  1  0.58006000  0.36211000  0.42142000  1.0
  O  O279  1  0.41994000  0.63789000  0.57858000  1.0
  O  O280  1  0.60653000  0.48955000  0.40718000  1.0
  O  O281  1  0.39348000  0.51046000  0.59283000  1.0
  O  O282  1  0.57940000  0.55287000  0.58676000  1.0
  O  O283  1  0.42060000  0.44713000  0.41324000  1.0
  O  O284  1  0.61744000  0.68323000  0.58553000  1.0
  O  O285  1  0.38256000  0.31677000  0.41447000  1.0
  O  O286  1  0.08908000  0.29991000  0.58559000  1.0
  O  O287  1  0.91092000  0.70009000  0.41441000  1.0
  O  O288  1  0.86161000  0.25274000  0.72351000  1.0
  O  O289  1  0.13839000  0.74726000  0.27649000  1.0
  O  O290  1  0.66299000  0.16528000  0.62800000  1.0
  O  O291  1  0.33701000  0.83472000  0.37200000  1.0
  O  O292  1  0.39500000  0.30323000  0.56687000  1.0
  O  O293  1  0.60500000  0.69677000  0.43313000  1.0
  O  O294  1  0.80677000  0.37538000  0.54389000  1.0
  O  O295  1  0.19324000  0.62462000  0.45611000  1.0
  O  O296  1  0.68161000  0.41226000  0.59151000  1.0
  O  O297  1  0.31839000  0.58774000  0.40849000  1.0
