# generated using pymatgen
data_AgH7C7N2
_symmetry_space_group_name_H-M   'P 1'
_cell_length_a   5.23129000
_cell_length_b   17.80770000
_cell_length_c   18.05980000
_cell_angle_alpha   117.88800000
_cell_angle_beta   90.00000000
_cell_angle_gamma   90.00000000
_symmetry_Int_Tables_number   1
_chemical_formula_structural   AgH7C7N2
_chemical_formula_sum   'Ag8 H56 C56 N16'
_cell_volume   1487.01318304
_cell_formula_units_Z   8
loop_
 _symmetry_equiv_pos_site_id
 _symmetry_equiv_pos_as_xyz
  1  'x, y, z'
loop_
 _atom_site_type_symbol
 _atom_site_label
 _atom_site_symmetry_multiplicity
 _atom_site_fract_x
 _atom_site_fract_y
 _atom_site_fract_z
 _atom_site_occupancy
  Ag  Ag0  1  0.17293000  0.97722000  0.90387000  1.0
  Ag  Ag1  1  0.67293000  0.52278000  0.59613000  1.0
  Ag  Ag2  1  0.82707000  0.02278000  0.09613000  1.0
  Ag  Ag3  1  0.32706000  0.47722000  0.40387000  1.0
  Ag  Ag4  1  0.87882000  0.41164000  0.97066000  1.0
  Ag  Ag5  1  0.37882000  0.08836000  0.52934000  1.0
  Ag  Ag6  1  0.12119000  0.58836000  0.02934000  1.0
  Ag  Ag7  1  0.62118000  0.91164000  0.47066000  1.0
  H  H8  1  0.43943000  0.83483000  0.94540000  1.0
  H  H9  1  0.93943000  0.66516000  0.55460000  1.0
  H  H10  1  0.56057000  0.16517000  0.05460000  1.0
  H  H11  1  0.06057000  0.33484000  0.44540000  1.0
  H  H12  1  0.42926000  0.68063000  0.90887000  1.0
  H  H13  1  0.92926000  0.81937000  0.59113000  1.0
  H  H14  1  0.57073000  0.31937000  0.09113000  1.0
  H  H15  1  0.07074000  0.18063000  0.40887000  1.0
  H  H16  1  0.73989000  0.65791000  0.76905000  1.0
  H  H17  1  0.23989000  0.84209000  0.73095000  1.0
  H  H18  1  0.26011000  0.34210000  0.23095000  1.0
  H  H19  1  0.76010000  0.15790000  0.26904000  1.0
  H  H20  1  0.77453000  0.81284000  0.81293000  1.0
  H  H21  1  0.27451000  0.68716000  0.68707000  1.0
  H  H22  1  0.22548000  0.18716000  0.18707000  1.0
  H  H23  1  0.72547000  0.31284000  0.31293000  1.0
  H  H24  1  0.25410000  0.53805000  0.81450000  1.0
  H  H25  1  0.75410000  0.96195000  0.68550000  1.0
  H  H26  1  0.74590000  0.46195000  0.18550000  1.0
  H  H27  1  0.24590000  0.03805000  0.31450000  1.0
  H  H28  1  0.97631000  0.52633000  0.75235000  1.0
  H  H29  1  0.47631000  0.97367000  0.74765000  1.0
  H  H30  1  0.02369000  0.47368000  0.24765000  1.0
  H  H31  1  0.52369000  0.02632000  0.25235000  1.0
  H  H32  1  0.94772000  0.55637000  0.86080000  1.0
  H  H33  1  0.44772000  0.94363000  0.63920000  1.0
  H  H34  1  0.05228000  0.44363000  0.13920000  1.0
  H  H35  1  0.55228000  0.05637000  0.36080000  1.0
  H  H36  1  0.12364000  0.30443000  0.78780000  1.0
  H  H37  1  0.62364000  0.19557000  0.71220000  1.0
  H  H38  1  0.87636000  0.69557000  0.21220000  1.0
  H  H39  1  0.37637000  0.80443000  0.28780000  1.0
  H  H40  1  0.06725000  0.25981000  0.63587000  1.0
  H  H41  1  0.56726000  0.24019000  0.86413000  1.0
  H  H42  1  0.93274000  0.74019000  0.36413000  1.0
  H  H43  1  0.43275000  0.75981000  0.13587000  1.0
  H  H44  1  0.37971000  0.41072000  0.70011000  1.0
  H  H45  1  0.87972000  0.08928000  0.79989000  1.0
  H  H46  1  0.62028000  0.58928000  0.29989000  1.0
  H  H47  1  0.12029000  0.91072000  0.20011000  1.0
  H  H48  1  0.45830000  0.44594000  0.84989000  1.0
  H  H49  1  0.95830000  0.05406000  0.65011000  1.0
  H  H50  1  0.54170000  0.55406000  0.15011000  1.0
  H  H51  1  0.04171000  0.94595000  0.34989000  1.0
  H  H52  1  0.52036000  0.25569000  0.53905000  1.0
  H  H53  1  0.02036000  0.24431000  0.96095000  1.0
  H  H54  1  0.47964000  0.74431000  0.46095000  1.0
  H  H55  1  0.97964000  0.75569000  0.03905000  1.0
  H  H56  1  0.84173000  0.27812000  0.52650000  1.0
  H  H57  1  0.34173000  0.22188000  0.97350000  1.0
  H  H58  1  0.15827000  0.72188000  0.47350000  1.0
  H  H59  1  0.65827000  0.77813000  0.02650000  1.0
  H  H60  1  0.60268000  0.35891000  0.55541000  1.0
  H  H61  1  0.10268000  0.14109000  0.94459000  1.0
  H  H62  1  0.39732000  0.64109000  0.44459000  1.0
  H  H63  1  0.89732000  0.85892000  0.05541000  1.0
  C  C64  1  0.55506000  0.99542000  0.90254000  1.0
  C  C65  1  0.05505000  0.50457000  0.59746000  1.0
  C  C66  1  0.44494000  0.00458000  0.09746000  1.0
  C  C67  1  0.94494000  0.49542000  0.40253000  1.0
  C  C68  1  0.28664000  0.79326000  0.90660000  1.0
  C  C69  1  0.78664000  0.70674000  0.59340000  1.0
  C  C70  1  0.71336000  0.20675000  0.09341000  1.0
  C  C71  1  0.21337000  0.29326000  0.40659000  1.0
  C  C72  1  0.28043000  0.70755000  0.88605000  1.0
  C  C73  1  0.78042000  0.79245000  0.61395000  1.0
  C  C74  1  0.71957000  0.29245000  0.11395000  1.0
  C  C75  1  0.21957000  0.20755000  0.38605000  1.0
  C  C76  1  0.08175000  0.65585000  0.83598000  1.0
  C  C77  1  0.58176000  0.84415000  0.66402000  1.0
  C  C78  1  0.91825000  0.34415000  0.16402000  1.0
  C  C79  1  0.41825000  0.15585000  0.33598000  1.0
  C  C80  1  0.89748000  0.69484000  0.80905000  1.0
  C  C81  1  0.39747000  0.80516000  0.69096000  1.0
  C  C82  1  0.10252000  0.30516000  0.19095000  1.0
  C  C83  1  0.60252000  0.19484000  0.30904000  1.0
  C  C84  1  0.91686000  0.78113000  0.83288000  1.0
  C  C85  1  0.41686000  0.71887000  0.66713000  1.0
  C  C86  1  0.08314000  0.21888000  0.16713000  1.0
  C  C87  1  0.58314000  0.28112000  0.33287000  1.0
  C  C88  1  0.06444000  0.56394000  0.81399000  1.0
  C  C89  1  0.56444000  0.93606000  0.68601000  1.0
  C  C90  1  0.93556000  0.43606000  0.18601000  1.0
  C  C91  1  0.43556000  0.06394000  0.31399000  1.0
  C  C92  1  0.26095000  0.40851000  0.99093000  1.0
  C  C93  1  0.76095000  0.09150000  0.50907000  1.0
  C  C94  1  0.73905000  0.59150000  0.00907000  1.0
  C  C95  1  0.23904000  0.90850000  0.49093000  1.0
  C  C96  1  0.95958000  0.32634000  0.76589000  1.0
  C  C97  1  0.45958000  0.17366000  0.73411000  1.0
  C  C98  1  0.04042000  0.67366000  0.23411000  1.0
  C  C99  1  0.54042000  0.82634000  0.26589000  1.0
  C  C100  1  0.92842000  0.30216000  0.68114000  1.0
  C  C101  1  0.42842000  0.19784000  0.81886000  1.0
  C  C102  1  0.07158000  0.69784000  0.31886000  1.0
  C  C103  1  0.57159000  0.80216000  0.18114000  1.0
  C  C104  1  0.71644000  0.33129000  0.65459000  1.0
  C  C105  1  0.21645000  0.16871000  0.84541000  1.0
  C  C106  1  0.28356000  0.66871000  0.34541000  1.0
  C  C107  1  0.78356000  0.83129000  0.15459000  1.0
  C  C108  1  0.54605000  0.38505000  0.71694000  1.0
  C  C109  1  0.04606000  0.11495000  0.78306000  1.0
  C  C110  1  0.45394000  0.61495000  0.28306000  1.0
  C  C111  1  0.95395000  0.88505000  0.21694000  1.0
  C  C112  1  0.58953000  0.40521000  0.80021000  1.0
  C  C113  1  0.08953000  0.09479000  0.69979000  1.0
  C  C114  1  0.41047000  0.59479000  0.19979000  1.0
  C  C115  1  0.91047000  0.90521000  0.30021000  1.0
  C  C116  1  0.66935000  0.30505000  0.56408000  1.0
  C  C117  1  0.16936000  0.19495000  0.93592000  1.0
  C  C118  1  0.33064000  0.69495000  0.43592000  1.0
  C  C119  1  0.83064000  0.80505000  0.06408000  1.0
  N  N120  1  0.77915000  0.99779000  0.90150000  1.0
  N  N121  1  0.27915000  0.50221000  0.59850000  1.0
  N  N122  1  0.22085000  0.00221000  0.09850000  1.0
  N  N123  1  0.72085000  0.49779000  0.40150000  1.0
  N  N124  1  0.10814000  0.83022000  0.88089000  1.0
  N  N125  1  0.60813000  0.66978000  0.61911000  1.0
  N  N126  1  0.89186000  0.16978000  0.11911000  1.0
  N  N127  1  0.39186000  0.33022000  0.38089000  1.0
  N  N128  1  0.48386000  0.40422000  0.99574000  1.0
  N  N129  1  0.98383000  0.09579000  0.50426000  1.0
  N  N130  1  0.51618000  0.59579000  0.00426000  1.0
  N  N131  1  0.01617000  0.90421000  0.49574000  1.0
  N  N132  1  0.79307000  0.37659000  0.82508000  1.0
  N  N133  1  0.29307000  0.12341000  0.67492000  1.0
  N  N134  1  0.20693000  0.62341000  0.17492000  1.0
  N  N135  1  0.70693000  0.87659000  0.32508000  1.0
