# generated using pymatgen
data_Ag2H24C28S3(OF)4
_symmetry_space_group_name_H-M   'P 1'
_cell_length_a   10.90020000
_cell_length_b   11.89690000
_cell_length_c   12.96270000
_cell_angle_alpha   107.11500000
_cell_angle_beta   111.44100000
_cell_angle_gamma   94.73510000
_symmetry_Int_Tables_number   1
_chemical_formula_structural   Ag2H24C28S3(OF)4
_chemical_formula_sum   'Ag4 H48 C56 S6 O8 F8'
_cell_volume   1460.81002311
_cell_formula_units_Z   2
loop_
 _symmetry_equiv_pos_site_id
 _symmetry_equiv_pos_as_xyz
  1  'x, y, z'
loop_
 _atom_site_type_symbol
 _atom_site_label
 _atom_site_symmetry_multiplicity
 _atom_site_fract_x
 _atom_site_fract_y
 _atom_site_fract_z
 _atom_site_occupancy
  Ag  Ag0  1  0.87834000  0.47440000  0.20257000  1.0
  Ag  Ag1  1  0.12166000  0.52560000  0.79743000  1.0
  Ag  Ag2  1  0.86790000  0.36400000  0.87284000  1.0
  Ag  Ag3  1  0.13210000  0.63600000  0.12716000  1.0
  H  H4  1  0.91985000  0.58119000  0.49887000  1.0
  H  H5  1  0.08015000  0.41881000  0.50113000  1.0
  H  H6  1  0.06326000  0.63979000  0.48107000  1.0
  H  H7  1  0.93673000  0.36021000  0.51893000  1.0
  H  H8  1  0.07300000  0.88333000  0.50738000  1.0
  H  H9  1  0.92700000  0.11667000  0.49262000  1.0
  H  H10  1  0.06758000  0.07690000  0.64251000  1.0
  H  H11  1  0.93242000  0.92311000  0.35748000  1.0
  H  H12  1  0.90850000  0.88802000  0.81851000  1.0
  H  H13  1  0.09150000  0.11198000  0.18149000  1.0
  H  H14  1  0.91151000  0.69342000  0.68110000  1.0
  H  H15  1  0.08849000  0.30658000  0.31891000  1.0
  H  H16  1  0.05774000  0.17934000  0.85813000  1.0
  H  H17  1  0.94226000  0.82066000  0.14187000  1.0
  H  H18  1  0.92163000  0.10223000  0.87016000  1.0
  H  H19  1  0.07837000  0.89776000  0.12984000  1.0
  H  H20  1  0.65403000  0.08889000  0.71669000  1.0
  H  H21  1  0.34598000  0.91111000  0.28331000  1.0
  H  H22  1  0.62389000  0.15918000  0.60898000  1.0
  H  H23  1  0.37611000  0.84082000  0.39102000  1.0
  H  H24  1  0.63217000  0.87583000  0.65642000  1.0
  H  H25  1  0.36783000  0.12417000  0.34358000  1.0
  H  H26  1  0.63635000  0.68267000  0.52015000  1.0
  H  H27  1  0.36365000  0.31733000  0.47985000  1.0
  H  H28  1  0.69273000  0.86347000  0.29259000  1.0
  H  H29  1  0.30727000  0.13653000  0.70741000  1.0
  H  H30  1  0.68660000  0.05558000  0.42730000  1.0
  H  H31  1  0.31340000  0.94442000  0.57270000  1.0
  H  H32  1  0.66844000  0.56854000  0.34877000  1.0
  H  H33  1  0.33156000  0.43146000  0.65123000  1.0
  H  H34  1  0.63798000  0.62516000  0.23063000  1.0
  H  H35  1  0.36202000  0.37484000  0.76937000  1.0
  H  H36  1  0.62249000  0.30326000  0.22471000  1.0
  H  H37  1  0.37751000  0.69674000  0.77529000  1.0
  H  H38  1  0.77342000  0.26379000  0.30404000  1.0
  H  H39  1  0.22658000  0.73621000  0.69596000  1.0
  H  H40  1  0.43518000  0.16626000  0.20063000  1.0
  H  H41  1  0.56482000  0.83375000  0.79937000  1.0
  H  H42  1  0.29701000  0.95913000  0.11282000  1.0
  H  H43  1  0.70299000  0.04087000  0.88718000  1.0
  H  H44  1  0.63196000  0.81988000  0.06476000  1.0
  H  H45  1  0.36804000  0.18012000  0.93525000  1.0
  H  H46  1  0.76760000  0.02809000  0.14709000  1.0
  H  H47  1  0.23240000  0.97191000  0.85291000  1.0
  H  H48  1  0.68669000  0.27686000  0.93637000  1.0
  H  H49  1  0.31331000  0.72314000  0.06363000  1.0
  H  H50  1  0.57217000  0.31625000  0.00310000  1.0
  H  H51  1  0.42783000  0.68375000  0.99690000  1.0
  C  C52  1  0.96790000  0.65809000  0.48645000  1.0
  C  C53  1  0.03210000  0.34191000  0.51355000  1.0
  C  C54  1  0.98732000  0.77489000  0.58219000  1.0
  C  C55  1  0.01268000  0.22511000  0.41781000  1.0
  C  C56  1  0.03679000  0.88407000  0.57560000  1.0
  C  C57  1  0.96321000  0.11593000  0.42440000  1.0
  C  C58  1  0.03302000  0.99275000  0.65099000  1.0
  C  C59  1  0.96698000  0.00725000  0.34901000  1.0
  C  C60  1  0.98085000  0.99530000  0.73562000  1.0
  C  C61  1  0.01915000  0.00471000  0.26438000  1.0
  C  C62  1  0.94471000  0.88744000  0.75024000  1.0
  C  C63  1  0.05529000  0.11257000  0.24976000  1.0
  C  C64  1  0.94733000  0.77775000  0.67356000  1.0
  C  C65  1  0.05267000  0.22226000  0.32644000  1.0
  C  C66  1  0.96232000  0.11198000  0.80674000  1.0
  C  C67  1  0.03768000  0.88802000  0.19326000  1.0
  C  C68  1  0.68328000  0.09982000  0.64722000  1.0
  C  C69  1  0.31672000  0.90018000  0.35278000  1.0
  C  C70  1  0.66583000  0.98085000  0.55524000  1.0
  C  C71  1  0.33417000  0.01915000  0.44476000  1.0
  C  C72  1  0.64477000  0.87351000  0.57622000  1.0
  C  C73  1  0.35523000  0.12649000  0.42378000  1.0
  C  C74  1  0.64683000  0.76421000  0.49894000  1.0
  C  C75  1  0.35317000  0.23579000  0.50106000  1.0
  C  C76  1  0.67083000  0.75972000  0.39909000  1.0
  C  C77  1  0.32917000  0.24027000  0.60091000  1.0
  C  C78  1  0.67979000  0.86554000  0.37253000  1.0
  C  C79  1  0.32021000  0.13446000  0.62748000  1.0
  C  C80  1  0.67673000  0.97432000  0.44907000  1.0
  C  C81  1  0.32327000  0.02568000  0.55093000  1.0
  C  C82  1  0.69427000  0.64649000  0.32610000  1.0
  C  C83  1  0.30573000  0.35351000  0.67390000  1.0
  C  C84  1  0.68717000  0.23830000  0.21776000  1.0
  C  C85  1  0.31283000  0.76170000  0.78224000  1.0
  C  C86  1  0.61078000  0.11150000  0.17956000  1.0
  C  C87  1  0.38923000  0.88850000  0.82044000  1.0
  C  C88  1  0.47969000  0.09022000  0.17359000  1.0
  C  C89  1  0.52031000  0.90978000  0.82641000  1.0
  C  C90  1  0.40247000  0.97340000  0.12513000  1.0
  C  C91  1  0.59753000  0.02660000  0.87486000  1.0
  C  C92  1  0.45508000  0.87519000  0.08249000  1.0
  C  C93  1  0.54492000  0.12482000  0.91751000  1.0
  C  C94  1  0.58918000  0.89602000  0.09566000  1.0
  C  C95  1  0.41082000  0.10398000  0.90434000  1.0
  C  C96  1  0.66592000  0.01281000  0.14339000  1.0
  C  C97  1  0.33408000  0.98719000  0.85661000  1.0
  C  C98  1  0.63164000  0.24914000  0.98436000  1.0
  C  C99  1  0.36836000  0.75086000  0.01564000  1.0
  C  C100  1  0.10140000  0.36931000  0.13864000  1.0
  C  C101  1  0.89860000  0.63069000  0.86136000  1.0
  C  C102  1  0.24298000  0.33898000  0.15733000  1.0
  C  C103  1  0.75702000  0.66102000  0.84267000  1.0
  C  C104  1  0.33385000  0.42538000  0.13216000  1.0
  C  C105  1  0.66615000  0.57462000  0.86784000  1.0
  C  C106  1  0.26499000  0.43134000  0.00574000  1.0
  C  C107  1  0.73501000  0.56866000  0.99426000  1.0
  S  S108  1  0.86900000  0.66018000  0.33821000  1.0
  S  S109  1  0.13100000  0.33982000  0.66179000  1.0
  S  S110  1  0.85747000  0.19042000  0.71624000  1.0
  S  S111  1  0.14253000  0.80958000  0.28376000  1.0
  S  S112  1  0.77026000  0.25923000  0.12280000  1.0
  S  S113  1  0.22974000  0.74077000  0.87721000  1.0
  O  O114  1  0.10363000  0.46059000  0.22097000  1.0
  O  O115  1  0.89637000  0.53940000  0.77904000  1.0
  O  O116  1  0.00476000  0.30285000  0.04546000  1.0
  O  O117  1  0.99524000  0.69715000  0.95454000  1.0
  O  O118  1  0.29920000  0.37244000  0.92852000  1.0
  O  O119  1  0.70080000  0.62756000  0.07148000  1.0
  O  O120  1  0.17523000  0.49590000  0.99364000  1.0
  O  O121  1  0.82477000  0.50409000  0.00636000  1.0
  F  F122  1  0.22973000  0.22387000  0.08303000  1.0
  F  F123  1  0.77027000  0.77613000  0.91697000  1.0
  F  F124  1  0.31144000  0.34110000  0.27161000  1.0
  F  F125  1  0.68856000  0.65890000  0.72839000  1.0
  F  F126  1  0.36863000  0.53848000  0.21769000  1.0
  F  F127  1  0.63137000  0.46152000  0.78231000  1.0
  F  F128  1  0.45317000  0.38701000  0.14652000  1.0
  F  F129  1  0.54683000  0.61299000  0.85348000  1.0
