# generated using pymatgen
data_NiP2H28C18S4(NO2)2
_symmetry_space_group_name_H-M   'P 1'
_cell_length_a   11.18930000
_cell_length_b   11.18930000
_cell_length_c   12.83020000
_cell_angle_alpha   70.53830000
_cell_angle_beta   70.53820000
_cell_angle_gamma   63.55510000
_symmetry_Int_Tables_number   1
_chemical_formula_structural   NiP2H28C18S4(NO2)2
_chemical_formula_sum   'Ni2 P4 H56 C36 S8 N4 O8'
_cell_volume   1323.19652839
_cell_formula_units_Z   2
loop_
 _symmetry_equiv_pos_site_id
 _symmetry_equiv_pos_as_xyz
  1  'x, y, z'
loop_
 _atom_site_type_symbol
 _atom_site_label
 _atom_site_symmetry_multiplicity
 _atom_site_fract_x
 _atom_site_fract_y
 _atom_site_fract_z
 _atom_site_occupancy
  Ni  Ni0  1  0.50000000  0.00000000  0.00000000  1.0
  Ni  Ni1  1  0.00000000  0.50000000  0.50000000  1.0
  P  P2  1  0.31249000  0.21518000  0.11981000  1.0
  P  P3  1  0.78482000  0.68751000  0.38019000  1.0
  P  P4  1  0.68751000  0.78482000  0.88019000  1.0
  P  P5  1  0.21518000  0.31249000  0.61981000  1.0
  H  H6  1  0.69439000  0.86279000  0.15066000  1.0
  H  H7  1  0.13721000  0.30562000  0.34934000  1.0
  H  H8  1  0.30562000  0.13721000  0.84934000  1.0
  H  H9  1  0.86279000  0.69439000  0.65066000  1.0
  H  H10  1  0.91592000  0.84988000  0.15719000  1.0
  H  H11  1  0.15012000  0.08408000  0.34281000  1.0
  H  H12  1  0.08408000  0.15012000  0.84281000  1.0
  H  H13  1  0.84988000  0.91592000  0.65720000  1.0
  H  H14  1  0.90403000  0.15786000  0.84302000  1.0
  H  H15  1  0.84214000  0.09597000  0.65698000  1.0
  H  H16  1  0.09597000  0.84214000  0.15698000  1.0
  H  H17  1  0.15786000  0.90403000  0.34302000  1.0
  H  H18  1  0.68155000  0.15463000  0.85039000  1.0
  H  H19  1  0.84537000  0.31846000  0.64961000  1.0
  H  H20  1  0.31846000  0.84537000  0.14961000  1.0
  H  H21  1  0.15462000  0.68155000  0.35039000  1.0
  H  H22  1  0.43573000  0.32503000  0.24708000  1.0
  H  H23  1  0.67497000  0.56427000  0.25292000  1.0
  H  H24  1  0.56427000  0.67497000  0.75292000  1.0
  H  H25  1  0.32503000  0.43574000  0.74708000  1.0
  H  H26  1  0.48940000  0.32486000  0.09895000  1.0
  H  H27  1  0.67514000  0.51060000  0.40105000  1.0
  H  H28  1  0.51060000  0.67514000  0.90105000  1.0
  H  H29  1  0.32486000  0.48940000  0.59895000  1.0
  H  H30  1  0.26862000  0.56791000  0.20221000  1.0
  H  H31  1  0.43209000  0.73138000  0.29779000  1.0
  H  H32  1  0.73138000  0.43209000  0.79779000  1.0
  H  H33  1  0.56791000  0.26862000  0.70221000  1.0
  H  H34  1  0.43954000  0.55548000  0.13099000  1.0
  H  H35  1  0.44452000  0.56046000  0.36901000  1.0
  H  H36  1  0.56046000  0.44452000  0.86901000  1.0
  H  H37  1  0.55548000  0.43954000  0.63099000  1.0
  H  H38  1  0.32562000  0.56743000  0.05519000  1.0
  H  H39  1  0.43257000  0.67438000  0.44481000  1.0
  H  H40  1  0.67438000  0.43257000  0.94481000  1.0
  H  H41  1  0.56743000  0.32562000  0.55519000  1.0
  H  H42  1  0.04730000  0.43903000  0.11815000  1.0
  H  H43  1  0.56097000  0.95270000  0.38185000  1.0
  H  H44  1  0.95270000  0.56097000  0.88185000  1.0
  H  H45  1  0.43903000  0.04730000  0.61815000  1.0
  H  H46  1  0.08987000  0.36281000  0.00094000  1.0
  H  H47  1  0.63719000  0.91013000  0.49906000  1.0
  H  H48  1  0.91013000  0.63719000  0.99906000  1.0
  H  H49  1  0.36281000  0.08987000  0.50094000  1.0
  H  H50  1  0.88853000  0.31595000  0.22872000  1.0
  H  H51  1  0.68406000  0.11147000  0.27128000  1.0
  H  H52  1  0.11147000  0.68406000  0.77128000  1.0
  H  H53  1  0.31594000  0.88853000  0.72872000  1.0
  H  H54  1  0.92903000  0.24003000  0.11270000  1.0
  H  H55  1  0.75997000  0.07097000  0.38730000  1.0
  H  H56  1  0.07097000  0.75997000  0.88730000  1.0
  H  H57  1  0.24003000  0.92903000  0.61270000  1.0
  H  H58  1  0.84110000  0.42053000  0.09852000  1.0
  H  H59  1  0.57947000  0.15890000  0.40148000  1.0
  H  H60  1  0.15890000  0.57947000  0.90148000  1.0
  H  H61  1  0.42053000  0.84110000  0.59852000  1.0
  C  C62  1  0.74430000  0.92633000  0.08382000  1.0
  C  C63  1  0.07366000  0.25571000  0.41618000  1.0
  C  C64  1  0.25571000  0.07366000  0.91618000  1.0
  C  C65  1  0.92633000  0.74430000  0.58382000  1.0
  C  C66  1  0.86981000  0.92014000  0.08646000  1.0
  C  C67  1  0.07986000  0.13019000  0.41354000  1.0
  C  C68  1  0.13019000  0.07986000  0.91354000  1.0
  C  C69  1  0.92013000  0.86981000  0.58647000  1.0
  C  C70  1  0.93309000  0.00255000  0.99978000  1.0
  C  C71  1  0.99744000  0.06691000  0.50022000  1.0
  C  C72  1  0.06692000  0.99744000  0.00022000  1.0
  C  C73  1  0.00255000  0.93309000  0.49978000  1.0
  C  C74  1  0.86270000  0.08969000  0.91334000  1.0
  C  C75  1  0.91031000  0.13731000  0.58666000  1.0
  C  C76  1  0.13731000  0.91031000  0.08666000  1.0
  C  C77  1  0.08969000  0.86269000  0.41334000  1.0
  C  C78  1  0.73779000  0.08903000  0.91659000  1.0
  C  C79  1  0.91096000  0.26222000  0.58341000  1.0
  C  C80  1  0.26222000  0.91096000  0.08341000  1.0
  C  C81  1  0.08903000  0.73779000  0.41659000  1.0
  C  C82  1  0.40431000  0.37025000  0.16559000  1.0
  C  C83  1  0.62975000  0.59569000  0.33441000  1.0
  C  C84  1  0.59569000  0.62975000  0.83441000  1.0
  C  C85  1  0.37025000  0.40431000  0.66559000  1.0
  C  C86  1  0.35675000  0.52440000  0.13680000  1.0
  C  C87  1  0.47560000  0.64325000  0.36320000  1.0
  C  C88  1  0.64325000  0.47560000  0.86320000  1.0
  C  C89  1  0.52440000  0.35676000  0.63680000  1.0
  C  C90  1  0.05484000  0.35031000  0.09352000  1.0
  C  C91  1  0.64969000  0.94516000  0.40648000  1.0
  C  C92  1  0.94517000  0.64969000  0.90648000  1.0
  C  C93  1  0.35031000  0.05484000  0.59352000  1.0
  C  C94  1  0.92052000  0.32981000  0.13613000  1.0
  C  C95  1  0.67019000  0.07948000  0.36387000  1.0
  C  C96  1  0.07948000  0.67019000  0.86387000  1.0
  C  C97  1  0.32981000  0.92052000  0.63613000  1.0
  S  S98  1  0.41319000  0.02785000  0.19979000  1.0
  S  S99  1  0.97215000  0.58681000  0.30021000  1.0
  S  S100  1  0.58681000  0.97215000  0.80021000  1.0
  S  S101  1  0.02785000  0.41319000  0.69979000  1.0
  S  S102  1  0.39726000  0.25378000  0.95519000  1.0
  S  S103  1  0.74621000  0.60274000  0.54481000  1.0
  S  S104  1  0.60274000  0.74621000  0.04481000  1.0
  S  S105  1  0.25378000  0.39726000  0.45519000  1.0
  N  N106  1  0.67870000  0.00854000  0.99995000  1.0
  N  N107  1  0.99146000  0.32130000  0.50005000  1.0
  N  N108  1  0.32130000  0.99146000  0.00005000  1.0
  N  N109  1  0.00854000  0.67870000  0.49995000  1.0
  O  O110  1  0.28975000  0.33404000  0.17716000  1.0
  O  O111  1  0.66596000  0.71025000  0.32284000  1.0
  O  O112  1  0.71025000  0.66596000  0.82284000  1.0
  O  O113  1  0.33404000  0.28975000  0.67716000  1.0
  O  O114  1  0.15718000  0.22834000  0.14521000  1.0
  O  O115  1  0.77166000  0.84282000  0.35479000  1.0
  O  O116  1  0.84282000  0.77166000  0.85479000  1.0
  O  O117  1  0.22834000  0.15719000  0.64521000  1.0
