# generated using pymatgen
data_LiH19C12N2O
_symmetry_space_group_name_H-M   'P 1'
_cell_length_a   7.39657000
_cell_length_b   9.75080000
_cell_length_c   16.46510000
_cell_angle_alpha   98.49290000
_cell_angle_beta   90.00000000
_cell_angle_gamma   89.99930000
_symmetry_Int_Tables_number   1
_chemical_formula_structural   LiH19C12N2O
_chemical_formula_sum   'Li4 H76 C48 N8 O4'
_cell_volume   1174.48179713
_cell_formula_units_Z   4
loop_
 _symmetry_equiv_pos_site_id
 _symmetry_equiv_pos_as_xyz
  1  'x, y, z'
loop_
 _atom_site_type_symbol
 _atom_site_label
 _atom_site_symmetry_multiplicity
 _atom_site_fract_x
 _atom_site_fract_y
 _atom_site_fract_z
 _atom_site_occupancy
  Li  Li0  1  0.29417000  0.26728000  0.67070000  1.0
  Li  Li1  1  0.79417000  0.23272000  0.82929000  1.0
  Li  Li2  1  0.70583000  0.73272000  0.32930000  1.0
  Li  Li3  1  0.20582000  0.76728000  0.17070000  1.0
  H  H4  1  0.96993000  0.39475000  0.91587000  1.0
  H  H5  1  0.46992000  0.10525000  0.58413000  1.0
  H  H6  1  0.03008000  0.60525000  0.08414000  1.0
  H  H7  1  0.53007000  0.89475000  0.41587000  1.0
  H  H8  1  0.85415000  0.62876000  0.95777000  1.0
  H  H9  1  0.35415000  0.87124000  0.54223000  1.0
  H  H10  1  0.14585000  0.37124000  0.04224000  1.0
  H  H11  1  0.64584000  0.12875000  0.45777000  1.0
  H  H12  1  0.88326000  0.81170000  0.86662000  1.0
  H  H13  1  0.38326000  0.68830000  0.63338000  1.0
  H  H14  1  0.11674000  0.18830000  0.13339000  1.0
  H  H15  1  0.61675000  0.31169000  0.36662000  1.0
  H  H16  1  0.04846000  0.75251000  0.73291000  1.0
  H  H17  1  0.54846000  0.74749000  0.76709000  1.0
  H  H18  1  0.95154000  0.24748000  0.26709000  1.0
  H  H19  1  0.45153000  0.25251000  0.23291000  1.0
  H  H20  1  0.15885000  0.51723000  0.68764000  1.0
  H  H21  1  0.65885000  0.98278000  0.81236000  1.0
  H  H22  1  0.84115000  0.48278000  0.31237000  1.0
  H  H23  1  0.34113000  0.01723000  0.18764000  1.0
  H  H24  1  0.19435000  0.03454000  0.72587000  1.0
  H  H25  1  0.69434000  0.46545000  0.77413000  1.0
  H  H26  1  0.80566000  0.96545000  0.27413000  1.0
  H  H27  1  0.30565000  0.53455000  0.22587000  1.0
  H  H28  1  0.01940000  0.98106000  0.78882000  1.0
  H  H29  1  0.51940000  0.51894000  0.71118000  1.0
  H  H30  1  0.98060000  0.01894000  0.21119000  1.0
  H  H31  1  0.48060000  0.48106000  0.28881000  1.0
  H  H32  1  0.96203000  0.07321000  0.70661000  1.0
  H  H33  1  0.46203000  0.42680000  0.79339000  1.0
  H  H34  1  0.03797000  0.92679000  0.29339000  1.0
  H  H35  1  0.53798000  0.57321000  0.20661000  1.0
  H  H36  1  0.34017000  0.15764000  0.84788000  1.0
  H  H37  1  0.84016000  0.34235000  0.65212000  1.0
  H  H38  1  0.65984000  0.84235000  0.15212000  1.0
  H  H39  1  0.15984000  0.65765000  0.34788000  1.0
  H  H40  1  0.21550000  0.28384000  0.91552000  1.0
  H  H41  1  0.71549000  0.21615000  0.58448000  1.0
  H  H42  1  0.78451000  0.71615000  0.08448000  1.0
  H  H43  1  0.28451000  0.78385000  0.41552000  1.0
  H  H44  1  0.16400000  0.10453000  0.91168000  1.0
  H  H45  1  0.66400000  0.39547000  0.58832000  1.0
  H  H46  1  0.83600000  0.89546000  0.08832000  1.0
  H  H47  1  0.33601000  0.60453000  0.41168000  1.0
  H  H48  1  0.41028000  0.33400000  0.48635000  1.0
  H  H49  1  0.91028000  0.16599000  0.01365000  1.0
  H  H50  1  0.58972000  0.66600000  0.51365000  1.0
  H  H51  1  0.08972000  0.83401000  0.98635000  1.0
  H  H52  1  0.28181000  0.47534000  0.54007000  1.0
  H  H53  1  0.78181000  0.02466000  0.95993000  1.0
  H  H54  1  0.71819000  0.52466000  0.45993000  1.0
  H  H55  1  0.21818000  0.97535000  0.04007000  1.0
  H  H56  1  0.20752000  0.37506000  0.37705000  1.0
  H  H57  1  0.70752000  0.12493000  0.12294000  1.0
  H  H58  1  0.79248000  0.62493000  0.62294000  1.0
  H  H59  1  0.29249000  0.87507000  0.87706000  1.0
  H  H60  1  0.02837000  0.42414000  0.44681000  1.0
  H  H61  1  0.52837000  0.07586000  0.05318000  1.0
  H  H62  1  0.97163000  0.57586000  0.55318000  1.0
  H  H63  1  0.47163000  0.92414000  0.94682000  1.0
  H  H64  1  0.16707000  0.13564000  0.38155000  1.0
  H  H65  1  0.66708000  0.36436000  0.11845000  1.0
  H  H66  1  0.83292000  0.86435000  0.61845000  1.0
  H  H67  1  0.33293000  0.63564000  0.88155000  1.0
  H  H68  1  0.94211000  0.18691000  0.40837000  1.0
  H  H69  1  0.44212000  0.31309000  0.09163000  1.0
  H  H70  1  0.05788000  0.81309000  0.59163000  1.0
  H  H71  1  0.55789000  0.68691000  0.90837000  1.0
  H  H72  1  0.99273000  0.14100000  0.54585000  1.0
  H  H73  1  0.49273000  0.35901000  0.95415000  1.0
  H  H74  1  0.00727000  0.85901000  0.45415000  1.0
  H  H75  1  0.50727000  0.64100000  0.04585000  1.0
  H  H76  1  0.20772000  0.07251000  0.51066000  1.0
  H  H77  1  0.70773000  0.42749000  0.98934000  1.0
  H  H78  1  0.79227000  0.92749000  0.48934000  1.0
  H  H79  1  0.29228000  0.57251000  0.01066000  1.0
  C  C80  1  0.06870000  0.43120000  0.79533000  1.0
  C  C81  1  0.56870000  0.06881000  0.70466000  1.0
  C  C82  1  0.93130000  0.56881000  0.20467000  1.0
  C  C83  1  0.43130000  0.93120000  0.29533000  1.0
  C  C84  1  0.98460000  0.47048000  0.87383000  1.0
  C  C85  1  0.48458000  0.02951000  0.62617000  1.0
  C  C86  1  0.01542000  0.52952000  0.12618000  1.0
  C  C87  1  0.51541000  0.97047000  0.37383000  1.0
  C  C88  1  0.91964000  0.60484000  0.89790000  1.0
  C  C89  1  0.41965000  0.89518000  0.60210000  1.0
  C  C90  1  0.08036000  0.39518000  0.10211000  1.0
  C  C91  1  0.58036000  0.10483000  0.39789000  1.0
  C  C92  1  0.93738000  0.70790000  0.84799000  1.0
  C  C93  1  0.43738000  0.79211000  0.65200000  1.0
  C  C94  1  0.06263000  0.29210000  0.15201000  1.0
  C  C95  1  0.56262000  0.20789000  0.34799000  1.0
  C  C96  1  0.02849000  0.67384000  0.77270000  1.0
  C  C97  1  0.52848000  0.82618000  0.72730000  1.0
  C  C98  1  0.97152000  0.32618000  0.22730000  1.0
  C  C99  1  0.47150000  0.17384000  0.27270000  1.0
  C  C100  1  0.09324000  0.54131000  0.74748000  1.0
  C  C101  1  0.59324000  0.95868000  0.75251000  1.0
  C  C102  1  0.90677000  0.45868000  0.25251000  1.0
  C  C103  1  0.40675000  0.04131000  0.24749000  1.0
  C  C104  1  0.06224000  0.06395000  0.75455000  1.0
  C  C105  1  0.56223000  0.43605000  0.74544000  1.0
  C  C106  1  0.93777000  0.93605000  0.24545000  1.0
  C  C107  1  0.43777000  0.56395000  0.25455000  1.0
  C  C108  1  0.20574000  0.18433000  0.87485000  1.0
  C  C109  1  0.70574000  0.31567000  0.62515000  1.0
  C  C110  1  0.79426000  0.81567000  0.12515000  1.0
  C  C111  1  0.29426000  0.68433000  0.37485000  1.0
  C  C112  1  0.27377000  0.36965000  0.50606000  1.0
  C  C113  1  0.77377000  0.13035000  0.99394000  1.0
  C  C114  1  0.72623000  0.63035000  0.49394000  1.0
  C  C115  1  0.22623000  0.86966000  0.00606000  1.0
  C  C116  1  0.14361000  0.35336000  0.43383000  1.0
  C  C117  1  0.64361000  0.14664000  0.06617000  1.0
  C  C118  1  0.85639000  0.64664000  0.56617000  1.0
  C  C119  1  0.35639000  0.85336000  0.93383000  1.0
  C  C120  1  0.08396000  0.20081000  0.42713000  1.0
  C  C121  1  0.58397000  0.29919000  0.07287000  1.0
  C  C122  1  0.91603000  0.79918000  0.57287000  1.0
  C  C123  1  0.41604000  0.70081000  0.92713000  1.0
  C  C124  1  0.11659000  0.16227000  0.51311000  1.0
  C  C125  1  0.61659000  0.33773000  0.98689000  1.0
  C  C126  1  0.88341000  0.83773000  0.48689000  1.0
  C  C127  1  0.38342000  0.66227000  0.01312000  1.0
  N  N128  1  0.12318000  0.30211000  0.76253000  1.0
  N  N129  1  0.62317000  0.19789000  0.73747000  1.0
  N  N130  1  0.87683000  0.69789000  0.23747000  1.0
  N  N131  1  0.37682000  0.80211000  0.26253000  1.0
  N  N132  1  0.06978000  0.19554000  0.81092000  1.0
  N  N133  1  0.56978000  0.30445000  0.68908000  1.0
  N  N134  1  0.93022000  0.80445000  0.18908000  1.0
  N  N135  1  0.43022000  0.69554000  0.31092000  1.0
  O  O136  1  0.20112000  0.28197000  0.56182000  1.0
  O  O137  1  0.70113000  0.21803000  0.93818000  1.0
  O  O138  1  0.79887000  0.71803000  0.43818000  1.0
  O  O139  1  0.29887000  0.78198000  0.06182000  1.0
