# generated using pymatgen
data_CaH6C4N8O9
_symmetry_space_group_name_H-M   'P 1'
_cell_length_a   6.41930000
_cell_length_b   8.10730000
_cell_length_c   11.11810000
_cell_angle_alpha   77.14500000
_cell_angle_beta   89.99990000
_cell_angle_gamma   89.99990000
_symmetry_Int_Tables_number   1
_chemical_formula_structural   CaH6C4N8O9
_chemical_formula_sum   'Ca2 H12 C8 N16 O18'
_cell_volume   564.11896911
_cell_formula_units_Z   2
loop_
 _symmetry_equiv_pos_site_id
 _symmetry_equiv_pos_as_xyz
  1  'x, y, z'
loop_
 _atom_site_type_symbol
 _atom_site_label
 _atom_site_symmetry_multiplicity
 _atom_site_fract_x
 _atom_site_fract_y
 _atom_site_fract_z
 _atom_site_occupancy
  Ca  Ca0  1  0.86211000  0.75000000  0.25000000  1.0
  Ca  Ca1  1  0.13788000  0.25000000  0.75000000  1.0
  H  H2  1  0.40965000  0.65344000  0.27248000  1.0
  H  H3  1  0.40965000  0.84655000  0.22752000  1.0
  H  H4  1  0.59035000  0.34655000  0.72752000  1.0
  H  H5  1  0.59035000  0.15344000  0.77248000  1.0
  H  H6  1  0.17356000  0.01626000  0.27359000  1.0
  H  H7  1  0.17356000  0.48374000  0.22641000  1.0
  H  H8  1  0.82644000  0.98374000  0.72641000  1.0
  H  H9  1  0.82644000  0.51626000  0.77359000  1.0
  H  H10  1  0.15316000  0.03790000  0.12853000  1.0
  H  H11  1  0.15316000  0.46210000  0.37147000  1.0
  H  H12  1  0.84684000  0.96210000  0.87147000  1.0
  H  H13  1  0.84684000  0.53790000  0.62853000  1.0
  C  C14  1  0.73728000  0.10667000  0.41898000  1.0
  C  C15  1  0.73727000  0.39334000  0.08102000  1.0
  C  C16  1  0.26273000  0.89333000  0.58102000  1.0
  C  C17  1  0.26273000  0.60667000  0.91898000  1.0
  C  C18  1  0.71611000  0.24897000  0.31512000  1.0
  C  C19  1  0.71611000  0.25103000  0.18488000  1.0
  C  C20  1  0.28389000  0.75103000  0.68488000  1.0
  C  C21  1  0.28389000  0.74896000  0.81513000  1.0
  N  N22  1  0.68280000  0.38689000  0.35622000  1.0
  N  N23  1  0.68281000  0.11311000  0.14377000  1.0
  N  N24  1  0.31720000  0.61311000  0.64378000  1.0
  N  N25  1  0.31719000  0.88689000  0.85623000  1.0
  N  N26  1  0.71332000  0.16247000  0.52176000  1.0
  N  N27  1  0.71332000  0.33753000  0.97824000  1.0
  N  N28  1  0.28668000  0.83753000  0.47824000  1.0
  N  N29  1  0.28668000  0.66247000  0.02176000  1.0
  N  N30  1  0.78418000  0.94734000  0.40455000  1.0
  N  N31  1  0.78418000  0.55266000  0.09544000  1.0
  N  N32  1  0.21582000  0.05266000  0.59545000  1.0
  N  N33  1  0.21582000  0.44734000  0.90456000  1.0
  N  N34  1  0.79580000  0.82404000  0.50388000  1.0
  N  N35  1  0.79580000  0.67597000  0.99612000  1.0
  N  N36  1  0.20420000  0.17596000  0.49612000  1.0
  N  N37  1  0.20420000  0.32403000  0.00388000  1.0
  O  O38  1  0.67840000  0.33537000  0.48262000  1.0
  O  O39  1  0.67840000  0.16463000  0.01738000  1.0
  O  O40  1  0.32160000  0.66463000  0.51738000  1.0
  O  O41  1  0.32160000  0.83537000  0.98262000  1.0
  O  O42  1  0.76268000  0.83686000  0.61259000  1.0
  O  O43  1  0.76267000  0.66314000  0.88741000  1.0
  O  O44  1  0.23733000  0.16314000  0.38741000  1.0
  O  O45  1  0.23733000  0.33686000  0.11259000  1.0
  O  O46  1  0.84610000  0.67944000  0.48160000  1.0
  O  O47  1  0.84610000  0.82057000  0.01840000  1.0
  O  O48  1  0.15390000  0.32056000  0.51840000  1.0
  O  O49  1  0.15390000  0.17944000  0.98160000  1.0
  O  O50  1  0.50580000  0.75000000  0.25000000  1.0
  O  O51  1  0.49420000  0.25000000  0.75000000  1.0
  O  O52  1  0.14799000  0.95383000  0.20875000  1.0
  O  O53  1  0.14799000  0.54617000  0.29125000  1.0
  O  O54  1  0.85201000  0.04617000  0.79125000  1.0
  O  O55  1  0.85201000  0.45383000  0.70875000  1.0
