# generated using pymatgen
data_MgH18(C4O)2
_symmetry_space_group_name_H-M   'P 1'
_cell_length_a   5.53593000
_cell_length_b   12.46720000
_cell_length_c   13.79890000
_cell_angle_alpha   89.99730000
_cell_angle_beta   90.00220000
_cell_angle_gamma   90.00000000
_symmetry_Int_Tables_number   1
_chemical_formula_structural   MgH18(C4O)2
_chemical_formula_sum   'Mg4 H72 C32 O8'
_cell_volume   952.36622058
_cell_formula_units_Z   4
loop_
 _symmetry_equiv_pos_site_id
 _symmetry_equiv_pos_as_xyz
  1  'x, y, z'
loop_
 _atom_site_type_symbol
 _atom_site_label
 _atom_site_symmetry_multiplicity
 _atom_site_fract_x
 _atom_site_fract_y
 _atom_site_fract_z
 _atom_site_occupancy
  Mg  Mg0  1  0.58630000  0.15770000  0.75001000  1.0
  Mg  Mg1  1  0.91368000  0.65770000  0.75001000  1.0
  Mg  Mg2  1  0.08631000  0.34229000  0.25000000  1.0
  Mg  Mg3  1  0.41369000  0.84230000  0.24999000  1.0
  H  H4  1  0.39806000  0.25627000  0.59009000  1.0
  H  H5  1  0.10193000  0.75626000  0.59008000  1.0
  H  H6  1  0.39810000  0.25626000  0.90993000  1.0
  H  H7  1  0.89808000  0.24374000  0.09007000  1.0
  H  H8  1  0.60194000  0.74373000  0.40991000  1.0
  H  H9  1  0.89809000  0.24373000  0.40993000  1.0
  H  H10  1  0.60191000  0.74375000  0.09006000  1.0
  H  H11  1  0.10191000  0.75625000  0.90993000  1.0
  H  H12  1  0.58184000  0.15260000  0.54858000  1.0
  H  H13  1  0.91815000  0.65258000  0.54857000  1.0
  H  H14  1  0.58186000  0.15258000  0.95145000  1.0
  H  H15  1  0.08184000  0.34743000  0.04856000  1.0
  H  H16  1  0.41816000  0.84740000  0.45141000  1.0
  H  H17  1  0.08186000  0.34742000  0.45144000  1.0
  H  H18  1  0.41814000  0.84744000  0.04855000  1.0
  H  H19  1  0.91815000  0.65257000  0.95144000  1.0
  H  H20  1  0.26541000  0.01617000  0.58273000  1.0
  H  H21  1  0.23455000  0.51616000  0.58275000  1.0
  H  H22  1  0.26544000  0.01616000  0.91726000  1.0
  H  H23  1  0.76543000  0.48385000  0.08274000  1.0
  H  H24  1  0.73457000  0.98383000  0.41726000  1.0
  H  H25  1  0.76545000  0.48384000  0.41726000  1.0
  H  H26  1  0.73457000  0.98386000  0.08273000  1.0
  H  H27  1  0.23457000  0.51615000  0.91727000  1.0
  H  H28  1  0.11315000  0.12146000  0.52275000  1.0
  H  H29  1  0.38684000  0.62145000  0.52277000  1.0
  H  H30  1  0.11314000  0.12145000  0.97723000  1.0
  H  H31  1  0.61313000  0.37856000  0.02276000  1.0
  H  H32  1  0.88683000  0.87854000  0.47724000  1.0
  H  H33  1  0.61315000  0.37854000  0.47724000  1.0
  H  H34  1  0.88687000  0.87857000  0.02277000  1.0
  H  H35  1  0.38687000  0.62144000  0.97724000  1.0
  H  H36  1  0.09100000  0.10825000  0.64949000  1.0
  H  H37  1  0.40896000  0.60823000  0.64951000  1.0
  H  H38  1  0.09106000  0.10825000  0.85049000  1.0
  H  H39  1  0.59104000  0.39176000  0.14951000  1.0
  H  H40  1  0.90899000  0.89175000  0.35050000  1.0
  H  H41  1  0.59105000  0.39176000  0.35049000  1.0
  H  H42  1  0.90894000  0.89177000  0.14951000  1.0
  H  H43  1  0.40894000  0.60824000  0.85050000  1.0
  H  H44  1  0.56478000  0.40956000  0.66023000  1.0
  H  H45  1  0.93519000  0.90957000  0.66023000  1.0
  H  H46  1  0.56481000  0.40955000  0.83977000  1.0
  H  H47  1  0.06476000  0.09044000  0.16024000  1.0
  H  H48  1  0.43520000  0.59043000  0.33977000  1.0
  H  H49  1  0.06482000  0.09044000  0.33978000  1.0
  H  H50  1  0.43524000  0.59044000  0.16024000  1.0
  H  H51  1  0.93520000  0.90956000  0.83978000  1.0
  H  H52  1  0.79656000  0.48634000  0.60204000  1.0
  H  H53  1  0.70341000  0.98634000  0.60206000  1.0
  H  H54  1  0.79662000  0.48634000  0.89795000  1.0
  H  H55  1  0.29655000  0.01365000  0.10205000  1.0
  H  H56  1  0.20341000  0.51365000  0.39795000  1.0
  H  H57  1  0.29660000  0.01365000  0.39796000  1.0
  H  H58  1  0.20343000  0.51364000  0.10204000  1.0
  H  H59  1  0.70342000  0.98635000  0.89796000  1.0
  H  H60  1  0.88167000  0.28524000  0.89896000  1.0
  H  H61  1  0.61834000  0.78525000  0.89897000  1.0
  H  H62  1  0.88162000  0.28525000  0.60104000  1.0
  H  H63  1  0.38167000  0.21475000  0.39896000  1.0
  H  H64  1  0.11839000  0.71474000  0.10103000  1.0
  H  H65  1  0.38161000  0.21475000  0.10104000  1.0
  H  H66  1  0.11834000  0.71475000  0.39894000  1.0
  H  H67  1  0.61834000  0.78525000  0.60104000  1.0
  H  H68  1  0.10986000  0.35940000  0.83609000  1.0
  H  H69  1  0.39018000  0.85941000  0.83610000  1.0
  H  H70  1  0.10982000  0.35941000  0.66390000  1.0
  H  H71  1  0.60985000  0.14059000  0.33610000  1.0
  H  H72  1  0.89016000  0.64059000  0.16388000  1.0
  H  H73  1  0.60982000  0.14059000  0.16389000  1.0
  H  H74  1  0.89016000  0.64058000  0.33608000  1.0
  H  H75  1  0.39015000  0.85942000  0.66391000  1.0
  C  C76  1  0.44482000  0.17147000  0.60462000  1.0
  C  C77  1  0.05514000  0.67146000  0.60463000  1.0
  C  C78  1  0.44487000  0.17146000  0.89539000  1.0
  C  C79  1  0.94487000  0.32853000  0.10462000  1.0
  C  C80  1  0.55517000  0.82853000  0.39537000  1.0
  C  C81  1  0.94488000  0.32853000  0.39538000  1.0
  C  C82  1  0.55514000  0.82855000  0.10460000  1.0
  C  C83  1  0.05513000  0.67146000  0.89538000  1.0
  C  C84  1  0.91783000  0.33625000  0.66400000  1.0
  C  C85  1  0.58215000  0.83626000  0.66402000  1.0
  C  C86  1  0.91785000  0.33625000  0.83599000  1.0
  C  C87  1  0.41780000  0.16375000  0.16402000  1.0
  C  C88  1  0.08217000  0.66375000  0.33598000  1.0
  C  C89  1  0.41785000  0.16375000  0.33599000  1.0
  C  C90  1  0.08218000  0.66374000  0.16400000  1.0
  C  C91  1  0.58218000  0.83626000  0.83599000  1.0
  C  C92  1  0.75596000  0.43378000  0.66347000  1.0
  C  C93  1  0.74402000  0.93380000  0.66348000  1.0
  C  C94  1  0.75599000  0.43378000  0.83653000  1.0
  C  C95  1  0.25593000  0.06621000  0.16348000  1.0
  C  C96  1  0.24402000  0.56622000  0.33653000  1.0
  C  C97  1  0.25598000  0.06621000  0.33653000  1.0
  C  C98  1  0.24407000  0.56621000  0.16346000  1.0
  C  C99  1  0.74403000  0.93380000  0.83653000  1.0
  C  C100  1  0.21897000  0.10200000  0.58855000  1.0
  C  C101  1  0.28100000  0.60199000  0.58856000  1.0
  C  C102  1  0.21900000  0.10199000  0.91145000  1.0
  C  C103  1  0.71899000  0.39802000  0.08855000  1.0
  C  C104  1  0.78102000  0.89801000  0.41145000  1.0
  C  C105  1  0.71901000  0.39801000  0.41145000  1.0
  C  C106  1  0.78101000  0.89803000  0.08855000  1.0
  C  C107  1  0.28100000  0.60198000  0.91145000  1.0
  O  O108  1  0.79307000  0.49741000  0.74999000  1.0
  O  O109  1  0.70693000  0.99743000  0.75000000  1.0
  O  O110  1  0.29307000  0.00257000  0.25000000  1.0
  O  O111  1  0.20693000  0.50258000  0.25000000  1.0
  O  O112  1  0.87313000  0.27231000  0.75000000  1.0
  O  O113  1  0.62689000  0.77232000  0.75001000  1.0
  O  O114  1  0.37310000  0.22769000  0.24999000  1.0
  O  O115  1  0.12691000  0.72768000  0.24998000  1.0
