# generated using pymatgen
data_Dy2H8C10S(N2O7)2
_symmetry_space_group_name_H-M   'P 1'
_cell_length_a   6.63018000
_cell_length_b   11.03340083
_cell_length_c   13.06040000
_cell_angle_alpha   73.60354693
_cell_angle_beta   90.02630000
_cell_angle_gamma   72.50844706
_symmetry_Int_Tables_number   1
_chemical_formula_structural   Dy2H8C10S(N2O7)2
_chemical_formula_sum   'Dy4 H16 C20 S2 N8 O28'
_cell_volume   870.36995678
_cell_formula_units_Z   2
loop_
 _symmetry_equiv_pos_site_id
 _symmetry_equiv_pos_as_xyz
  1  'x, y, z'
loop_
 _atom_site_type_symbol
 _atom_site_label
 _atom_site_symmetry_multiplicity
 _atom_site_fract_x
 _atom_site_fract_y
 _atom_site_fract_z
 _atom_site_occupancy
  Dy  Dy0  1  0.92584000  0.29490000  0.71455000  1.0
  Dy  Dy1  1  0.22040000  0.70503000  0.78546000  1.0
  Dy  Dy2  1  0.07416000  0.70510000  0.28545000  1.0
  Dy  Dy3  1  0.77960000  0.29497000  0.21454000  1.0
  H  H4  1  0.51813000  0.11366000  0.86737000  1.0
  H  H5  1  0.63144000  0.88645000  0.63260000  1.0
  H  H6  1  0.48187000  0.88634000  0.13263000  1.0
  H  H7  1  0.36856000  0.11356000  0.36739000  1.0
  H  H8  1  0.59643000  0.15269000  0.04626000  1.0
  H  H9  1  0.74846000  0.84750000  0.45369000  1.0
  H  H10  1  0.40356000  0.84731000  0.95374000  1.0
  H  H11  1  0.25154000  0.15250000  0.54631000  1.0
  H  H12  1  0.95046000  0.56690000  0.64518000  1.0
  H  H13  1  0.51731000  0.43294000  0.85483000  1.0
  H  H14  1  0.04954000  0.43310000  0.35483000  1.0
  H  H15  1  0.48270000  0.56705000  0.14517000  1.0
  H  H16  1  0.81657000  0.56168000  0.74087000  1.0
  H  H17  1  0.37777000  0.43829000  0.75919000  1.0
  H  H18  1  0.18343000  0.43832000  0.25913000  1.0
  H  H19  1  0.62224000  0.56170000  0.24081000  1.0
  C  C20  1  0.10337000  0.26207000  0.96669000  1.0
  C  C21  1  0.36532000  0.73776000  0.53334000  1.0
  C  C22  1  0.89663000  0.73793000  0.03331000  1.0
  C  C23  1  0.63468000  0.26224000  0.46666000  1.0
  C  C24  1  0.87189000  0.32736000  0.95657000  1.0
  C  C25  1  0.19931000  0.67237000  0.54345000  1.0
  C  C26  1  0.12812000  0.67264000  0.04342000  1.0
  C  C27  1  0.80069000  0.32763000  0.45656000  1.0
  C  C28  1  0.39900000  0.16190000  0.91255000  1.0
  C  C29  1  0.56057000  0.83813000  0.58745000  1.0
  C  C30  1  0.60100000  0.83810000  0.08745000  1.0
  C  C31  1  0.43943000  0.16187000  0.41255000  1.0
  C  C32  1  0.26855000  0.30348000  0.13221000  1.0
  C  C33  1  0.57139000  0.69672000  0.36769000  1.0
  C  C34  1  0.73145000  0.69652000  0.86779000  1.0
  C  C35  1  0.42861000  0.30328000  0.63231000  1.0
  C  C36  1  0.26477000  0.24751000  0.04190000  1.0
  C  C37  1  0.51178000  0.75257000  0.45806000  1.0
  C  C38  1  0.73523000  0.75249000  0.95810000  1.0
  C  C39  1  0.48822000  0.24743000  0.54194000  1.0
  S  S40  1  0.02314000  0.00000000  0.74994000  1.0
  S  S41  1  0.97687000  0.00000000  0.25006000  1.0
  N  N42  1  0.18988000  0.21029000  0.88607000  1.0
  N  N43  1  0.40008000  0.78957000  0.61397000  1.0
  N  N44  1  0.81011000  0.78971000  0.11394000  1.0
  N  N45  1  0.59992000  0.21043000  0.38603000  1.0
  N  N46  1  0.44891000  0.18308000  0.00526000  1.0
  N  N47  1  0.63143000  0.81707000  0.49469000  1.0
  N  N48  1  0.55109000  0.81692000  0.99474000  1.0
  N  N49  1  0.36856000  0.18294000  0.50531000  1.0
  O  O50  1  0.77494000  0.34470000  0.86576000  1.0
  O  O51  1  0.11984000  0.65506000  0.63425000  1.0
  O  O52  1  0.22507000  0.65530000  0.13424000  1.0
  O  O53  1  0.88017000  0.34494000  0.36575000  1.0
  O  O54  1  0.85855000  0.08334000  0.80039000  1.0
  O  O55  1  0.94151000  0.91660000  0.69969000  1.0
  O  O56  1  0.14145000  0.91666000  0.19961000  1.0
  O  O57  1  0.05849000  0.08340000  0.30032000  1.0
  O  O58  1  0.10424000  0.09649000  0.66893000  1.0
  O  O59  1  0.20125000  0.90353000  0.83075000  1.0
  O  O60  1  0.89575000  0.90351000  0.33106000  1.0
  O  O61  1  0.79875000  0.09647000  0.16925000  1.0
  O  O62  1  0.77544000  0.36302000  0.03124000  1.0
  O  O63  1  0.13844000  0.63666000  0.46881000  1.0
  O  O64  1  0.22456000  0.63698000  0.96876000  1.0
  O  O65  1  0.86155000  0.36334000  0.53118000  1.0
  O  O66  1  0.44093000  0.31817000  0.15911000  1.0
  O  O67  1  0.75836000  0.68230000  0.34072000  1.0
  O  O68  1  0.55907000  0.68183000  0.84089000  1.0
  O  O69  1  0.24164000  0.31770000  0.65929000  1.0
  O  O70  1  0.09994000  0.33877000  0.17746000  1.0
  O  O71  1  0.43819000  0.66126000  0.32250000  1.0
  O  O72  1  0.90005000  0.66124000  0.82254000  1.0
  O  O73  1  0.56180000  0.33874000  0.67750000  1.0
  O  O74  1  0.84776000  0.52200000  0.68146000  1.0
  O  O75  1  0.36953000  0.47783000  0.81866000  1.0
  O  O76  1  0.15224000  0.47800000  0.31854000  1.0
  O  O77  1  0.63047000  0.52217000  0.18134000  1.0
