# generated using pymatgen
data_CuH16C8Br2(N4O)2
_symmetry_space_group_name_H-M   'P 1'
_cell_length_a   8.31179000
_cell_length_b   9.01584000
_cell_length_c   10.99950000
_cell_angle_alpha   106.63000000
_cell_angle_beta   90.00000000
_cell_angle_gamma   90.00000000
_symmetry_Int_Tables_number   1
_chemical_formula_structural   CuH16C8Br2(N4O)2
_chemical_formula_sum   'Cu2 H32 C16 Br4 N16 O4'
_cell_volume   789.80079418
_cell_formula_units_Z   2
loop_
 _symmetry_equiv_pos_site_id
 _symmetry_equiv_pos_as_xyz
  1  'x, y, z'
loop_
 _atom_site_type_symbol
 _atom_site_label
 _atom_site_symmetry_multiplicity
 _atom_site_fract_x
 _atom_site_fract_y
 _atom_site_fract_z
 _atom_site_occupancy
  Cu  Cu0  1  0.00000000  0.00000000  0.00000000  1.0
  Cu  Cu1  1  0.50000000  0.50000000  0.00000000  1.0
  H  H2  1  0.62845000  0.84040000  0.18614000  1.0
  H  H3  1  0.87155000  0.34040000  0.18614000  1.0
  H  H4  1  0.37155000  0.15960000  0.81386000  1.0
  H  H5  1  0.12845000  0.65960000  0.81386000  1.0
  H  H6  1  0.58559000  0.13662000  0.24051000  1.0
  H  H7  1  0.91440000  0.63662000  0.24052000  1.0
  H  H8  1  0.41441000  0.86338000  0.75949000  1.0
  H  H9  1  0.08559000  0.36338000  0.75948000  1.0
  H  H10  1  0.43644000  0.20347000  0.15224000  1.0
  H  H11  1  0.06356000  0.70347000  0.15224000  1.0
  H  H12  1  0.56356000  0.79653000  0.84776000  1.0
  H  H13  1  0.93644000  0.29652000  0.84776000  1.0
  H  H14  1  0.22075000  0.16208000  0.29942000  1.0
  H  H15  1  0.27925000  0.66209000  0.29942000  1.0
  H  H16  1  0.77926000  0.83792000  0.70058000  1.0
  H  H17  1  0.72075000  0.33792000  0.70058000  1.0
  H  H18  1  0.37235000  0.29622000  0.37982000  1.0
  H  H19  1  0.12764000  0.79623000  0.37983000  1.0
  H  H20  1  0.62765000  0.70378000  0.62018000  1.0
  H  H21  1  0.87235000  0.20378000  0.62018000  1.0
  H  H22  1  0.15436000  0.08355000  0.48244000  1.0
  H  H23  1  0.34564000  0.58355000  0.48244000  1.0
  H  H24  1  0.84564000  0.91645000  0.51756000  1.0
  H  H25  1  0.65436000  0.41645000  0.51756000  1.0
  H  H26  1  0.31577000  0.01389000  0.56062000  1.0
  H  H27  1  0.18423000  0.51388000  0.56062000  1.0
  H  H28  1  0.68423000  0.98611000  0.43938000  1.0
  H  H29  1  0.81577000  0.48611000  0.43938000  1.0
  H  H30  1  0.29801000  0.21680000  0.57703000  1.0
  H  H31  1  0.20199000  0.71680000  0.57703000  1.0
  H  H32  1  0.70198000  0.78320000  0.42297000  1.0
  H  H33  1  0.79801000  0.28319000  0.42297000  1.0
  C  C34  1  0.51590000  0.84133000  0.13670000  1.0
  C  C35  1  0.98410000  0.34133000  0.13670000  1.0
  C  C36  1  0.48410000  0.15867000  0.86330000  1.0
  C  C37  1  0.01590000  0.65867000  0.86329000  1.0
  C  C38  1  0.45807000  0.12869000  0.21341000  1.0
  C  C39  1  0.04192000  0.62869000  0.21341000  1.0
  C  C40  1  0.54193000  0.87131000  0.78659000  1.0
  C  C41  1  0.95807000  0.37131000  0.78659000  1.0
  C  C42  1  0.34867000  0.17364000  0.32855000  1.0
  C  C43  1  0.15132000  0.67364000  0.32855000  1.0
  C  C44  1  0.65133000  0.82637000  0.67145000  1.0
  C  C45  1  0.84867000  0.32636000  0.67145000  1.0
  C  C46  1  0.28176000  0.09932000  0.51181000  1.0
  C  C47  1  0.21823000  0.59932000  0.51181000  1.0
  C  C48  1  0.71824000  0.90068000  0.48819000  1.0
  C  C49  1  0.78177000  0.40067000  0.48819000  1.0
  Br  Br50  1  0.08626000  0.98215000  0.77933000  1.0
  Br  Br51  1  0.41374000  0.48214000  0.77933000  1.0
  Br  Br52  1  0.91374000  0.01786000  0.22067000  1.0
  Br  Br53  1  0.58626000  0.51786000  0.22067000  1.0
  N  N54  1  0.43057000  0.96814000  0.13938000  1.0
  N  N55  1  0.06943000  0.46814000  0.13938000  1.0
  N  N56  1  0.56943000  0.03186000  0.86062000  1.0
  N  N57  1  0.93057000  0.53186000  0.86062000  1.0
  N  N58  1  0.29943000  0.92543000  0.06384000  1.0
  N  N59  1  0.20057000  0.42544000  0.06384000  1.0
  N  N60  1  0.70056000  0.07457000  0.93616000  1.0
  N  N61  1  0.79944000  0.57457000  0.93616000  1.0
  N  N62  1  0.30662000  0.77673000  0.01559000  1.0
  N  N63  1  0.19338000  0.27673000  0.01559000  1.0
  N  N64  1  0.69338000  0.22327000  0.98441000  1.0
  N  N65  1  0.80662000  0.72327000  0.98441000  1.0
  N  N66  1  0.43991000  0.72110000  0.05878000  1.0
  N  N67  1  0.06009000  0.22111000  0.05879000  1.0
  N  N68  1  0.56009000  0.27890000  0.94122000  1.0
  N  N69  1  0.93991000  0.77889000  0.94121000  1.0
  O  O70  1  0.38503000  0.07409000  0.40413000  1.0
  O  O71  1  0.11497000  0.57409000  0.40413000  1.0
  O  O72  1  0.61497000  0.92591000  0.59587000  1.0
  O  O73  1  0.88504000  0.42591000  0.59587000  1.0
