# generated using pymatgen
data_ZnH9(C9O5)2
_symmetry_space_group_name_H-M   'P 1'
_cell_length_a   8.91463000
_cell_length_b   17.70890000
_cell_length_c   34.86550000
_cell_angle_alpha   89.69790000
_cell_angle_beta   89.95780000
_cell_angle_gamma   89.87020000
_symmetry_Int_Tables_number   1
_chemical_formula_structural   ZnH9(C9O5)2
_chemical_formula_sum   'Zn4 H36 C72 O40'
_cell_volume   5504.06482851
_cell_formula_units_Z   4
loop_
 _symmetry_equiv_pos_site_id
 _symmetry_equiv_pos_as_xyz
  1  'x, y, z'
loop_
 _atom_site_type_symbol
 _atom_site_label
 _atom_site_symmetry_multiplicity
 _atom_site_fract_x
 _atom_site_fract_y
 _atom_site_fract_z
 _atom_site_occupancy
  Zn  Zn0  1  0.60052000  0.99929000  0.50028000  1.0
  Zn  Zn1  1  0.29885000  0.99964000  0.50035000  1.0
  Zn  Zn2  1  0.30885000  0.99843000  0.00028000  1.0
  Zn  Zn3  1  0.61070000  0.99794000  0.00029000  1.0
  H  H4  1  0.63426000  0.99375000  0.88164000  1.0
  H  H5  1  0.64128000  0.99249000  0.81090000  1.0
  H  H6  1  0.76057000  0.00164000  0.69209000  1.0
  H  H7  1  0.27300000  0.00026000  0.69121000  1.0
  H  H8  1  0.29262000  0.98846000  0.74796000  1.0
  H  H9  1  0.63321000  0.00767000  0.75160000  1.0
  H  H10  1  0.63480000  0.00204000  0.11885000  1.0
  H  H11  1  0.64168000  0.00325000  0.18960000  1.0
  H  H12  1  0.76044000  0.99653000  0.30843000  1.0
  H  H13  1  0.27289000  0.99943000  0.30945000  1.0
  H  H14  1  0.29244000  0.00810000  0.25259000  1.0
  H  H15  1  0.63364000  0.99103000  0.24901000  1.0
  H  H16  1  0.63261000  0.77213000  0.49888000  1.0
  H  H17  1  0.15106000  0.75597000  0.50378000  1.0
  H  H18  1  0.63254000  0.22621000  0.50128000  1.0
  H  H19  1  0.15083000  0.24364000  0.49629000  1.0
  H  H20  1  0.27338000  0.77139000  0.00111000  1.0
  H  H21  1  0.75487000  0.75397000  0.99621000  1.0
  H  H22  1  0.27494000  0.22548000  0.99660000  1.0
  H  H23  1  0.75595000  0.24163000  0.00335000  1.0
  H  H24  1  0.14003000  0.99946000  0.90947000  1.0
  H  H25  1  0.13799000  0.00509000  0.77878000  1.0
  H  H26  1  0.26640000  0.99835000  0.59158000  1.0
  H  H27  1  0.77102000  0.99965000  0.59128000  1.0
  H  H28  1  0.14064000  0.99798000  0.09112000  1.0
  H  H29  1  0.13840000  0.99186000  0.22184000  1.0
  H  H30  1  0.26640000  0.00141000  0.40910000  1.0
  H  H31  1  0.77097000  0.99884000  0.40921000  1.0
  H  H32  1  0.13527000  0.58158000  0.45434000  1.0
  H  H33  1  0.63794000  0.54443000  0.53126000  1.0
  H  H34  1  0.13322000  0.41726000  0.54530000  1.0
  H  H35  1  0.63810000  0.45404000  0.46871000  1.0
  H  H36  1  0.77368000  0.58104000  0.04461000  1.0
  H  H37  1  0.26862000  0.54341000  0.96833000  1.0
  H  H38  1  0.76986000  0.41971000  0.95365000  1.0
  H  H39  1  0.26814000  0.45068000  0.03024000  1.0
  C  C40  1  0.38734000  0.85771000  0.50000000  1.0
  C  C41  1  0.51602000  0.99874000  0.57429000  1.0
  C  C42  1  0.38723000  0.14135000  0.50043000  1.0
  C  C43  1  0.51591000  0.00029000  0.42631000  1.0
  C  C44  1  0.51923000  0.85616000  0.00073000  1.0
  C  C45  1  0.39541000  0.99717000  0.92725000  1.0
  C  C46  1  0.52029000  0.14002000  0.99920000  1.0
  C  C47  1  0.39613000  0.99958000  0.07331000  1.0
  C  C48  1  0.39305000  0.99686000  0.88520000  1.0
  C  C49  1  0.53086000  0.99518000  0.86510000  1.0
  C  C50  1  0.53379000  0.99485000  0.82571000  1.0
  C  C51  1  0.39918000  0.99640000  0.80398000  1.0
  C  C52  1  0.26115000  0.99848000  0.82387000  1.0
  C  C53  1  0.25684000  0.99831000  0.86452000  1.0
  C  C54  1  0.40065000  0.99561000  0.76240000  1.0
  C  C55  1  0.52174000  0.00154000  0.73903000  1.0
  C  C56  1  0.65373000  0.00094000  0.67694000  1.0
  C  C57  1  0.51730000  0.00051000  0.69726000  1.0
  C  C58  1  0.38141000  0.99968000  0.67688000  1.0
  C  C59  1  0.38025000  0.99908000  0.63711000  1.0
  C  C60  1  0.51817000  0.99917000  0.61575000  1.0
  C  C61  1  0.65560000  0.00009000  0.63695000  1.0
  C  C62  1  0.39358000  0.99985000  0.11537000  1.0
  C  C63  1  0.53137000  0.00097000  0.13544000  1.0
  C  C64  1  0.53420000  0.00127000  0.17483000  1.0
  C  C65  1  0.39951000  0.00022000  0.19658000  1.0
  C  C66  1  0.26151000  0.99837000  0.17671000  1.0
  C  C67  1  0.25728000  0.99871000  0.13606000  1.0
  C  C68  1  0.40077000  0.00147000  0.23815000  1.0
  C  C69  1  0.52186000  0.99668000  0.26155000  1.0
  C  C70  1  0.65356000  0.99760000  0.32361000  1.0
  C  C71  1  0.51720000  0.99820000  0.30331000  1.0
  C  C72  1  0.38129000  0.99961000  0.32374000  1.0
  C  C73  1  0.38015000  0.00037000  0.36352000  1.0
  C  C74  1  0.51802000  0.99995000  0.38485000  1.0
  C  C75  1  0.65542000  0.99865000  0.36359000  1.0
  C  C76  1  0.39082000  0.77347000  0.50028000  1.0
  C  C77  1  0.53115000  0.73822000  0.49982000  1.0
  C  C78  1  0.54600000  0.66009000  0.50122000  1.0
  C  C79  1  0.41524000  0.61425000  0.50144000  1.0
  C  C80  1  0.27280000  0.65065000  0.50248000  1.0
  C  C81  1  0.26112000  0.72924000  0.50220000  1.0
  C  C82  1  0.42186000  0.53406000  0.50063000  1.0
  C  C83  1  0.42212000  0.46481000  0.49907000  1.0
  C  C84  1  0.41565000  0.38461000  0.49832000  1.0
  C  C85  1  0.54636000  0.33841000  0.49866000  1.0
  C  C86  1  0.53111000  0.26037000  0.50026000  1.0
  C  C87  1  0.39068000  0.22554000  0.49991000  1.0
  C  C88  1  0.26101000  0.27005000  0.49783000  1.0
  C  C89  1  0.27305000  0.34863000  0.49733000  1.0
  C  C90  1  0.51512000  0.77190000  0.99987000  1.0
  C  C91  1  0.37464000  0.73715000  0.99997000  1.0
  C  C92  1  0.35937000  0.65917000  0.99784000  1.0
  C  C93  1  0.49015000  0.61306000  0.99728000  1.0
  C  C94  1  0.63275000  0.64900000  0.99660000  1.0
  C  C95  1  0.64475000  0.72748000  0.99757000  1.0
  C  C96  1  0.48414000  0.53287000  0.99754000  1.0
  C  C97  1  0.48506000  0.46359000  0.99885000  1.0
  C  C98  1  0.49202000  0.38340000  0.99962000  1.0
  C  C99  1  0.36131000  0.33755000  0.99897000  1.0
  C  C100  1  0.37620000  0.25946000  0.99783000  1.0
  C  C101  1  0.51654000  0.22428000  0.99901000  1.0
  C  C102  1  0.64605000  0.26844000  0.00127000  1.0
  C  C103  1  0.63441000  0.34704000  0.00121000  1.0
  C  C104  1  0.13323000  0.60433000  0.50826000  1.0
  C  C105  1  0.70570000  0.63260000  0.50357000  1.0
  C  C106  1  0.13362000  0.39530000  0.49133000  1.0
  C  C107  1  0.70621000  0.36537000  0.49604000  1.0
  C  C108  1  0.77199000  0.60234000  0.99052000  1.0
  C  C109  1  0.19958000  0.63243000  0.99475000  1.0
  C  C110  1  0.77431000  0.39283000  0.00718000  1.0
  C  C111  1  0.20181000  0.36524000  0.00074000  1.0
  O  O112  1  0.51319000  0.89113000  0.49987000  1.0
  O  O113  1  0.25903000  0.89177000  0.50009000  1.0
  O  O114  1  0.38912000  0.99839000  0.55642000  1.0
  O  O115  1  0.64277000  0.99870000  0.55514000  1.0
  O  O116  1  0.25889000  0.10761000  0.50050000  1.0
  O  O117  1  0.51304000  0.10761000  0.50059000  1.0
  O  O118  1  0.64269000  0.99998000  0.44539000  1.0
  O  O119  1  0.38900000  0.00085000  0.44422000  1.0
  O  O120  1  0.39330000  0.88973000  0.00121000  1.0
  O  O121  1  0.64780000  0.88939000  0.00070000  1.0
  O  O122  1  0.52006000  0.99690000  0.94473000  1.0
  O  O123  1  0.26596000  0.99773000  0.94545000  1.0
  O  O124  1  0.64867000  0.10631000  0.99943000  1.0
  O  O125  1  0.39417000  0.10691000  0.99932000  1.0
  O  O126  1  0.26672000  0.99945000  0.05515000  1.0
  O  O127  1  0.52089000  0.99944000  0.05584000  1.0
  O  O128  1  0.12057000  0.99996000  0.88129000  1.0
  O  O129  1  0.12392000  0.00128000  0.80641000  1.0
  O  O130  1  0.24523000  0.99864000  0.61965000  1.0
  O  O131  1  0.79047000  0.00028000  0.61932000  1.0
  O  O132  1  0.12109000  0.99741000  0.11930000  1.0
  O  O133  1  0.12427000  0.99581000  0.19422000  1.0
  O  O134  1  0.24517000  0.00121000  0.38104000  1.0
  O  O135  1  0.79037000  0.99816000  0.38115000  1.0
  O  O136  1  0.07592000  0.56974000  0.47714000  1.0
  O  O137  1  0.07695000  0.59814000  0.53982000  1.0
  O  O138  1  0.73229000  0.56790000  0.52313000  1.0
  O  O139  1  0.80850000  0.66931000  0.49003000  1.0
  O  O140  1  0.07471000  0.42953000  0.52241000  1.0
  O  O141  1  0.07879000  0.40186000  0.45963000  1.0
  O  O142  1  0.73253000  0.43008000  0.47653000  1.0
  O  O143  1  0.80938000  0.32827000  0.50926000  1.0
  O  O144  1  0.83149000  0.56816000  0.02175000  1.0
  O  O145  1  0.82608000  0.59543000  0.95879000  1.0
  O  O146  1  0.17387000  0.56795000  0.97536000  1.0
  O  O147  1  0.09588000  0.66965000  0.00746000  1.0
  O  O148  1  0.83052000  0.42957000  0.97638000  1.0
  O  O149  1  0.83240000  0.39646000  0.03860000  1.0
  O  O150  1  0.17421000  0.42842000  0.02118000  1.0
  O  O151  1  0.09989000  0.33002000  0.98606000  1.0
