# generated using pymatgen
data_DyCuH16C16(NO)8
_symmetry_space_group_name_H-M   'P 1'
_cell_length_a   9.24494000
_cell_length_b   10.86870000
_cell_length_c   10.86870000
_cell_angle_alpha   87.81780000
_cell_angle_beta   72.51920000
_cell_angle_gamma   72.51930000
_symmetry_Int_Tables_number   1
_chemical_formula_structural   DyCuH16C16(NO)8
_chemical_formula_sum   'Dy2 Cu2 H32 C32 N16 O16'
_cell_volume   991.91730042
_cell_formula_units_Z   2
loop_
 _symmetry_equiv_pos_site_id
 _symmetry_equiv_pos_as_xyz
  1  'x, y, z'
loop_
 _atom_site_type_symbol
 _atom_site_label
 _atom_site_symmetry_multiplicity
 _atom_site_fract_x
 _atom_site_fract_y
 _atom_site_fract_z
 _atom_site_occupancy
  Dy  Dy0  1  0.25000000  0.96738000  0.03262000  1.0
  Dy  Dy1  1  0.75000000  0.03262000  0.96738000  1.0
  Cu  Cu2  1  0.00000000  0.00000000  0.50000000  1.0
  Cu  Cu3  1  0.50000000  0.50000000  0.00000000  1.0
  H  H4  1  0.35436000  0.32263000  0.38524000  1.0
  H  H5  1  0.14564000  0.61476000  0.67737000  1.0
  H  H6  1  0.64564000  0.67737000  0.61476000  1.0
  H  H7  1  0.85436000  0.38524000  0.32263000  1.0
  H  H8  1  0.06391000  0.36056000  0.44770000  1.0
  H  H9  1  0.43609000  0.55230000  0.63944000  1.0
  H  H10  1  0.93608000  0.63943000  0.55230000  1.0
  H  H11  1  0.56391000  0.44770000  0.36057000  1.0
  H  H12  1  0.93248000  0.25111000  0.63733000  1.0
  H  H13  1  0.56752000  0.36267000  0.74890000  1.0
  H  H14  1  0.06752000  0.74889000  0.36267000  1.0
  H  H15  1  0.43248000  0.63733000  0.25111000  1.0
  H  H16  1  0.38450000  0.06913000  0.69816000  1.0
  H  H17  1  0.11550000  0.30183000  0.93087000  1.0
  H  H18  1  0.61550000  0.93087000  0.30184000  1.0
  H  H19  1  0.88450000  0.69817000  0.06913000  1.0
  H  H20  1  0.38730000  0.07117000  0.20862000  1.0
  H  H21  1  0.11270000  0.79138000  0.92883000  1.0
  H  H22  1  0.61270000  0.92883000  0.79138000  1.0
  H  H23  1  0.88730000  0.20862000  0.07116000  1.0
  H  H24  1  0.31316000  0.97177000  0.29251000  1.0
  H  H25  1  0.18684000  0.70749000  0.02823000  1.0
  H  H26  1  0.68684000  0.02823000  0.70749000  1.0
  H  H27  1  0.81316000  0.29251000  0.97177000  1.0
  H  H28  1  0.08232000  0.23580000  0.16294000  1.0
  H  H29  1  0.41768000  0.83706000  0.76420000  1.0
  H  H30  1  0.91768000  0.76420000  0.83706000  1.0
  H  H31  1  0.58232000  0.16294000  0.23580000  1.0
  H  H32  1  0.96471000  0.15443000  0.22511000  1.0
  H  H33  1  0.53529000  0.77489000  0.84557000  1.0
  H  H34  1  0.03529000  0.84557000  0.77489000  1.0
  H  H35  1  0.46471000  0.22511000  0.15443000  1.0
  C  C36  1  0.56270000  0.16551000  0.49258000  1.0
  C  C37  1  0.93730000  0.50742000  0.83449000  1.0
  C  C38  1  0.43730000  0.83449000  0.50742000  1.0
  C  C39  1  0.06270000  0.49258000  0.16551000  1.0
  C  C40  1  0.39006000  0.19167000  0.53584000  1.0
  C  C41  1  0.10995000  0.46416000  0.80833000  1.0
  C  C42  1  0.60995000  0.80833000  0.46416000  1.0
  C  C43  1  0.89005000  0.53584000  0.19167000  1.0
  C  C44  1  0.29740000  0.27515000  0.46728000  1.0
  C  C45  1  0.20260000  0.53272000  0.72486000  1.0
  C  C46  1  0.70260000  0.72486000  0.53272000  1.0
  C  C47  1  0.79740000  0.46728000  0.27515000  1.0
  C  C48  1  0.13361000  0.29689000  0.50291000  1.0
  C  C49  1  0.36639000  0.49709000  0.70311000  1.0
  C  C50  1  0.86639000  0.70311000  0.49709000  1.0
  C  C51  1  0.63360000  0.50291000  0.29689000  1.0
  C  C52  1  0.06042000  0.23547000  0.60704000  1.0
  C  C53  1  0.43958000  0.39297000  0.76453000  1.0
  C  C54  1  0.93958000  0.76453000  0.39296000  1.0
  C  C55  1  0.56042000  0.60704000  0.23548000  1.0
  C  C56  1  0.15119000  0.15383000  0.67782000  1.0
  C  C57  1  0.34881000  0.32218000  0.84617000  1.0
  C  C58  1  0.84881000  0.84617000  0.32218000  1.0
  C  C59  1  0.65119000  0.67782000  0.15383000  1.0
  C  C60  1  0.31531000  0.13254000  0.64260000  1.0
  C  C61  1  0.18470000  0.35740000  0.86746000  1.0
  C  C62  1  0.68470000  0.86746000  0.35740000  1.0
  C  C63  1  0.81530000  0.64260000  0.13254000  1.0
  C  C64  1  0.06878000  0.08888000  0.78849000  1.0
  C  C65  1  0.43122000  0.21151000  0.91112000  1.0
  C  C66  1  0.93122000  0.91112000  0.21151000  1.0
  C  C67  1  0.56878000  0.78849000  0.08888000  1.0
  N  N68  1  0.66395000  0.11034000  0.56016000  1.0
  N  N69  1  0.83605000  0.43984000  0.88966000  1.0
  N  N70  1  0.33605000  0.88966000  0.43984000  1.0
  N  N71  1  0.16395000  0.56016000  0.11034000  1.0
  N  N72  1  0.80846000  0.10276000  0.47892000  1.0
  N  N73  1  0.69154000  0.52107000  0.89724000  1.0
  N  N74  1  0.19154000  0.89724000  0.52108000  1.0
  N  N75  1  0.30846000  0.47892000  0.10276000  1.0
  N  N76  1  0.79679000  0.15251000  0.36733000  1.0
  N  N77  1  0.70321000  0.63267000  0.84749000  1.0
  N  N78  1  0.20321000  0.84749000  0.63267000  1.0
  N  N79  1  0.29679000  0.36733000  0.15251000  1.0
  N  N80  1  0.64389000  0.19152000  0.37322000  1.0
  N  N81  1  0.85611000  0.62678000  0.80848000  1.0
  N  N82  1  0.35611000  0.80848000  0.62678000  1.0
  N  N83  1  0.14389000  0.37322000  0.19152000  1.0
  O  O84  1  0.13766000  0.03816000  0.87152000  1.0
  O  O85  1  0.36234000  0.12848000  0.96184000  1.0
  O  O86  1  0.86234000  0.96184000  0.12848000  1.0
  O  O87  1  0.63766000  0.87152000  0.03816000  1.0
  O  O88  1  0.93018000  0.08762000  0.79268000  1.0
  O  O89  1  0.56982000  0.20732000  0.91238000  1.0
  O  O90  1  0.06982000  0.91238000  0.20732000  1.0
  O  O91  1  0.43018000  0.79268000  0.08762000  1.0
  O  O92  1  0.29988000  0.03172000  0.22260000  1.0
  O  O93  1  0.20012000  0.77740000  0.96827000  1.0
  O  O94  1  0.70012000  0.96828000  0.77739000  1.0
  O  O95  1  0.79989000  0.22260000  0.03173000  1.0
  O  O96  1  0.03686000  0.16987000  0.14085000  1.0
  O  O97  1  0.46315000  0.85914000  0.83013000  1.0
  O  O98  1  0.96314000  0.83013000  0.85914000  1.0
  O  O99  1  0.53686000  0.14085000  0.16987000  1.0
