# generated using pymatgen
data_SmH9C9NO11
_symmetry_space_group_name_H-M   'P 1'
_cell_length_a   7.72970000
_cell_length_b   8.07310000
_cell_length_c   10.59210000
_cell_angle_alpha   103.74900000
_cell_angle_beta   99.62760000
_cell_angle_gamma   93.21940000
_symmetry_Int_Tables_number   1
_chemical_formula_structural   SmH9C9NO11
_chemical_formula_sum   'Sm2 H18 C18 N2 O22'
_cell_volume   629.81055286
_cell_formula_units_Z   2
loop_
 _symmetry_equiv_pos_site_id
 _symmetry_equiv_pos_as_xyz
  1  'x, y, z'
loop_
 _atom_site_type_symbol
 _atom_site_label
 _atom_site_symmetry_multiplicity
 _atom_site_fract_x
 _atom_site_fract_y
 _atom_site_fract_z
 _atom_site_occupancy
  Sm  Sm0  1  0.69499000  0.68112000  0.87210000  1.0
  Sm  Sm1  1  0.30502000  0.31887000  0.12790000  1.0
  H  H2  1  0.67321000  0.94161000  0.64643000  1.0
  H  H3  1  0.32678000  0.05839000  0.35356000  1.0
  H  H4  1  0.81557000  0.14741000  0.32964000  1.0
  H  H5  1  0.18443000  0.85258000  0.67036000  1.0
  H  H6  1  0.85947000  0.63343000  0.31094000  1.0
  H  H7  1  0.14053000  0.36657000  0.68907000  1.0
  H  H8  1  0.87116000  0.87561000  0.22378000  1.0
  H  H9  1  0.12884000  0.12440000  0.77622000  1.0
  H  H10  1  0.30518000  0.59531000  0.84844000  1.0
  H  H11  1  0.69482000  0.40470000  0.15156000  1.0
  H  H12  1  0.32099000  0.60038000  0.70255000  1.0
  H  H13  1  0.67901000  0.39963000  0.29745000  1.0
  H  H14  1  0.54421000  0.30144000  0.84720000  1.0
  H  H15  1  0.45578000  0.69855000  0.15280000  1.0
  H  H16  1  0.62592000  0.30535000  0.71835000  1.0
  H  H17  1  0.37407000  0.69465000  0.28165000  1.0
  H  H18  1  0.73232000  0.32607000  0.52530000  1.0
  H  H19  1  0.26767000  0.67393000  0.47470000  1.0
  C  C20  1  0.72779000  0.61181000  0.53651000  1.0
  C  C21  1  0.27220000  0.38819000  0.46349000  1.0
  C  C22  1  0.75831000  0.76740000  0.48551000  1.0
  C  C23  1  0.24168000  0.23260000  0.51449000  1.0
  C  C24  1  0.71989000  0.92725000  0.55314000  1.0
  C  C25  1  0.28010000  0.07275000  0.44686000  1.0
  C  C26  1  0.74254000  0.07114000  0.50200000  1.0
  C  C27  1  0.25746000  0.92886000  0.49800000  1.0
  C  C28  1  0.79883000  0.04644000  0.38025000  1.0
  C  C29  1  0.20116000  0.95356000  0.61975000  1.0
  C  C30  1  0.82067000  0.75167000  0.36752000  1.0
  C  C31  1  0.17932000  0.24833000  0.63248000  1.0
  C  C32  1  0.52219000  0.04564000  0.94672000  1.0
  C  C33  1  0.47781000  0.95434000  0.05327000  1.0
  C  C34  1  0.04812000  0.50428000  0.94160000  1.0
  C  C35  1  0.95188000  0.49573000  0.05840000  1.0
  C  C36  1  0.99023000  0.99765000  0.07075000  1.0
  C  C37  1  0.00977000  0.00235000  0.92926000  1.0
  N  N38  1  0.83592000  0.88982000  0.31951000  1.0
  N  N39  1  0.16408000  0.11019000  0.68049000  1.0
  O  O40  1  0.66666667  0.62986000  0.64156000  1.0
  O  O41  1  0.33333333  0.37014000  0.35844000  1.0
  O  O42  1  0.76265000  0.46874000  0.46783000  1.0
  O  O43  1  0.23735000  0.53126000  0.53217000  1.0
  O  O44  1  0.70972000  0.22442000  0.56971000  1.0
  O  O45  1  0.29027000  0.77559000  0.43029000  1.0
  O  O46  1  0.60840000  0.96880000  0.86385000  1.0
  O  O47  1  0.39161000  0.03118000  0.13615000  1.0
  O  O48  1  0.46754000  0.19259000  0.95107000  1.0
  O  O49  1  0.53246000  0.80739000  0.04892000  1.0
  O  O50  1  0.96039000  0.53984000  0.84171000  1.0
  O  O51  1  0.03962000  0.46016000  0.15829000  1.0
  O  O52  1  0.20955000  0.47491000  0.95493000  1.0
  O  O53  1  0.79046000  0.52509000  0.04507000  1.0
  O  O54  1  0.89651000  0.86564000  0.07811000  1.0
  O  O55  1  0.10349000  0.13437000  0.92191000  1.0
  O  O56  1  0.06371000  0.11855000  0.16595000  1.0
  O  O57  1  0.93630000  0.88146000  0.83407000  1.0
  O  O58  1  0.36557000  0.65954000  0.79664000  1.0
  O  O59  1  0.63443000  0.34047000  0.20336000  1.0
  O  O60  1  0.57483000  0.37559000  0.78958000  1.0
  O  O61  1  0.42516000  0.62440000  0.21042000  1.0
