# generated using pymatgen
data_Cd3H10C10N2(Cl3O)2
_symmetry_space_group_name_H-M   'P 1'
_cell_length_a   7.69003000
_cell_length_b   11.16680000
_cell_length_c   22.80900000
_cell_angle_alpha   90.00000000
_cell_angle_beta   90.00000000
_cell_angle_gamma   90.00000000
_symmetry_Int_Tables_number   1
_chemical_formula_structural   Cd3H10C10N2(Cl3O)2
_chemical_formula_sum   'Cd12 H40 C40 N8 Cl24 O8'
_cell_volume   1958.67787293
_cell_formula_units_Z   4
loop_
 _symmetry_equiv_pos_site_id
 _symmetry_equiv_pos_as_xyz
  1  'x, y, z'
loop_
 _atom_site_type_symbol
 _atom_site_label
 _atom_site_symmetry_multiplicity
 _atom_site_fract_x
 _atom_site_fract_y
 _atom_site_fract_z
 _atom_site_occupancy
  Cd  Cd0  1  0.00000000  0.00000000  0.50000000  1.0
  Cd  Cd1  1  0.50000000  0.50000000  0.50000000  1.0
  Cd  Cd2  1  0.50000000  0.00000000  0.00000000  1.0
  Cd  Cd3  1  0.00000000  0.50000000  0.00000000  1.0
  Cd  Cd4  1  0.28765000  0.22706000  0.58189000  1.0
  Cd  Cd5  1  0.78765000  0.27294000  0.58189000  1.0
  Cd  Cd6  1  0.21235000  0.22706000  0.08189000  1.0
  Cd  Cd7  1  0.71235000  0.27295000  0.08189000  1.0
  Cd  Cd8  1  0.71235000  0.77294000  0.41811000  1.0
  Cd  Cd9  1  0.21234000  0.72706000  0.41811000  1.0
  Cd  Cd10  1  0.78766000  0.77294000  0.91811000  1.0
  Cd  Cd11  1  0.28766000  0.72706000  0.91811000  1.0
  H  H12  1  0.45818000  0.43652000  0.67459000  1.0
  H  H13  1  0.95819000  0.06347000  0.67459000  1.0
  H  H14  1  0.04182000  0.43653000  0.17459000  1.0
  H  H15  1  0.54182000  0.06347000  0.17459000  1.0
  H  H16  1  0.54182000  0.56347000  0.32541000  1.0
  H  H17  1  0.04182000  0.93652000  0.32541000  1.0
  H  H18  1  0.95818000  0.56347000  0.82541000  1.0
  H  H19  1  0.45818000  0.93652000  0.82541000  1.0
  H  H20  1  0.38335000  0.57917000  0.75814000  1.0
  H  H21  1  0.88335000  0.92083000  0.75813000  1.0
  H  H22  1  0.11665000  0.57917000  0.25813000  1.0
  H  H23  1  0.61665000  0.92083000  0.25813000  1.0
  H  H24  1  0.61664000  0.42083000  0.24187000  1.0
  H  H25  1  0.11665000  0.07917000  0.24187000  1.0
  H  H26  1  0.88335000  0.42082000  0.74187000  1.0
  H  H27  1  0.38335000  0.07917000  0.74187000  1.0
  H  H28  1  0.15499000  0.73537000  0.74122000  1.0
  H  H29  1  0.65499000  0.76462000  0.74122000  1.0
  H  H30  1  0.34501000  0.73537000  0.24122000  1.0
  H  H31  1  0.84501000  0.76463000  0.24122000  1.0
  H  H32  1  0.84500000  0.26462000  0.25878000  1.0
  H  H33  1  0.34501000  0.23538000  0.25878000  1.0
  H  H34  1  0.65499000  0.26462000  0.75878000  1.0
  H  H35  1  0.15499000  0.23537000  0.75878000  1.0
  H  H36  1  0.00871000  0.74420000  0.64172000  1.0
  H  H37  1  0.50871000  0.75580000  0.64172000  1.0
  H  H38  1  0.49129000  0.74420000  0.14172000  1.0
  H  H39  1  0.99129000  0.75580000  0.14172000  1.0
  H  H40  1  0.99129000  0.25580000  0.35828000  1.0
  H  H41  1  0.49129000  0.24421000  0.35828000  1.0
  H  H42  1  0.50871000  0.25579000  0.85828000  1.0
  H  H43  1  0.00871000  0.24420000  0.85828000  1.0
  H  H44  1  0.09467000  0.59358000  0.56530000  1.0
  H  H45  1  0.59466000  0.90643000  0.56530000  1.0
  H  H46  1  0.40534000  0.59357000  0.06530000  1.0
  H  H47  1  0.90534000  0.90643000  0.06530000  1.0
  H  H48  1  0.90534000  0.40643000  0.43470000  1.0
  H  H49  1  0.40534000  0.09358000  0.43470000  1.0
  H  H50  1  0.59466000  0.40642000  0.93470000  1.0
  H  H51  1  0.09466000  0.09357000  0.93470000  1.0
  C  C52  1  0.36096000  0.50703000  0.67156000  1.0
  C  C53  1  0.86096000  0.99297000  0.67155000  1.0
  C  C54  1  0.13904000  0.50703000  0.17155000  1.0
  C  C55  1  0.63904000  0.99297000  0.17155000  1.0
  C  C56  1  0.63904000  0.49297000  0.32845000  1.0
  C  C57  1  0.13904000  0.00704000  0.32845000  1.0
  C  C58  1  0.86096000  0.49296000  0.82845000  1.0
  C  C59  1  0.36096000  0.00703000  0.82844000  1.0
  C  C60  1  0.31667000  0.58569000  0.71607000  1.0
  C  C61  1  0.81668000  0.91431000  0.71607000  1.0
  C  C62  1  0.18332000  0.58569000  0.21607000  1.0
  C  C63  1  0.68332000  0.91431000  0.21607000  1.0
  C  C64  1  0.68332000  0.41431000  0.28393000  1.0
  C  C65  1  0.18332000  0.08569000  0.28393000  1.0
  C  C66  1  0.81668000  0.41431000  0.78393000  1.0
  C  C67  1  0.31668000  0.08568000  0.78393000  1.0
  C  C68  1  0.19001000  0.67330000  0.70634000  1.0
  C  C69  1  0.69002000  0.82670000  0.70633000  1.0
  C  C70  1  0.30998000  0.67330000  0.20634000  1.0
  C  C71  1  0.80998000  0.82670000  0.20634000  1.0
  C  C72  1  0.80998000  0.32670000  0.29367000  1.0
  C  C73  1  0.30998000  0.17330000  0.29366000  1.0
  C  C74  1  0.69002000  0.32669000  0.79366000  1.0
  C  C75  1  0.19001000  0.17330000  0.79366000  1.0
  C  C76  1  0.10861000  0.67841000  0.65177000  1.0
  C  C77  1  0.60861000  0.82159000  0.65177000  1.0
  C  C78  1  0.39139000  0.67841000  0.15177000  1.0
  C  C79  1  0.89139000  0.82159000  0.15177000  1.0
  C  C80  1  0.89139000  0.32159000  0.34823000  1.0
  C  C81  1  0.39139000  0.17841000  0.34823000  1.0
  C  C82  1  0.60861000  0.32159000  0.84823000  1.0
  C  C83  1  0.10861000  0.17841000  0.84823000  1.0
  C  C84  1  0.15371000  0.59732000  0.60850000  1.0
  C  C85  1  0.65371000  0.90268000  0.60850000  1.0
  C  C86  1  0.34629000  0.59732000  0.10850000  1.0
  C  C87  1  0.84630000  0.90268000  0.10850000  1.0
  C  C88  1  0.84629000  0.40268000  0.39150000  1.0
  C  C89  1  0.34630000  0.09732000  0.39150000  1.0
  C  C90  1  0.65370000  0.40267000  0.89150000  1.0
  C  C91  1  0.15371000  0.09732000  0.89150000  1.0
  N  N92  1  0.27842000  0.51459000  0.61899000  1.0
  N  N93  1  0.77842000  0.98541000  0.61899000  1.0
  N  N94  1  0.22158000  0.51459000  0.11899000  1.0
  N  N95  1  0.72158000  0.98541000  0.11899000  1.0
  N  N96  1  0.72158000  0.48541000  0.38101000  1.0
  N  N97  1  0.22158000  0.01459000  0.38101000  1.0
  N  N98  1  0.77842000  0.48541000  0.88101000  1.0
  N  N99  1  0.27842000  0.01459000  0.88101000  1.0
  Cl  Cl100  1  0.54087000  0.21691000  0.65767000  1.0
  Cl  Cl101  1  0.04087000  0.28309000  0.65767000  1.0
  Cl  Cl102  1  0.95913000  0.21691000  0.15768000  1.0
  Cl  Cl103  1  0.45913000  0.28309000  0.15768000  1.0
  Cl  Cl104  1  0.45913000  0.78309000  0.34233000  1.0
  Cl  Cl105  1  0.95913000  0.71691000  0.34233000  1.0
  Cl  Cl106  1  0.04087000  0.78309000  0.84233000  1.0
  Cl  Cl107  1  0.54087000  0.71691000  0.84233000  1.0
  Cl  Cl108  1  0.24650000  0.99865000  0.57815000  1.0
  Cl  Cl109  1  0.74650000  0.50135000  0.57815000  1.0
  Cl  Cl110  1  0.25350000  0.99865000  0.07815000  1.0
  Cl  Cl111  1  0.75350000  0.50136000  0.07815000  1.0
  Cl  Cl112  1  0.75350000  0.00136000  0.42185000  1.0
  Cl  Cl113  1  0.25350000  0.49865000  0.42185000  1.0
  Cl  Cl114  1  0.74650000  0.00135000  0.92185000  1.0
  Cl  Cl115  1  0.24650000  0.49865000  0.92185000  1.0
  Cl  Cl116  1  0.54136000  0.26198000  0.49837000  1.0
  Cl  Cl117  1  0.04135000  0.23803000  0.49837000  1.0
  Cl  Cl118  1  0.95864000  0.26197000  0.99837000  1.0
  Cl  Cl119  1  0.45865000  0.23803000  0.99837000  1.0
  Cl  Cl120  1  0.45865000  0.73803000  0.50163000  1.0
  Cl  Cl121  1  0.95864000  0.76197000  0.50163000  1.0
  Cl  Cl122  1  0.04135000  0.73803000  0.00163000  1.0
  Cl  Cl123  1  0.54136000  0.76197000  0.00163000  1.0
  O  O124  1  0.31949000  0.43843000  0.57588000  1.0
  O  O125  1  0.81949000  0.06157000  0.57587000  1.0
  O  O126  1  0.18051000  0.43843000  0.07587000  1.0
  O  O127  1  0.68051000  0.06157000  0.07587000  1.0
  O  O128  1  0.68051000  0.56157000  0.42413000  1.0
  O  O129  1  0.18052000  0.93843000  0.42413000  1.0
  O  O130  1  0.81949000  0.56157000  0.92412000  1.0
  O  O131  1  0.31949000  0.93843000  0.92413000  1.0
