# generated using pymatgen
data_NaHoH12(CO)12
_symmetry_space_group_name_H-M   'P 1'
_cell_length_a   6.83787000
_cell_length_b   7.45181000
_cell_length_c   15.60520000
_cell_angle_alpha   89.99990000
_cell_angle_beta   102.66100000
_cell_angle_gamma   90.00000000
_symmetry_Int_Tables_number   1
_chemical_formula_structural   NaHoH12(CO)12
_chemical_formula_sum   'Na2 Ho2 H24 C24 O24'
_cell_volume   775.82026312
_cell_formula_units_Z   2
loop_
 _symmetry_equiv_pos_site_id
 _symmetry_equiv_pos_as_xyz
  1  'x, y, z'
loop_
 _atom_site_type_symbol
 _atom_site_label
 _atom_site_symmetry_multiplicity
 _atom_site_fract_x
 _atom_site_fract_y
 _atom_site_fract_z
 _atom_site_occupancy
  Na  Na0  1  0.14097000  0.24991000  0.28208000  1.0
  Na  Na1  1  0.85903000  0.74991000  0.71792000  1.0
  Ho  Ho2  1  0.30415000  0.75016000  0.60833000  1.0
  Ho  Ho3  1  0.69585000  0.25016000  0.39167000  1.0
  H  H4  1  0.23702000  0.24951000  0.10362000  1.0
  H  H5  1  0.76298000  0.74951000  0.89638000  1.0
  H  H6  1  0.13384000  0.75025000  0.89628000  1.0
  H  H7  1  0.86616000  0.25026000  0.10373000  1.0
  H  H8  1  0.15510000  0.25503000  0.93974000  1.0
  H  H9  1  0.84491000  0.75503000  0.06026000  1.0
  H  H10  1  0.21547000  0.74474000  0.06016000  1.0
  H  H11  1  0.78454000  0.24475000  0.93985000  1.0
  H  H12  1  0.51422000  0.26823000  0.58391000  1.0
  H  H13  1  0.48577000  0.76822000  0.41609000  1.0
  H  H14  1  0.93023000  0.73207000  0.41605000  1.0
  H  H15  1  0.06976000  0.23208000  0.58396000  1.0
  H  H16  1  0.45686000  0.11417000  0.70020000  1.0
  H  H17  1  0.54314000  0.61417000  0.29979000  1.0
  H  H18  1  0.75651000  0.88606000  0.29980000  1.0
  H  H19  1  0.24349000  0.38606000  0.70020000  1.0
  H  H20  1  0.21304000  0.58605000  0.19575000  1.0
  H  H21  1  0.78696000  0.08605000  0.80425000  1.0
  H  H22  1  0.01738000  0.41368000  0.80418000  1.0
  H  H23  1  0.98262000  0.91367000  0.19583000  1.0
  H  H24  1  0.99073000  0.59830000  0.20838000  1.0
  H  H25  1  0.00926000  0.09830000  0.79162000  1.0
  H  H26  1  0.78241000  0.40141000  0.79156000  1.0
  H  H27  1  0.21759000  0.90142000  0.20844000  1.0
  C  C28  1  0.55642000  0.24988000  0.11324000  1.0
  C  C29  1  0.44358000  0.74988000  0.88676000  1.0
  C  C30  1  0.60531000  0.25001000  0.21077000  1.0
  C  C31  1  0.39469000  0.75001000  0.78923000  1.0
  C  C32  1  0.35574000  0.25057000  0.06718000  1.0
  C  C33  1  0.64427000  0.75056000  0.93282000  1.0
  C  C34  1  0.28895000  0.74923000  0.93278000  1.0
  C  C35  1  0.71106000  0.24923000  0.06722000  1.0
  C  C36  1  0.46466000  0.24991000  0.92955000  1.0
  C  C37  1  0.53536000  0.74992000  0.07045000  1.0
  C  C38  1  0.31053000  0.25282000  0.97591000  1.0
  C  C39  1  0.68948000  0.75282000  0.02409000  1.0
  C  C40  1  0.33484000  0.74702000  0.02405000  1.0
  C  C41  1  0.66517000  0.24702000  0.97595000  1.0
  C  C42  1  0.37694000  0.18656000  0.57372000  1.0
  C  C43  1  0.62305000  0.68656000  0.42628000  1.0
  C  C44  1  0.80312000  0.81368000  0.42626000  1.0
  C  C45  1  0.19687000  0.31369000  0.57374000  1.0
  C  C46  1  0.41565000  0.24998000  0.83144000  1.0
  C  C47  1  0.58436000  0.74998000  0.16856000  1.0
  C  C48  1  0.35330000  0.08704000  0.48688000  1.0
  C  C49  1  0.64670000  0.58703000  0.51312000  1.0
  C  C50  1  0.86644000  0.91319000  0.51308000  1.0
  C  C51  1  0.13354000  0.41319000  0.48692000  1.0
  O  O52  1  0.46529000  0.24238000  0.25343000  1.0
  O  O53  1  0.53471000  0.74237000  0.74656000  1.0
  O  O54  1  0.21198000  0.75782000  0.74660000  1.0
  O  O55  1  0.78801000  0.25781000  0.25340000  1.0
  O  O56  1  0.29029000  0.92750000  0.48384000  1.0
  O  O57  1  0.70968000  0.42750000  0.51616000  1.0
  O  O58  1  0.80667000  0.07277000  0.51612000  1.0
  O  O59  1  0.19333000  0.57279000  0.48389000  1.0
  O  O60  1  0.39373000  0.05514000  0.64160000  1.0
  O  O61  1  0.60627000  0.55514000  0.35840000  1.0
  O  O62  1  0.75188000  0.94510000  0.35838000  1.0
  O  O63  1  0.24812000  0.44511000  0.64162000  1.0
  O  O64  1  0.55266000  0.20858000  0.79047000  1.0
  O  O65  1  0.44735000  0.70858000  0.20953000  1.0
  O  O66  1  0.76230000  0.79140000  0.20957000  1.0
  O  O67  1  0.23771000  0.29141000  0.79043000  1.0
  O  O68  1  0.09457000  0.51421000  0.19995000  1.0
  O  O69  1  0.90542000  0.01421000  0.80004000  1.0
  O  O70  1  0.89468000  0.48551000  0.79993000  1.0
  O  O71  1  0.10532000  0.98551000  0.20007000  1.0
  O  O72  1  0.39692000  0.16941000  0.42194000  1.0
  O  O73  1  0.60307000  0.66942000  0.57806000  1.0
  O  O74  1  0.97488000  0.83070000  0.57804000  1.0
  O  O75  1  0.02512000  0.33072000  0.42196000  1.0
