# generated using pymatgen
data_Ag2H18C16S2N4O7
_symmetry_space_group_name_H-M   'P 1'
_cell_length_a   7.49895000
_cell_length_b   12.25970000
_cell_length_c   12.64200000
_cell_angle_alpha   113.05500000
_cell_angle_beta   105.68800000
_cell_angle_gamma   94.11290000
_symmetry_Int_Tables_number   1
_chemical_formula_structural   Ag2H18C16S2N4O7
_chemical_formula_sum   'Ag4 H36 C32 S4 N8 O14'
_cell_volume   1008.66751471
_cell_formula_units_Z   2
loop_
 _symmetry_equiv_pos_site_id
 _symmetry_equiv_pos_as_xyz
  1  'x, y, z'
loop_
 _atom_site_type_symbol
 _atom_site_label
 _atom_site_symmetry_multiplicity
 _atom_site_fract_x
 _atom_site_fract_y
 _atom_site_fract_z
 _atom_site_occupancy
  Ag  Ag0  1  0.51993000  0.53753000  0.76748000  1.0
  Ag  Ag1  1  0.48007000  0.46247000  0.23252000  1.0
  Ag  Ag2  1  0.82273000  0.44062000  0.66969000  1.0
  Ag  Ag3  1  0.17728000  0.55938000  0.33031000  1.0
  H  H4  1  0.23859000  0.06065000  0.34802000  1.0
  H  H5  1  0.76141000  0.93935000  0.65198000  1.0
  H  H6  1  0.17242000  0.85267000  0.33660000  1.0
  H  H7  1  0.82758000  0.14734000  0.66340000  1.0
  H  H8  1  0.20862000  0.82363000  0.52468000  1.0
  H  H9  1  0.79139000  0.17637000  0.47532000  1.0
  H  H10  1  0.30397000  0.00009000  0.72558000  1.0
  H  H11  1  0.69603000  0.99991000  0.27443000  1.0
  H  H12  1  0.17145000  0.90225000  0.83697000  1.0
  H  H13  1  0.82854000  0.09774000  0.16302000  1.0
  H  H14  1  0.18898000  0.12408000  0.88627000  1.0
  H  H15  1  0.81102000  0.87591000  0.11373000  1.0
  H  H16  1  0.91517000  0.21730000  0.91174000  1.0
  H  H17  1  0.08484000  0.78270000  0.08826000  1.0
  H  H18  1  0.61627000  0.09682000  0.89192000  1.0
  H  H19  1  0.38373000  0.90318000  0.10808000  1.0
  H  H20  1  0.79530000  0.51479000  0.95495000  1.0
  H  H21  1  0.20471000  0.48521000  0.04505000  1.0
  H  H22  1  0.99523000  0.59339000  0.94652000  1.0
  H  H23  1  0.00477000  0.40661000  0.05349000  1.0
  H  H24  1  0.82638000  0.33543000  0.81866000  1.0
  H  H25  1  0.17363000  0.66457000  0.18134000  1.0
  H  H26  1  0.04634000  0.38425000  0.82984000  1.0
  H  H27  1  0.95366000  0.61575000  0.17016000  1.0
  H  H28  1  0.65103000  0.37529000  0.43376000  1.0
  H  H29  1  0.34897000  0.62471000  0.56624000  1.0
  H  H30  1  0.69782000  0.52541000  0.50439000  1.0
  H  H31  1  0.30218000  0.47459000  0.49561000  1.0
  H  H32  1  0.87370000  0.47641000  0.37232000  1.0
  H  H33  1  0.12630000  0.52360000  0.62769000  1.0
  H  H34  1  0.94832000  0.36303000  0.41737000  1.0
  H  H35  1  0.05168000  0.63697000  0.58263000  1.0
  H  H36  1  0.35150000  0.64943000  0.96776000  1.0
  H  H37  1  0.64850000  0.35057000  0.03224000  1.0
  H  H38  1  0.19566000  0.64639000  0.85537000  1.0
  H  H39  1  0.80435000  0.35361000  0.14463000  1.0
  C  C40  1  0.34879000  0.27673000  0.56944000  1.0
  C  C41  1  0.65121000  0.72327000  0.43056000  1.0
  C  C42  1  0.30462000  0.14580000  0.54216000  1.0
  C  C43  1  0.69538000  0.85420000  0.45784000  1.0
  C  C44  1  0.25132000  0.04687000  0.42937000  1.0
  C  C45  1  0.74868000  0.95313000  0.57063000  1.0
  C  C46  1  0.21595000  0.93109000  0.42439000  1.0
  C  C47  1  0.78405000  0.06891000  0.57561000  1.0
  C  C48  1  0.23471000  0.91460000  0.53000000  1.0
  C  C49  1  0.76530000  0.08540000  0.47001000  1.0
  C  C50  1  0.28909000  0.01382000  0.64398000  1.0
  C  C51  1  0.71091000  0.98618000  0.35603000  1.0
  C  C52  1  0.32277000  0.12786000  0.64673000  1.0
  C  C53  1  0.67723000  0.87214000  0.35327000  1.0
  C  C54  1  0.84296000  0.74761000  0.81125000  1.0
  C  C55  1  0.15703000  0.25239000  0.18875000  1.0
  C  C56  1  0.88309000  0.87763000  0.83486000  1.0
  C  C57  1  0.11690000  0.12237000  0.16513000  1.0
  C  C58  1  0.05074000  0.94502000  0.84671000  1.0
  C  C59  1  0.94925000  0.05497000  0.15328000  1.0
  C  C60  1  0.05899000  0.06776000  0.87341000  1.0
  C  C61  1  0.94101000  0.93224000  0.12659000  1.0
  C  C62  1  0.90349000  0.12112000  0.88812000  1.0
  C  C63  1  0.09651000  0.87887000  0.11187000  1.0
  C  C64  1  0.73445000  0.05412000  0.87637000  1.0
  C  C65  1  0.26555000  0.94588000  0.12363000  1.0
  C  C66  1  0.72926000  0.93267000  0.84934000  1.0
  C  C67  1  0.27074000  0.06733000  0.15065000  1.0
  C  C68  1  0.93704000  0.50901000  0.94677000  1.0
  C  C69  1  0.06296000  0.49099000  0.05323000  1.0
  C  C70  1  0.91434000  0.45349000  0.45077000  1.0
  C  C71  1  0.08566000  0.54652000  0.54923000  1.0
  S  S72  1  0.39199000  0.27210000  0.77188000  1.0
  S  S73  1  0.60801000  0.72790000  0.22812000  1.0
  S  S74  1  0.54539000  0.82301000  0.83349000  1.0
  S  S75  1  0.45460000  0.17699000  0.16651000  1.0
  N  N76  1  0.91730000  0.40799000  0.82882000  1.0
  N  N77  1  0.08270000  0.59201000  0.17118000  1.0
  N  N78  1  0.75358000  0.44919000  0.49702000  1.0
  N  N79  1  0.24643000  0.55081000  0.50299000  1.0
  N  N80  1  0.39824000  0.34961000  0.69218000  1.0
  N  N81  1  0.60177000  0.65039000  0.30782000  1.0
  N  N82  1  0.66480000  0.71207000  0.80956000  1.0
  N  N83  1  0.33519000  0.28793000  0.19044000  1.0
  O  O84  1  0.34299000  0.31523000  0.49132000  1.0
  O  O85  1  0.65700000  0.68476000  0.50868000  1.0
  O  O86  1  0.58113000  0.28736000  0.85427000  1.0
  O  O87  1  0.41887000  0.71264000  0.14573000  1.0
  O  O88  1  0.24860000  0.29654000  0.83114000  1.0
  O  O89  1  0.75141000  0.70346000  0.16886000  1.0
  O  O90  1  0.96014000  0.68043000  0.79658000  1.0
  O  O91  1  0.03985000  0.31957000  0.20343000  1.0
  O  O92  1  0.38411000  0.79452000  0.72539000  1.0
  O  O93  1  0.61588000  0.20548000  0.27461000  1.0
  O  O94  1  0.50376000  0.85509000  0.94612000  1.0
  O  O95  1  0.49624000  0.14491000  0.05389000  1.0
  O  O96  1  0.28394000  0.59910000  0.88131000  1.0
  O  O97  1  0.71606000  0.40090000  0.11870000  1.0
