# generated using pymatgen
data_AlH7C14S6O23
_symmetry_space_group_name_H-M   'P 1'
_cell_length_a   7.24398000
_cell_length_b   18.16970000
_cell_length_c   24.16560000
_cell_angle_alpha   90.00580000
_cell_angle_beta   89.99460000
_cell_angle_gamma   89.86290000
_symmetry_Int_Tables_number   1
_chemical_formula_structural   AlH7C14S6O23
_chemical_formula_sum   'Al4 H28 C56 S24 O92'
_cell_volume   3180.68993359
_cell_formula_units_Z   4
loop_
 _symmetry_equiv_pos_site_id
 _symmetry_equiv_pos_as_xyz
  1  'x, y, z'
loop_
 _atom_site_type_symbol
 _atom_site_label
 _atom_site_symmetry_multiplicity
 _atom_site_fract_x
 _atom_site_fract_y
 _atom_site_fract_z
 _atom_site_occupancy
  Al  Al0  1  0.90177000  0.74903000  0.75094000  1.0
  Al  Al1  1  0.09822000  0.25100000  0.25096000  1.0
  Al  Al2  1  0.40205000  0.74895000  0.74918000  1.0
  Al  Al3  1  0.59795000  0.25108000  0.24927000  1.0
  H  H4  1  0.41417000  0.58089000  0.39126000  1.0
  H  H5  1  0.86436000  0.39735000  0.63373000  1.0
  H  H6  1  0.58629000  0.41780000  0.89109000  1.0
  H  H7  1  0.13655000  0.60273000  0.13303000  1.0
  H  H8  1  0.62028000  0.90080000  0.12996000  1.0
  H  H9  1  0.35764000  0.10438000  0.86702000  1.0
  H  H10  1  0.37815000  0.09954000  0.63033000  1.0
  H  H11  1  0.64101000  0.89601000  0.36732000  1.0
  H  H12  1  0.86017000  0.68229000  0.42938000  1.0
  H  H13  1  0.10840000  0.31601000  0.56830000  1.0
  H  H14  1  0.14015000  0.31672000  0.92953000  1.0
  H  H15  1  0.89168000  0.68376000  0.06734000  1.0
  H  H16  1  0.34425000  0.82056000  0.06474000  1.0
  H  H17  1  0.62288000  0.18308000  0.93100000  1.0
  H  H18  1  0.65387000  0.17993000  0.56510000  1.0
  H  H19  1  0.37697000  0.81721000  0.43139000  1.0
  H  H20  1  0.19508000  0.39142000  0.36052000  1.0
  H  H21  1  0.44978000  0.59919000  0.52273000  1.0
  H  H22  1  0.80494000  0.60728000  0.86000000  1.0
  H  H23  1  0.55072000  0.40013000  0.02261000  1.0
  H  H24  1  0.70695000  0.10526000  0.13774000  1.0
  H  H25  1  0.95237000  0.89973000  0.98213000  1.0
  H  H26  1  0.29213000  0.89522000  0.63805000  1.0
  H  H27  1  0.04633000  0.10077000  0.48244000  1.0
  H  H28  1  0.65392000  0.65760000  0.72536000  1.0
  H  H29  1  0.34630000  0.34259000  0.22571000  1.0
  H  H30  1  0.15157000  0.84030000  0.77491000  1.0
  H  H31  1  0.84853000  0.15958000  0.27468000  1.0
  C  C32  1  0.65412000  0.83155000  0.67596000  1.0
  C  C33  1  0.34971000  0.17572000  0.32743000  1.0
  C  C34  1  0.34592000  0.16878000  0.17581000  1.0
  C  C35  1  0.65009000  0.82409000  0.82750000  1.0
  C  C36  1  0.15556000  0.66640000  0.82418000  1.0
  C  C37  1  0.84763000  0.32622000  0.17286000  1.0
  C  C38  1  0.84450000  0.33317000  0.32456000  1.0
  C  C39  1  0.15242000  0.67401000  0.67270000  1.0
  C  C40  1  0.88068000  0.53532000  0.46433000  1.0
  C  C41  1  0.09148000  0.45960000  0.53976000  1.0
  C  C42  1  0.11995000  0.46382000  0.96404000  1.0
  C  C43  1  0.90921000  0.53989000  0.03933000  1.0
  C  C44  1  0.38293000  0.96596000  0.03640000  1.0
  C  C45  1  0.59075000  0.03966000  0.95944000  1.0
  C  C46  1  0.61580000  0.03446000  0.53670000  1.0
  C  C47  1  0.40804000  0.96064000  0.45979000  1.0
  C  C48  1  0.09201000  0.55031000  0.47631000  1.0
  C  C49  1  0.87969000  0.44462000  0.52741000  1.0
  C  C50  1  0.90867000  0.44886000  0.97610000  1.0
  C  C51  1  0.12096000  0.55482000  0.02689000  1.0
  C  C52  1  0.59276000  0.94921000  0.02268000  1.0
  C  C53  1  0.38077000  0.05663000  0.97331000  1.0
  C  C54  1  0.40592000  0.05122000  0.52298000  1.0
  C  C55  1  0.61806000  0.94375000  0.47362000  1.0
  C  C56  1  0.14124000  0.63076000  0.62311000  1.0
  C  C57  1  0.84381000  0.37029000  0.37696000  1.0
  C  C58  1  0.85903000  0.36920000  0.12315000  1.0
  C  C59  1  0.15641000  0.62890000  0.87643000  1.0
  C  C60  1  0.63817000  0.86799000  0.87678000  1.0
  C  C61  1  0.34904000  0.13103000  0.12356000  1.0
  C  C62  1  0.36135000  0.13203000  0.37682000  1.0
  C  C63  1  0.65068000  0.86939000  0.62378000  1.0
  C  C64  1  0.84007000  0.53027000  0.52865000  1.0
  C  C65  1  0.13200000  0.46437000  0.47562000  1.0
  C  C66  1  0.16059000  0.46917000  0.02833000  1.0
  C  C67  1  0.86860000  0.53478000  0.97521000  1.0
  C  C68  1  0.33691000  0.97120000  0.97242000  1.0
  C  C69  1  0.63690000  0.03463000  0.02320000  1.0
  C  C70  1  0.66172000  0.02922000  0.47270000  1.0
  C  C71  1  0.36195000  0.96578000  0.52355000  1.0
  C  C72  1  0.05186000  0.54502000  0.54060000  1.0
  C  C73  1  0.92118000  0.44976000  0.46350000  1.0
  C  C74  1  0.94880000  0.45444000  0.04037000  1.0
  C  C75  1  0.07933000  0.54936000  0.96299000  1.0
  C  C76  1  0.54744000  0.95470000  0.95888000  1.0
  C  C77  1  0.42739000  0.05106000  0.03694000  1.0
  C  C78  1  0.45124000  0.04563000  0.45916000  1.0
  C  C79  1  0.57147000  0.94935000  0.53724000  1.0
  C  C80  1  0.11146000  0.59282000  0.58292000  1.0
  C  C81  1  0.86412000  0.40343000  0.42000000  1.0
  C  C82  1  0.88905000  0.40684000  0.08282000  1.0
  C  C83  1  0.13594000  0.59559000  0.91939000  1.0
  C  C84  1  0.60517000  0.90636000  0.91656000  1.0
  C  C85  1  0.37323000  0.09767000  0.08074000  1.0
  C  C86  1  0.39365000  0.09384000  0.41674000  1.0
  C  C87  1  0.62574000  0.90275000  0.58101000  1.0
  S  S88  1  0.21219000  0.62878000  0.44667000  1.0
  S  S89  1  0.76800000  0.36310000  0.55483000  1.0
  S  S90  1  0.78841000  0.37029000  0.94663000  1.0
  S  S91  1  0.23275000  0.63651000  0.05401000  1.0
  S  S92  1  0.69881000  0.86703000  0.05054000  1.0
  S  S93  1  0.27319000  0.13970000  0.94658000  1.0
  S  S94  1  0.29966000  0.13337000  0.55091000  1.0
  S  S95  1  0.72607000  0.86074000  0.44684000  1.0
  S  S96  1  0.77609000  0.57709000  0.40364000  1.0
  S  S97  1  0.20628000  0.41800000  0.59913000  1.0
  S  S98  1  0.22435000  0.42168000  0.90345000  1.0
  S  S99  1  0.79420000  0.58191000  0.09854000  1.0
  S  S100  1  0.27287000  0.92539000  0.09723000  1.0
  S  S101  1  0.70552000  0.07968000  0.89953000  1.0
  S  S102  1  0.72569000  0.07509000  0.59756000  1.0
  S  S103  1  0.29335000  0.92050000  0.39995000  1.0
  S  S104  1  0.30662000  0.41152000  0.44182000  1.0
  S  S105  1  0.69005000  0.58345000  0.57163000  1.0
  S  S106  1  0.69367000  0.58736000  0.94131000  1.0
  S  S107  1  0.31044000  0.41614000  0.07147000  1.0
  S  S108  1  0.81477000  0.08613000  0.05641000  1.0
  S  S109  1  0.18481000  0.91729000  0.93070000  1.0
  S  S110  1  0.18418000  0.91437000  0.55680000  1.0
  S  S111  1  0.81382000  0.08324000  0.43103000  1.0
  O  O112  1  0.49355000  0.80767000  0.80704000  1.0
  O  O113  1  0.50785000  0.18133000  0.19514000  1.0
  O  O114  1  0.50629000  0.19199000  0.30693000  1.0
  O  O115  1  0.49218000  0.81894000  0.69533000  1.0
  O  O116  1  0.99614000  0.68926000  0.69389000  1.0
  O  O117  1  0.00787000  0.32021000  0.30621000  1.0
  O  O118  1  0.00389000  0.31109000  0.19414000  1.0
  O  O119  1  0.99213000  0.67950000  0.80593000  1.0
  O  O120  1  0.81093000  0.81688000  0.69646000  1.0
  O  O121  1  0.18933000  0.19212000  0.30965000  1.0
  O  O122  1  0.18917000  0.18342000  0.19636000  1.0
  O  O123  1  0.81054000  0.80772000  0.80974000  1.0
  O  O124  1  0.31095000  0.68033000  0.80262000  1.0
  O  O125  1  0.68710000  0.30924000  0.19012000  1.0
  O  O126  1  0.68909000  0.31945000  0.30293000  1.0
  O  O127  1  0.31292000  0.69103000  0.68992000  1.0
  O  O128  1  0.65231000  0.70290000  0.74692000  1.0
  O  O129  1  0.34775000  0.29717000  0.24715000  1.0
  O  O130  1  0.15088000  0.79496000  0.75340000  1.0
  O  O131  1  0.84909000  0.20502000  0.25330000  1.0
  O  O132  1  0.07700000  0.68622000  0.43927000  1.0
  O  O133  1  0.36526000  0.64865000  0.48210000  1.0
  O  O134  1  0.28158000  0.60347000  0.38988000  1.0
  O  O135  1  0.59343000  0.34870000  0.53070000  1.0
  O  O136  1  0.91110000  0.30717000  0.54654000  1.0
  O  O137  1  0.74115000  0.38028000  0.61716000  1.0
  O  O138  1  0.92352000  0.31279000  0.93936000  1.0
  O  O139  1  0.63528000  0.35061000  0.98209000  1.0
  O  O140  1  0.71901000  0.39536000  0.88978000  1.0
  O  O141  1  0.40725000  0.65079000  0.02979000  1.0
  O  O142  1  0.08966000  0.69240000  0.04567000  1.0
  O  O143  1  0.25982000  0.61957000  0.11638000  1.0
  O  O144  1  0.55663000  0.81165000  0.04529000  1.0
  O  O145  1  0.87175000  0.84979000  0.02419000  1.0
  O  O146  1  0.74291000  0.88558000  0.11145000  1.0
  O  O147  1  0.10263000  0.15761000  0.97216000  1.0
  O  O148  1  0.42230000  0.19315000  0.95263000  1.0
  O  O149  1  0.23678000  0.12169000  0.88470000  1.0
  O  O150  1  0.44165000  0.18883000  0.54562000  1.0
  O  O151  1  0.12663000  0.15056000  0.52460000  1.0
  O  O152  1  0.25559000  0.11481000  0.61182000  1.0
  O  O153  1  0.89689000  0.84309000  0.47234000  1.0
  O  O154  1  0.57745000  0.80709000  0.45295000  1.0
  O  O155  1  0.76201000  0.87877000  0.38495000  1.0
  O  O156  1  0.91680000  0.56895000  0.36247000  1.0
  O  O157  1  0.59667000  0.54649000  0.39160000  1.0
  O  O158  1  0.73708000  0.65815000  0.42110000  1.0
  O  O159  1  0.38142000  0.44938000  0.61023000  1.0
  O  O160  1  0.06455000  0.42557000  0.64191000  1.0
  O  O161  1  0.23266000  0.33640000  0.58213000  1.0
  O  O162  1  0.08344000  0.42954000  0.86232000  1.0
  O  O163  1  0.40372000  0.45221000  0.89123000  1.0
  O  O164  1  0.26335000  0.34075000  0.92118000  1.0
  O  O165  1  0.61916000  0.55049000  0.10972000  1.0
  O  O166  1  0.93577000  0.57487000  0.14139000  1.0
  O  O167  1  0.76748000  0.66339000  0.08117000  1.0
  O  O168  1  0.42184000  0.92709000  0.13813000  1.0
  O  O169  1  0.10468000  0.95981000  0.11255000  1.0
  O  O170  1  0.22803000  0.84535000  0.07885000  1.0
  O  O171  1  0.87636000  0.04492000  0.88742000  1.0
  O  O172  1  0.56053000  0.07583000  0.85758000  1.0
  O  O173  1  0.74366000  0.16034000  0.91700000  1.0
  O  O174  1  0.57669000  0.07316000  0.63847000  1.0
  O  O175  1  0.89411000  0.04083000  0.61288000  1.0
  O  O176  1  0.77012000  0.15520000  0.57925000  1.0
  O  O177  1  0.12228000  0.95512000  0.38793000  1.0
  O  O178  1  0.43813000  0.92444000  0.35793000  1.0
  O  O179  1  0.25591000  0.83981000  0.41746000  1.0
  O  O180  1  0.47622000  0.44579000  0.45685000  1.0
  O  O181  1  0.26424000  0.33579000  0.45227000  1.0
  O  O182  1  0.27265000  0.42964000  0.37821000  1.0
  O  O183  1  0.71477000  0.55571000  0.62661000  1.0
  O  O184  1  0.72868000  0.65890000  0.55783000  1.0
  O  O185  1  0.49704000  0.56074000  0.55019000  1.0
  O  O186  1  0.52436000  0.55294000  0.95649000  1.0
  O  O187  1  0.73554000  0.66321000  0.95154000  1.0
  O  O188  1  0.72747000  0.56904000  0.87771000  1.0
  O  O189  1  0.28555000  0.44411000  0.12637000  1.0
  O  O190  1  0.27183000  0.34064000  0.05781000  1.0
  O  O191  1  0.50355000  0.43867000  0.05002000  1.0
  O  O192  1  0.98418000  0.05277000  0.03998000  1.0
  O  O193  1  0.77080000  0.16225000  0.04765000  1.0
  O  O194  1  0.78125000  0.06614000  0.11991000  1.0
  O  O195  1  0.20398000  0.94499000  0.87555000  1.0
  O  O196  1  0.22899000  0.84221000  0.94445000  1.0
  O  O197  1  0.99119000  0.93780000  0.95339000  1.0
  O  O198  1  0.01491000  0.94782000  0.54035000  1.0
  O  O199  1  0.22792000  0.83822000  0.54809000  1.0
  O  O200  1  0.21779000  0.93438000  0.62030000  1.0
  O  O201  1  0.79467000  0.05567000  0.37585000  1.0
  O  O202  1  0.76951000  0.15828000  0.44487000  1.0
  O  O203  1  0.00744000  0.06274000  0.45368000  1.0
