# generated using pymatgen
data_InH14C25(NO3)3
_symmetry_space_group_name_H-M   'P 1'
_cell_length_a   17.50760000
_cell_length_b   18.00490000
_cell_length_c   18.47750000
_cell_angle_alpha   89.99990000
_cell_angle_beta   90.00000000
_cell_angle_gamma   101.61900000
_symmetry_Int_Tables_number   1
_chemical_formula_structural   InH14C25(NO3)3
_chemical_formula_sum   'In8 H112 C200 N24 O72'
_cell_volume   5705.17218628
_cell_formula_units_Z   8
loop_
 _symmetry_equiv_pos_site_id
 _symmetry_equiv_pos_as_xyz
  1  'x, y, z'
loop_
 _atom_site_type_symbol
 _atom_site_label
 _atom_site_symmetry_multiplicity
 _atom_site_fract_x
 _atom_site_fract_y
 _atom_site_fract_z
 _atom_site_occupancy
  In  In0  1  0.91481000  0.78855000  0.95421000  1.0
  In  In1  1  0.58519000  0.71145000  0.45421000  1.0
  In  In2  1  0.08519000  0.21147000  0.04578000  1.0
  In  In3  1  0.41481000  0.28853000  0.54578000  1.0
  In  In4  1  0.03336000  0.67966000  0.45338000  1.0
  In  In5  1  0.46664000  0.82034000  0.95338000  1.0
  In  In6  1  0.96664000  0.32034000  0.54662000  1.0
  In  In7  1  0.53336000  0.17966000  0.04662000  1.0
  H  H8  1  0.67401000  0.83441000  0.83216000  1.0
  H  H9  1  0.82599000  0.66559000  0.33216000  1.0
  H  H10  1  0.32599000  0.16559000  0.16784000  1.0
  H  H11  1  0.17401000  0.33441000  0.66784000  1.0
  H  H12  1  0.88199000  0.00778000  0.82193000  1.0
  H  H13  1  0.61801000  0.49221000  0.32193000  1.0
  H  H14  1  0.11801000  0.99222000  0.17808000  1.0
  H  H15  1  0.38199000  0.50778000  0.67808000  1.0
  H  H16  1  0.60271000  0.91472000  0.75764000  1.0
  H  H17  1  0.89729000  0.58528000  0.25764000  1.0
  H  H18  1  0.39729000  0.08528000  0.24235000  1.0
  H  H19  1  0.10271000  0.41472000  0.74236000  1.0
  H  H20  1  0.58796000  0.11785000  0.61695000  1.0
  H  H21  1  0.91204000  0.38215000  0.11695000  1.0
  H  H22  1  0.41204000  0.88215000  0.38305000  1.0
  H  H23  1  0.08796000  0.61785000  0.88305000  1.0
  H  H24  1  0.63629000  0.08053000  0.84180000  1.0
  H  H25  1  0.86371000  0.41947000  0.34180000  1.0
  H  H26  1  0.36371000  0.91948000  0.15820000  1.0
  H  H27  1  0.13629000  0.58052000  0.65820000  1.0
  H  H28  1  0.48148000  0.22913000  0.78433000  1.0
  H  H29  1  0.01852000  0.27087000  0.28432000  1.0
  H  H30  1  0.51852000  0.77087000  0.21567000  1.0
  H  H31  1  0.98148000  0.72913000  0.71567000  1.0
  H  H32  1  0.81009000  0.88821000  0.15900000  1.0
  H  H33  1  0.68991000  0.61179000  0.65900000  1.0
  H  H34  1  0.18991000  0.11179000  0.84100000  1.0
  H  H35  1  0.31009000  0.38821000  0.34100000  1.0
  H  H36  1  0.96908000  0.74272000  0.21451000  1.0
  H  H37  1  0.53092000  0.75728000  0.71451000  1.0
  H  H38  1  0.03092000  0.25728000  0.78549000  1.0
  H  H39  1  0.46908000  0.24272000  0.28549000  1.0
  H  H40  1  0.86493000  0.85484000  0.38250000  1.0
  H  H41  1  0.63507000  0.64516000  0.88250000  1.0
  H  H42  1  0.13507000  0.14516000  0.61750000  1.0
  H  H43  1  0.36493000  0.35484000  0.11750000  1.0
  H  H44  1  0.64889000  0.87634000  0.24542000  1.0
  H  H45  1  0.85111000  0.62366000  0.74543000  1.0
  H  H46  1  0.35111000  0.12366000  0.75458000  1.0
  H  H47  1  0.14889000  0.37634000  0.25458000  1.0
  H  H48  1  0.57474000  0.95127000  0.16742000  1.0
  H  H49  1  0.92526000  0.54873000  0.66742000  1.0
  H  H50  1  0.42526000  0.04873000  0.83258000  1.0
  H  H51  1  0.07474000  0.45127000  0.33258000  1.0
  H  H52  1  0.76778000  0.14155000  0.17546000  1.0
  H  H53  1  0.73222000  0.35845000  0.67546000  1.0
  H  H54  1  0.23222000  0.85845000  0.82455000  1.0
  H  H55  1  0.26778000  0.64155000  0.32455000  1.0
  H  H56  1  0.23289000  0.21038000  0.53053000  1.0
  H  H57  1  0.26711000  0.28962000  0.03052000  1.0
  H  H58  1  0.76711000  0.78962000  0.46947000  1.0
  H  H59  1  0.73289000  0.71038000  0.96947000  1.0
  H  H60  1  0.43155000  0.12133000  0.50781000  1.0
  H  H61  1  0.06845000  0.37867000  0.00781000  1.0
  H  H62  1  0.56845000  0.87867000  0.49219000  1.0
  H  H63  1  0.93155000  0.62133000  0.99219000  1.0
  H  H64  1  0.14596000  0.08529000  0.50462000  1.0
  H  H65  1  0.35405000  0.41471000  0.00462000  1.0
  H  H66  1  0.85404000  0.91471000  0.49538000  1.0
  H  H67  1  0.64596000  0.58529000  0.99538000  1.0
  H  H68  1  0.35355000  0.99088000  0.48636000  1.0
  H  H69  1  0.14645000  0.50912000  0.98636000  1.0
  H  H70  1  0.64645000  0.00912000  0.51364000  1.0
  H  H71  1  0.85355000  0.49088000  0.01364000  1.0
  H  H72  1  0.27275000  0.91374000  0.40609000  1.0
  H  H73  1  0.22725000  0.58626000  0.90609000  1.0
  H  H74  1  0.72725000  0.08626000  0.59391000  1.0
  H  H75  1  0.77275000  0.41374000  0.09391000  1.0
  H  H76  1  0.10283000  0.96298000  0.55963000  1.0
  H  H77  1  0.39718000  0.53703000  0.05963000  1.0
  H  H78  1  0.89717000  0.03703000  0.44038000  1.0
  H  H79  1  0.60282000  0.46297000  0.94037000  1.0
  H  H80  1  0.19340000  0.78265000  0.39670000  1.0
  H  H81  1  0.30660000  0.71735000  0.89670000  1.0
  H  H82  1  0.80660000  0.21735000  0.60330000  1.0
  H  H83  1  0.69340000  0.28265000  0.10330000  1.0
  H  H84  1  0.02947000  0.83024000  0.54156000  1.0
  H  H85  1  0.47053000  0.66976000  0.04156000  1.0
  H  H86  1  0.97053000  0.16976000  0.45844000  1.0
  H  H87  1  0.52947000  0.33024000  0.95844000  1.0
  H  H88  1  0.08080000  0.78286000  0.02054000  1.0
  H  H89  1  0.41920000  0.71714000  0.52054000  1.0
  H  H90  1  0.91920000  0.21714000  0.97946000  1.0
  H  H91  1  0.58080000  0.28286000  0.47946000  1.0
  H  H92  1  0.00385000  0.96087000  0.92252000  1.0
  H  H93  1  0.49615000  0.53913000  0.42252000  1.0
  H  H94  1  0.99615000  0.03913000  0.07748000  1.0
  H  H95  1  0.50385000  0.46087000  0.57748000  1.0
  H  H96  1  0.21331000  0.85990000  0.03864000  1.0
  H  H97  1  0.28669000  0.64010000  0.53865000  1.0
  H  H98  1  0.78669000  0.14010000  0.96136000  1.0
  H  H99  1  0.71331000  0.35990000  0.46136000  1.0
  H  H100  1  0.13132000  0.04770000  0.93958000  1.0
  H  H101  1  0.36868000  0.45230000  0.43958000  1.0
  H  H102  1  0.86868000  0.95230000  0.06042000  1.0
  H  H103  1  0.63132000  0.54770000  0.56042000  1.0
  H  H104  1  0.23283000  0.11727000  0.96602000  1.0
  H  H105  1  0.26717000  0.38272000  0.46602000  1.0
  H  H106  1  0.76717000  0.88273000  0.03398000  1.0
  H  H107  1  0.73283000  0.61728000  0.53398000  1.0
  H  H108  1  0.32189000  0.92057000  0.03622000  1.0
  H  H109  1  0.17811000  0.57943000  0.53622000  1.0
  H  H110  1  0.67811000  0.07943000  0.96378000  1.0
  H  H111  1  0.82189000  0.42057000  0.46378000  1.0
  H  H112  1  0.44741000  0.00514000  0.05684000  1.0
  H  H113  1  0.05259000  0.49486000  0.55685000  1.0
  H  H114  1  0.55259000  0.99486000  0.94315000  1.0
  H  H115  1  0.94741000  0.50514000  0.44316000  1.0
  H  H116  1  0.36525000  0.19304000  0.98708000  1.0
  H  H117  1  0.13475000  0.30696000  0.48708000  1.0
  H  H118  1  0.63475000  0.80696000  0.01292000  1.0
  H  H119  1  0.86525000  0.69304000  0.51292000  1.0
  C  C120  1  0.82276000  0.86745000  0.87781000  1.0
  C  C121  1  0.67724000  0.63255000  0.37781000  1.0
  C  C122  1  0.17724000  0.13255000  0.12219000  1.0
  C  C123  1  0.32276000  0.36745000  0.62219000  1.0
  C  C124  1  0.78149000  0.91615000  0.83287000  1.0
  C  C125  1  0.71851000  0.58385000  0.33287000  1.0
  C  C126  1  0.21851000  0.08385000  0.16713000  1.0
  C  C127  1  0.28149000  0.41615000  0.66713000  1.0
  C  C128  1  0.70303000  0.89052000  0.81429000  1.0
  C  C129  1  0.79698000  0.60948000  0.31429000  1.0
  C  C130  1  0.29698000  0.10948000  0.18571000  1.0
  C  C131  1  0.20302000  0.39052000  0.68571000  1.0
  C  C132  1  0.82066000  0.98724000  0.80915000  1.0
  C  C133  1  0.67934000  0.51276000  0.30915000  1.0
  C  C134  1  0.17934000  0.01276000  0.19086000  1.0
  C  C135  1  0.32066000  0.48724000  0.69086000  1.0
  C  C136  1  0.66342000  0.93523000  0.77298000  1.0
  C  C137  1  0.83658000  0.56477000  0.27298000  1.0
  C  C138  1  0.33658000  0.06477000  0.22702000  1.0
  C  C139  1  0.16342000  0.43523000  0.72702000  1.0
  C  C140  1  0.78067000  0.03245000  0.76874000  1.0
  C  C141  1  0.71933000  0.46755000  0.26874000  1.0
  C  C142  1  0.21933000  0.96755000  0.23126000  1.0
  C  C143  1  0.28067000  0.53245000  0.73127000  1.0
  C  C144  1  0.70186000  0.00685000  0.74989000  1.0
  C  C145  1  0.79814000  0.49315000  0.24989000  1.0
  C  C146  1  0.29814000  0.99315000  0.25012000  1.0
  C  C147  1  0.20186000  0.50685000  0.75012000  1.0
  C  C148  1  0.61680000  0.09349000  0.72725000  1.0
  C  C149  1  0.88320000  0.40651000  0.22725000  1.0
  C  C150  1  0.38320000  0.90651000  0.27275000  1.0
  C  C151  1  0.11680000  0.59349000  0.77275000  1.0
  C  C152  1  0.57918000  0.12786000  0.67421000  1.0
  C  C153  1  0.92082000  0.37214000  0.17421000  1.0
  C  C154  1  0.42082000  0.87214000  0.32579000  1.0
  C  C155  1  0.07918000  0.62786000  0.82580000  1.0
  C  C156  1  0.53006000  0.17641000  0.69500000  1.0
  C  C157  1  0.96995000  0.32359000  0.19500000  1.0
  C  C158  1  0.46995000  0.82359000  0.30500000  1.0
  C  C159  1  0.03005000  0.67641000  0.80500000  1.0
  C  C160  1  0.49033000  0.21358000  0.63855000  1.0
  C  C161  1  0.00967000  0.28642000  0.13855000  1.0
  C  C162  1  0.50967000  0.78642000  0.36145000  1.0
  C  C163  1  0.99033000  0.71358000  0.86145000  1.0
  C  C164  1  0.60644000  0.10696000  0.80044000  1.0
  C  C165  1  0.89356000  0.39304000  0.30044000  1.0
  C  C166  1  0.39356000  0.89304000  0.19956000  1.0
  C  C167  1  0.10644000  0.60696000  0.69956000  1.0
  C  C168  1  0.51874000  0.19049000  0.76811000  1.0
  C  C169  1  0.98126000  0.30951000  0.26811000  1.0
  C  C170  1  0.48126000  0.80950000  0.23189000  1.0
  C  C171  1  0.01874000  0.69049000  0.73189000  1.0
  C  C172  1  0.55700000  0.15578000  0.82055000  1.0
  C  C173  1  0.94301000  0.34422000  0.32054000  1.0
  C  C174  1  0.44300000  0.84422000  0.17945000  1.0
  C  C175  1  0.05700000  0.65578000  0.67946000  1.0
  C  C176  1  0.54376000  0.17132000  0.89831000  1.0
  C  C177  1  0.95624000  0.32868000  0.39831000  1.0
  C  C178  1  0.45624000  0.82868000  0.10169000  1.0
  C  C179  1  0.04376000  0.67132000  0.60169000  1.0
  C  C180  1  0.90287000  0.79908000  0.10110000  1.0
  C  C181  1  0.59713000  0.70092000  0.60110000  1.0
  C  C182  1  0.09713000  0.20092000  0.89890000  1.0
  C  C183  1  0.40287000  0.29908000  0.39890000  1.0
  C  C184  1  0.89071000  0.81385000  0.17913000  1.0
  C  C185  1  0.60929000  0.68615000  0.67913000  1.0
  C  C186  1  0.10929000  0.18614000  0.82087000  1.0
  C  C187  1  0.39071000  0.31385000  0.32087000  1.0
  C  C188  1  0.84120000  0.86256000  0.19996000  1.0
  C  C189  1  0.65880000  0.63744000  0.69996000  1.0
  C  C190  1  0.15880000  0.13744000  0.80004000  1.0
  C  C191  1  0.34120000  0.36256000  0.30004000  1.0
  C  C192  1  0.93033000  0.77983000  0.23107000  1.0
  C  C193  1  0.56967000  0.72017000  0.73107000  1.0
  C  C194  1  0.06967000  0.22017000  0.76893000  1.0
  C  C195  1  0.43033000  0.27983000  0.26893000  1.0
  C  C196  1  0.83314000  0.87764000  0.27315000  1.0
  C  C197  1  0.66685000  0.62236000  0.77315000  1.0
  C  C198  1  0.16686000  0.12236000  0.72685000  1.0
  C  C199  1  0.33314000  0.37764000  0.22685000  1.0
  C  C200  1  0.87190000  0.84360000  0.32541000  1.0
  C  C201  1  0.62810000  0.65640000  0.82541000  1.0
  C  C202  1  0.12810000  0.15640000  0.67459000  1.0
  C  C203  1  0.37190000  0.34360000  0.17459000  1.0
  C  C204  1  0.91994000  0.79434000  0.30433000  1.0
  C  C205  1  0.58005000  0.70566000  0.80433000  1.0
  C  C206  1  0.08005000  0.20566000  0.69567000  1.0
  C  C207  1  0.41994000  0.29434000  0.19567000  1.0
  C  C208  1  0.95808000  0.75630000  0.36146000  1.0
  C  C209  1  0.54192000  0.74370000  0.86146000  1.0
  C  C210  1  0.04192000  0.24370000  0.63854000  1.0
  C  C211  1  0.45808000  0.25630000  0.13854000  1.0
  C  C212  1  0.75035000  0.96555000  0.25113000  1.0
  C  C213  1  0.74965000  0.53445000  0.75113000  1.0
  C  C214  1  0.24965000  0.03445000  0.74887000  1.0
  C  C215  1  0.25035000  0.46555000  0.24887000  1.0
  C  C216  1  0.67485000  0.93379000  0.22809000  1.0
  C  C217  1  0.82515000  0.56621000  0.72809000  1.0
  C  C218  1  0.32515000  0.06621000  0.77191000  1.0
  C  C219  1  0.17485000  0.43379000  0.27191000  1.0
  C  C220  1  0.78334000  0.04063000  0.23114000  1.0
  C  C221  1  0.71666000  0.45938000  0.73114000  1.0
  C  C222  1  0.21666000  0.95937000  0.76886000  1.0
  C  C223  1  0.28334000  0.54063000  0.26886000  1.0
  C  C224  1  0.63371000  0.97578000  0.18521000  1.0
  C  C225  1  0.86629000  0.52422000  0.68521000  1.0
  C  C226  1  0.36629000  0.02422000  0.81479000  1.0
  C  C227  1  0.13370000  0.47578000  0.31479000  1.0
  C  C228  1  0.74178000  0.08308000  0.18909000  1.0
  C  C229  1  0.75822000  0.41692000  0.68909000  1.0
  C  C230  1  0.25822000  0.91692000  0.81091000  1.0
  C  C231  1  0.24178000  0.58308000  0.31091000  1.0
  C  C232  1  0.66692000  0.05049000  0.16519000  1.0
  C  C233  1  0.83308000  0.44951000  0.66519000  1.0
  C  C234  1  0.33308000  0.94951000  0.83481000  1.0
  C  C235  1  0.16692000  0.55049000  0.33481000  1.0
  C  C236  1  0.62195000  0.09594000  0.12031000  1.0
  C  C237  1  0.87804000  0.40406000  0.62031000  1.0
  C  C238  1  0.37805000  0.90406000  0.87969000  1.0
  C  C239  1  0.12196000  0.59594000  0.37969000  1.0
  C  C240  1  0.25682000  0.16025000  0.51922000  1.0
  C  C241  1  0.24318000  0.33975000  0.01922000  1.0
  C  C242  1  0.74318000  0.83975000  0.48078000  1.0
  C  C243  1  0.75682000  0.66025000  0.98078000  1.0
  C  C244  1  0.36810000  0.11010000  0.50706000  1.0
  C  C245  1  0.13190000  0.38991000  0.00706000  1.0
  C  C246  1  0.63190000  0.88990000  0.49294000  1.0
  C  C247  1  0.86810000  0.61010000  0.99294000  1.0
  C  C248  1  0.20899000  0.09000000  0.50597000  1.0
  C  C249  1  0.29101000  0.41000000  0.00597000  1.0
  C  C250  1  0.79101000  0.91000000  0.49403000  1.0
  C  C251  1  0.70899000  0.59000000  0.99403000  1.0
  C  C252  1  0.32417000  0.03812000  0.49447000  1.0
  C  C253  1  0.17583000  0.46188000  0.99447000  1.0
  C  C254  1  0.67583000  0.96187000  0.50553000  1.0
  C  C255  1  0.82417000  0.53812000  0.00553000  1.0
  C  C256  1  0.24251000  0.02651000  0.49461000  1.0
  C  C257  1  0.25749000  0.47349000  0.99461000  1.0
  C  C258  1  0.75749000  0.97349000  0.50539000  1.0
  C  C259  1  0.74251000  0.52651000  0.00539000  1.0
  C  C260  1  0.19505000  0.94971000  0.48457000  1.0
  C  C261  1  0.30495000  0.55029000  0.98457000  1.0
  C  C262  1  0.80495000  0.05029000  0.51543000  1.0
  C  C263  1  0.69505000  0.44971000  0.01543000  1.0
  C  C264  1  0.22014000  0.89752000  0.43856000  1.0
  C  C265  1  0.27986000  0.60248000  0.93856000  1.0
  C  C266  1  0.77986000  0.10248000  0.56143000  1.0
  C  C267  1  0.72014000  0.39752000  0.06144000  1.0
  C  C268  1  0.12472000  0.92555000  0.52197000  1.0
  C  C269  1  0.37529000  0.57445000  0.02197000  1.0
  C  C270  1  0.87529000  0.07445000  0.47803000  1.0
  C  C271  1  0.62471000  0.42555000  0.97803000  1.0
  C  C272  1  0.17594000  0.82455000  0.43220000  1.0
  C  C273  1  0.32406000  0.67545000  0.93220000  1.0
  C  C274  1  0.82406000  0.17545000  0.56780000  1.0
  C  C275  1  0.67594000  0.32455000  0.06780000  1.0
  C  C276  1  0.08369000  0.85165000  0.51285000  1.0
  C  C277  1  0.41632000  0.64835000  0.01285000  1.0
  C  C278  1  0.91631000  0.14835000  0.48715000  1.0
  C  C279  1  0.58368000  0.35165000  0.98715000  1.0
  C  C280  1  0.09521000  0.84165000  0.00288000  1.0
  C  C281  1  0.40479000  0.65835000  0.50288000  1.0
  C  C282  1  0.90479000  0.15836000  0.99712000  1.0
  C  C283  1  0.59521000  0.34165000  0.49712000  1.0
  C  C284  1  0.05211000  0.94139000  0.94834000  1.0
  C  C285  1  0.44788000  0.55861000  0.44834000  1.0
  C  C286  1  0.94789000  0.05862000  0.05166000  1.0
  C  C287  1  0.55211000  0.44139000  0.55166000  1.0
  C  C288  1  0.16919000  0.88571000  0.01282000  1.0
  C  C289  1  0.33081000  0.61429000  0.51282000  1.0
  C  C290  1  0.83081000  0.11429000  0.98718000  1.0
  C  C291  1  0.66919000  0.38571000  0.48718000  1.0
  C  C292  1  0.12440000  0.98906000  0.95721000  1.0
  C  C293  1  0.37560000  0.51094000  0.45721000  1.0
  C  C294  1  0.87560000  0.01094000  0.04279000  1.0
  C  C295  1  0.62440000  0.48906000  0.54279000  1.0
  C  C296  1  0.18558000  0.96169000  0.98988000  1.0
  C  C297  1  0.31441000  0.53831000  0.48988000  1.0
  C  C298  1  0.81441000  0.03831000  0.01012000  1.0
  C  C299  1  0.68559000  0.46169000  0.51012000  1.0
  C  C300  1  0.26348000  0.01067000  0.00020000  1.0
  C  C301  1  0.23652000  0.48933000  0.50020000  1.0
  C  C302  1  0.73652000  0.98933000  0.99980000  1.0
  C  C303  1  0.76348000  0.51068000  0.49980000  1.0
  C  C304  1  0.27827000  0.08881000  0.98531000  1.0
  C  C305  1  0.22173000  0.41119000  0.48531000  1.0
  C  C306  1  0.72173000  0.91119000  0.01469000  1.0
  C  C307  1  0.77827000  0.58881000  0.51469000  1.0
  C  C308  1  0.32622000  0.98064000  0.02569000  1.0
  C  C309  1  0.17378000  0.51936000  0.52569000  1.0
  C  C310  1  0.67378000  0.01936000  0.97431000  1.0
  C  C311  1  0.82622000  0.48064000  0.47431000  1.0
  C  C312  1  0.39838000  0.02771000  0.03670000  1.0
  C  C313  1  0.10162000  0.47229000  0.53670000  1.0
  C  C314  1  0.60162000  0.97229000  0.96330000  1.0
  C  C315  1  0.89838000  0.52771000  0.46330000  1.0
  C  C316  1  0.35211000  0.13234000  0.99746000  1.0
  C  C317  1  0.14789000  0.36766000  0.49746000  1.0
  C  C318  1  0.64789000  0.86766000  0.00254000  1.0
  C  C319  1  0.85211000  0.63234000  0.50254000  1.0
  N  N320  1  0.82387000  0.10733000  0.74598000  1.0
  N  N321  1  0.67612000  0.39267000  0.24599000  1.0
  N  N322  1  0.17612000  0.89267000  0.25402000  1.0
  N  N323  1  0.32388000  0.60733000  0.75402000  1.0
  N  N324  1  0.86136000  0.07782000  0.25610000  1.0
  N  N325  1  0.63864000  0.42218000  0.75610000  1.0
  N  N326  1  0.13864000  0.92218000  0.74390000  1.0
  N  N327  1  0.36136000  0.57782000  0.24390000  1.0
  N  N328  1  0.33503000  0.17000000  0.52078000  1.0
  N  N329  1  0.16497000  0.33000000  0.02078000  1.0
  N  N330  1  0.66497000  0.83000000  0.47922000  1.0
  N  N331  1  0.83503000  0.67000000  0.97922000  1.0
  N  N332  1  0.10918000  0.80173000  0.46927000  1.0
  N  N333  1  0.39083000  0.69827000  0.96926000  1.0
  N  N334  1  0.89083000  0.19827000  0.53073000  1.0
  N  N335  1  0.60917000  0.30173000  0.03073000  1.0
  N  N336  1  0.03722000  0.86871000  0.97083000  1.0
  N  N337  1  0.46278000  0.63129000  0.47083000  1.0
  N  N338  1  0.96278000  0.13129000  0.02917000  1.0
  N  N339  1  0.53722000  0.36871000  0.52917000  1.0
  N  N340  1  0.41140000  0.10272000  0.02362000  1.0
  N  N341  1  0.08860000  0.39728000  0.52361000  1.0
  N  N342  1  0.58860000  0.89728000  0.97638000  1.0
  N  N343  1  0.91140000  0.60272000  0.47639000  1.0
  O  O344  1  0.89212000  0.89608000  0.89952000  1.0
  O  O345  1  0.60788000  0.60392000  0.39952000  1.0
  O  O346  1  0.10788000  0.10392000  0.10048000  1.0
  O  O347  1  0.39212000  0.39608000  0.60048000  1.0
  O  O348  1  0.78952000  0.80043000  0.89389000  1.0
  O  O349  1  0.71048000  0.69957000  0.39389000  1.0
  O  O350  1  0.21048000  0.19957000  0.10611000  1.0
  O  O351  1  0.28952000  0.30043000  0.60611000  1.0
  O  O352  1  0.89345000  0.11265000  0.72963000  1.0
  O  O353  1  0.60655000  0.38734000  0.22963000  1.0
  O  O354  1  0.10655000  0.88735000  0.27038000  1.0
  O  O355  1  0.39345000  0.61265000  0.77038000  1.0
  O  O356  1  0.78826000  0.16037000  0.74541000  1.0
  O  O357  1  0.71174000  0.33963000  0.24542000  1.0
  O  O358  1  0.21174000  0.83963000  0.25459000  1.0
  O  O359  1  0.28826000  0.66037000  0.75459000  1.0
  O  O360  1  0.66511000  0.04690000  0.70189000  1.0
  O  O361  1  0.83489000  0.45310000  0.20189000  1.0
  O  O362  1  0.33490000  0.95310000  0.29811000  1.0
  O  O363  1  0.16511000  0.54690000  0.79811000  1.0
  O  O364  1  0.43987000  0.25252000  0.65805000  1.0
  O  O365  1  0.06013000  0.24749000  0.15805000  1.0
  O  O366  1  0.56013000  0.74748000  0.34195000  1.0
  O  O367  1  0.93987000  0.75252000  0.84195000  1.0
  O  O368  1  0.50633000  0.20653000  0.57194000  1.0
  O  O369  1  0.99367000  0.29347000  0.07195000  1.0
  O  O370  1  0.49367000  0.79347000  0.42805000  1.0
  O  O371  1  0.00633000  0.70653000  0.92805000  1.0
  O  O372  1  0.58207000  0.14091000  0.94621000  1.0
  O  O373  1  0.91793000  0.35908000  0.44620000  1.0
  O  O374  1  0.41793000  0.85908000  0.05379000  1.0
  O  O375  1  0.08207000  0.64092000  0.55380000  1.0
  O  O376  1  0.49600000  0.21182000  0.91639000  1.0
  O  O377  1  0.00400000  0.28818000  0.41639000  1.0
  O  O378  1  0.50400000  0.78818000  0.08361000  1.0
  O  O379  1  0.99600000  0.71182000  0.58361000  1.0
  O  O380  1  0.94983000  0.75829000  0.08119000  1.0
  O  O381  1  0.55017000  0.74171000  0.58119000  1.0
  O  O382  1  0.05018000  0.24171000  0.91881000  1.0
  O  O383  1  0.44982000  0.25829000  0.41881000  1.0
  O  O384  1  0.86442000  0.83032000  0.05373000  1.0
  O  O385  1  0.63558000  0.66968000  0.55373000  1.0
  O  O386  1  0.13558000  0.16968000  0.94627000  1.0
  O  O387  1  0.36442000  0.33032000  0.44627000  1.0
  O  O388  1  0.00098000  0.70940000  0.34208000  1.0
  O  O389  1  0.49902000  0.79060000  0.84208000  1.0
  O  O390  1  0.99902000  0.29060000  0.65792000  1.0
  O  O391  1  0.50098000  0.20940000  0.15792000  1.0
  O  O392  1  0.94646000  0.76873000  0.42786000  1.0
  O  O393  1  0.55354000  0.73127000  0.92785000  1.0
  O  O394  1  0.05354000  0.23127000  0.57214000  1.0
  O  O395  1  0.44646000  0.26873000  0.07215000  1.0
  O  O396  1  0.78712000  0.92597000  0.29927000  1.0
  O  O397  1  0.71288000  0.57403000  0.79927000  1.0
  O  O398  1  0.21288000  0.07403000  0.70073000  1.0
  O  O399  1  0.28712000  0.42597000  0.20073000  1.0
  O  O400  1  0.91141000  0.03835000  0.26279000  1.0
  O  O401  1  0.58859000  0.46165000  0.76279000  1.0
  O  O402  1  0.08859000  0.96165000  0.73721000  1.0
  O  O403  1  0.41141000  0.53835000  0.23721000  1.0
  O  O404  1  0.87202000  0.14686000  0.26862000  1.0
  O  O405  1  0.62798000  0.35314000  0.76862000  1.0
  O  O406  1  0.12798000  0.85314000  0.73138000  1.0
  O  O407  1  0.37202000  0.64686000  0.23138000  1.0
  O  O408  1  0.55093000  0.06773000  0.10490000  1.0
  O  O409  1  0.94907000  0.43227000  0.60490000  1.0
  O  O410  1  0.44907000  0.93227000  0.89510000  1.0
  O  O411  1  0.05093000  0.56773000  0.39510000  1.0
  O  O412  1  0.65475000  0.16175000  0.09860000  1.0
  O  O413  1  0.84525000  0.33825000  0.59861000  1.0
  O  O414  1  0.34525000  0.83825000  0.90139000  1.0
  O  O415  1  0.15475000  0.66175000  0.40140000  1.0
