# generated using pymatgen
data_ZnH9C10N9
_symmetry_space_group_name_H-M   'P 1'
_cell_length_a   6.80205000
_cell_length_b   11.67440000
_cell_length_c   16.01050000
_cell_angle_alpha   90.00000000
_cell_angle_beta   90.00000000
_cell_angle_gamma   99.99360000
_symmetry_Int_Tables_number   1
_chemical_formula_structural   ZnH9C10N9
_chemical_formula_sum   'Zn4 H36 C40 N36'
_cell_volume   1252.10080391
_cell_formula_units_Z   4
loop_
 _symmetry_equiv_pos_site_id
 _symmetry_equiv_pos_as_xyz
  1  'x, y, z'
loop_
 _atom_site_type_symbol
 _atom_site_label
 _atom_site_symmetry_multiplicity
 _atom_site_fract_x
 _atom_site_fract_y
 _atom_site_fract_z
 _atom_site_occupancy
  Zn  Zn0  1  0.81289000  0.15474000  0.32958000  1.0
  Zn  Zn1  1  0.68711000  0.34526000  0.82958000  1.0
  Zn  Zn2  1  0.18711000  0.84526000  0.67042000  1.0
  Zn  Zn3  1  0.31288000  0.65474000  0.17042000  1.0
  H  H4  1  0.95360000  0.00908000  0.13199000  1.0
  H  H5  1  0.54640000  0.49092000  0.63199000  1.0
  H  H6  1  0.04640000  0.99093000  0.86801000  1.0
  H  H7  1  0.45360000  0.50907000  0.36801000  1.0
  H  H8  1  0.45184000  0.97840000  0.31347000  1.0
  H  H9  1  0.04816000  0.52160000  0.81347000  1.0
  H  H10  1  0.54815000  0.02160000  0.68653000  1.0
  H  H11  1  0.95185000  0.47841000  0.18653000  1.0
  H  H12  1  0.12999000  0.95490000  0.23631000  1.0
  H  H13  1  0.37001000  0.54510000  0.73632000  1.0
  H  H14  1  0.87001000  0.04510000  0.76368000  1.0
  H  H15  1  0.62999000  0.45490000  0.26369000  1.0
  H  H16  1  0.38394000  0.25684000  0.08981000  1.0
  H  H17  1  0.11606000  0.24316000  0.58981000  1.0
  H  H18  1  0.61606000  0.74317000  0.91019000  1.0
  H  H19  1  0.88394000  0.75683000  0.41019000  1.0
  H  H20  1  0.68598000  0.27119000  0.17451000  1.0
  H  H21  1  0.81402000  0.22881000  0.67451000  1.0
  H  H22  1  0.31402000  0.72881000  0.82549000  1.0
  H  H23  1  0.18598000  0.77119000  0.32549000  1.0
  H  H24  1  0.99453000  0.41460000  0.96254000  1.0
  H  H25  1  0.50547000  0.08540000  0.46254000  1.0
  H  H26  1  0.00547000  0.58540000  0.03746000  1.0
  H  H27  1  0.49453000  0.91460000  0.53746000  1.0
  H  H28  1  0.14367000  0.32612000  0.07947000  1.0
  H  H29  1  0.35633000  0.17388000  0.57947000  1.0
  H  H30  1  0.85633000  0.67388000  0.92053000  1.0
  H  H31  1  0.64367000  0.82612000  0.42053000  1.0
  H  H32  1  0.74205000  0.00383000  0.02342000  1.0
  H  H33  1  0.75795000  0.49617000  0.52342000  1.0
  H  H34  1  0.25795000  0.99617000  0.97657000  1.0
  H  H35  1  0.24205000  0.50383000  0.47658000  1.0
  H  H36  1  0.60067000  0.11017000  0.90970000  1.0
  H  H37  1  0.89933000  0.38983000  0.40970000  1.0
  H  H38  1  0.39933000  0.88983000  0.09030000  1.0
  H  H39  1  0.10067000  0.61017000  0.59030000  1.0
  C  C40  1  0.42834000  0.03958000  0.26468000  1.0
  C  C41  1  0.07166000  0.46042000  0.76468000  1.0
  C  C42  1  0.57166000  0.96042000  0.73532000  1.0
  C  C43  1  0.92834000  0.53958000  0.23532000  1.0
  C  C44  1  0.25026000  0.02645000  0.22176000  1.0
  C  C45  1  0.24975000  0.47355000  0.72176000  1.0
  C  C46  1  0.74974000  0.97355000  0.77824000  1.0
  C  C47  1  0.75026000  0.52645000  0.27824000  1.0
  C  C48  1  0.22253000  0.10705000  0.15891000  1.0
  C  C49  1  0.27747000  0.39295000  0.65892000  1.0
  C  C50  1  0.77747000  0.89295000  0.84108000  1.0
  C  C51  1  0.72253000  0.60705000  0.34109000  1.0
  C  C52  1  0.38618000  0.19503000  0.14020000  1.0
  C  C53  1  0.11382000  0.30497000  0.64021000  1.0
  C  C54  1  0.61382000  0.80497000  0.85979000  1.0
  C  C55  1  0.88618000  0.69503000  0.35980000  1.0
  C  C56  1  0.55888000  0.20260000  0.18717000  1.0
  C  C57  1  0.94112000  0.29740000  0.68717000  1.0
  C  C58  1  0.44112000  0.79740000  0.81283000  1.0
  C  C59  1  0.05888000  0.70260000  0.31283000  1.0
  C  C60  1  0.94235000  0.32333000  0.97738000  1.0
  C  C61  1  0.55765000  0.17667000  0.47738000  1.0
  C  C62  1  0.05765000  0.67667000  0.02262000  1.0
  C  C63  1  0.44235000  0.82333000  0.52262000  1.0
  C  C64  1  0.03067000  0.27179000  0.04202000  1.0
  C  C65  1  0.46933000  0.22821000  0.54202000  1.0
  C  C66  1  0.96933000  0.72821000  0.95798000  1.0
  C  C67  1  0.53067000  0.77179000  0.45798000  1.0
  C  C68  1  0.96403000  0.15304000  0.05890000  1.0
  C  C69  1  0.53597000  0.34696000  0.55890000  1.0
  C  C70  1  0.03597000  0.84696000  0.94110000  1.0
  C  C71  1  0.46403000  0.65304000  0.44110000  1.0
  C  C72  1  0.80106000  0.09528000  0.01164000  1.0
  C  C73  1  0.69894000  0.40472000  0.51164000  1.0
  C  C74  1  0.19894000  0.90472000  0.98836000  1.0
  C  C75  1  0.30106000  0.59528000  0.48836000  1.0
  C  C76  1  0.72197000  0.15403000  0.94877000  1.0
  C  C77  1  0.77803000  0.34597000  0.44877000  1.0
  C  C78  1  0.27803000  0.84597000  0.05123000  1.0
  C  C79  1  0.22197000  0.65403000  0.55123000  1.0
  N  N80  1  0.02265000  0.27273000  0.27863000  1.0
  N  N81  1  0.47735000  0.22727000  0.77863000  1.0
  N  N82  1  0.97735000  0.72726000  0.72137000  1.0
  N  N83  1  0.52264000  0.77273000  0.22137000  1.0
  N  N84  1  0.17251000  0.31682000  0.31354000  1.0
  N  N85  1  0.32748000  0.18317000  0.81355000  1.0
  N  N86  1  0.82748000  0.68317000  0.68645000  1.0
  N  N87  1  0.67253000  0.81683000  0.18645000  1.0
  N  N88  1  0.32134000  0.36131000  0.34528000  1.0
  N  N89  1  0.17867000  0.13869000  0.84527000  1.0
  N  N90  1  0.67867000  0.63868000  0.65473000  1.0
  N  N91  1  0.82132000  0.86131000  0.15473000  1.0
  N  N92  1  0.86332000  0.99983000  0.35953000  1.0
  N  N93  1  0.63668000  0.50017000  0.85953000  1.0
  N  N94  1  0.13668000  0.00017000  0.64047000  1.0
  N  N95  1  0.36332000  0.49983000  0.14047000  1.0
  N  N96  1  0.00994000  0.98024000  0.39519000  1.0
  N  N97  1  0.49007000  0.51976000  0.89519000  1.0
  N  N98  1  0.99006000  0.01976000  0.60481000  1.0
  N  N99  1  0.50993000  0.48024000  0.10481000  1.0
  N  N100  1  0.14824000  0.95380000  0.42835000  1.0
  N  N101  1  0.35176000  0.54620000  0.92835000  1.0
  N  N102  1  0.85177000  0.04620000  0.57165000  1.0
  N  N103  1  0.64824000  0.45380000  0.07165000  1.0
  N  N104  1  0.58127000  0.12788000  0.24928000  1.0
  N  N105  1  0.91873000  0.37212000  0.74928000  1.0
  N  N106  1  0.41873000  0.87212000  0.75072000  1.0
  N  N107  1  0.08127000  0.62788000  0.25073000  1.0
  N  N108  1  0.04096000  0.08885000  0.11887000  1.0
  N  N109  1  0.45904000  0.41115000  0.61887000  1.0
  N  N110  1  0.95904000  0.91115000  0.88113000  1.0
  N  N111  1  0.54096000  0.58885000  0.38113000  1.0
  N  N112  1  0.79243000  0.26653000  0.93011000  1.0
  N  N113  1  0.70757000  0.23347000  0.43011000  1.0
  N  N114  1  0.20757000  0.73347000  0.06989000  1.0
  N  N115  1  0.29243000  0.76653000  0.56989000  1.0
