# generated using pymatgen
data_ZnH14C16N6O5F2
_symmetry_space_group_name_H-M   'P 1'
_cell_length_a   8.61771000
_cell_length_b   21.70330000
_cell_length_c   21.70171557
_cell_angle_alpha   87.73057862
_cell_angle_beta   78.55794582
_cell_angle_gamma   78.54760000
_symmetry_Int_Tables_number   1
_chemical_formula_structural   ZnH14C16N6O5F2
_chemical_formula_sum   'Zn8 H112 C128 N48 O40 F16'
_cell_volume   3899.05622984
_cell_formula_units_Z   8
loop_
 _symmetry_equiv_pos_site_id
 _symmetry_equiv_pos_as_xyz
  1  'x, y, z'
loop_
 _atom_site_type_symbol
 _atom_site_label
 _atom_site_symmetry_multiplicity
 _atom_site_fract_x
 _atom_site_fract_y
 _atom_site_fract_z
 _atom_site_occupancy
  Zn  Zn0  1  0.79433000  0.15725000  0.36536000  1.0
  Zn  Zn1  1  0.81734000  0.34277000  0.13448000  1.0
  Zn  Zn2  1  0.16019000  0.63447000  0.65724000  1.0
  Zn  Zn3  1  0.95179000  0.86552000  0.84282000  1.0
  Zn  Zn4  1  0.20566000  0.84275000  0.63464000  1.0
  Zn  Zn5  1  0.18266000  0.65723000  0.86552000  1.0
  Zn  Zn6  1  0.83980000  0.36552000  0.34276000  1.0
  Zn  Zn7  1  0.04821000  0.13448000  0.15718000  1.0
  H  H8  1  0.60434000  0.04152000  0.43619000  1.0
  H  H9  1  0.58204000  0.45867000  0.06355000  1.0
  H  H10  1  0.04131000  0.56362000  0.54141000  1.0
  H  H11  1  0.64595000  0.93625000  0.95852000  1.0
  H  H12  1  0.39565000  0.95848000  0.56381000  1.0
  H  H13  1  0.41796000  0.54134000  0.93645000  1.0
  H  H14  1  0.95869000  0.43638000  0.45859000  1.0
  H  H15  1  0.35405000  0.06375000  0.04148000  1.0
  H  H16  1  0.86246000  0.05708000  0.25174000  1.0
  H  H17  1  0.67173000  0.44271000  0.24795000  1.0
  H  H18  1  0.11370000  0.74820000  0.55729000  1.0
  H  H19  1  0.91973000  0.75183000  0.94290000  1.0
  H  H20  1  0.13755000  0.94292000  0.74826000  1.0
  H  H21  1  0.32828000  0.55729000  0.75205000  1.0
  H  H22  1  0.88629000  0.25180000  0.44271000  1.0
  H  H23  1  0.08027000  0.24817000  0.05710000  1.0
  H  H24  1  0.66551000  0.88676000  0.34459000  1.0
  H  H25  1  0.39683000  0.61323000  0.15560000  1.0
  H  H26  1  0.01026000  0.65556000  0.38680000  1.0
  H  H27  1  0.55253000  0.84450000  0.11325000  1.0
  H  H28  1  0.33449000  0.11323000  0.65541000  1.0
  H  H29  1  0.60317000  0.38677000  0.84440000  1.0
  H  H30  1  0.98974000  0.34444000  0.61320000  1.0
  H  H31  1  0.44747000  0.15550000  0.88675000  1.0
  H  H32  1  0.52116000  0.92557000  0.40850000  1.0
  H  H33  1  0.35508000  0.57463000  0.09157000  1.0
  H  H34  1  0.92985000  0.59158000  0.42547000  1.0
  H  H35  1  0.44702000  0.90849000  0.07451000  1.0
  H  H36  1  0.47884000  0.07443000  0.59150000  1.0
  H  H37  1  0.64492000  0.42537000  0.90843000  1.0
  H  H38  1  0.07015000  0.40842000  0.57453000  1.0
  H  H39  1  0.55298000  0.09151000  0.92549000  1.0
  H  H40  1  0.77872000  0.79401000  0.40543000  1.0
  H  H41  1  0.47759000  0.70620000  0.09469000  1.0
  H  H42  1  0.18343000  0.59475000  0.29394000  1.0
  H  H43  1  0.57257000  0.90535000  0.20605000  1.0
  H  H44  1  0.22129000  0.20599000  0.59457000  1.0
  H  H45  1  0.52241000  0.29380000  0.90531000  1.0
  H  H46  1  0.81657000  0.40525000  0.70606000  1.0
  H  H47  1  0.42744000  0.09465000  0.79395000  1.0
  H  H48  1  0.82219000  0.80459000  0.48037000  1.0
  H  H49  1  0.60649000  0.69561000  0.01973000  1.0
  H  H50  1  0.30173000  0.51976000  0.30442000  1.0
  H  H51  1  0.62643000  0.98033000  0.19547000  1.0
  H  H52  1  0.17782000  0.19541000  0.51962000  1.0
  H  H53  1  0.39352000  0.30439000  0.98027000  1.0
  H  H54  1  0.69827000  0.48024000  0.69558000  1.0
  H  H55  1  0.37357000  0.01967000  0.80453000  1.0
  H  H56  1  0.58080000  0.82460000  0.57519000  1.0
  H  H57  1  0.48006000  0.67541000  0.92494000  1.0
  H  H58  1  0.15517000  0.42502000  0.32468000  1.0
  H  H59  1  0.40513000  0.07507000  0.17527000  1.0
  H  H60  1  0.41921000  0.17540000  0.42481000  1.0
  H  H61  1  0.51995000  0.32459000  0.07506000  1.0
  H  H62  1  0.84482000  0.57498000  0.67533000  1.0
  H  H63  1  0.59487000  0.92493000  0.82473000  1.0
  H  H64  1  0.21080000  0.82642000  0.47376000  1.0
  H  H65  1  0.01050000  0.67353000  0.02633000  1.0
  H  H66  1  0.68378000  0.52637000  0.32630000  1.0
  H  H67  1  0.03701000  0.97360000  0.17359000  1.0
  H  H68  1  0.78920000  0.17358000  0.52624000  1.0
  H  H69  1  0.98951000  0.32647000  0.97367000  1.0
  H  H70  1  0.31623000  0.47363000  0.67369000  1.0
  H  H71  1  0.96300000  0.02640000  0.82641000  1.0
  H  H72  1  0.23783000  0.84289000  0.27715000  1.0
  H  H73  1  0.85830000  0.65727000  0.22296000  1.0
  H  H74  1  0.51555000  0.72293000  0.34286000  1.0
  H  H75  1  0.08129000  0.77697000  0.15723000  1.0
  H  H76  1  0.76217000  0.15711000  0.72285000  1.0
  H  H77  1  0.14170000  0.34273000  0.77704000  1.0
  H  H78  1  0.48444000  0.27707000  0.65714000  1.0
  H  H79  1  0.91872000  0.22303000  0.84277000  1.0
  H  H80  1  0.20558000  0.99103000  0.40887000  1.0
  H  H81  1  0.10499000  0.50902000  0.09127000  1.0
  H  H82  1  0.61428000  0.59123000  0.49114000  1.0
  H  H83  1  0.19696000  0.90856000  0.00891000  1.0
  H  H84  1  0.79442000  0.00896000  0.59113000  1.0
  H  H85  1  0.89500000  0.49098000  0.90874000  1.0
  H  H86  1  0.38572000  0.40877000  0.50886000  1.0
  H  H87  1  0.80303000  0.09144000  0.99109000  1.0
  H  H88  1  0.93483000  0.97103000  0.46316000  1.0
  H  H89  1  0.86834000  0.52912000  0.03708000  1.0
  H  H90  1  0.39784000  0.53700000  0.47100000  1.0
  H  H91  1  0.90625000  0.96286000  0.02892000  1.0
  H  H92  1  0.06516000  0.02897000  0.53684000  1.0
  H  H93  1  0.13166000  0.47088000  0.96292000  1.0
  H  H94  1  0.60215000  0.46301000  0.52900000  1.0
  H  H95  1  0.09374000  0.03714000  0.97108000  1.0
  H  H96  1  0.11132000  0.23322000  0.33641000  1.0
  H  H97  1  0.18117000  0.26673000  0.16360000  1.0
  H  H98  1  0.44782000  0.66344000  0.73334000  1.0
  H  H99  1  0.34472000  0.83646000  0.76677000  1.0
  H  H100  1  0.88868000  0.76678000  0.66359000  1.0
  H  H101  1  0.81883000  0.73327000  0.83640000  1.0
  H  H102  1  0.55218000  0.33656000  0.26666000  1.0
  H  H103  1  0.65528000  0.16354000  0.23323000  1.0
  H  H104  1  0.29526000  0.18037000  0.30952000  1.0
  H  H105  1  0.28541000  0.31953000  0.19053000  1.0
  H  H106  1  0.60501000  0.69036000  0.68058000  1.0
  H  H107  1  0.47574000  0.80951000  0.81964000  1.0
  H  H108  1  0.70474000  0.81963000  0.69048000  1.0
  H  H109  1  0.71459000  0.68047000  0.80947000  1.0
  H  H110  1  0.39499000  0.30964000  0.31942000  1.0
  H  H111  1  0.52426000  0.19049000  0.18036000  1.0
  H  H112  1  0.73954000  0.91118000  0.52361000  1.0
  H  H113  1  0.67401000  0.58904000  0.97651000  1.0
  H  H114  1  0.26313000  0.47648000  0.41104000  1.0
  H  H115  1  0.65088000  0.02352000  0.08889000  1.0
  H  H116  1  0.26046000  0.08882000  0.47639000  1.0
  H  H117  1  0.32599000  0.41096000  0.02349000  1.0
  H  H118  1  0.73687000  0.52352000  0.58896000  1.0
  H  H119  1  0.34912000  0.97648000  0.91111000  1.0
  C  C120  1  0.66645000  0.03263000  0.38785000  1.0
  C  C121  1  0.58707000  0.46746000  0.11189000  1.0
  C  C122  1  0.05477000  0.61200000  0.53260000  1.0
  C  C123  1  0.69921000  0.88791000  0.96740000  1.0
  C  C124  1  0.33355000  0.96737000  0.61215000  1.0
  C  C125  1  0.41293000  0.53254000  0.88811000  1.0
  C  C126  1  0.94523000  0.38800000  0.46740000  1.0
  C  C127  1  0.30073333  0.11209000  0.03260000  1.0
  C  C128  1  0.79754000  0.03827000  0.29391000  1.0
  C  C129  1  0.63005000  0.46160000  0.20582000  1.0
  C  C130  1  0.09118000  0.70602000  0.53843000  1.0
  C  C131  1  0.83598000  0.79398000  0.96172000  1.0
  C  C132  1  0.20247000  0.96172000  0.70609000  1.0
  C  C133  1  0.36995000  0.53840000  0.79418000  1.0
  C  C134  1  0.90882000  0.29398000  0.46157000  1.0
  C  C135  1  0.16402000  0.20602000  0.03828000  1.0
  C  C136  1  0.64722000  0.91881000  0.38412000  1.0
  C  C137  1  0.45006000  0.58130000  0.11597000  1.0
  C  C138  1  0.03152000  0.61596000  0.41878000  1.0
  C  C139  1  0.56632000  0.88406000  0.08124000  1.0
  C  C140  1  0.35278000  0.08119000  0.61588000  1.0
  C  C141  1  0.54994000  0.41870000  0.88403000  1.0
  C  C142  1  0.96848000  0.38404000  0.58122000  1.0
  C  C143  1  0.43368000  0.11594000  0.91876000  1.0
  C  C144  1  0.75744000  0.89266000  0.43147000  1.0
  C  C145  1  0.58135000  0.60755000  0.06869000  1.0
  C  C146  1  0.18901000  0.56865000  0.39257000  1.0
  C  C147  1  0.65051000  0.93134000  0.10739000  1.0
  C  C148  1  0.24256000  0.10734000  0.56853000  1.0
  C  C149  1  0.41865000  0.39245000  0.93132000  1.0
  C  C150  1  0.81099000  0.43135000  0.60743000  1.0
  C  C151  1  0.34949000  0.06866000  0.89261000  1.0
  C  C152  1  0.74304000  0.82346000  0.44748000  1.0
  C  C153  1  0.51346000  0.67671000  0.05267000  1.0
  C  C154  1  0.18989000  0.55270000  0.32341000  1.0
  C  C155  1  0.56645000  0.94738000  0.17654000  1.0
  C  C156  1  0.25696000  0.17654000  0.55252000  1.0
  C  C157  1  0.48654000  0.32329000  0.94733000  1.0
  C  C158  1  0.81011000  0.44730000  0.67659000  1.0
  C  C159  1  0.43354000  0.05262000  0.82347000  1.0
  C  C160  1  0.51379000  0.82226000  0.53816000  1.0
  C  C161  1  0.37370000  0.67776000  0.96198000  1.0
  C  C162  1  0.05113000  0.46205000  0.32229000  1.0
  C  C163  1  0.33586000  0.03802000  0.17762000  1.0
  C  C164  1  0.48622000  0.17773000  0.46184000  1.0
  C  C165  1  0.62630000  0.32224000  0.03802000  1.0
  C  C166  1  0.94887000  0.53795000  0.67771000  1.0
  C  C167  1  0.66414000  0.96198000  0.82238000  1.0
  C  C168  1  0.32894000  0.82404000  0.48505000  1.0
  C  C169  1  0.13752000  0.67594000  0.01506000  1.0
  C  C170  1  0.81317000  0.51511000  0.32399000  1.0
  C  C171  1  0.15281000  0.98489000  0.17591000  1.0
  C  C172  1  0.67106000  0.17596000  0.51495000  1.0
  C  C173  1  0.86248000  0.32406000  0.98494000  1.0
  C  C174  1  0.18682000  0.48489000  0.67601000  1.0
  C  C175  1  0.84719000  0.01511000  0.82409000  1.0
  C  C176  1  0.93246000  0.89661000  0.40200000  1.0
  C  C177  1  0.73087000  0.60363000  0.09818000  1.0
  C  C178  1  0.33468000  0.59812000  0.39649000  1.0
  C  C179  1  0.82953000  0.90182000  0.10348000  1.0
  C  C180  1  0.06753000  0.10339000  0.59800000  1.0
  C  C181  1  0.26913000  0.39637000  0.90182000  1.0
  C  C182  1  0.66531000  0.40188000  0.60351000  1.0
  C  C183  1  0.17047000  0.09818000  0.89652000  1.0
  C  C184  1  0.02170000  0.86185000  0.34924000  1.0
  C  C185  1  0.73291000  0.63844000  0.15088000  1.0
  C  C186  1  0.37145000  0.65083000  0.36169000  1.0
  C  C187  1  0.88408000  0.84910000  0.13830000  1.0
  C  C188  1  0.97830000  0.13815000  0.65076000  1.0
  C  C189  1  0.26709000  0.36156000  0.84912000  1.0
  C  C190  1  0.62855000  0.34917000  0.63831000  1.0
  C  C191  1  0.11592000  0.15090000  0.86170000  1.0
  C  C192  1  0.17373000  0.87007000  0.31873000  1.0
  C  C193  1  0.86273000  0.63014000  0.18138000  1.0
  C  C194  1  0.49291000  0.68134000  0.37001000  1.0
  C  C195  1  0.04433000  0.81855000  0.13005000  1.0
  C  C196  1  0.82627000  0.12993000  0.68127000  1.0
  C  C197  1  0.13726000  0.36986000  0.81863000  1.0
  C  C198  1  0.50709000  0.31866000  0.62999000  1.0
  C  C199  1  0.95567000  0.18145000  0.86995000  1.0
  C  C200  1  0.23607000  0.91677000  0.34173000  1.0
  C  C201  1  0.99454000  0.58334000  0.15839000  1.0
  C  C202  1  0.57798000  0.65835000  0.41680000  1.0
  C  C203  1  0.15333000  0.84151000  0.08329000  1.0
  C  C204  1  0.76393000  0.08322000  0.65827000  1.0
  C  C205  1  0.00545000  0.41666000  0.84162000  1.0
  C  C206  1  0.42202000  0.34165000  0.58319000  1.0
  C  C207  1  0.84667000  0.15849000  0.91671000  1.0
  C  C208  1  0.15439000  0.95370000  0.39331000  1.0
  C  C209  1  0.00105000  0.54640000  0.10685000  1.0
  C  C210  1  0.54767000  0.60680000  0.45376000  1.0
  C  C211  1  0.10849000  0.89302000  0.04627000  1.0
  C  C212  1  0.84561000  0.04630000  0.60668000  1.0
  C  C213  1  0.99894000  0.45360000  0.89315000  1.0
  C  C214  1  0.45232000  0.39320000  0.54624000  1.0
  C  C215  1  0.89151000  0.10698000  0.95373000  1.0
  C  C216  1  0.00352000  0.94251000  0.42302000  1.0
  C  C217  1  0.86863000  0.55765000  0.07718000  1.0
  C  C218  1  0.42653000  0.57713000  0.44249000  1.0
  C  C219  1  0.94645000  0.92274000  0.05748000  1.0
  C  C220  1  0.99649000  0.05749000  0.57697000  1.0
  C  C221  1  0.13137000  0.44235000  0.92282000  1.0
  C  C222  1  0.57347000  0.42288000  0.55751000  1.0
  C  C223  1  0.05355000  0.07726000  0.94252000  1.0
  C  C224  1  0.13195000  0.14474000  0.38487000  1.0
  C  C225  1  0.16197000  0.35517000  0.11508000  1.0
  C  C226  1  0.51728000  0.61496000  0.64486000  1.0
  C  C227  1  0.27698000  0.88496000  0.85523000  1.0
  C  C228  1  0.86806000  0.85526000  0.61512000  1.0
  C  C229  1  0.83803000  0.64483000  0.88492000  1.0
  C  C230  1  0.48272000  0.38504000  0.35514000  1.0
  C  C231  1  0.72303000  0.11504000  0.14476000  1.0
  C  C232  1  0.16515000  0.18345000  0.32522000  1.0
  C  C233  1  0.17409000  0.31650000  0.17478000  1.0
  C  C234  1  0.49066000  0.67461000  0.68359000  1.0
  C  C235  1  0.34871000  0.82529000  0.81655000  1.0
  C  C236  1  0.83485000  0.81655000  0.67478000  1.0
  C  C237  1  0.82591000  0.68350000  0.82522000  1.0
  C  C238  1  0.50933000  0.32539000  0.31642000  1.0
  C  C239  1  0.65129000  0.17471000  0.18345000  1.0
  C  C240  1  0.09358000  0.16758000  0.27086000  1.0
  C  C241  1  0.03218000  0.33241000  0.22909000  1.0
  C  C242  1  0.36475000  0.72896000  0.66761000  1.0
  C  C243  1  0.26110000  0.77097000  0.83246000  1.0
  C  C244  1  0.90642000  0.83242000  0.72914000  1.0
  C  C245  1  0.96782000  0.66759000  0.77091000  1.0
  C  C246  1  0.63525000  0.27104000  0.33239000  1.0
  C  C247  1  0.73890000  0.22903000  0.16754000  1.0
  N  N248  1  0.73927000  0.07178000  0.34849000  1.0
  N  N249  1  0.65984000  0.42823000  0.15117000  1.0
  N  N250  1  0.08797000  0.65135000  0.57182000  1.0
  N  N251  1  0.81120000  0.84859000  0.92825000  1.0
  N  N252  1  0.26073000  0.92822000  0.65151000  1.0
  N  N253  1  0.34016000  0.57177000  0.84883000  1.0
  N  N254  1  0.91203000  0.34865000  0.42818000  1.0
  N  N255  1  0.18879000  0.15141000  0.07175000  1.0
  N  N256  1  0.68160000  0.97820000  0.35774000  1.0
  N  N257  1  0.51760000  0.52182000  0.14215000  1.0
  N  N258  1  0.03951000  0.64221000  0.47823000  1.0
  N  N259  1  0.65994000  0.85775000  0.02182000  1.0
  N  N260  1  0.31840000  0.02180000  0.64226000  1.0
  N  N261  1  0.48240000  0.47818000  0.85785000  1.0
  N  N262  1  0.96048000  0.35779000  0.52177000  1.0
  N  N263  1  0.34006000  0.14225000  0.97818000  1.0
  N  N264  1  0.76559000  0.98085000  0.29761000  1.0
  N  N265  1  0.54423000  0.51902000  0.20227000  1.0
  N  N266  1  0.06292000  0.70239000  0.48099000  1.0
  N  N267  1  0.74661000  0.79762000  0.01914000  1.0
  N  N268  1  0.23442000  0.01915000  0.70239000  1.0
  N  N269  1  0.45578000  0.48098000  0.79773000  1.0
  N  N270  1  0.93708000  0.29761000  0.51901000  1.0
  N  N271  1  0.25339000  0.20238000  0.98086000  1.0
  N  N272  1  0.57919000  0.81897000  0.47668000  1.0
  N  N273  1  0.37432000  0.68108000  0.02345000  1.0
  N  N274  1  0.05502000  0.52352000  0.31906000  1.0
  N  N275  1  0.39807000  0.97655000  0.18088000  1.0
  N  N276  1  0.42082000  0.18103000  0.52331000  1.0
  N  N277  1  0.62568000  0.31893000  0.97655000  1.0
  N  N278  1  0.94498000  0.47648000  0.68094000  1.0
  N  N279  1  0.60193000  0.02345000  0.81912000  1.0
  N  N280  1  0.46298000  0.81996000  0.44173000  1.0
  N  N281  1  0.22416000  0.68005000  0.05839000  1.0
  N  N282  1  0.90386000  0.55845000  0.31999000  1.0
  N  N283  1  0.28285000  0.94159000  0.17994000  1.0
  N  N284  1  0.53703000  0.18004000  0.55826000  1.0
  N  N285  1  0.77583000  0.31995000  0.94162000  1.0
  N  N286  1  0.09615000  0.44155000  0.68000000  1.0
  N  N287  1  0.71715000  0.05842000  0.82006000  1.0
  N  N288  1  0.35476000  0.82541000  0.54513000  1.0
  N  N289  1  0.22480000  0.67458000  0.95500000  1.0
  N  N290  1  0.89914000  0.45505000  0.32536000  1.0
  N  N291  1  0.17994000  0.04497000  0.17453000  1.0
  N  N292  1  0.64525000  0.17459000  0.45487000  1.0
  N  N293  1  0.77519000  0.32542000  0.04501000  1.0
  N  N294  1  0.10086000  0.54495000  0.67464000  1.0
  N  N295  1  0.82007000  0.95503000  0.82547000  1.0
  O  O296  1  0.69851000  0.93127000  0.48530000  1.0
  O  O297  1  0.61494000  0.56895000  0.01484000  1.0
  O  O298  1  0.18403000  0.51481000  0.43117000  1.0
  O  O299  1  0.63042000  0.98516000  0.06874000  1.0
  O  O300  1  0.30149000  0.06873000  0.51470000  1.0
  O  O301  1  0.38507000  0.43105000  0.98516000  1.0
  O  O302  1  0.81598000  0.48519000  0.56882000  1.0
  O  O303  1  0.36958000  0.01484000  0.93126000  1.0
  O  O304  1  0.95594000  0.15166000  0.27986000  1.0
  O  O305  1  0.88766000  0.34834000  0.22001000  1.0
  O  O306  1  0.23627000  0.71993000  0.65157000  1.0
  O  O307  1  0.10755000  0.78003000  0.84844000  1.0
  O  O308  1  0.04406000  0.84834000  0.72014000  1.0
  O  O309  1  0.11234000  0.65166000  0.77999000  1.0
  O  O310  1  0.76373000  0.28007000  0.34843000  1.0
  O  O311  1  0.89245000  0.21997000  0.15156000  1.0
  O  O312  1  0.98623000  0.14177000  0.41030000  1.0
  O  O313  1  0.03882000  0.35813000  0.08959000  1.0
  O  O314  1  0.39706000  0.58951000  0.64185000  1.0
  O  O315  1  0.12834000  0.91046000  0.85820000  1.0
  O  O316  1  0.01377000  0.85822000  0.58970000  1.0
  O  O317  1  0.96118000  0.64187000  0.91041000  1.0
  O  O318  1  0.60294000  0.41049000  0.35815000  1.0
  O  O319  1  0.87166000  0.08954000  0.14180000  1.0
  O  O320  1  0.25273000  0.11883000  0.40786000  1.0
  O  O321  1  0.27995000  0.38103000  0.09212000  1.0
  O  O322  1  0.66109000  0.59204000  0.61897000  1.0
  O  O323  1  0.37199000  0.90788000  0.88113000  1.0
  O  O324  1  0.74727000  0.88117000  0.59214000  1.0
  O  O325  1  0.72005000  0.61897000  0.90788000  1.0
  O  O326  1  0.33891000  0.40796000  0.38103000  1.0
  O  O327  1  0.62801000  0.09212000  0.11887000  1.0
  O  O328  1  0.17625000  0.17055000  0.21567000  1.0
  O  O329  1  0.06242000  0.32945000  0.28432000  1.0
  O  O330  1  0.39208000  0.78416000  0.67065000  1.0
  O  O331  1  0.34662000  0.71576000  0.82943000  1.0
  O  O332  1  0.82375000  0.82945000  0.78433000  1.0
  O  O333  1  0.93757000  0.67055000  0.71568000  1.0
  O  O334  1  0.60791000  0.21584000  0.32935000  1.0
  O  O335  1  0.65338000  0.28424000  0.17057000  1.0
  F  F336  1  0.95667000  0.81842000  0.32376000  1.0
  F  F337  1  0.59925000  0.68202000  0.17631000  1.0
  F  F338  1  0.28134000  0.67625000  0.31810000  1.0
  F  F339  1  0.77574000  0.82371000  0.18187000  1.0
  F  F340  1  0.04332000  0.18158000  0.67624000  1.0
  F  F341  1  0.40076000  0.31798000  0.82369000  1.0
  F  F342  1  0.71865000  0.32375000  0.68191000  1.0
  F  F343  1  0.22426000  0.17630000  0.81814000  1.0
  F  F344  1  0.38373000  0.92692000  0.31154000  1.0
  F  F345  1  0.12233000  0.57312000  0.18850000  1.0
  F  F346  1  0.69547000  0.68851000  0.42700000  1.0
  F  F347  1  0.31116000  0.81136000  0.07316000  1.0
  F  F348  1  0.61627000  0.07308000  0.68846000  1.0
  F  F349  1  0.87766000  0.42688000  0.81151000  1.0
  F  F350  1  0.30453000  0.31149000  0.57300000  1.0
  F  F351  1  0.68884000  0.18864000  0.92684000  1.0
