# generated using pymatgen
data_CdH12(C7O3)2
_symmetry_space_group_name_H-M   'P 1'
_cell_length_a   5.73347000
_cell_length_b   7.69796000
_cell_length_c   29.14100000
_cell_angle_alpha   90.00000000
_cell_angle_beta   90.00000000
_cell_angle_gamma   90.00000000
_symmetry_Int_Tables_number   1
_chemical_formula_structural   CdH12(C7O3)2
_chemical_formula_sum   'Cd4 H48 C56 O24'
_cell_volume   1286.16783812
_cell_formula_units_Z   4
loop_
 _symmetry_equiv_pos_site_id
 _symmetry_equiv_pos_as_xyz
  1  'x, y, z'
loop_
 _atom_site_type_symbol
 _atom_site_label
 _atom_site_symmetry_multiplicity
 _atom_site_fract_x
 _atom_site_fract_y
 _atom_site_fract_z
 _atom_site_occupancy
  Cd  Cd0  1  0.46348000  0.94328000  0.24999000  1.0
  Cd  Cd1  1  0.03654000  0.44327000  0.75001000  1.0
  Cd  Cd2  1  0.96347000  0.55673000  0.25001000  1.0
  Cd  Cd3  1  0.53654000  0.05671000  0.74999000  1.0
  H  H4  1  0.48571000  0.59248000  0.27684000  1.0
  H  H5  1  0.01431000  0.09246000  0.72316000  1.0
  H  H6  1  0.98570000  0.90754000  0.22316000  1.0
  H  H7  1  0.51429000  0.40751000  0.77684000  1.0
  H  H8  1  0.51428000  0.40753000  0.72319000  1.0
  H  H9  1  0.98571000  0.90755000  0.27681000  1.0
  H  H10  1  0.01430000  0.09243000  0.77681000  1.0
  H  H11  1  0.48571000  0.59246000  0.22319000  1.0
  H  H12  1  0.29688000  0.27729000  0.27649000  1.0
  H  H13  1  0.20314000  0.77726000  0.72351000  1.0
  H  H14  1  0.79687000  0.22273000  0.22351000  1.0
  H  H15  1  0.70312000  0.72272000  0.77649000  1.0
  H  H16  1  0.70314000  0.72269000  0.72353000  1.0
  H  H17  1  0.79688000  0.22270000  0.27647000  1.0
  H  H18  1  0.20313000  0.77729000  0.77647000  1.0
  H  H19  1  0.29688000  0.27731000  0.22353000  1.0
  H  H20  1  0.06553000  0.12374000  0.36617000  1.0
  H  H21  1  0.43448000  0.62372000  0.63383000  1.0
  H  H22  1  0.56553000  0.37633000  0.13382000  1.0
  H  H23  1  0.93447000  0.87626000  0.86618000  1.0
  H  H24  1  0.93457000  0.87635000  0.63380000  1.0
  H  H25  1  0.56546000  0.37639000  0.36620000  1.0
  H  H26  1  0.43452000  0.62359000  0.86619000  1.0
  H  H27  1  0.06546000  0.12363000  0.13380000  1.0
  H  H28  1  0.22863000  0.14235000  0.44344000  1.0
  H  H29  1  0.27137000  0.64234000  0.55655000  1.0
  H  H30  1  0.72860000  0.35769000  0.05655000  1.0
  H  H31  1  0.77137000  0.85766000  0.94345000  1.0
  H  H32  1  0.77146000  0.85774000  0.55653000  1.0
  H  H33  1  0.72857000  0.35776000  0.44347000  1.0
  H  H34  1  0.27139000  0.64222000  0.94346000  1.0
  H  H35  1  0.22856000  0.14226000  0.05653000  1.0
  H  H36  1  0.63615000  0.85536000  0.49564000  1.0
  H  H37  1  0.86389000  0.35536000  0.50436000  1.0
  H  H38  1  0.13607000  0.64464000  0.00435000  1.0
  H  H39  1  0.36389000  0.14464000  0.99564000  1.0
  H  H40  1  0.36390000  0.14481000  0.50433000  1.0
  H  H41  1  0.13618000  0.64485000  0.49567000  1.0
  H  H42  1  0.86381000  0.35515000  0.99566000  1.0
  H  H43  1  0.63612000  0.85519000  0.00434000  1.0
  H  H44  1  0.47073000  0.84643000  0.41805000  1.0
  H  H45  1  0.02928000  0.34643000  0.58195000  1.0
  H  H46  1  0.97070000  0.65361000  0.08195000  1.0
  H  H47  1  0.52929000  0.15355000  0.91805000  1.0
  H  H48  1  0.52930000  0.15375000  0.58194000  1.0
  H  H49  1  0.97076000  0.65381000  0.41807000  1.0
  H  H50  1  0.02922000  0.34620000  0.91806000  1.0
  H  H51  1  0.47073000  0.84625000  0.08194000  1.0
  C  C52  1  0.65863000  0.97324000  0.33938000  1.0
  C  C53  1  0.84137000  0.47322000  0.66062000  1.0
  C  C54  1  0.15864000  0.52681000  0.16062000  1.0
  C  C55  1  0.34137000  0.02675000  0.83939000  1.0
  C  C56  1  0.34143000  0.02684000  0.66059000  1.0
  C  C57  1  0.15858000  0.52689000  0.33941000  1.0
  C  C58  1  0.84140000  0.47311000  0.83941000  1.0
  C  C59  1  0.65859000  0.97315000  0.16059000  1.0
  C  C60  1  0.75593000  0.98468000  0.38672000  1.0
  C  C61  1  0.74408000  0.48467000  0.61329000  1.0
  C  C62  1  0.25593000  0.51536000  0.11329000  1.0
  C  C63  1  0.24407000  0.01531000  0.88671000  1.0
  C  C64  1  0.24414000  0.01543000  0.61326000  1.0
  C  C65  1  0.25589000  0.51546000  0.38674000  1.0
  C  C66  1  0.74407000  0.48455000  0.88674000  1.0
  C  C67  1  0.75588000  0.98457000  0.11326000  1.0
  C  C68  1  0.97000000  0.06744000  0.39484000  1.0
  C  C69  1  0.53002000  0.56742000  0.60516000  1.0
  C  C70  1  0.46996000  0.43261000  0.10516000  1.0
  C  C71  1  0.03001000  0.93256000  0.89484000  1.0
  C  C72  1  0.03008000  0.93264000  0.60513000  1.0
  C  C73  1  0.46992000  0.43269000  0.39486000  1.0
  C  C74  1  0.53005000  0.56730000  0.89486000  1.0
  C  C75  1  0.96993000  0.06733000  0.10514000  1.0
  C  C76  1  0.06267000  0.07579000  0.43891000  1.0
  C  C77  1  0.43734000  0.57578000  0.56109000  1.0
  C  C78  1  0.56263000  0.42424000  0.06109000  1.0
  C  C79  1  0.93733000  0.92422000  0.93891000  1.0
  C  C80  1  0.93742000  0.92429000  0.56107000  1.0
  C  C81  1  0.56261000  0.42432000  0.43894000  1.0
  C  C82  1  0.43736000  0.57568000  0.93893000  1.0
  C  C83  1  0.06261000  0.07570000  0.06107000  1.0
  C  C84  1  0.94832000  0.99853000  0.47661000  1.0
  C  C85  1  0.55172000  0.49852000  0.52338000  1.0
  C  C86  1  0.44825000  0.50148000  0.02338000  1.0
  C  C87  1  0.05169000  0.00148000  0.97661000  1.0
  C  C88  1  0.05178000  0.00157000  0.52336000  1.0
  C  C89  1  0.44827000  0.50158000  0.47664000  1.0
  C  C90  1  0.55171000  0.49842000  0.97663000  1.0
  C  C91  1  0.94825000  0.99843000  0.02336000  1.0
  C  C92  1  0.73224000  0.91699000  0.46788000  1.0
  C  C93  1  0.76778000  0.41698000  0.53212000  1.0
  C  C94  1  0.23217000  0.58303000  0.03212000  1.0
  C  C95  1  0.26779000  0.08302000  0.96788000  1.0
  C  C96  1  0.26783000  0.08314000  0.53210000  1.0
  C  C97  1  0.23220000  0.58318000  0.46790000  1.0
  C  C98  1  0.76777000  0.41683000  0.96790000  1.0
  C  C99  1  0.73219000  0.91686000  0.03210000  1.0
  C  C100  1  0.63703000  0.91094000  0.42400000  1.0
  C  C101  1  0.86300000  0.41092000  0.57601000  1.0
  C  C102  1  0.13699000  0.58911000  0.07600000  1.0
  C  C103  1  0.36298000  0.08906000  0.92400000  1.0
  C  C104  1  0.36303000  0.08920000  0.57599000  1.0
  C  C105  1  0.13701000  0.58924000  0.42402000  1.0
  C  C106  1  0.86297000  0.41075000  0.92402000  1.0
  C  C107  1  0.63699000  0.91080000  0.07599000  1.0
  O  O108  1  0.78922000  0.02426000  0.30549000  1.0
  O  O109  1  0.71077000  0.52423000  0.69451000  1.0
  O  O110  1  0.28923000  0.47578000  0.19450000  1.0
  O  O111  1  0.21078000  0.97574000  0.80549000  1.0
  O  O112  1  0.21084000  0.97578000  0.69448000  1.0
  O  O113  1  0.28918000  0.47583000  0.30552000  1.0
  O  O114  1  0.71082000  0.52419000  0.80552000  1.0
  O  O115  1  0.78919000  0.02421000  0.19448000  1.0
  O  O116  1  0.45437000  0.91651000  0.33250000  1.0
  O  O117  1  0.04562000  0.41651000  0.66750000  1.0
  O  O118  1  0.95437000  0.58352000  0.16751000  1.0
  O  O119  1  0.54562000  0.08347000  0.83250000  1.0
  O  O120  1  0.54567000  0.08358000  0.66749000  1.0
  O  O121  1  0.95435000  0.58364000  0.33252000  1.0
  O  O122  1  0.04566000  0.41638000  0.83252000  1.0
  O  O123  1  0.45434000  0.91640000  0.16749000  1.0
  O  O124  1  0.56490000  0.65011000  0.25001000  1.0
  O  O125  1  0.93512000  0.15009000  0.74999000  1.0
  O  O126  1  0.06490000  0.84990000  0.24999000  1.0
  O  O127  1  0.43510000  0.34987000  0.75001000  1.0
  O  O128  1  0.27158000  0.19852000  0.25001000  1.0
  O  O129  1  0.22845000  0.69849000  0.74999000  1.0
  O  O130  1  0.77158000  0.30149000  0.24999000  1.0
  O  O131  1  0.72843000  0.80148000  0.75001000  1.0
