# generated using pymatgen
data_Zn4H18C27N2O17
_symmetry_space_group_name_H-M   'P 1'
_cell_length_a   10.83200000
_cell_length_b   10.91970000
_cell_length_c   19.49400000
_cell_angle_alpha   97.54670000
_cell_angle_beta   92.05650000
_cell_angle_gamma   98.09810000
_symmetry_Int_Tables_number   1
_chemical_formula_structural   Zn4H18C27N2O17
_chemical_formula_sum   'Zn4 H18 C27 N2 O17'
_cell_volume   2259.54995111
_cell_formula_units_Z   1
loop_
 _symmetry_equiv_pos_site_id
 _symmetry_equiv_pos_as_xyz
  1  'x, y, z'
loop_
 _atom_site_type_symbol
 _atom_site_label
 _atom_site_symmetry_multiplicity
 _atom_site_fract_x
 _atom_site_fract_y
 _atom_site_fract_z
 _atom_site_occupancy
  Zn  Zn0  1  0.40264000  0.58471000  0.44405000  1.0
  Zn  Zn1  1  0.39885000  0.38355000  0.55082000  1.0
  Zn  Zn2  1  0.61576000  0.62385000  0.56552000  1.0
  Zn  Zn3  1  0.60106000  0.40068000  0.43724000  1.0
  H  H4  1  0.30151000  0.51795000  0.23102000  1.0
  H  H5  1  0.44670000  0.31111000  0.75133000  1.0
  H  H6  1  0.65389000  0.53465000  0.00867000  1.0
  H  H7  1  0.65673000  0.39509000  0.09787000  1.0
  H  H8  1  0.66745000  0.41006000  0.22693000  1.0
  H  H9  1  0.38110000  0.40623000  0.98720000  1.0
  H  H10  1  0.63829000  0.68315000  0.91423000  1.0
  H  H11  1  0.49922000  0.01006000  0.58029000  1.0
  H  H12  1  0.50032000  0.98240000  0.42031000  1.0
  H  H13  1  0.02459000  0.64661000  0.51406000  1.0
  H  H14  1  0.98479000  0.35774000  0.49175000  1.0
  H  H15  1  0.99210000  0.49041000  0.07462000  1.0
  H  H16  1  0.05370000  0.46521000  0.99163000  1.0
  H  H17  1  0.96451000  0.33951000  0.02507000  1.0
  H  H18  1  0.19318000  0.32227000  0.03703000  1.0
  H  H19  1  0.13212000  0.34755000  0.11923000  1.0
  H  H20  1  0.21070000  0.57678000  0.12810000  1.0
  H  H21  1  0.27542000  0.55268000  0.04673000  1.0
  C  C22  1  0.49394000  0.16496000  0.48157000  1.0
  C  C23  1  0.50841000  0.82895000  0.51713000  1.0
  C  C24  1  0.17364000  0.46543000  0.49809000  1.0
  C  C25  1  0.83614000  0.53650000  0.50553000  1.0
  C  C26  1  0.51640000  0.50701000  0.68463000  1.0
  C  C27  1  0.49151000  0.47724000  0.31357000  1.0
  C  C28  1  0.48484000  0.46535000  0.23649000  1.0
  C  C29  1  0.37829000  0.48989000  0.20093000  1.0
  C  C30  1  0.36935000  0.48087000  0.12878000  1.0
  C  C31  1  0.47260000  0.44849000  0.09139000  1.0
  C  C32  1  0.57933000  0.42342000  0.12739000  1.0
  C  C33  1  0.58558000  0.43064000  0.19909000  1.0
  C  C34  1  0.50739000  0.38488000  0.85706000  1.0
  C  C35  1  0.48848000  0.39296000  0.78694000  1.0
  C  C36  1  0.57998000  0.60796000  0.80914000  1.0
  C  C37  1  0.59841000  0.59988000  0.87908000  1.0
  C  C38  1  0.56020000  0.48765000  0.90548000  1.0
  C  C39  1  0.46996000  0.44342000  0.01596000  1.0
  C  C40  1  0.56758000  0.48703000  0.98062000  1.0
  C  C41  1  0.52601000  0.50520000  0.76142000  1.0
  C  C42  1  0.49819000  0.96416000  0.52705000  1.0
  C  C43  1  0.49499000  0.02826000  0.47308000  1.0
  C  C44  1  0.97444000  0.55156000  0.50511000  1.0
  C  C45  1  0.03541000  0.45249000  0.49693000  1.0
  C  C46  1  0.25232000  0.50817000  0.09308000  1.0
  C  C47  1  0.15367000  0.39176000  0.07259000  1.0
  C  C48  1  0.03439000  0.42320000  0.03913000  1.0
  N  N49  1  0.60983000  0.73355000  0.78784000  1.0
  N  N50  1  0.47542000  0.25971000  0.87854000  1.0
  O  O51  1  0.50506000  0.49863000  0.50131000  1.0
  O  O52  1  0.54187000  0.22088000  0.43304000  1.0
  O  O53  1  0.46383000  0.76484000  0.45982000  1.0
  O  O54  1  0.22234000  0.37784000  0.52131000  1.0
  O  O55  1  0.78975000  0.62679000  0.53855000  1.0
  O  O56  1  0.42402000  0.43567000  0.65188000  1.0
  O  O57  1  0.58570000  0.44197000  0.34267000  1.0
  O  O58  1  0.60387000  0.57522000  0.65975000  1.0
  O  O59  1  0.40284000  0.52239000  0.34515000  1.0
  O  O60  1  0.23129000  0.56107000  0.47567000  1.0
  O  O61  1  0.77604000  0.43553000  0.47277000  1.0
  O  O62  1  0.44649000  0.21497000  0.53537000  1.0
  O  O63  1  0.56198000  0.78882000  0.56739000  1.0
  O  O64  1  0.52688000  0.77010000  0.75407000  1.0
  O  O65  1  0.71312000  0.79360000  0.80783000  1.0
  O  O66  1  0.37178000  0.20058000  0.85778000  1.0
  O  O67  1  0.55547000  0.22220000  0.91401000  1.0
