# generated using pymatgen
data_FeH24C34S2(N7O)2
_symmetry_space_group_name_H-M   'P 1'
_cell_length_a   9.04949000
_cell_length_b   9.24870000
_cell_length_c   11.54060000
_cell_angle_alpha   101.24800000
_cell_angle_beta   101.85900000
_cell_angle_gamma   103.01800000
_symmetry_Int_Tables_number   1
_chemical_formula_structural   FeH24C34S2(N7O)2
_chemical_formula_sum   'Fe1 H24 C34 S2 N14 O2'
_cell_volume   891.00057843
_cell_formula_units_Z   1
loop_
 _symmetry_equiv_pos_site_id
 _symmetry_equiv_pos_as_xyz
  1  'x, y, z'
loop_
 _atom_site_type_symbol
 _atom_site_label
 _atom_site_symmetry_multiplicity
 _atom_site_fract_x
 _atom_site_fract_y
 _atom_site_fract_z
 _atom_site_occupancy
  Fe  Fe0  1  0.98681000  0.98214000  0.50023000  1.0
  H  H1  1  0.34478000  0.96994000  0.48453000  1.0
  H  H2  1  0.63579000  0.02952000  0.51611000  1.0
  H  H3  1  0.11372000  0.90020000  0.75800000  1.0
  H  H4  1  0.87208000  0.07381000  0.24180000  1.0
  H  H5  1  0.17599000  0.71046000  0.85163000  1.0
  H  H6  1  0.82649000  0.28184000  0.15063000  1.0
  H  H7  1  0.28171000  0.64181000  0.04066000  1.0
  H  H8  1  0.72731000  0.35126000  0.95989000  1.0
  H  H9  1  0.75313000  0.86868000  0.03674000  1.0
  H  H10  1  0.25106000  0.13632000  0.96025000  1.0
  H  H11  1  0.64606000  0.94780000  0.85105000  1.0
  H  H12  1  0.35111000  0.05732000  0.14784000  1.0
  H  H13  1  0.36841000  0.81714000  0.25103000  1.0
  H  H14  1  0.64212000  0.18649000  0.74396000  1.0
  H  H15  1  0.22158000  0.68129000  0.37604000  1.0
  H  H16  1  0.78431000  0.32654000  0.61838000  1.0
  H  H17  1  0.48326000  0.34490000  0.34681000  1.0
  H  H18  1  0.51784000  0.65820000  0.65487000  1.0
  H  H19  1  0.62356000  0.47728000  0.21600000  1.0
  H  H20  1  0.38238000  0.52145000  0.78568000  1.0
  H  H21  1  0.05089000  0.38837000  0.62381000  1.0
  H  H22  1  0.95860000  0.62849000  0.38040000  1.0
  H  H23  1  0.25759000  0.18780000  0.36416000  1.0
  H  H24  1  0.73966000  0.81928000  0.63604000  1.0
  C  C25  1  0.31968000  0.94299000  0.56694000  1.0
  C  C26  1  0.66423000  0.05277000  0.43360000  1.0
  C  C27  1  0.19739000  0.90526000  0.70296000  1.0
  C  C28  1  0.78895000  0.07668000  0.29703000  1.0
  C  C29  1  0.40386000  0.83538000  0.84044000  1.0
  C  C30  1  0.59552000  0.16339000  0.16025000  1.0
  C  C31  1  0.30228000  0.74851000  0.89326000  1.0
  C  C32  1  0.70044000  0.24702000  0.10799000  1.0
  C  C33  1  0.36195000  0.70875000  0.99995000  1.0
  C  C34  1  0.64452000  0.28720000  0.00040000  1.0
  C  C35  1  0.52412000  0.75605000  0.05266000  1.0
  C  C36  1  0.48280000  0.24292000  0.94611000  1.0
  C  C37  1  0.62643000  0.83803000  0.99697000  1.0
  C  C38  1  0.37728000  0.16430000  0.00130000  1.0
  C  C39  1  0.56625000  0.87912000  0.89141000  1.0
  C  C40  1  0.43356000  0.12327000  0.10777000  1.0
  C  C41  1  0.50413000  0.65320000  0.22594000  1.0
  C  C42  1  0.50484000  0.34800000  0.77290000  1.0
  C  C43  1  0.39310000  0.71365000  0.27162000  1.0
  C  C44  1  0.61608000  0.29026000  0.72521000  1.0
  C  C45  1  0.31020000  0.63740000  0.34134000  1.0
  C  C46  1  0.69620000  0.36890000  0.65512000  1.0
  C  C47  1  0.34139000  0.50386000  0.36649000  1.0
  C  C48  1  0.66221000  0.50220000  0.63164000  1.0
  C  C49  1  0.45569000  0.44635000  0.32386000  1.0
  C  C50  1  0.54784000  0.55710000  0.67645000  1.0
  C  C51  1  0.53581000  0.52087000  0.25214000  1.0
  C  C52  1  0.47050000  0.48013000  0.74834000  1.0
  C  C53  1  0.11634000  0.37455000  0.55555000  1.0
  C  C54  1  0.89018000  0.63885000  0.44670000  1.0
  C  C55  1  0.22147000  0.26908000  0.42581000  1.0
  C  C56  1  0.77802000  0.73987000  0.57486000  1.0
  C  C57  1  0.94612000  0.10993000  0.75527000  1.0
  C  C58  1  0.04736000  0.88141000  0.24738000  1.0
  S  S59  1  0.94493000  0.16173000  0.89723000  1.0
  S  S60  1  0.06325000  0.84846000  0.10811000  1.0
  N  N61  1  0.33994000  0.88083000  0.73497000  1.0
  N  N62  1  0.65398000  0.11592000  0.26640000  1.0
  N  N63  1  0.42009000  0.90526000  0.64908000  1.0
  N  N64  1  0.57227000  0.10063000  0.35282000  1.0
  N  N65  1  0.18071000  0.94383000  0.59603000  1.0
  N  N66  1  0.79888000  0.03662000  0.40318000  1.0
  N  N67  1  0.25368000  0.42142000  0.43328000  1.0
  N  N68  1  0.74794000  0.58743000  0.56515000  1.0
  N  N69  1  0.18636000  0.49056000  0.51591000  1.0
  N  N70  1  0.81907000  0.52182000  0.48401000  1.0
  N  N71  1  0.13495000  0.23692000  0.50260000  1.0
  N  N72  1  0.86939000  0.77635000  0.50094000  1.0
  N  N73  1  0.94632000  0.06868000  0.65083000  1.0
  N  N74  1  0.03590000  0.91015000  0.34982000  1.0
  O  O75  1  0.59476000  0.72428000  0.15873000  1.0
  O  O76  1  0.41458000  0.27353000  0.83872000  1.0
