# generated using pymatgen
data_CdH16C20S2(N2Cl)2
_symmetry_space_group_name_H-M   'P 1'
_cell_length_a   7.59425000
_cell_length_b   9.46011000
_cell_length_c   15.57690000
_cell_angle_alpha   90.00010000
_cell_angle_beta   90.00000000
_cell_angle_gamma   97.65820000
_symmetry_Int_Tables_number   1
_chemical_formula_structural   CdH16C20S2(N2Cl)2
_chemical_formula_sum   'Cd2 H32 C40 S4 N8 Cl4'
_cell_volume   1109.10106027
_cell_formula_units_Z   2
loop_
 _symmetry_equiv_pos_site_id
 _symmetry_equiv_pos_as_xyz
  1  'x, y, z'
loop_
 _atom_site_type_symbol
 _atom_site_label
 _atom_site_symmetry_multiplicity
 _atom_site_fract_x
 _atom_site_fract_y
 _atom_site_fract_z
 _atom_site_occupancy
  Cd  Cd0  1  0.50000000  0.50000000  0.50000000  1.0
  Cd  Cd1  1  0.50000000  0.00000000  0.00000000  1.0
  H  H2  1  0.88049000  0.58346000  0.41415000  1.0
  H  H3  1  0.11951000  0.91654000  0.91415000  1.0
  H  H4  1  0.11951000  0.41654000  0.58585000  1.0
  H  H5  1  0.88049000  0.08346000  0.08585000  1.0
  H  H6  1  0.06096000  0.55060000  0.28646000  1.0
  H  H7  1  0.93904000  0.94940000  0.78646000  1.0
  H  H8  1  0.93904000  0.44940000  0.71354000  1.0
  H  H9  1  0.06096000  0.05060000  0.21354000  1.0
  H  H10  1  0.58528000  0.32117000  0.16971000  1.0
  H  H11  1  0.41472000  0.17883000  0.66971000  1.0
  H  H12  1  0.41472000  0.67883000  0.83029000  1.0
  H  H13  1  0.58529000  0.82117000  0.33029000  1.0
  H  H14  1  0.42236000  0.37461000  0.30223000  1.0
  H  H15  1  0.57764000  0.12539000  0.80223000  1.0
  H  H16  1  0.57764000  0.62539000  0.69777000  1.0
  H  H17  1  0.42236000  0.87461000  0.19777000  1.0
  H  H18  1  0.50456000  0.66286000  0.02101000  1.0
  H  H19  1  0.49543000  0.83714000  0.52101000  1.0
  H  H20  1  0.49544000  0.33714000  0.97899000  1.0
  H  H21  1  0.50456000  0.16286000  0.47899000  1.0
  H  H22  1  0.32288000  0.43464000  0.07406000  1.0
  H  H23  1  0.67712000  0.06536000  0.57406000  1.0
  H  H24  1  0.67711000  0.56536000  0.92594000  1.0
  H  H25  1  0.32289000  0.93464000  0.42594000  1.0
  H  H26  1  0.89593000  0.68460000  0.12326000  1.0
  H  H27  1  0.10407000  0.81539000  0.62326000  1.0
  H  H28  1  0.10407000  0.31540000  0.87674000  1.0
  H  H29  1  0.89593000  0.18460000  0.37674000  1.0
  H  H30  1  0.09611000  0.89823000  0.07084000  1.0
  H  H31  1  0.90389000  0.60176000  0.57084000  1.0
  H  H32  1  0.90389000  0.10177000  0.92916000  1.0
  H  H33  1  0.09611000  0.39824000  0.42916000  1.0
  C  C34  1  0.81808000  0.52908000  0.35802000  1.0
  C  C35  1  0.18192000  0.97092000  0.85802000  1.0
  C  C36  1  0.18191000  0.47092000  0.64198000  1.0
  C  C37  1  0.81808000  0.02908000  0.14198000  1.0
  C  C38  1  0.91972000  0.50957000  0.28608000  1.0
  C  C39  1  0.08028000  0.99043000  0.78608000  1.0
  C  C40  1  0.08028000  0.49043000  0.71392000  1.0
  C  C41  1  0.91972000  0.00958000  0.21392000  1.0
  C  C42  1  0.83776000  0.43204000  0.21683000  1.0
  C  C43  1  0.16224000  0.06796000  0.71683000  1.0
  C  C44  1  0.16224000  0.56796000  0.78317000  1.0
  C  C45  1  0.83776000  0.93204000  0.28317000  1.0
  C  C46  1  0.65579000  0.38166000  0.22188000  1.0
  C  C47  1  0.34421000  0.11834000  0.72188000  1.0
  C  C48  1  0.34421000  0.61834000  0.77812000  1.0
  C  C49  1  0.65579000  0.88166000  0.27812000  1.0
  C  C50  1  0.56453000  0.40999000  0.29623000  1.0
  C  C51  1  0.43547000  0.09001000  0.79623000  1.0
  C  C52  1  0.43547000  0.59001000  0.70377000  1.0
  C  C53  1  0.56453000  0.90999000  0.20377000  1.0
  C  C54  1  0.36870000  0.66088000  0.04454000  1.0
  C  C55  1  0.63130000  0.83912000  0.54454000  1.0
  C  C56  1  0.63130000  0.33912000  0.95546000  1.0
  C  C57  1  0.36870000  0.16088000  0.45546000  1.0
  C  C58  1  0.26928000  0.53612000  0.07376000  1.0
  C  C59  1  0.73072000  0.96388000  0.57376000  1.0
  C  C60  1  0.73072000  0.46388000  0.92624000  1.0
  C  C61  1  0.26928000  0.03612000  0.42624000  1.0
  C  C62  1  0.09578000  0.54236000  0.10300000  1.0
  C  C63  1  0.90422000  0.95764000  0.60300000  1.0
  C  C64  1  0.90422000  0.45764000  0.89700000  1.0
  C  C65  1  0.09578000  0.04236000  0.39700000  1.0
  C  C66  1  0.03059000  0.67426000  0.10250000  1.0
  C  C67  1  0.96941000  0.82574000  0.60249000  1.0
  C  C68  1  0.96941000  0.32574000  0.89750000  1.0
  C  C69  1  0.03059000  0.17426000  0.39750000  1.0
  C  C70  1  0.14054000  0.79321000  0.07256000  1.0
  C  C71  1  0.85945000  0.70679000  0.57256000  1.0
  C  C72  1  0.85946000  0.20679000  0.92744000  1.0
  C  C73  1  0.14054000  0.29321000  0.42744000  1.0
  S  S74  1  0.96333000  0.38155000  0.12977000  1.0
  S  S75  1  0.03667000  0.11845000  0.62977000  1.0
  S  S76  1  0.03667000  0.61845000  0.87023000  1.0
  S  S77  1  0.96334000  0.88155000  0.37023000  1.0
  N  N78  1  0.64374000  0.48047000  0.36373000  1.0
  N  N79  1  0.35626000  0.01953000  0.86373000  1.0
  N  N80  1  0.35626000  0.51953000  0.63627000  1.0
  N  N81  1  0.64374000  0.98047000  0.13627000  1.0
  N  N82  1  0.30644000  0.78748000  0.04365000  1.0
  N  N83  1  0.69356000  0.71252000  0.54365000  1.0
  N  N84  1  0.69356000  0.21252000  0.95635000  1.0
  N  N85  1  0.30644000  0.28748000  0.45635000  1.0
  Cl  Cl86  1  0.71852000  0.34352000  0.57103000  1.0
  Cl  Cl87  1  0.28148000  0.15648000  0.07103000  1.0
  Cl  Cl88  1  0.28148000  0.65648000  0.42897000  1.0
  Cl  Cl89  1  0.71852000  0.84351000  0.92897000  1.0
