# generated using pymatgen
data_AgH9C9(NO)4
_symmetry_space_group_name_H-M   'P 1'
_cell_length_a   7.46714000
_cell_length_b   10.55260000
_cell_length_c   15.06200000
_cell_angle_alpha   90.00000000
_cell_angle_beta   90.00000000
_cell_angle_gamma   104.44300000
_symmetry_Int_Tables_number   1
_chemical_formula_structural   AgH9C9(NO)4
_chemical_formula_sum   'Ag4 H36 C36 N16 O16'
_cell_volume   1149.34262117
_cell_formula_units_Z   4
loop_
 _symmetry_equiv_pos_site_id
 _symmetry_equiv_pos_as_xyz
  1  'x, y, z'
loop_
 _atom_site_type_symbol
 _atom_site_label
 _atom_site_symmetry_multiplicity
 _atom_site_fract_x
 _atom_site_fract_y
 _atom_site_fract_z
 _atom_site_occupancy
  Ag  Ag0  1  0.75009000  0.79121000  0.34548000  1.0
  Ag  Ag1  1  0.74991000  0.20879000  0.84548000  1.0
  Ag  Ag2  1  0.24991000  0.20879000  0.65452000  1.0
  Ag  Ag3  1  0.25009000  0.79121000  0.15452000  1.0
  H  H4  1  0.33416000  0.38029000  0.86172000  1.0
  H  H5  1  0.16584000  0.61971000  0.36172000  1.0
  H  H6  1  0.66584000  0.61971000  0.13828000  1.0
  H  H7  1  0.83416000  0.38029000  0.63828000  1.0
  H  H8  1  0.41314000  0.57112000  0.96587000  1.0
  H  H9  1  0.08686000  0.42888000  0.46587000  1.0
  H  H10  1  0.58686000  0.42888000  0.03413000  1.0
  H  H11  1  0.91314000  0.57112000  0.53413000  1.0
  H  H12  1  0.48196000  0.79858000  0.90987000  1.0
  H  H13  1  0.01803000  0.20142000  0.40987000  1.0
  H  H14  1  0.51804000  0.20142000  0.09013000  1.0
  H  H15  1  0.98197000  0.79858000  0.59013000  1.0
  H  H16  1  0.46402000  0.84672000  0.74873000  1.0
  H  H17  1  0.03598000  0.15328000  0.24873000  1.0
  H  H18  1  0.53598000  0.15328000  0.25126000  1.0
  H  H19  1  0.96402000  0.84672000  0.75126000  1.0
  H  H20  1  0.56804000  0.64851000  0.50193000  1.0
  H  H21  1  0.93196000  0.35150000  0.00193000  1.0
  H  H22  1  0.43196000  0.35149000  0.49807000  1.0
  H  H23  1  0.06804000  0.64851000  0.99807000  1.0
  H  H24  1  0.65603000  0.79756000  0.56432000  1.0
  H  H25  1  0.84397000  0.20244000  0.06432000  1.0
  H  H26  1  0.34398000  0.20244000  0.43568000  1.0
  H  H27  1  0.15602000  0.79756000  0.93568000  1.0
  H  H28  1  0.40718000  0.79204000  0.39851000  1.0
  H  H29  1  0.09282000  0.20796000  0.89851000  1.0
  H  H30  1  0.59282000  0.20797000  0.60149000  1.0
  H  H31  1  0.90718000  0.79203000  0.10149000  1.0
  H  H32  1  0.75911000  0.98797000  0.47034000  1.0
  H  H33  1  0.74089000  0.01203000  0.97034000  1.0
  H  H34  1  0.24089000  0.01203000  0.52966000  1.0
  H  H35  1  0.25911000  0.98797000  0.02966000  1.0
  H  H36  1  0.62025000  0.00796000  0.37034000  1.0
  H  H37  1  0.87975000  0.99205000  0.87034000  1.0
  H  H38  1  0.37976000  0.99205000  0.62966000  1.0
  H  H39  1  0.12025000  0.00795000  0.12966000  1.0
  C  C40  1  0.34517000  0.50773000  0.74736000  1.0
  C  C41  1  0.15482000  0.49227000  0.24736000  1.0
  C  C42  1  0.65483000  0.49227000  0.25264000  1.0
  C  C43  1  0.84517000  0.50773000  0.75264000  1.0
  C  C44  1  0.35683000  0.48063000  0.83820000  1.0
  C  C45  1  0.14316000  0.51937000  0.33820000  1.0
  C  C46  1  0.64316000  0.51937000  0.16180000  1.0
  C  C47  1  0.85683000  0.48063000  0.66180000  1.0
  C  C48  1  0.40437000  0.58742000  0.89476000  1.0
  C  C49  1  0.09563000  0.41258000  0.39476000  1.0
  C  C50  1  0.59563000  0.41258000  0.10524000  1.0
  C  C51  1  0.90438000  0.58742000  0.60524000  1.0
  C  C52  1  0.44225000  0.71796000  0.86295000  1.0
  C  C53  1  0.05775000  0.28204000  0.36294000  1.0
  C  C54  1  0.55775000  0.28204000  0.13705000  1.0
  C  C55  1  0.94225000  0.71796000  0.63705000  1.0
  C  C56  1  0.43110000  0.74691000  0.77364000  1.0
  C  C57  1  0.06890000  0.25310000  0.27364000  1.0
  C  C58  1  0.56890000  0.25310000  0.22636000  1.0
  C  C59  1  0.93110000  0.74690000  0.72635000  1.0
  C  C60  1  0.38061000  0.63858000  0.71714000  1.0
  C  C61  1  0.11939000  0.36142000  0.21714000  1.0
  C  C62  1  0.61939000  0.36142000  0.28286000  1.0
  C  C63  1  0.88061000  0.63858000  0.78286000  1.0
  C  C64  1  0.54723000  0.74513000  0.51904000  1.0
  C  C65  1  0.95277000  0.25488000  0.01903000  1.0
  C  C66  1  0.45278000  0.25488000  0.48096000  1.0
  C  C67  1  0.04723000  0.74513000  0.98097000  1.0
  C  C68  1  0.53138000  0.82554000  0.43906000  1.0
  C  C69  1  0.96862000  0.17446000  0.93906000  1.0
  C  C70  1  0.46862000  0.17446000  0.56094000  1.0
  C  C71  1  0.03138000  0.82554000  0.06094000  1.0
  C  C72  1  0.64959000  0.94582000  0.42324000  1.0
  C  C73  1  0.85041000  0.05418000  0.92324000  1.0
  C  C74  1  0.35042000  0.05418000  0.57676000  1.0
  C  C75  1  0.14959000  0.94582000  0.07676000  1.0
  N  N76  1  0.35521000  0.62395000  0.62743000  1.0
  N  N77  1  0.14479000  0.37604000  0.12743000  1.0
  N  N78  1  0.64479000  0.37605000  0.37256000  1.0
  N  N79  1  0.85521000  0.62395000  0.87257000  1.0
  N  N80  1  0.30986000  0.49821000  0.60222000  1.0
  N  N81  1  0.19013000  0.50179000  0.10222000  1.0
  N  N82  1  0.69014000  0.50179000  0.39778000  1.0
  N  N83  1  0.80986000  0.49821000  0.89778000  1.0
  N  N84  1  0.30367000  0.42679000  0.67433000  1.0
  N  N85  1  0.19633000  0.57321000  0.17433000  1.0
  N  N86  1  0.69632000  0.57321000  0.32567000  1.0
  N  N87  1  0.80367000  0.42679000  0.82567000  1.0
  N  N88  1  0.16288000  0.92735000  0.33105000  1.0
  N  N89  1  0.33712000  0.07265000  0.83105000  1.0
  N  N90  1  0.83712000  0.07264000  0.66895000  1.0
  N  N91  1  0.66288000  0.92735000  0.16895000  1.0
  O  O92  1  0.36636000  0.72042000  0.56583000  1.0
  O  O93  1  0.13364000  0.27958000  0.06583000  1.0
  O  O94  1  0.63364000  0.27958000  0.43417000  1.0
  O  O95  1  0.86636000  0.72042000  0.93417000  1.0
  O  O96  1  0.05957000  0.81519000  0.30583000  1.0
  O  O97  1  0.44044000  0.18481000  0.80583000  1.0
  O  O98  1  0.94043000  0.18480000  0.69417000  1.0
  O  O99  1  0.55957000  0.81519000  0.19417000  1.0
  O  O100  1  0.10910000  0.98948000  0.39216000  1.0
  O  O101  1  0.39090000  0.01052000  0.89216000  1.0
  O  O102  1  0.89091000  0.01052000  0.60784000  1.0
  O  O103  1  0.60909000  0.98948000  0.10785000  1.0
  O  O104  1  0.31583000  0.96963000  0.29227000  1.0
  O  O105  1  0.18417000  0.03037000  0.79227000  1.0
  O  O106  1  0.68417000  0.03036000  0.70773000  1.0
  O  O107  1  0.81583000  0.96963000  0.20773000  1.0
