# generated using pymatgen
data_ZnH40C22(NO)4
_symmetry_space_group_name_H-M   'P 1'
_cell_length_a   10.35830000
_cell_length_b   11.23460000
_cell_length_c   12.41630000
_cell_angle_alpha   67.01480000
_cell_angle_beta   73.62580000
_cell_angle_gamma   89.18360000
_symmetry_Int_Tables_number   1
_chemical_formula_structural   ZnH40C22(NO)4
_chemical_formula_sum   'Zn2 H80 C44 N8 O8'
_cell_volume   1268.69939688
_cell_formula_units_Z   2
loop_
 _symmetry_equiv_pos_site_id
 _symmetry_equiv_pos_as_xyz
  1  'x, y, z'
loop_
 _atom_site_type_symbol
 _atom_site_label
 _atom_site_symmetry_multiplicity
 _atom_site_fract_x
 _atom_site_fract_y
 _atom_site_fract_z
 _atom_site_occupancy
  Zn  Zn0  1  0.50000000  0.50000000  0.50000000  1.0
  Zn  Zn1  1  0.00000000  0.50000000  0.00000000  1.0
  H  H2  1  0.42712000  0.63543000  0.31682000  1.0
  H  H3  1  0.57288000  0.36457000  0.68318000  1.0
  H  H4  1  0.59431000  0.67147000  0.54694000  1.0
  H  H5  1  0.40569000  0.32853000  0.45306000  1.0
  H  H6  1  0.12482000  0.38103000  0.15621000  1.0
  H  H7  1  0.87518000  0.61897000  0.84379000  1.0
  H  H8  1  0.82133000  0.31990000  0.05272000  1.0
  H  H9  1  0.17867000  0.68010000  0.94728000  1.0
  H  H10  1  0.61651000  0.87214000  0.38322000  1.0
  H  H11  1  0.38349000  0.12786000  0.61678000  1.0
  H  H12  1  0.39077000  0.75936000  0.49485000  1.0
  H  H13  1  0.60923000  0.24064000  0.50514000  1.0
  H  H14  1  0.28078000  0.87366000  0.33194000  1.0
  H  H15  1  0.71922000  0.12634000  0.66806000  1.0
  H  H16  1  0.41637000  0.97177000  0.32512000  1.0
  H  H17  1  0.58363000  0.02823000  0.67488000  1.0
  H  H18  1  0.43030000  0.82479000  0.15881000  1.0
  H  H19  1  0.56970000  0.17521000  0.84119000  1.0
  H  H20  1  0.43034000  0.99456000  0.11470000  1.0
  H  H21  1  0.56966000  0.00544000  0.88530000  1.0
  H  H22  1  0.64626000  0.01072000  0.15610000  1.0
  H  H23  1  0.35374000  0.98928000  0.84390000  1.0
  H  H24  1  0.66524000  0.93155000  0.05530000  1.0
  H  H25  1  0.33476000  0.06845000  0.94470000  1.0
  H  H26  1  0.64547000  0.71633000  0.22415000  1.0
  H  H27  1  0.35453000  0.28367000  0.77584000  1.0
  H  H28  1  0.77388000  0.82181000  0.21831000  1.0
  H  H29  1  0.22612000  0.17819000  0.78169000  1.0
  H  H30  1  0.80972000  0.63598000  0.35417000  1.0
  H  H31  1  0.19028000  0.36402000  0.64582000  1.0
  H  H32  1  0.84943000  0.85773000  0.35533000  1.0
  H  H33  1  0.15057000  0.14227000  0.64467000  1.0
  H  H34  1  0.96950000  0.75384000  0.40724000  1.0
  H  H35  1  0.03050000  0.24616000  0.59276000  1.0
  H  H36  1  0.83120000  0.78143000  0.51483000  1.0
  H  H37  1  0.16880000  0.21857000  0.48517000  1.0
  H  H38  1  0.19256000  0.67855000  0.39410000  1.0
  H  H39  1  0.80744000  0.32145000  0.60590000  1.0
  H  H40  1  0.21317000  0.60589000  0.54275000  1.0
  H  H41  1  0.78683000  0.39411000  0.45725000  1.0
  H  H42  1  0.74545000  0.53162000  0.63329000  1.0
  H  H43  1  0.25455000  0.46838000  0.36671000  1.0
  H  H44  1  0.90538000  0.53144000  0.53451000  1.0
  H  H45  1  0.09462000  0.46855000  0.46548000  1.0
  H  H46  1  0.88269000  0.12635000  0.17259000  1.0
  H  H47  1  0.11731000  0.87365000  0.82742000  1.0
  H  H48  1  0.10831000  0.12523000  0.03398000  1.0
  H  H49  1  0.89169000  0.87476000  0.96602000  1.0
  H  H50  1  0.17556000  0.25583000  0.05249000  1.0
  H  H51  1  0.82444000  0.74417000  0.94751000  1.0
  H  H52  1  0.05857000  0.98224000  0.25152000  1.0
  H  H53  1  0.94143000  0.01776000  0.74848000  1.0
  H  H54  1  0.23033000  0.04624000  0.19047000  1.0
  H  H55  1  0.76967000  0.95376000  0.80954000  1.0
  H  H56  1  0.12004000  0.04693000  0.39928000  1.0
  H  H57  1  0.87996000  0.95308000  0.60072000  1.0
  H  H58  1  0.18443000  0.20420000  0.28671000  1.0
  H  H59  1  0.81557000  0.79580000  0.71329000  1.0
  H  H60  1  0.94947000  0.20609000  0.41610000  1.0
  H  H61  1  0.05053000  0.79392000  0.58390000  1.0
  H  H62  1  0.88771000  0.08345000  0.38279000  1.0
  H  H63  1  0.11229000  0.91656000  0.61721000  1.0
  H  H64  1  0.83329000  0.29196000  0.25345000  1.0
  H  H65  1  0.16671000  0.70804000  0.74655000  1.0
  H  H66  1  0.01041000  0.41604000  0.34234000  1.0
  H  H67  1  0.98959000  0.58396000  0.65766000  1.0
  H  H68  1  0.88769000  0.48664000  0.26738000  1.0
  H  H69  1  0.11231000  0.51336000  0.73262000  1.0
  H  H70  1  0.06894000  0.28991000  0.87849000  1.0
  H  H71  1  0.93106000  0.71009000  0.12151000  1.0
  H  H72  1  0.91295000  0.07624000  0.00415000  1.0
  H  H73  1  0.08705000  0.92375000  0.99585000  1.0
  H  H74  1  0.92343000  0.14049000  0.84649000  1.0
  H  H75  1  0.07658000  0.85951000  0.15351000  1.0
  H  H76  1  0.77929000  0.15918000  0.95473000  1.0
  H  H77  1  0.22071000  0.84082000  0.04527000  1.0
  H  H78  1  0.19085000  0.58797000  0.15490000  1.0
  H  H79  1  0.80915000  0.41203000  0.84510000  1.0
  H  H80  1  0.08033000  0.63561000  0.26312000  1.0
  H  H81  1  0.91967000  0.36439000  0.73688000  1.0
  C  C82  1  0.59220000  0.78295000  0.37175000  1.0
  C  C83  1  0.40780000  0.21704000  0.62825000  1.0
  C  C84  1  0.43646000  0.76667000  0.40046000  1.0
  C  C85  1  0.56354000  0.23333000  0.59954000  1.0
  C  C86  1  0.39151000  0.88519000  0.31045000  1.0
  C  C87  1  0.60849000  0.11481000  0.68955000  1.0
  C  C88  1  0.46140000  0.90681000  0.17705000  1.0
  C  C89  1  0.53860000  0.09319000  0.82295000  1.0
  C  C90  1  0.61513000  0.92070000  0.14979000  1.0
  C  C91  1  0.38487000  0.07930000  0.85021000  1.0
  C  C92  1  0.66373000  0.80429000  0.23858000  1.0
  C  C93  1  0.33627000  0.19571000  0.76142000  1.0
  C  C94  1  0.77672000  0.65008000  0.44030000  1.0
  C  C95  1  0.22328000  0.34992000  0.55970000  1.0
  C  C96  1  0.86136000  0.76768000  0.42844000  1.0
  C  C97  1  0.13864000  0.23231000  0.57156000  1.0
  C  C98  1  0.24564000  0.60538000  0.45081000  1.0
  C  C99  1  0.75437000  0.39462000  0.54918000  1.0
  C  C100  1  0.79649000  0.52723000  0.54421000  1.0
  C  C101  1  0.20352000  0.47277000  0.45578000  1.0
  C  C102  1  0.58607000  0.49539000  0.23729000  1.0
  C  C103  1  0.41393000  0.50461000  0.76271000  1.0
  C  C104  1  0.68484000  0.45433000  0.14366000  1.0
  C  C105  1  0.31516000  0.54566000  0.85634000  1.0
  C  C106  1  0.95738000  0.21376000  0.13055000  1.0
  C  C107  1  0.04262000  0.78624000  0.86945000  1.0
  C  C108  1  0.09902000  0.17049000  0.09955000  1.0
  C  C109  1  0.90098000  0.82951000  0.90045000  1.0
  C  C110  1  0.12697000  0.07252000  0.21497000  1.0
  C  C111  1  0.87303000  0.92748000  0.78503000  1.0
  C  C112  1  0.10608000  0.12298000  0.31598000  1.0
  C  C113  1  0.89392000  0.87702000  0.68402000  1.0
  C  C114  1  0.96496000  0.16761000  0.34489000  1.0
  C  C115  1  0.03504000  0.83239000  0.65511000  1.0
  C  C116  1  0.93847000  0.26910000  0.22976000  1.0
  C  C117  1  0.06153000  0.73090000  0.77024000  1.0
  C  C118  1  0.99541000  0.47097000  0.25192000  1.0
  C  C119  1  0.00459000  0.52904000  0.74808000  1.0
  C  C120  1  0.95813000  0.28844000  0.91017000  1.0
  C  C121  1  0.04187000  0.71156000  0.08983000  1.0
  C  C122  1  0.88977000  0.15845000  0.93044000  1.0
  C  C123  1  0.11023000  0.84155000  0.06956000  1.0
  C  C124  1  0.08374000  0.60135000  0.19062000  1.0
  C  C125  1  0.91626000  0.39865000  0.80938000  1.0
  N  N126  1  0.39252000  0.64137000  0.40173000  1.0
  N  N127  1  0.60748000  0.35863000  0.59827000  1.0
  N  N128  1  0.63140000  0.66816000  0.46247000  1.0
  N  N129  1  0.36860000  0.33184000  0.53753000  1.0
  N  N130  1  0.02428000  0.39458000  0.17677000  1.0
  N  N131  1  0.97572000  0.60542000  0.82323000  1.0
  N  N132  1  0.92508000  0.31223000  0.02345000  1.0
  N  N133  1  0.07492000  0.68777000  0.97655000  1.0
  O  O134  1  0.61859000  0.46705000  0.33676000  1.0
  O  O135  1  0.38141000  0.53295000  0.66324000  1.0
  O  O136  1  0.48665000  0.55389000  0.21245000  1.0
  O  O137  1  0.51335000  0.44611000  0.78756000  1.0
  O  O138  1  0.65930000  0.34662000  0.14062000  1.0
  O  O139  1  0.34070000  0.65338000  0.85938000  1.0
  O  O140  1  0.79150000  0.53554000  0.07907000  1.0
  O  O141  1  0.20850000  0.46446000  0.92093000  1.0
