# generated using pymatgen
data_ZnH16C20NO5
_symmetry_space_group_name_H-M   'P 1'
_cell_length_a   10.87730000
_cell_length_b   16.48690000
_cell_length_c   17.63440000
_cell_angle_alpha   89.82590000
_cell_angle_beta   89.36780000
_cell_angle_gamma   89.67400000
_symmetry_Int_Tables_number   1
_chemical_formula_structural   ZnH16C20NO5
_chemical_formula_sum   'Zn2 H32 C40 N2 O10'
_cell_volume   3162.17140493
_cell_formula_units_Z   2
loop_
 _symmetry_equiv_pos_site_id
 _symmetry_equiv_pos_as_xyz
  1  'x, y, z'
loop_
 _atom_site_type_symbol
 _atom_site_label
 _atom_site_symmetry_multiplicity
 _atom_site_fract_x
 _atom_site_fract_y
 _atom_site_fract_z
 _atom_site_occupancy
  Zn  Zn0  1  0.48869000  0.58433000  0.50272000  1.0
  Zn  Zn1  1  0.48748000  0.41751000  0.49868000  1.0
  H  H2  1  0.88656000  0.61742000  0.54755000  1.0
  H  H3  1  0.33125000  0.28673000  0.56238000  1.0
  H  H4  1  0.34747000  0.86926000  0.58327000  1.0
  H  H5  1  0.33210000  0.13391000  0.56856000  1.0
  H  H6  1  0.86989000  0.61630000  0.44841000  1.0
  H  H7  1  0.89551000  0.48318000  0.37981000  1.0
  H  H8  1  0.08323000  0.60550000  0.42756000  1.0
  H  H9  1  0.10777000  0.45842000  0.38382000  1.0
  H  H10  1  0.09911000  0.62978000  0.52404000  1.0
  H  H11  1  0.09101000  0.38111000  0.45243000  1.0
  H  H12  1  0.07600000  0.51763000  0.62090000  1.0
  H  H13  1  0.87821000  0.39052000  0.42926000  1.0
  H  H14  1  0.10774000  0.41638000  0.59398000  1.0
  H  H15  1  0.59892000  0.62898000  0.87724000  1.0
  H  H16  1  0.60161000  0.36746000  0.87421000  1.0
  H  H17  1  0.54355000  0.63040000  0.73963000  1.0
  H  H18  1  0.54951000  0.37064000  0.73610000  1.0
  H  H19  1  0.60553000  0.62990000  0.12042000  1.0
  H  H20  1  0.58905000  0.36869000  0.12581000  1.0
  H  H21  1  0.97338000  0.46777000  0.72302000  1.0
  H  H22  1  0.83618000  0.40753000  0.71640000  1.0
  H  H23  1  0.82632000  0.51014000  0.74770000  1.0
  H  H24  1  0.55476000  0.63347000  0.25927000  1.0
  H  H25  1  0.03837000  0.29923000  0.56694000  1.0
  H  H26  1  0.90094000  0.25890000  0.60865000  1.0
  H  H27  1  0.99272000  0.32779000  0.66121000  1.0
  H  H28  1  0.53522000  0.37398000  0.26426000  1.0
  H  H29  1  0.65063000  0.86206000  0.42223000  1.0
  H  H30  1  0.66549000  0.13811000  0.43228000  1.0
  H  H31  1  0.63690000  0.70957000  0.42665000  1.0
  H  H32  1  0.65248000  0.29094000  0.43548000  1.0
  H  H33  1  0.34844000  0.71653000  0.58092000  1.0
  C  C34  1  0.50790000  0.50635000  0.35239000  1.0
  C  C35  1  0.61634000  0.49738000  0.03408000  1.0
  C  C36  1  0.59116000  0.57394000  0.15231000  1.0
  C  C37  1  0.58154000  0.42659000  0.15524000  1.0
  C  C38  1  0.56255000  0.57599000  0.22922000  1.0
  C  C39  1  0.55176000  0.42940000  0.23197000  1.0
  C  C40  1  0.54086000  0.50395000  0.26964000  1.0
  C  C41  1  0.72707000  0.49671000  0.49950000  1.0
  C  C42  1  0.59942000  0.49907000  0.11371000  1.0
  C  C43  1  0.58233000  0.83212000  0.45800000  1.0
  C  C44  1  0.59034000  0.16874000  0.46201000  1.0
  C  C45  1  0.05782000  0.47147000  0.57763000  1.0
  C  C46  1  0.57540000  0.74811000  0.46018000  1.0
  C  C47  1  0.58323000  0.25284000  0.46286000  1.0
  C  C48  1  0.41296000  0.75192000  0.54673000  1.0
  C  C49  1  0.40336000  0.25053000  0.53515000  1.0
  C  C50  1  0.41304000  0.83608000  0.54789000  1.0
  C  C51  1  0.40406000  0.16643000  0.53796000  1.0
  C  C52  1  0.49930000  0.87807000  0.50250000  1.0
  C  C53  1  0.49907000  0.12360000  0.50028000  1.0
  C  C54  1  0.50152000  0.96385000  0.50160000  1.0
  C  C55  1  0.50162000  0.03780000  0.50091000  1.0
  C  C56  1  0.58755000  0.57250000  0.84618000  1.0
  C  C57  1  0.50539000  0.50183000  0.64851000  1.0
  C  C58  1  0.24880000  0.49932000  0.50162000  1.0
  C  C59  1  0.91553000  0.58554000  0.49586000  1.0
  C  C60  1  0.92122000  0.45033000  0.43175000  1.0
  C  C61  1  0.05658000  0.58642000  0.48523000  1.0
  C  C62  1  0.06249000  0.44328000  0.43808000  1.0
  C  C63  1  0.91695000  0.45791000  0.57430000  1.0
  C  C64  1  0.86793000  0.49772000  0.49983000  1.0
  C  C65  1  0.10835000  0.50118000  0.50031000  1.0
  C  C66  1  0.87463000  0.46872000  0.70887000  1.0
  C  C67  1  0.58928000  0.42496000  0.84449000  1.0
  C  C68  1  0.95872000  0.31320000  0.60424000  1.0
  C  C69  1  0.55647000  0.57338000  0.76999000  1.0
  C  C70  1  0.55946000  0.42659000  0.76813000  1.0
  C  C71  1  0.54039000  0.50058000  0.73048000  1.0
  C  C72  1  0.60137000  0.49808000  0.88528000  1.0
  C  C73  1  0.61736000  0.49716000  0.96478000  1.0
  N  N74  1  0.49223000  0.70893000  0.50354000  1.0
  N  N75  1  0.49113000  0.29278000  0.49834000  1.0
  O  O76  1  0.51753000  0.57446000  0.38583000  1.0
  O  O77  1  0.88132000  0.37431000  0.57315000  1.0
  O  O78  1  0.47375000  0.44000000  0.38320000  1.0
  O  O79  1  0.67224000  0.56329000  0.51422000  1.0
  O  O80  1  0.67433000  0.43049000  0.48311000  1.0
  O  O81  1  0.47368000  0.56984000  0.61997000  1.0
  O  O82  1  0.51066000  0.43432000  0.61354000  1.0
  O  O83  1  0.30494000  0.56603000  0.49145000  1.0
  O  O84  1  0.29993000  0.43052000  0.51237000  1.0
  O  O85  1  0.85349000  0.49893000  0.63441000  1.0
