# generated using pymatgen
data_CdH9C11SN4Cl
_symmetry_space_group_name_H-M   'P 1'
_cell_length_a   8.97693000
_cell_length_b   9.08037000
_cell_length_c   9.22040000
_cell_angle_alpha   102.12900000
_cell_angle_beta   111.07300000
_cell_angle_gamma   107.13800000
_symmetry_Int_Tables_number   1
_chemical_formula_structural   CdH9C11SN4Cl
_chemical_formula_sum   'Cd2 H18 C22 S2 N8 Cl2'
_cell_volume   626.67224591
_cell_formula_units_Z   2
loop_
 _symmetry_equiv_pos_site_id
 _symmetry_equiv_pos_as_xyz
  1  'x, y, z'
loop_
 _atom_site_type_symbol
 _atom_site_label
 _atom_site_symmetry_multiplicity
 _atom_site_fract_x
 _atom_site_fract_y
 _atom_site_fract_z
 _atom_site_occupancy
  Cd  Cd0  1  0.40128000  0.01836000  0.28300000  1.0
  Cd  Cd1  1  0.59872000  0.98163000  0.71701000  1.0
  H  H2  1  0.85587000  0.88874000  0.23597000  1.0
  H  H3  1  0.14413000  0.11126000  0.76403000  1.0
  H  H4  1  0.48108000  0.36736000  0.49711000  1.0
  H  H5  1  0.51892000  0.63264000  0.50289000  1.0
  H  H6  1  0.37260000  0.53157000  0.65651000  1.0
  H  H7  1  0.62740000  0.46843000  0.34348000  1.0
  H  H8  1  0.06293000  0.39058000  0.61466000  1.0
  H  H9  1  0.93707000  0.60942000  0.38534000  1.0
  H  H10  1  0.87894000  0.10811000  0.41105000  1.0
  H  H11  1  0.12106000  0.89189000  0.58895000  1.0
  H  H12  1  0.72495000  0.63980000  0.04865000  1.0
  H  H13  1  0.27505000  0.36020000  0.95135000  1.0
  H  H14  1  0.71162000  0.44220000  0.80632000  1.0
  H  H15  1  0.28838000  0.55780000  0.19368000  1.0
  H  H16  1  0.95389000  0.52384000  0.72601000  1.0
  H  H17  1  0.04611000  0.47616000  0.27398000  1.0
  H  H18  1  0.21388000  0.79083000  0.90885000  1.0
  H  H19  1  0.78612000  0.20917000  0.09115000  1.0
  C  C20  1  0.34706000  0.31668000  0.47940000  1.0
  C  C21  1  0.65294000  0.68333000  0.52060000  1.0
  C  C22  1  0.28772000  0.40619000  0.56917000  1.0
  C  C23  1  0.71228000  0.59381000  0.43083000  1.0
  C  C24  1  0.11649000  0.32835000  0.54545000  1.0
  C  C25  1  0.88352000  0.67165000  0.45456000  1.0
  C  C26  1  0.01317000  0.16964000  0.43246000  1.0
  C  C27  1  0.98683000  0.83036000  0.56754000  1.0
  C  C28  1  0.08313000  0.08799000  0.34393000  1.0
  C  C29  1  0.91687000  0.91201000  0.65608000  1.0
  C  C30  1  0.97760000  0.82114000  0.10556000  1.0
  C  C31  1  0.02240000  0.17887000  0.89444000  1.0
  C  C32  1  0.83039000  0.66941000  0.01291000  1.0
  C  C33  1  0.16960000  0.33059000  0.98709000  1.0
  C  C34  1  0.82246000  0.56105000  0.87774000  1.0
  C  C35  1  0.17754000  0.43895000  0.12225000  1.0
  C  C36  1  0.95927000  0.60506000  0.83441000  1.0
  C  C37  1  0.04073000  0.39494000  0.16559000  1.0
  C  C38  1  0.10188000  0.75287000  0.93465000  1.0
  C  C39  1  0.89812000  0.24713000  0.06535000  1.0
  C  C40  1  0.47074000  0.17410000  0.99984000  1.0
  C  C41  1  0.52927000  0.82590000  0.00018000  1.0
  S  S42  1  0.45312000  0.19306000  0.82281000  1.0
  S  S43  1  0.54689000  0.80693000  0.17720000  1.0
  N  N44  1  0.24929000  0.16062000  0.36998000  1.0
  N  N45  1  0.75071000  0.83938000  0.63002000  1.0
  N  N46  1  0.11441000  0.85880000  0.07027000  1.0
  N  N47  1  0.88559000  0.14120000  0.92973000  1.0
  N  N48  1  0.97350000  0.92960000  0.23276000  1.0
  N  N49  1  0.02650000  0.07040000  0.76724000  1.0
  N  N50  1  0.48336000  0.16570000  0.12980000  1.0
  N  N51  1  0.51664000  0.83430000  0.87020000  1.0
  Cl  Cl52  1  0.68609000  0.18749000  0.55598000  1.0
  Cl  Cl53  1  0.31391000  0.81251000  0.44403000  1.0
