# generated using pymatgen
data_ZnH18C18N4O5
_symmetry_space_group_name_H-M   'P 1'
_cell_length_a   8.70932000
_cell_length_b   8.70930000
_cell_length_c   13.17240000
_cell_angle_alpha   84.24120000
_cell_angle_beta   84.24130000
_cell_angle_gamma   67.53670000
_symmetry_Int_Tables_number   1
_chemical_formula_structural   ZnH18C18N4O5
_chemical_formula_sum   'Zn2 H36 C36 N8 O10'
_cell_volume   916.59165767
_cell_formula_units_Z   2
loop_
 _symmetry_equiv_pos_site_id
 _symmetry_equiv_pos_as_xyz
  1  'x, y, z'
loop_
 _atom_site_type_symbol
 _atom_site_label
 _atom_site_symmetry_multiplicity
 _atom_site_fract_x
 _atom_site_fract_y
 _atom_site_fract_z
 _atom_site_occupancy
  Zn  Zn0  1  0.39309000  0.51558000  0.30207000  1.0
  Zn  Zn1  1  0.51558000  0.39309000  0.80207000  1.0
  H  H2  1  0.63531000  0.48660000  0.48375000  1.0
  H  H3  1  0.48660000  0.63531000  0.98375000  1.0
  H  H4  1  0.42050000  0.87231000  0.25850000  1.0
  H  H5  1  0.87231000  0.42050000  0.75850000  1.0
  H  H6  1  0.58691000  0.98180000  0.38925000  1.0
  H  H7  1  0.98180000  0.58691000  0.88925000  1.0
  H  H8  1  0.79535000  0.81491000  0.52839000  1.0
  H  H9  1  0.81491000  0.79535000  0.02839000  1.0
  H  H10  1  0.80774000  0.60984000  0.56883000  1.0
  H  H11  1  0.60984000  0.80774000  0.06883000  1.0
  H  H12  1  0.51911000  0.72760000  0.65281000  1.0
  H  H13  1  0.72760000  0.51911000  0.15281000  1.0
  H  H14  1  0.66819000  0.78408000  0.70792000  1.0
  H  H15  1  0.78408000  0.66819000  0.20792000  1.0
  H  H16  1  0.33966000  0.96917000  0.74623000  1.0
  H  H17  1  0.96917000  0.33966000  0.24623000  1.0
  H  H18  1  0.26190000  0.97442000  0.62511000  1.0
  H  H19  1  0.97443000  0.26190000  0.12511000  1.0
  H  H20  1  0.33909000  0.25629000  0.70344000  1.0
  H  H21  1  0.25629000  0.33909000  0.20344000  1.0
  H  H22  1  0.13906000  0.24571000  0.70976000  1.0
  H  H23  1  0.24572000  0.13906000  0.20976000  1.0
  H  H24  1  0.97488000  0.33724000  0.55032000  1.0
  H  H25  1  0.33724000  0.97488000  0.05032000  1.0
  H  H26  1  0.03728000  0.49646000  0.36469000  1.0
  H  H27  1  0.49646000  0.03727000  0.86469000  1.0
  H  H28  1  0.47988000  0.29185000  0.51983000  1.0
  H  H29  1  0.29184000  0.47988000  0.01984000  1.0
  H  H30  1  0.64543000  0.26398000  0.03612000  1.0
  H  H31  1  0.26398000  0.64543000  0.53612000  1.0
  H  H32  1  0.86227000  0.10241000  0.90819000  1.0
  H  H33  1  0.10241000  0.86227000  0.40819000  1.0
  H  H34  1  0.11995000  0.87217000  0.96806000  1.0
  H  H35  1  0.87217000  0.11995000  0.46806000  1.0
  H  H36  1  0.92124000  0.94917000  0.28036000  1.0
  H  H37  1  0.94917000  0.92125000  0.78036000  1.0
  C  C38  1  0.59749000  0.60473000  0.43826000  1.0
  C  C39  1  0.60474000  0.59749000  0.93826000  1.0
  C  C40  1  0.48780000  0.81022000  0.32516000  1.0
  C  C41  1  0.81023000  0.48780000  0.82516000  1.0
  C  C42  1  0.56924000  0.86502000  0.38861000  1.0
  C  C43  1  0.86502000  0.56924000  0.88861000  1.0
  C  C44  1  0.72221000  0.73690000  0.54888000  1.0
  C  C45  1  0.73690000  0.72221000  0.04888000  1.0
  C  C46  1  0.59894000  0.80102000  0.63923000  1.0
  C  C47  1  0.80102000  0.59894000  0.13923000  1.0
  C  C48  1  0.33767000  0.02106000  0.66610000  1.0
  C  C49  1  0.02106000  0.33767000  0.16610000  1.0
  C  C50  1  0.26044000  0.20896000  0.66643000  1.0
  C  C51  1  0.20896000  0.26044000  0.16643000  1.0
  C  C52  1  0.08723000  0.35342000  0.51596000  1.0
  C  C53  1  0.35342000  0.08723000  0.01597000  1.0
  C  C54  1  0.11984000  0.42795000  0.42396000  1.0
  C  C55  1  0.42795000  0.11984000  0.92396000  1.0
  C  C56  1  0.35198000  0.32691000  0.50134000  1.0
  C  C57  1  0.32691000  0.35198000  0.00134000  1.0
  C  C58  1  0.64967000  0.22870000  0.24251000  1.0
  C  C59  1  0.22870000  0.64967000  0.74251000  1.0
  C  C60  1  0.77034000  0.11763000  0.16588000  1.0
  C  C61  1  0.11763000  0.77035000  0.66588000  1.0
  C  C62  1  0.75428000  0.15887000  0.06077000  1.0
  C  C63  1  0.15887000  0.75428000  0.56077000  1.0
  C  C64  1  0.87808000  0.06973000  0.98964000  1.0
  C  C65  1  0.06973000  0.87808000  0.48964000  1.0
  C  C66  1  0.02148000  0.94107000  0.02302000  1.0
  C  C67  1  0.94107000  0.02149000  0.52302000  1.0
  C  C68  1  0.03704000  0.89601000  0.12806000  1.0
  C  C69  1  0.89600000  0.03704000  0.62806000  1.0
  C  C70  1  0.90963000  0.98225000  0.19878000  1.0
  C  C71  1  0.98225000  0.90963000  0.69878000  1.0
  C  C72  1  0.19437000  0.76285000  0.16418000  1.0
  C  C73  1  0.76285000  0.19437000  0.66418000  1.0
  N  N74  1  0.50627000  0.64804000  0.35689000  1.0
  N  N75  1  0.64804000  0.50627000  0.85689000  1.0
  N  N76  1  0.63797000  0.73329000  0.45919000  1.0
  N  N77  1  0.73329000  0.63797000  0.95919000  1.0
  N  N78  1  0.23492000  0.29217000  0.56416000  1.0
  N  N79  1  0.29217000  0.23492000  0.06416000  1.0
  N  N80  1  0.28551000  0.40968000  0.41563000  1.0
  N  N81  1  0.40968000  0.28551000  0.91563000  1.0
  O  O82  1  0.53019000  0.35585000  0.20258000  1.0
  O  O83  1  0.35585000  0.53019000  0.70259000  1.0
  O  O84  1  0.67130000  0.20119000  0.33618000  1.0
  O  O85  1  0.20119000  0.67131000  0.83618000  1.0
  O  O86  1  0.32978000  0.74028000  0.11223000  1.0
  O  O87  1  0.74028000  0.32978000  0.61223000  1.0
  O  O88  1  0.18065000  0.68172000  0.25005000  1.0
  O  O89  1  0.68172000  0.18066000  0.75005000  1.0
  O  O90  1  0.50166000  0.97352000  0.61822000  1.0
  O  O91  1  0.97352000  0.50166000  0.11822000  1.0
