# generated using pymatgen
data_CoH10C11NO4
_symmetry_space_group_name_H-M   'P 1'
_cell_length_a   13.55290000
_cell_length_b   13.55310000
_cell_length_c   14.72550000
_cell_angle_alpha   90.07720000
_cell_angle_beta   90.07660000
_cell_angle_gamma   80.88630000
_symmetry_Int_Tables_number   1
_chemical_formula_structural   CoH10C11NO4
_chemical_formula_sum   'Co8 H80 C88 N8 O32'
_cell_volume   2670.68582271
_cell_formula_units_Z   8
loop_
 _symmetry_equiv_pos_site_id
 _symmetry_equiv_pos_as_xyz
  1  'x, y, z'
loop_
 _atom_site_type_symbol
 _atom_site_label
 _atom_site_symmetry_multiplicity
 _atom_site_fract_x
 _atom_site_fract_y
 _atom_site_fract_z
 _atom_site_occupancy
  Co  Co0  1  0.44751000  0.29507000  0.03988000  1.0
  Co  Co1  1  0.45851000  0.47482000  0.91248000  1.0
  Co  Co2  1  0.70491000  0.55250000  0.46011000  1.0
  Co  Co3  1  0.52516000  0.54149000  0.58753000  1.0
  Co  Co4  1  0.55250000  0.70493000  0.96013000  1.0
  Co  Co5  1  0.54150000  0.52515000  0.08758000  1.0
  Co  Co6  1  0.29506000  0.44750000  0.53986000  1.0
  Co  Co7  1  0.47483000  0.45850000  0.41243000  1.0
  H  H8  1  0.60751000  0.37029000  0.98641000  1.0
  H  H9  1  0.35097000  0.50416000  0.76636000  1.0
  H  H10  1  0.28468000  0.52979000  0.85607000  1.0
  H  H11  1  0.06721000  0.45085000  0.32100000  1.0
  H  H12  1  0.96793000  0.45285000  0.17607000  1.0
  H  H13  1  0.05680000  0.45479000  0.02829000  1.0
  H  H14  1  0.52326000  0.08942000  0.97946000  1.0
  H  H15  1  0.64936000  0.94446000  0.02884000  1.0
  H  H16  1  0.75216000  0.14108000  0.22662000  1.0
  H  H17  1  0.62463000  0.27726000  0.16766000  1.0
  H  H18  1  0.74204000  0.88531000  0.19222000  1.0
  H  H19  1  0.82598000  0.90494000  0.10604000  1.0
  H  H20  1  0.81954000  0.99936000  0.29625000  1.0
  H  H21  1  0.90108000  0.02223000  0.20819000  1.0
  H  H22  1  0.99150000  0.90052000  0.31073000  1.0
  H  H23  1  0.97618000  0.84015000  0.20641000  1.0
  H  H24  1  0.92253000  0.68069000  0.21354000  1.0
  H  H25  1  0.83671000  0.55971000  0.29677000  1.0
  H  H26  1  0.76001000  0.75766000  0.50845000  1.0
  H  H27  1  0.83776000  0.89051000  0.43179000  1.0
  H  H28  1  0.62968000  0.39249000  0.51360000  1.0
  H  H29  1  0.49585000  0.64901000  0.73363000  1.0
  H  H30  1  0.47020000  0.71532000  0.64393000  1.0
  H  H31  1  0.54915000  0.93280000  0.17901000  1.0
  H  H32  1  0.54716000  0.03207000  0.32394000  1.0
  H  H33  1  0.54522000  0.94320000  0.47172000  1.0
  H  H34  1  0.91059000  0.47673000  0.52054000  1.0
  H  H35  1  0.05555000  0.35064000  0.47116000  1.0
  H  H36  1  0.85893000  0.24782000  0.27339000  1.0
  H  H37  1  0.72275000  0.37536000  0.33234000  1.0
  H  H38  1  0.11470000  0.25796000  0.30778000  1.0
  H  H39  1  0.09508000  0.17401000  0.39395000  1.0
  H  H40  1  0.00065000  0.18048000  0.20375000  1.0
  H  H41  1  0.97778000  0.09892000  0.29181000  1.0
  H  H42  1  0.09950000  0.00851000  0.18927000  1.0
  H  H43  1  0.15988000  0.02384000  0.29358000  1.0
  H  H44  1  0.31933000  0.07748000  0.28646000  1.0
  H  H45  1  0.44030000  0.16329000  0.20322000  1.0
  H  H46  1  0.24236000  0.24001000  0.99154000  1.0
  H  H47  1  0.10950000  0.16226000  0.06820000  1.0
  H  H48  1  0.39254000  0.62970000  0.01370000  1.0
  H  H49  1  0.64901000  0.49585000  0.23366000  1.0
  H  H50  1  0.71531000  0.47021000  0.14396000  1.0
  H  H51  1  0.93283000  0.54915000  0.67903000  1.0
  H  H52  1  0.03209000  0.54718000  0.82397000  1.0
  H  H53  1  0.94321000  0.54524000  0.97175000  1.0
  H  H54  1  0.47674000  0.91058000  0.02056000  1.0
  H  H55  1  0.35064000  0.05555000  0.97117000  1.0
  H  H56  1  0.24782000  0.85893000  0.77340000  1.0
  H  H57  1  0.37535000  0.72274000  0.83236000  1.0
  H  H58  1  0.25795000  0.11470000  0.80780000  1.0
  H  H59  1  0.17400000  0.09507000  0.89397000  1.0
  H  H60  1  0.18048000  0.00065000  0.70376000  1.0
  H  H61  1  0.09891000  0.97778000  0.79181000  1.0
  H  H62  1  0.00852000  0.09950000  0.68927000  1.0
  H  H63  1  0.02383000  0.15987000  0.79359000  1.0
  H  H64  1  0.07748000  0.31933000  0.78646000  1.0
  H  H65  1  0.16329000  0.44031000  0.70322000  1.0
  H  H66  1  0.24000000  0.24236000  0.49154000  1.0
  H  H67  1  0.16226000  0.10950000  0.56820000  1.0
  H  H68  1  0.37026000  0.60746000  0.48630000  1.0
  H  H69  1  0.50414000  0.35097000  0.26634000  1.0
  H  H70  1  0.52978000  0.28468000  0.35605000  1.0
  H  H71  1  0.45087000  0.06719000  0.82098000  1.0
  H  H72  1  0.45283000  0.96792000  0.67605000  1.0
  H  H73  1  0.45476000  0.05678000  0.52826000  1.0
  H  H74  1  0.08942000  0.52326000  0.47944000  1.0
  H  H75  1  0.94446000  0.64936000  0.52882000  1.0
  H  H76  1  0.14108000  0.75217000  0.72660000  1.0
  H  H77  1  0.27727000  0.62463000  0.66764000  1.0
  H  H78  1  0.88531000  0.74205000  0.69220000  1.0
  H  H79  1  0.90494000  0.82600000  0.60603000  1.0
  H  H80  1  0.99936000  0.81953000  0.79624000  1.0
  H  H81  1  0.02223000  0.90109000  0.70819000  1.0
  H  H82  1  0.90051000  0.99149000  0.81073000  1.0
  H  H83  1  0.84014000  0.97619000  0.70641000  1.0
  H  H84  1  0.68068000  0.92253000  0.71353000  1.0
  H  H85  1  0.55970000  0.83672000  0.79676000  1.0
  H  H86  1  0.75764000  0.76001000  0.00845000  1.0
  H  H87  1  0.89050000  0.83776000  0.93179000  1.0
  C  C88  1  0.20143000  0.45063000  0.08820000  1.0
  C  C89  1  0.25762000  0.44605000  0.16916000  1.0
  C  C90  1  0.20762000  0.44557000  0.25305000  1.0
  C  C91  1  0.10388000  0.44904000  0.25513000  1.0
  C  C92  1  0.04869000  0.45104000  0.17490000  1.0
  C  C93  1  0.09786000  0.45226000  0.09203000  1.0
  C  C94  1  0.24960000  0.45874000  0.99720000  1.0
  C  C95  1  0.36955000  0.44379000  0.16395000  1.0
  C  C96  1  0.26613000  0.44632000  0.33953000  1.0
  C  C97  1  0.57620000  0.09643000  0.03392000  1.0
  C  C98  1  0.64709000  0.01703000  0.06125000  1.0
  C  C99  1  0.71284000  0.02945000  0.13256000  1.0
  C  C100  1  0.70436000  0.12504000  0.17078000  1.0
  C  C101  1  0.63202000  0.20204000  0.13910000  1.0
  C  C102  1  0.78553000  0.94105000  0.16532000  1.0
  C  C103  1  0.85994000  0.96546000  0.23612000  1.0
  C  C104  1  0.93549000  0.87462000  0.26605000  1.0
  C  C105  1  0.88782000  0.79709000  0.31534000  1.0
  C  C106  1  0.88702000  0.70193000  0.27864000  1.0
  C  C107  1  0.84016000  0.63326000  0.32532000  1.0
  C  C108  1  0.79643000  0.74444000  0.44254000  1.0
  C  C109  1  0.84070000  0.81755000  0.39955000  1.0
  C  C110  1  0.54934000  0.79858000  0.41180000  1.0
  C  C111  1  0.55392000  0.74239000  0.33084000  1.0
  C  C112  1  0.55441000  0.79238000  0.24696000  1.0
  C  C113  1  0.55096000  0.89613000  0.24487000  1.0
  C  C114  1  0.54896000  0.95131000  0.32511000  1.0
  C  C115  1  0.54773000  0.90214000  0.40798000  1.0
  C  C116  1  0.54122000  0.75041000  0.50281000  1.0
  C  C117  1  0.55616000  0.63046000  0.33607000  1.0
  C  C118  1  0.55366000  0.73387000  0.16048000  1.0
  C  C119  1  0.90358000  0.42379000  0.46607000  1.0
  C  C120  1  0.98298000  0.35290000  0.43875000  1.0
  C  C121  1  0.97056000  0.28715000  0.36745000  1.0
  C  C122  1  0.87497000  0.29563000  0.32922000  1.0
  C  C123  1  0.79797000  0.36797000  0.36090000  1.0
  C  C124  1  0.05897000  0.21447000  0.33468000  1.0
  C  C125  1  0.03455000  0.14007000  0.26388000  1.0
  C  C126  1  0.12539000  0.06453000  0.23394000  1.0
  C  C127  1  0.20293000  0.11219000  0.18465000  1.0
  C  C128  1  0.29809000  0.11299000  0.22134000  1.0
  C  C129  1  0.36676000  0.15984000  0.17466000  1.0
  C  C130  1  0.25558000  0.20357000  0.05745000  1.0
  C  C131  1  0.18247000  0.15931000  0.10044000  1.0
  C  C132  1  0.79860000  0.54935000  0.91182000  1.0
  C  C133  1  0.74240000  0.55392000  0.83086000  1.0
  C  C134  1  0.79239000  0.55440000  0.74697000  1.0
  C  C135  1  0.89615000  0.55095000  0.74491000  1.0
  C  C136  1  0.95133000  0.54897000  0.82515000  1.0
  C  C137  1  0.90216000  0.54774000  0.90801000  1.0
  C  C138  1  0.75041000  0.54125000  0.00282000  1.0
  C  C139  1  0.63047000  0.55616000  0.83612000  1.0
  C  C140  1  0.73389000  0.55365000  0.66047000  1.0
  C  C141  1  0.42379000  0.90358000  0.96609000  1.0
  C  C142  1  0.35290000  0.98297000  0.93876000  1.0
  C  C143  1  0.28714000  0.97057000  0.86746000  1.0
  C  C144  1  0.29563000  0.87497000  0.82924000  1.0
  C  C145  1  0.36796000  0.79796000  0.86091000  1.0
  C  C146  1  0.21446000  0.05897000  0.83470000  1.0
  C  C147  1  0.14007000  0.03456000  0.76389000  1.0
  C  C148  1  0.06452000  0.12540000  0.73395000  1.0
  C  C149  1  0.11218000  0.20292000  0.68466000  1.0
  C  C150  1  0.11298000  0.29808000  0.72135000  1.0
  C  C151  1  0.15983000  0.36677000  0.67466000  1.0
  C  C152  1  0.20356000  0.25558000  0.55745000  1.0
  C  C153  1  0.15930000  0.18247000  0.60046000  1.0
  C  C154  1  0.45062000  0.20141000  0.58819000  1.0
  C  C155  1  0.44605000  0.25761000  0.66914000  1.0
  C  C156  1  0.44559000  0.20762000  0.75303000  1.0
  C  C157  1  0.44905000  0.10387000  0.75510000  1.0
  C  C158  1  0.45103000  0.04867000  0.67486000  1.0
  C  C159  1  0.45225000  0.09784000  0.59200000  1.0
  C  C160  1  0.45872000  0.24959000  0.49718000  1.0
  C  C161  1  0.44380000  0.36954000  0.66388000  1.0
  C  C162  1  0.44634000  0.26611000  0.83953000  1.0
  C  C163  1  0.09643000  0.57620000  0.53390000  1.0
  C  C164  1  0.01703000  0.64710000  0.56124000  1.0
  C  C165  1  0.02944000  0.71285000  0.63254000  1.0
  C  C166  1  0.12504000  0.70436000  0.67076000  1.0
  C  C167  1  0.20204000  0.63202000  0.63908000  1.0
  C  C168  1  0.94104000  0.78555000  0.66531000  1.0
  C  C169  1  0.96546000  0.85994000  0.73611000  1.0
  C  C170  1  0.87462000  0.93549000  0.76605000  1.0
  C  C171  1  0.79708000  0.88783000  0.81533000  1.0
  C  C172  1  0.70193000  0.88702000  0.77864000  1.0
  C  C173  1  0.63325000  0.84017000  0.82532000  1.0
  C  C174  1  0.74442000  0.79645000  0.94253000  1.0
  C  C175  1  0.81754000  0.84071000  0.89954000  1.0
  N  N176  1  0.56725000  0.18777000  0.07269000  1.0
  N  N177  1  0.79559000  0.65330000  0.40638000  1.0
  N  N178  1  0.81225000  0.43274000  0.42730000  1.0
  N  N179  1  0.34673000  0.20441000  0.09360000  1.0
  N  N180  1  0.43273000  0.81224000  0.92732000  1.0
  N  N181  1  0.20439000  0.34673000  0.59360000  1.0
  N  N182  1  0.18777000  0.56726000  0.57268000  1.0
  N  N183  1  0.65328000  0.79561000  0.90638000  1.0
  O  O184  1  0.54343000  0.39654000  0.01396000  1.0
  O  O185  1  0.34252000  0.41913000  0.98927000  1.0
  O  O186  1  0.19945000  0.50526000  0.93402000  1.0
  O  O187  1  0.42578000  0.35766000  0.17148000  1.0
  O  O188  1  0.40063000  0.52367000  0.14470000  1.0
  O  O189  1  0.35442000  0.46330000  0.33021000  1.0
  O  O190  1  0.22385000  0.43215000  0.41525000  1.0
  O  O191  1  0.34592000  0.54438000  0.82330000  1.0
  O  O192  1  0.60343000  0.45657000  0.48605000  1.0
  O  O193  1  0.58081000  0.65749000  0.51074000  1.0
  O  O194  1  0.49473000  0.80056000  0.56599000  1.0
  O  O195  1  0.64229000  0.57421000  0.32853000  1.0
  O  O196  1  0.47628000  0.59939000  0.35532000  1.0
  O  O197  1  0.53667000  0.64557000  0.16980000  1.0
  O  O198  1  0.56784000  0.77613000  0.08475000  1.0
  O  O199  1  0.45560000  0.65408000  0.67670000  1.0
  O  O200  1  0.45659000  0.60343000  0.98611000  1.0
  O  O201  1  0.65751000  0.58089000  0.01077000  1.0
  O  O202  1  0.80054000  0.49470000  0.06600000  1.0
  O  O203  1  0.57420000  0.64227000  0.82856000  1.0
  O  O204  1  0.59942000  0.47628000  0.85541000  1.0
  O  O205  1  0.64560000  0.53667000  0.66980000  1.0
  O  O206  1  0.77617000  0.56785000  0.58475000  1.0
  O  O207  1  0.65408000  0.45560000  0.17673000  1.0
  O  O208  1  0.39654000  0.54341000  0.51389000  1.0
  O  O209  1  0.41906000  0.34249000  0.48922000  1.0
  O  O210  1  0.50529000  0.19947000  0.43401000  1.0
  O  O211  1  0.35769000  0.42580000  0.67143000  1.0
  O  O212  1  0.52368000  0.40059000  0.64459000  1.0
  O  O213  1  0.46330000  0.35442000  0.83020000  1.0
  O  O214  1  0.43217000  0.22383000  0.91525000  1.0
  O  O215  1  0.54439000  0.34591000  0.32328000  1.0
