# generated using pymatgen
data_CdH10C12(NO)4
_symmetry_space_group_name_H-M   'P 1'
_cell_length_a   12.73170000
_cell_length_b   13.48110000
_cell_length_c   14.18886273
_cell_angle_alpha   77.76361912
_cell_angle_beta   63.34905243
_cell_angle_gamma   61.81610000
_symmetry_Int_Tables_number   1
_chemical_formula_structural   CdH10C12(NO)4
_chemical_formula_sum   'Cd4 H40 C48 N16 O16'
_cell_volume   1918.53195384
_cell_formula_units_Z   4
loop_
 _symmetry_equiv_pos_site_id
 _symmetry_equiv_pos_as_xyz
  1  'x, y, z'
loop_
 _atom_site_type_symbol
 _atom_site_label
 _atom_site_symmetry_multiplicity
 _atom_site_fract_x
 _atom_site_fract_y
 _atom_site_fract_z
 _atom_site_occupancy
  Cd  Cd0  1  0.58848000  0.32297000  0.25002000  1.0
  Cd  Cd1  1  0.16143000  0.17706000  0.24995000  1.0
  Cd  Cd2  1  0.41152000  0.67703000  0.74998000  1.0
  Cd  Cd3  1  0.83856000  0.82294000  0.75005000  1.0
  H  H4  1  0.55775000  0.64475000  0.96895000  1.0
  H  H5  1  0.47306000  0.85528000  0.96904000  1.0
  H  H6  1  0.17163000  0.85527000  0.53097000  1.0
  H  H7  1  0.29731000  0.64481000  0.53101000  1.0
  H  H8  1  0.44226000  0.35525000  0.03105000  1.0
  H  H9  1  0.52695000  0.14472000  0.03096000  1.0
  H  H10  1  0.82836000  0.14473000  0.46903000  1.0
  H  H11  1  0.70270000  0.35519000  0.46899000  1.0
  H  H12  1  0.49355000  0.51217000  0.11118000  1.0
  H  H13  1  0.39506000  0.98776000  0.11131000  1.0
  H  H14  1  0.11715000  0.98776000  0.38864000  1.0
  H  H15  1  0.49412000  0.51220000  0.38886000  1.0
  H  H16  1  0.50645000  0.48783000  0.88882000  1.0
  H  H17  1  0.60494000  0.01224000  0.88869000  1.0
  H  H18  1  0.88284000  0.01224000  0.61136000  1.0
  H  H19  1  0.50589000  0.48779000  0.61113000  1.0
  H  H20  1  0.89615000  0.53854000  0.03367000  1.0
  H  H21  1  0.06996000  0.96139000  0.03377000  1.0
  H  H22  1  0.46852000  0.96147000  0.46628000  1.0
  H  H23  1  0.06512000  0.53873000  0.46618000  1.0
  H  H24  1  0.10385000  0.46146000  0.96633000  1.0
  H  H25  1  0.93003000  0.03861000  0.96624000  1.0
  H  H26  1  0.53148000  0.03853000  0.53372000  1.0
  H  H27  1  0.93488000  0.46127000  0.53382000  1.0
  H  H28  1  0.80010000  0.34837000  0.24653000  1.0
  H  H29  1  0.95329000  0.15161000  0.24656000  1.0
  H  H30  1  0.39507000  0.15163000  0.25338000  1.0
  H  H31  1  0.35150000  0.34844000  0.25348000  1.0
  H  H32  1  0.19990000  0.65163000  0.75347000  1.0
  H  H33  1  0.04671000  0.84840000  0.75344000  1.0
  H  H34  1  0.60493000  0.84837000  0.74662000  1.0
  H  H35  1  0.64850000  0.65156000  0.74652000  1.0
  H  H36  1  0.92475000  0.38819000  0.16643000  1.0
  H  H37  1  0.90864000  0.11185000  0.16647000  1.0
  H  H38  1  0.47945000  0.11185000  0.33351000  1.0
  H  H39  1  0.18700000  0.38825000  0.33351000  1.0
  H  H40  1  0.07525000  0.61181000  0.83357000  1.0
  H  H41  1  0.09136000  0.88815000  0.83353000  1.0
  H  H42  1  0.52055000  0.88815000  0.66649000  1.0
  H  H43  1  0.81299000  0.61175000  0.66650000  1.0
  C  C44  1  0.77914000  0.67495000  0.90610000  1.0
  C  C45  1  0.31455000  0.82503000  0.90617000  1.0
  C  C46  1  0.36023000  0.82509000  0.59392000  1.0
  C  C47  1  0.04580000  0.67507000  0.59385000  1.0
  C  C48  1  0.22086000  0.32505000  0.09390000  1.0
  C  C49  1  0.68544000  0.17496000  0.09384000  1.0
  C  C50  1  0.63977000  0.17491000  0.40608000  1.0
  C  C51  1  0.95420000  0.32493000  0.40615000  1.0
  C  C52  1  0.73466000  0.59792000  0.99051000  1.0
  C  C53  1  0.27460000  0.90202000  0.99062000  1.0
  C  C54  1  0.32327000  0.90207000  0.50942000  1.0
  C  C55  1  0.16721000  0.59814000  0.50935000  1.0
  C  C56  1  0.26535000  0.40208000  0.00949000  1.0
  C  C57  1  0.72540000  0.09798000  0.00938000  1.0
  C  C58  1  0.67673000  0.09793000  0.49058000  1.0
  C  C59  1  0.83279000  0.40187000  0.49065000  1.0
  C  C60  1  0.61772000  0.59293000  0.01237000  1.0
  C  C61  1  0.36968000  0.90701000  0.01252000  1.0
  C  C62  1  0.22324000  0.90704000  0.48749000  1.0
  C  C63  1  0.28918000  0.59305000  0.48753000  1.0
  C  C64  1  0.38228000  0.40707000  0.98763000  1.0
  C  C65  1  0.63032000  0.09299000  0.98748000  1.0
  C  C66  1  0.77676000  0.09296000  0.51250000  1.0
  C  C67  1  0.71082000  0.40695000  0.51247000  1.0
  C  C68  1  0.58255000  0.52039000  0.09095000  1.0
  C  C69  1  0.32630000  0.97952000  0.09108000  1.0
  C  C70  1  0.19413000  0.97953000  0.40890000  1.0
  C  C71  1  0.39690000  0.52049000  0.40901000  1.0
  C  C72  1  0.41745000  0.47960000  0.90905000  1.0
  C  C73  1  0.67370000  0.02048000  0.90892000  1.0
  C  C74  1  0.80587000  0.02047000  0.59110000  1.0
  C  C75  1  0.60310000  0.47951000  0.59099000  1.0
  C  C76  1  0.76491000  0.46101000  0.12862000  1.0
  C  C77  1  0.10628000  0.03893000  0.12872000  1.0
  C  C78  1  0.35472000  0.03895000  0.37128000  1.0
  C  C79  1  0.27392000  0.46120000  0.37127000  1.0
  C  C80  1  0.23510000  0.53899000  0.87138000  1.0
  C  C81  1  0.89372000  0.96107000  0.87128000  1.0
  C  C82  1  0.64528000  0.96105000  0.62872000  1.0
  C  C83  1  0.72608000  0.53880000  0.62873000  1.0
  C  C84  1  0.80772000  0.53285000  0.04822000  1.0
  C  C85  1  0.14384000  0.96708000  0.04833000  1.0
  C  C86  1  0.38898000  0.96711000  0.45170000  1.0
  C  C87  1  0.15923000  0.53310000  0.45160000  1.0
  C  C88  1  0.19228000  0.46715000  0.95178000  1.0
  C  C89  1  0.85616000  0.03292000  0.95167000  1.0
  C  C90  1  0.61102000  0.03289000  0.54830000  1.0
  C  C91  1  0.84078000  0.46690000  0.54839000  1.0
  N  N92  1  0.65362000  0.45522000  0.14740000  1.0
  N  N93  1  0.19878000  0.04471000  0.14752000  1.0
  N  N94  1  0.25645000  0.04472000  0.35245000  1.0
  N  N95  1  0.39102000  0.45534000  0.35254000  1.0
  N  N96  1  0.34638000  0.54478000  0.85260000  1.0
  N  N97  1  0.80122000  0.95529000  0.85248000  1.0
  N  N98  1  0.74355000  0.95528000  0.64755000  1.0
  N  N99  1  0.60898000  0.54466000  0.64746000  1.0
  N  N100  1  0.83149000  0.39952000  0.18899000  1.0
  N  N101  1  0.97936000  0.10049000  0.18903000  1.0
  N  N102  1  0.42008000  0.10051000  0.31095000  1.0
  N  N103  1  0.26889000  0.39965000  0.31093000  1.0
  N  N104  1  0.16851000  0.60048000  0.81101000  1.0
  N  N105  1  0.02064000  0.89952000  0.81097000  1.0
  N  N106  1  0.57991000  0.89949000  0.68905000  1.0
  N  N107  1  0.73111000  0.60036000  0.68907000  1.0
  O  O108  1  0.89188000  0.66829000  0.87804000  1.0
  O  O109  1  0.22994000  0.83176000  0.87800000  1.0
  O  O110  1  0.43821000  0.83172000  0.62206000  1.0
  O  O111  1  0.93972000  0.66837000  0.62207000  1.0
  O  O112  1  0.10812000  0.33170000  0.12197000  1.0
  O  O113  1  0.77007000  0.16823000  0.12200000  1.0
  O  O114  1  0.56179000  0.16828000  0.37794000  1.0
  O  O115  1  0.06029000  0.33163000  0.37792000  1.0
  O  O116  1  0.69905000  0.74601000  0.86580000  1.0
  O  O117  1  0.43493000  0.75394000  0.86593000  1.0
  O  O118  1  0.31087000  0.75407000  0.63420000  1.0
  O  O119  1  0.05491000  0.74609000  0.63411000  1.0
  O  O120  1  0.30095000  0.25398000  0.13420000  1.0
  O  O121  1  0.56507000  0.24606000  0.13407000  1.0
  O  O122  1  0.68912000  0.24593000  0.36580000  1.0
  O  O123  1  0.94509000  0.25392000  0.36589000  1.0
