# generated using pymatgen
data_ZnH17C26N5O9
_symmetry_space_group_name_H-M   'P 1'
_cell_length_a   9.49427000
_cell_length_b   12.28300000
_cell_length_c   12.37470000
_cell_angle_alpha   115.44200000
_cell_angle_beta   94.89160000
_cell_angle_gamma   105.35700000
_symmetry_Int_Tables_number   1
_chemical_formula_structural   ZnH17C26N5O9
_chemical_formula_sum   'Zn2 H34 C52 N10 O18'
_cell_volume   1223.36269293
_cell_formula_units_Z   2
loop_
 _symmetry_equiv_pos_site_id
 _symmetry_equiv_pos_as_xyz
  1  'x, y, z'
loop_
 _atom_site_type_symbol
 _atom_site_label
 _atom_site_symmetry_multiplicity
 _atom_site_fract_x
 _atom_site_fract_y
 _atom_site_fract_z
 _atom_site_occupancy
  Zn  Zn0  1  0.85808000  0.24389000  0.82755000  1.0
  Zn  Zn1  1  0.14192000  0.75611000  0.17245000  1.0
  H  H2  1  0.61060000  0.06269000  0.60162000  1.0
  H  H3  1  0.38940000  0.93731000  0.39838000  1.0
  H  H4  1  0.01124000  0.77437000  0.47155000  1.0
  H  H5  1  0.98876000  0.22563000  0.52845000  1.0
  H  H6  1  0.57507000  0.85378000  0.41050000  1.0
  H  H7  1  0.42493000  0.14622000  0.58950000  1.0
  H  H8  1  0.08344000  0.52352000  0.29277000  1.0
  H  H9  1  0.91656000  0.47648000  0.70723000  1.0
  H  H10  1  0.77541000  0.75578000  0.39803000  1.0
  H  H11  1  0.22459000  0.24422000  0.60197000  1.0
  H  H12  1  0.03498000  0.08297000  0.74133000  1.0
  H  H13  1  0.96503000  0.91703000  0.25867000  1.0
  H  H14  1  0.68048000  0.75196000  0.68089000  1.0
  H  H15  1  0.31953000  0.24804000  0.31911000  1.0
  H  H16  1  0.45500000  0.95603000  0.73986000  1.0
  H  H17  1  0.54500000  0.04397000  0.26014000  1.0
  H  H18  1  0.49553000  0.58538000  0.52724000  1.0
  H  H19  1  0.50447000  0.41462000  0.47276000  1.0
  H  H20  1  0.07510000  0.64338000  0.46588000  1.0
  H  H21  1  0.92490000  0.35661000  0.53412000  1.0
  H  H22  1  0.01946000  0.20590000  0.27490000  1.0
  H  H23  1  0.98054000  0.79409000  0.72510000  1.0
  H  H24  1  0.76744000  0.02657000  0.89983000  1.0
  H  H25  1  0.23255000  0.97343000  0.10017000  1.0
  H  H26  1  0.84990000  0.00901000  0.08648000  1.0
  H  H27  1  0.15009000  0.99099000  0.91352000  1.0
  H  H28  1  0.00174000  0.41869000  0.07689000  1.0
  H  H29  1  0.99826000  0.58131000  0.92311000  1.0
  H  H30  1  0.29530000  0.62516000  0.85154000  1.0
  H  H31  1  0.70470000  0.37484000  0.14846000  1.0
  H  H32  1  0.73443000  0.59548000  0.90882000  1.0
  H  H33  1  0.26557000  0.40452000  0.09117000  1.0
  H  H34  1  0.34286000  0.26639000  0.80121000  1.0
  H  H35  1  0.65714000  0.73361000  0.19880000  1.0
  C  C36  1  0.69556000  0.01663000  0.58651000  1.0
  C  C37  1  0.30444000  0.98337000  0.41349000  1.0
  C  C38  1  0.67641000  0.90116000  0.48378000  1.0
  C  C39  1  0.32359000  0.09884000  0.51622000  1.0
  C  C40  1  0.78926000  0.84793000  0.47527000  1.0
  C  C41  1  0.21074000  0.15207000  0.52473000  1.0
  C  C42  1  0.92267000  0.91219000  0.56707000  1.0
  C  C43  1  0.07733000  0.08780000  0.43293000  1.0
  C  C44  1  0.93443000  0.02844000  0.66771000  1.0
  C  C45  1  0.06558000  0.97156000  0.33229000  1.0
  C  C46  1  0.17119000  0.90130000  0.63401000  1.0
  C  C47  1  0.82881000  0.09870000  0.36600000  1.0
  C  C48  1  0.25792000  0.81066000  0.60262000  1.0
  C  C49  1  0.74209000  0.18934000  0.39739000  1.0
  C  C50  1  0.40650000  0.85658000  0.66853000  1.0
  C  C51  1  0.59350000  0.14342000  0.33147000  1.0
  C  C52  1  0.49095000  0.77396000  0.64255000  1.0
  C  C53  1  0.50905000  0.22604000  0.35745000  1.0
  C  C54  1  0.42711000  0.64699000  0.54918000  1.0
  C  C55  1  0.57289000  0.35301000  0.45082000  1.0
  C  C56  1  0.27844000  0.60140000  0.48425000  1.0
  C  C57  1  0.72156000  0.39859000  0.51575000  1.0
  C  C58  1  0.19285000  0.68249000  0.51243000  1.0
  C  C59  1  0.80715000  0.31751000  0.48757000  1.0
  C  C60  1  0.21273000  0.46570000  0.38543000  1.0
  C  C61  1  0.78727000  0.53430000  0.61457000  1.0
  C  C62  1  0.01835000  0.32799000  0.19150000  1.0
  C  C63  1  0.98165000  0.67200000  0.80850000  1.0
  C  C64  1  0.97896000  0.21043000  0.19275000  1.0
  C  C65  1  0.02104000  0.78956000  0.80725000  1.0
  C  C66  1  0.83912000  0.11039000  0.98363000  1.0
  C  C67  1  0.16087000  0.88961000  0.01637000  1.0
  C  C68  1  0.88694000  0.10142000  0.08804000  1.0
  C  C69  1  0.11306000  0.89858000  0.91196000  1.0
  C  C70  1  0.96748000  0.32988000  0.08314000  1.0
  C  C71  1  0.03252000  0.67012000  0.91686000  1.0
  C  C72  1  0.13236000  0.37707000  0.79222000  1.0
  C  C73  1  0.86764000  0.62293000  0.20778000  1.0
  C  C74  1  0.29992000  0.43870000  0.82284000  1.0
  C  C75  1  0.70008000  0.56130000  0.17716000  1.0
  C  C76  1  0.36395000  0.56697000  0.85173000  1.0
  C  C77  1  0.63605000  0.43303000  0.14827000  1.0
  C  C78  1  0.51987000  0.62115000  0.88506000  1.0
  C  C79  1  0.48013000  0.37885000  0.11494000  1.0
  C  C80  1  0.61333000  0.55005000  0.88181000  1.0
  C  C81  1  0.38667000  0.44995000  0.11819000  1.0
  C  C82  1  0.54801000  0.42000000  0.84585000  1.0
  C  C83  1  0.45199000  0.58000000  0.15415000  1.0
  C  C84  1  0.64291000  0.33682000  0.83001000  1.0
  C  C85  1  0.35710000  0.66318000  0.16999000  1.0
  C  C86  1  0.39187000  0.36622000  0.82209000  1.0
  C  C87  1  0.60813000  0.63377000  0.17791000  1.0
  N  N88  1  0.82184000  0.07714000  0.67576000  1.0
  N  N89  1  0.17816000  0.92286000  0.32424000  1.0
  N  N90  1  0.03455000  0.85656000  0.55274000  1.0
  N  N91  1  0.96545000  0.14344000  0.44726000  1.0
  N  N92  1  0.10340000  0.44535000  0.29302000  1.0
  N  N93  1  0.89660000  0.55465000  0.70698000  1.0
  N  N94  1  0.88079000  0.22328000  0.98187000  1.0
  N  N95  1  0.11921000  0.77672000  0.01813000  1.0
  N  N96  1  0.58924000  0.75904000  0.92667000  1.0
  N  N97  1  0.41075000  0.24096000  0.07333000  1.0
  O  O98  1  0.08352000  0.32241000  0.85569000  1.0
  O  O99  1  0.91649000  0.67759000  0.14431000  1.0
  O  O100  1  0.05320000  0.38077000  0.70725000  1.0
  O  O101  1  0.94680000  0.61922000  0.29275000  1.0
  O  O102  1  0.58263000  0.21742000  0.78261000  1.0
  O  O103  1  0.41737000  0.78259000  0.21739000  1.0
  O  O104  1  0.78725000  0.39274000  0.86366000  1.0
  O  O105  1  0.21276000  0.60726000  0.13634000  1.0
  O  O106  1  0.72839000  0.80189000  0.94784000  1.0
  O  O107  1  0.27161000  0.19811000  0.05216000  1.0
  O  O108  1  0.50586000  0.82368000  0.93812000  1.0
  O  O109  1  0.49413000  0.17632000  0.06188000  1.0
  O  O110  1  0.21685000  0.00712000  0.72660000  1.0
  O  O111  1  0.78315000  0.99288000  0.27340000  1.0
  O  O112  1  0.63454000  0.82042000  0.70812000  1.0
  O  O113  1  0.36546000  0.17958000  0.29188000  1.0
  O  O114  1  0.25670000  0.37946000  0.38821000  1.0
  O  O115  1  0.74330000  0.62054000  0.61180000  1.0
