# generated using pymatgen
data_MnH6C9N3O4
_symmetry_space_group_name_H-M   'P 1'
_cell_length_a   6.37314000
_cell_length_b   11.15930316
_cell_length_c   15.09050000
_cell_angle_alpha   91.29617312
_cell_angle_beta   90.02720000
_cell_angle_gamma   106.57503716
_symmetry_Int_Tables_number   1
_chemical_formula_structural   MnH6C9N3O4
_chemical_formula_sum   'Mn4 H24 C36 N12 O16'
_cell_volume   1028.34716350
_cell_formula_units_Z   4
loop_
 _symmetry_equiv_pos_site_id
 _symmetry_equiv_pos_as_xyz
  1  'x, y, z'
loop_
 _atom_site_type_symbol
 _atom_site_label
 _atom_site_symmetry_multiplicity
 _atom_site_fract_x
 _atom_site_fract_y
 _atom_site_fract_z
 _atom_site_occupancy
  Mn  Mn0  1  0.54476000  0.49022000  0.74645000  1.0
  Mn  Mn1  1  0.05435000  0.50942000  0.75350000  1.0
  Mn  Mn2  1  0.45525000  0.50977000  0.25356000  1.0
  Mn  Mn3  1  0.94566000  0.49058000  0.24651000  1.0
  H  H4  1  0.67161000  0.68300000  0.99819000  1.0
  H  H5  1  0.98827000  0.31703000  0.50161000  1.0
  H  H6  1  0.32840000  0.31701000  0.00181000  1.0
  H  H7  1  0.01172000  0.68299000  0.49839000  1.0
  H  H8  1  0.80318000  0.59121000  0.06055000  1.0
  H  H9  1  0.21151000  0.40887000  0.43935000  1.0
  H  H10  1  0.19683000  0.40880000  0.93946000  1.0
  H  H11  1  0.78849000  0.59115000  0.56066000  1.0
  H  H12  1  0.49619000  0.84662000  0.10909000  1.0
  H  H13  1  0.64970000  0.15352000  0.39107000  1.0
  H  H14  1  0.50382000  0.15339000  0.89093000  1.0
  H  H15  1  0.35026000  0.84648000  0.60891000  1.0
  H  H16  1  0.15356000  0.67468000  0.10537000  1.0
  H  H17  1  0.47880000  0.32545000  0.39468000  1.0
  H  H18  1  0.84646000  0.32533000  0.89463000  1.0
  H  H19  1  0.52117000  0.67456000  0.60531000  1.0
  H  H20  1  0.22613000  0.01538000  0.89570000  1.0
  H  H21  1  0.21067000  0.98459000  0.60417000  1.0
  H  H22  1  0.77390000  0.98464000  0.10432000  1.0
  H  H23  1  0.78929000  0.01540000  0.39581000  1.0
  H  H24  1  0.89172000  0.83924000  0.90395000  1.0
  H  H25  1  0.05206000  0.16063000  0.59571000  1.0
  H  H26  1  0.10831000  0.16078000  0.09605000  1.0
  H  H27  1  0.94792000  0.83937000  0.40428000  1.0
  C  C28  1  0.80757000  0.56121000  0.91848000  1.0
  C  C29  1  0.24613000  0.43863000  0.58143000  1.0
  C  C30  1  0.19245000  0.43880000  0.08153000  1.0
  C  C31  1  0.75388000  0.56137000  0.41858000  1.0
  C  C32  1  0.81345000  0.64635000  0.00074000  1.0
  C  C33  1  0.16673000  0.35365000  0.49912000  1.0
  C  C34  1  0.18656000  0.35366000  0.99927000  1.0
  C  C35  1  0.83327000  0.64636000  0.50089000  1.0
  C  C36  1  0.94244000  0.74440000  0.70994000  1.0
  C  C37  1  0.19816000  0.25519000  0.78976000  1.0
  C  C38  1  0.05755000  0.25559000  0.29004000  1.0
  C  C39  1  0.80183000  0.74478000  0.21024000  1.0
  C  C40  1  0.39834000  0.94856000  0.00139000  1.0
  C  C41  1  0.44977000  0.05147000  0.49860000  1.0
  C  C42  1  0.60169000  0.05145000  0.99863000  1.0
  C  C43  1  0.55019000  0.94853000  0.50137000  1.0
  C  C44  1  0.37049000  0.84987000  0.06105000  1.0
  C  C45  1  0.52065000  0.15023000  0.43901000  1.0
  C  C46  1  0.62953000  0.15014000  0.93896000  1.0
  C  C47  1  0.47931000  0.84977000  0.56097000  1.0
  C  C48  1  0.17969000  0.75261000  0.06068000  1.0
  C  C49  1  0.42699000  0.24747000  0.43932000  1.0
  C  C50  1  0.82032000  0.24740000  0.93933000  1.0
  C  C51  1  0.57297000  0.75253000  0.56067000  1.0
  C  C52  1  0.22124000  0.94380000  0.94400000  1.0
  C  C53  1  0.27732000  0.05617000  0.55588000  1.0
  C  C54  1  0.77879000  0.05621000  0.05601000  1.0
  C  C55  1  0.72264000  0.94382000  0.44410000  1.0
  C  C56  1  0.73900000  0.26999000  0.69195000  1.0
  C  C57  1  0.46844000  0.72960000  0.80806000  1.0
  C  C58  1  0.26100000  0.73000000  0.30804000  1.0
  C  C59  1  0.53158000  0.27039000  0.19196000  1.0
  C  C60  1  0.03285000  0.84591000  0.94670000  1.0
  C  C61  1  0.18665000  0.15402000  0.55308000  1.0
  C  C62  1  0.96717000  0.15410000  0.05331000  1.0
  C  C63  1  0.81332000  0.84597000  0.44690000  1.0
  N  N64  1  0.85491000  0.63482000  0.72188000  1.0
  N  N65  1  0.22021000  0.36486000  0.77809000  1.0
  N  N66  1  0.14510000  0.36519000  0.27812000  1.0
  N  N67  1  0.77979000  0.63512000  0.22192000  1.0
  N  N68  1  0.73528000  0.36048000  0.73693000  1.0
  N  N69  1  0.37408000  0.63919000  0.76303000  1.0
  N  N70  1  0.26472000  0.63950000  0.26307000  1.0
  N  N71  1  0.62594000  0.36080000  0.23698000  1.0
  N  N72  1  0.01295000  0.75152000  0.00445000  1.0
  N  N73  1  0.26113000  0.24846000  0.49539000  1.0
  N  N74  1  0.98708000  0.24849000  0.99555000  1.0
  N  N75  1  0.73886000  0.75155000  0.50460000  1.0
  O  O76  1  0.74889000  0.18019000  0.64845000  1.0
  O  O77  1  0.56831000  0.81930000  0.85161000  1.0
  O  O78  1  0.25109000  0.81980000  0.35154000  1.0
  O  O79  1  0.43169000  0.18068000  0.14842000  1.0
  O  O80  1  0.03168000  0.85291000  0.69668000  1.0
  O  O81  1  0.17893000  0.14661000  0.80271000  1.0
  O  O82  1  0.96833000  0.14709000  0.30327000  1.0
  O  O83  1  0.82106000  0.85336000  0.19728000  1.0
  O  O84  1  0.98850000  0.54900000  0.89046000  1.0
  O  O85  1  0.43939000  0.45088000  0.60935000  1.0
  O  O86  1  0.01153000  0.45102000  0.10954000  1.0
  O  O87  1  0.56061000  0.54910000  0.39066000  1.0
  O  O88  1  0.61861000  0.51101000  0.88660000  1.0
  O  O89  1  0.10727000  0.48864000  0.61346000  1.0
  O  O90  1  0.38141000  0.48899000  0.11340000  1.0
  O  O91  1  0.89275000  0.51136000  0.38655000  1.0
