# generated using pymatgen
data_ZnHC8NCl2(O2F)2
_symmetry_space_group_name_H-M   'P 1'
_cell_length_a   8.88379000
_cell_length_b   9.94823000
_cell_length_c   11.05390000
_cell_angle_alpha   89.72050000
_cell_angle_beta   88.08650000
_cell_angle_gamma   78.99080000
_symmetry_Int_Tables_number   1
_chemical_formula_structural   ZnHC8NCl2(O2F)2
_chemical_formula_sum   'Zn2 H2 C16 N2 Cl4 O8 F4'
_cell_volume   958.40683293
_cell_formula_units_Z   2
loop_
 _symmetry_equiv_pos_site_id
 _symmetry_equiv_pos_as_xyz
  1  'x, y, z'
loop_
 _atom_site_type_symbol
 _atom_site_label
 _atom_site_symmetry_multiplicity
 _atom_site_fract_x
 _atom_site_fract_y
 _atom_site_fract_z
 _atom_site_occupancy
  Zn  Zn0  1  0.48442000  0.64386000  0.49997000  1.0
  Zn  Zn1  1  0.51558000  0.35613000  0.50004000  1.0
  H  H2  1  0.03264000  0.34203000  0.49516000  1.0
  H  H3  1  0.96736000  0.65796000  0.50483000  1.0
  C  C4  1  0.49921000  0.49850000  0.26419000  1.0
  C  C5  1  0.62115000  0.53170000  0.06062000  1.0
  C  C6  1  0.50274000  0.50040000  0.87236000  1.0
  C  C7  1  0.49726000  0.49960000  0.12764000  1.0
  C  C8  1  0.40660000  0.08474000  0.57995000  1.0
  C  C9  1  0.59341000  0.91526000  0.42005000  1.0
  C  C10  1  0.40665000  0.94369000  0.57125000  1.0
  C  C11  1  0.59336000  0.05631000  0.42875000  1.0
  C  C12  1  0.50079000  0.50150000  0.73582000  1.0
  C  C13  1  0.79621000  0.45947000  0.49878000  1.0
  C  C14  1  0.20378000  0.54053000  0.50122000  1.0
  C  C15  1  0.96547000  0.44578000  0.49841000  1.0
  C  C16  1  0.03453000  0.55421000  0.50159000  1.0
  C  C17  1  0.37344000  0.46763000  0.06583000  1.0
  C  C18  1  0.62656000  0.53238000  0.93417000  1.0
  C  C19  1  0.37884000  0.46830000  0.93939000  1.0
  N  N20  1  0.49721000  0.86122000  0.49392000  1.0
  N  N21  1  0.50280000  0.13878000  0.50607000  1.0
  Cl  Cl22  1  0.21464000  0.43120000  0.14273000  1.0
  Cl  Cl23  1  0.78536000  0.56881000  0.85727000  1.0
  Cl  Cl24  1  0.28844000  0.18140000  0.68192000  1.0
  Cl  Cl25  1  0.71157000  0.81860000  0.31808000  1.0
  O  O26  1  0.48188000  0.61463000  0.31500000  1.0
  O  O27  1  0.51811000  0.38537000  0.68501000  1.0
  O  O28  1  0.51869000  0.38169000  0.31354000  1.0
  O  O29  1  0.48131000  0.61831000  0.68646000  1.0
  O  O30  1  0.71516000  0.57998000  0.50174000  1.0
  O  O31  1  0.28484000  0.42001000  0.49825000  1.0
  O  O32  1  0.74563000  0.34778000  0.49581000  1.0
  O  O33  1  0.25437000  0.65221000  0.50419000  1.0
  F  F34  1  0.25834000  0.43857000  0.87926000  1.0
  F  F35  1  0.74167000  0.56144000  0.12075000  1.0
  F  F36  1  0.31216000  0.88849000  0.64286000  1.0
  F  F37  1  0.68785000  0.11150000  0.35714000  1.0
