# generated using pymatgen
data_ZnH2C9N5O12
_symmetry_space_group_name_H-M   'P 1'
_cell_length_a   10.56910000
_cell_length_b   11.05260000
_cell_length_c   11.75960000
_cell_angle_alpha   89.71860000
_cell_angle_beta   89.54140000
_cell_angle_gamma   89.95020000
_symmetry_Int_Tables_number   1
_chemical_formula_structural   ZnH2C9N5O12
_chemical_formula_sum   'Zn2 H4 C18 N10 O24'
_cell_volume   1373.64879747
_cell_formula_units_Z   2
loop_
 _symmetry_equiv_pos_site_id
 _symmetry_equiv_pos_as_xyz
  1  'x, y, z'
loop_
 _atom_site_type_symbol
 _atom_site_label
 _atom_site_symmetry_multiplicity
 _atom_site_fract_x
 _atom_site_fract_y
 _atom_site_fract_z
 _atom_site_occupancy
  Zn  Zn0  1  0.63292000  0.49999000  0.49725000  1.0
  Zn  Zn1  1  0.37351000  0.50214000  0.50398000  1.0
  H  H2  1  0.40444000  0.09235000  0.64795000  1.0
  H  H3  1  0.30750000  0.11599000  0.53069000  1.0
  H  H4  1  0.36721000  0.88651000  0.62322000  1.0
  H  H5  1  0.30529000  0.90857000  0.48799000  1.0
  C  C6  1  0.50100000  0.50287000  0.28372000  1.0
  C  C7  1  0.50146000  0.49434000  0.94345000  1.0
  C  C8  1  0.50237000  0.26441000  0.49445000  1.0
  C  C9  1  0.49919000  0.73660000  0.49650000  1.0
  C  C10  1  0.06731000  0.50324000  0.50209000  1.0
  C  C11  1  0.93810000  0.50335000  0.49945000  1.0
  C  C12  1  0.50612000  0.49419000  0.71751000  1.0
  C  C13  1  0.49565000  0.50015000  0.16181000  1.0
  C  C14  1  0.62513000  0.07245000  0.55783000  1.0
  C  C15  1  0.49652000  0.07292000  0.36498000  1.0
  C  C16  1  0.62408000  0.93072000  0.55572000  1.0
  C  C17  1  0.50394000  0.93225000  0.36136000  1.0
  C  C18  1  0.49832000  0.49687000  0.05796000  1.0
  C  C19  1  0.39306000  0.06958000  0.55848000  1.0
  C  C20  1  0.38427000  0.93291000  0.54245000  1.0
  C  C21  1  0.50803000  0.12267000  0.49123000  1.0
  C  C22  1  0.50629000  0.88013000  0.48631000  1.0
  C  C23  1  0.50500000  0.49293000  0.83953000  1.0
  N  N24  1  0.17701000  0.50299000  0.50463000  1.0
  N  N25  1  0.82841000  0.50339000  0.49753000  1.0
  N  N26  1  0.62832000  0.12275000  0.68744000  1.0
  N  N27  1  0.35463000  0.12364000  0.31972000  1.0
  N  N28  1  0.60551000  0.87086000  0.68077000  1.0
  N  N29  1  0.38541000  0.87786000  0.28875000  1.0
  N  N30  1  0.75677000  0.12440000  0.51145000  1.0
  N  N31  1  0.57784000  0.13772000  0.26875000  1.0
  N  N32  1  0.76453000  0.88464000  0.52629000  1.0
  N  N33  1  0.61403000  0.87502000  0.28098000  1.0
  O  O34  1  0.60883000  0.48424000  0.32731000  1.0
  O  O35  1  0.39701000  0.52344000  0.33694000  1.0
  O  O36  1  0.60525000  0.31845000  0.51199000  1.0
  O  O37  1  0.39434000  0.31062000  0.48087000  1.0
  O  O38  1  0.59905000  0.67975000  0.47248000  1.0
  O  O39  1  0.39688000  0.69179000  0.53299000  1.0
  O  O40  1  0.61142000  0.51553000  0.66807000  1.0
  O  O41  1  0.39992000  0.47450000  0.66957000  1.0
  O  O42  1  0.71173000  0.07892000  0.74589000  1.0
  O  O43  1  0.55368000  0.20262000  0.71392000  1.0
  O  O44  1  0.35724000  0.21408000  0.26061000  1.0
  O  O45  1  0.26128000  0.06842000  0.35354000  1.0
  O  O46  1  0.66652000  0.77926000  0.69982000  1.0
  O  O47  1  0.52414000  0.91658000  0.74196000  1.0
  O  O48  1  0.37514000  0.92161000  0.19361000  1.0
  O  O49  1  0.32262000  0.79688000  0.33148000  1.0
  O  O50  1  0.78330000  0.08791000  0.41580000  1.0
  O  O51  1  0.81836000  0.19362000  0.56936000  1.0
  O  O52  1  0.63726000  0.22763000  0.29638000  1.0
  O  O53  1  0.56474000  0.09737000  0.17295000  1.0
  O  O54  1  0.78341000  0.82172000  0.44323000  1.0
  O  O55  1  0.84346000  0.91929000  0.59505000  1.0
  O  O56  1  0.70862000  0.93378000  0.26006000  1.0
  O  O57  1  0.59022000  0.77187000  0.25017000  1.0
