# generated using pymatgen
data_Ag2H18C17S2(N2O3)2
_symmetry_space_group_name_H-M   'P 1'
_cell_length_a   7.70773000
_cell_length_b   9.08355000
_cell_length_c   15.03200000
_cell_angle_alpha   91.08960000
_cell_angle_beta   92.16170000
_cell_angle_gamma   105.39100000
_symmetry_Int_Tables_number   1
_chemical_formula_structural   Ag2H18C17S2(N2O3)2
_chemical_formula_sum   'Ag4 H36 C34 S4 N8 O12'
_cell_volume   1013.51761138
_cell_formula_units_Z   2
loop_
 _symmetry_equiv_pos_site_id
 _symmetry_equiv_pos_as_xyz
  1  'x, y, z'
loop_
 _atom_site_type_symbol
 _atom_site_label
 _atom_site_symmetry_multiplicity
 _atom_site_fract_x
 _atom_site_fract_y
 _atom_site_fract_z
 _atom_site_occupancy
  Ag  Ag0  1  0.43044000  0.32816000  0.23964000  1.0
  Ag  Ag1  1  0.56956000  0.67183000  0.76037000  1.0
  Ag  Ag2  1  0.60708000  0.67234000  0.27669000  1.0
  Ag  Ag3  1  0.39292000  0.32766000  0.72331000  1.0
  H  H4  1  0.04097000  0.86841000  0.92677000  1.0
  H  H5  1  0.95903000  0.13159000  0.07323000  1.0
  H  H6  1  0.99473000  0.69675000  0.79205000  1.0
  H  H7  1  0.00527000  0.30324000  0.20795000  1.0
  H  H8  1  0.81155000  0.42644000  0.79709000  1.0
  H  H9  1  0.18845000  0.57355000  0.20291000  1.0
  H  H10  1  0.66333000  0.32496000  0.93658000  1.0
  H  H11  1  0.33667000  0.67504000  0.06342000  1.0
  H  H12  1  0.95430000  0.13955000  0.58200000  1.0
  H  H13  1  0.04570000  0.86045000  0.41799000  1.0
  H  H14  1  0.95514000  0.32742000  0.70479000  1.0
  H  H15  1  0.04486000  0.67258000  0.29521000  1.0
  H  H16  1  0.12548000  0.60016000  0.69399000  1.0
  H  H17  1  0.87452000  0.39984000  0.30601000  1.0
  H  H18  1  0.30275000  0.68942000  0.55949000  1.0
  H  H19  1  0.69725000  0.31058000  0.44051000  1.0
  H  H20  1  0.56491000  0.08463000  0.09973000  1.0
  H  H21  1  0.43509000  0.91537000  0.90026000  1.0
  H  H22  1  0.36465000  0.11703000  0.05300000  1.0
  H  H23  1  0.63536000  0.88297000  0.94700000  1.0
  H  H24  1  0.37350000  0.92675000  0.07568000  1.0
  H  H25  1  0.62651000  0.07325000  0.92431000  1.0
  H  H26  1  0.39953000  0.85029000  0.22092000  1.0
  H  H27  1  0.60047000  0.14971000  0.77908000  1.0
  H  H28  1  0.31919000  0.94648000  0.30828000  1.0
  H  H29  1  0.68081000  0.05352000  0.69172000  1.0
  H  H30  1  0.69430000  0.05794000  0.23377000  1.0
  H  H31  1  0.30570000  0.94206000  0.76623000  1.0
  H  H32  1  0.61027000  0.13702000  0.32691000  1.0
  H  H33  1  0.38973000  0.86298000  0.67309000  1.0
  H  H34  1  0.21750000  0.03178000  0.18480000  1.0
  H  H35  1  0.78251000  0.96822000  0.81520000  1.0
  H  H36  1  0.59572000  0.90029000  0.40147000  1.0
  H  H37  1  0.40428000  0.09971000  0.59853000  1.0
  H  H38  1  0.79614000  0.96356000  0.36152000  1.0
  H  H39  1  0.20386000  0.03644000  0.63848000  1.0
  C  C40  1  0.87172000  0.69114000  0.00461000  1.0
  C  C41  1  0.12828000  0.30886000  0.99539000  1.0
  C  C42  1  0.95838000  0.75081000  0.92891000  1.0
  C  C43  1  0.04162000  0.24919000  0.07109000  1.0
  C  C44  1  0.93320000  0.65262000  0.85361000  1.0
  C  C45  1  0.06680000  0.34738000  0.14639000  1.0
  C  C46  1  0.82863000  0.50075000  0.85628000  1.0
  C  C47  1  0.17137000  0.49925000  0.14372000  1.0
  C  C48  1  0.74549000  0.44259000  0.93413000  1.0
  C  C49  1  0.25450000  0.55741000  0.06588000  1.0
  C  C50  1  0.76633000  0.54054000  0.00837000  1.0
  C  C51  1  0.23367000  0.45946000  0.99163000  1.0
  C  C52  1  0.68103000  0.50906000  0.09594000  1.0
  C  C53  1  0.31897000  0.49094000  0.90406000  1.0
  C  C54  1  0.13536000  0.31108000  0.50580000  1.0
  C  C55  1  0.86464000  0.68892000  0.49419000  1.0
  C  C56  1  0.03156000  0.25833000  0.57778000  1.0
  C  C57  1  0.96844000  0.74167000  0.42221000  1.0
  C  C58  1  0.03077000  0.36567000  0.64599000  1.0
  C  C59  1  0.96923000  0.63433000  0.35400000  1.0
  C  C60  1  0.12791000  0.51912000  0.64004000  1.0
  C  C61  1  0.87209000  0.48088000  0.35996000  1.0
  C  C62  1  0.22740000  0.57041000  0.56543000  1.0
  C  C63  1  0.77259000  0.42960000  0.43457000  1.0
  C  C64  1  0.23130000  0.46371000  0.49848000  1.0
  C  C65  1  0.76870000  0.53630000  0.50152000  1.0
  C  C66  1  0.33282000  0.48962000  0.41528000  1.0
  C  C67  1  0.66719000  0.51039000  0.58472000  1.0
  C  C68  1  0.41779000  0.04709000  0.09955000  1.0
  C  C69  1  0.58221000  0.95291000  0.90045000  1.0
  C  C70  1  0.41067000  0.96380000  0.25290000  1.0
  C  C71  1  0.58933000  0.03620000  0.74710000  1.0
  C  C72  1  0.60320000  0.02987000  0.28904000  1.0
  C  C73  1  0.39681000  0.97013000  0.71096000  1.0
  S  S74  1  0.86189000  0.78192000  0.10908000  1.0
  S  S75  1  0.13811000  0.21808000  0.89092000  1.0
  S  S76  1  0.18428000  0.20882000  0.41269000  1.0
  S  S77  1  0.81572000  0.79118000  0.58731000  1.0
  N  N78  1  0.72103000  0.63307000  0.15200000  1.0
  N  N79  1  0.27897000  0.36693000  0.84800000  1.0
  N  N80  1  0.31661000  0.35914000  0.36647000  1.0
  N  N81  1  0.68340000  0.64086000  0.63353000  1.0
  N  N82  1  0.35514000  0.06541000  0.18933000  1.0
  N  N83  1  0.64486000  0.93459000  0.81067000  1.0
  N  N84  1  0.66304000  0.91843000  0.34359000  1.0
  N  N85  1  0.33696000  0.08157000  0.65641000  1.0
  O  O86  1  0.58085000  0.38065000  0.11314000  1.0
  O  O87  1  0.41915000  0.61935000  0.88686000  1.0
  O  O88  1  0.03472000  0.81763000  0.15821000  1.0
  O  O89  1  0.96528000  0.18236000  0.84180000  1.0
  O  O90  1  0.77899000  0.90715000  0.09971000  1.0
  O  O91  1  0.22101000  0.09284000  0.90029000  1.0
  O  O92  1  0.42252000  0.62002000  0.39467000  1.0
  O  O93  1  0.57749000  0.37998000  0.60533000  1.0
  O  O94  1  0.02597000  0.14487000  0.35428000  1.0
  O  O95  1  0.97402000  0.85513000  0.64572000  1.0
  O  O96  1  0.28410000  0.10180000  0.44163000  1.0
  O  O97  1  0.71589000  0.89820000  0.55837000  1.0
