# generated using pymatgen
data_ZnH20C16N3O5
_symmetry_space_group_name_H-M   'P 1'
_cell_length_a   8.89838000
_cell_length_b   10.16290000
_cell_length_c   10.39190000
_cell_angle_alpha   69.82680000
_cell_angle_beta   75.75850000
_cell_angle_gamma   82.07590000
_symmetry_Int_Tables_number   1
_chemical_formula_structural   ZnH20C16N3O5
_chemical_formula_sum   'Zn2 H40 C32 N6 O10'
_cell_volume   853.56014453
_cell_formula_units_Z   2
loop_
 _symmetry_equiv_pos_site_id
 _symmetry_equiv_pos_as_xyz
  1  'x, y, z'
loop_
 _atom_site_type_symbol
 _atom_site_label
 _atom_site_symmetry_multiplicity
 _atom_site_fract_x
 _atom_site_fract_y
 _atom_site_fract_z
 _atom_site_occupancy
  Zn  Zn0  1  0.25535000  0.19757000  0.70770000  1.0
  Zn  Zn1  1  0.74465000  0.80243000  0.29230000  1.0
  H  H2  1  0.60843000  0.52041000  0.75624000  1.0
  H  H3  1  0.39158000  0.47959000  0.24375000  1.0
  H  H4  1  0.66747000  0.36299000  0.87415000  1.0
  H  H5  1  0.33253000  0.63700000  0.12584000  1.0
  H  H6  1  0.08238000  0.77457000  0.70997000  1.0
  H  H7  1  0.91762000  0.22543000  0.29003000  1.0
  H  H8  1  0.15214000  0.61078000  0.81464000  1.0
  H  H9  1  0.84786000  0.38923000  0.18536000  1.0
  H  H10  1  0.09439000  0.06100000  0.54083000  1.0
  H  H11  1  0.90561000  0.93899000  0.45918000  1.0
  H  H12  1  0.87299000  0.78951000  0.91985000  1.0
  H  H13  1  0.12701000  0.21049000  0.08015000  1.0
  H  H14  1  0.95031000  0.63204000  0.02357000  1.0
  H  H15  1  0.04970000  0.36796000  0.97643000  1.0
  H  H16  1  0.88652000  0.53987000  0.60666000  1.0
  H  H17  1  0.11348000  0.46014000  0.39335000  1.0
  H  H18  1  0.01760000  0.67617000  0.54235000  1.0
  H  H19  1  0.98239000  0.32383000  0.45765000  1.0
  H  H20  1  0.40507000  0.36964000  0.04361000  1.0
  H  H21  1  0.59494000  0.63035000  0.95638000  1.0
  H  H22  1  0.35982000  0.53512000  0.92954000  1.0
  H  H23  1  0.64020000  0.46487000  0.07045000  1.0
  H  H24  1  0.05360000  0.81819000  0.06414000  1.0
  H  H25  1  0.94641000  0.18181000  0.93586000  1.0
  H  H26  1  0.20888000  0.75121000  0.96004000  1.0
  H  H27  1  0.79112000  0.24879000  0.03995000  1.0
  H  H28  1  0.44085000  0.06062000  0.16528000  1.0
  H  H29  1  0.55912000  0.93937000  0.83473000  1.0
  H  H30  1  0.61340000  0.17569000  0.24513000  1.0
  H  H31  1  0.38659000  0.82430000  0.75486000  1.0
  H  H32  1  0.17052000  0.00684000  0.31154000  1.0
  H  H33  1  0.82947000  0.99315000  0.68848000  1.0
  H  H34  1  0.82030000  0.67343000  0.76607000  1.0
  H  H35  1  0.17970000  0.32657000  0.23394000  1.0
  H  H36  1  0.90050000  0.50785000  0.85319000  1.0
  H  H37  1  0.09952000  0.49215000  0.14681000  1.0
  H  H38  1  0.65045000  0.28839000  0.41856000  1.0
  H  H39  1  0.34955000  0.71160000  0.58144000  1.0
  H  H40  1  0.65108000  0.38853000  0.59093000  1.0
  H  H41  1  0.34893000  0.61147000  0.40907000  1.0
  C  C42  1  0.11742000  0.46941000  0.62911000  1.0
  C  C43  1  0.88258000  0.53059000  0.37089000  1.0
  C  C44  1  0.56354000  0.42656000  0.84272000  1.0
  C  C45  1  0.43647000  0.57343000  0.15727000  1.0
  C  C46  1  0.11682000  0.95456000  0.85474000  1.0
  C  C47  1  0.88317000  0.04545000  0.14527000  1.0
  C  C48  1  0.04648000  0.68078000  0.80102000  1.0
  C  C49  1  0.95352000  0.31923000  0.19898000  1.0
  C  C50  1  0.20730000  0.08525000  0.47015000  1.0
  C  C51  1  0.79269000  0.91475000  0.52986000  1.0
  C  C52  1  0.98172000  0.72504000  0.93115000  1.0
  C  C53  1  0.01828000  0.27497000  0.06885000  1.0
  C  C54  1  0.98339000  0.57907000  0.62835000  1.0
  C  C55  1  0.01661000  0.42094000  0.37165000  1.0
  C  C56  1  0.45762000  0.46503000  0.96606000  1.0
  C  C57  1  0.54239000  0.53496000  0.03393000  1.0
  C  C58  1  0.48333000  0.34234000  0.78776000  1.0
  C  C59  1  0.51668000  0.65766000  0.21223000  1.0
  C  C60  1  0.44283000  0.18118000  0.43167000  1.0
  C  C61  1  0.55717000  0.81881000  0.56833000  1.0
  C  C62  1  0.09371000  0.80740000  0.95909000  1.0
  C  C63  1  0.90630000  0.19260000  0.04091000  1.0
  C  C64  1  0.39981000  0.08566000  0.26250000  1.0
  C  C65  1  0.60017000  0.91433000  0.73751000  1.0
  C  C66  1  0.49653000  0.15094000  0.30611000  1.0
  C  C67  1  0.50346000  0.84905000  0.69389000  1.0
  C  C68  1  0.25188000  0.05283000  0.34515000  1.0
  C  C69  1  0.74810000  0.94716000  0.65486000  1.0
  C  C70  1  0.92910000  0.60745000  0.76845000  1.0
  C  C71  1  0.07090000  0.39255000  0.23155000  1.0
  C  C72  1  0.53854000  0.24903000  0.48286000  1.0
  C  C73  1  0.46146000  0.75097000  0.51714000  1.0
  N  N74  1  0.48289000  0.26246000  0.60509000  1.0
  N  N75  1  0.51711000  0.73755000  0.39491000  1.0
  N  N76  1  0.29956000  0.14817000  0.51255000  1.0
  N  N77  1  0.70044000  0.85182000  0.48745000  1.0
  N  N78  1  0.55795000  0.32934000  0.65923000  1.0
  N  N79  1  0.44206000  0.67066000  0.34076000  1.0
  O  O80  1  0.23923000  0.01239000  0.85404000  1.0
  O  O81  1  0.76077000  0.98761000  0.14596000  1.0
  O  O82  1  0.02389000  0.01483000  0.77640000  1.0
  O  O83  1  0.97610000  0.98517000  0.22362000  1.0
  O  O84  1  0.35999000  0.28564000  0.85273000  1.0
  O  O85  1  0.64001000  0.71438000  0.14726000  1.0
  O  O86  1  0.25158000  0.50223000  0.55635000  1.0
  O  O87  1  0.74842000  0.49778000  0.44364000  1.0
  O  O88  1  0.08454000  0.34333000  0.70721000  1.0
  O  O89  1  0.91546000  0.65668000  0.29278000  1.0
