# generated using pymatgen
data_Al2H11C20ClO10
_symmetry_space_group_name_H-M   'P 1'
_cell_length_a   6.64632000
_cell_length_b   11.04670000
_cell_length_c   11.06486955
_cell_angle_alpha   93.93557302
_cell_angle_beta   106.52454904
_cell_angle_gamma   105.99820000
_symmetry_Int_Tables_number   1
_chemical_formula_structural   Al2H11C20ClO10
_chemical_formula_sum   'Al2 H11 C20 Cl1 O10'
_cell_volume   739.07588237
_cell_formula_units_Z   1
loop_
 _symmetry_equiv_pos_site_id
 _symmetry_equiv_pos_as_xyz
  1  'x, y, z'
loop_
 _atom_site_type_symbol
 _atom_site_label
 _atom_site_symmetry_multiplicity
 _atom_site_fract_x
 _atom_site_fract_y
 _atom_site_fract_z
 _atom_site_occupancy
  Al  Al0  1  0.98542000  0.49312000  0.49284000  1.0
  Al  Al1  1  0.48613000  0.49594000  0.49188000  1.0
  H  H2  1  0.62082000  0.40961000  0.33719000  1.0
  H  H3  1  0.34960000  0.56971000  0.64929000  1.0
  H  H4  1  0.59262000  0.87719000  0.41528000  1.0
  H  H5  1  0.25963000  0.88054000  0.59537000  1.0
  H  H6  1  0.73202000  0.11185000  0.41151000  1.0
  H  H7  1  0.50904000  0.65197000  0.24447000  1.0
  H  H8  1  0.76667000  0.76959000  0.14050000  1.0
  H  H9  1  0.24949000  0.66790000  0.77936000  1.0
  H  H10  1  0.63565000  0.77976000  0.90682000  1.0
  H  H11  1  0.60932000  0.41750000  0.86678000  1.0
  H  H12  1  0.73080000  0.42308000  0.10288000  1.0
  C  C13  1  0.12918000  0.50791000  0.26681000  1.0
  C  C14  1  0.13610000  0.26685000  0.48855000  1.0
  C  C15  1  0.85380000  0.50279000  0.72090000  1.0
  C  C16  1  0.84346000  0.72445000  0.50477000  1.0
  C  C17  1  0.07124000  0.12827000  0.50004000  1.0
  C  C18  1  0.91889000  0.86471000  0.50384000  1.0
  C  C19  1  0.22025000  0.06253000  0.55546000  1.0
  C  C20  1  0.76804000  0.92938000  0.45296000  1.0
  C  C21  1  0.14384000  0.93147000  0.55500000  1.0
  C  C22  1  0.84539000  0.05913000  0.45072000  1.0
  C  C23  1  0.06967000  0.52100000  0.12875000  1.0
  C  C24  1  0.22886000  0.58494000  0.07116000  1.0
  C  C25  1  0.84984000  0.46713000  0.05613000  1.0
  C  C26  1  0.45228000  0.65245000  0.14226000  1.0
  C  C27  1  0.59616000  0.71899000  0.08384000  1.0
  C  C28  1  0.93121000  0.51983000  0.86318000  1.0
  C  C29  1  0.78071000  0.46512000  0.92360000  1.0
  C  C30  1  0.15608000  0.58663000  0.93575000  1.0
  C  C31  1  0.30753000  0.65997000  0.87998000  1.0
  C  C32  1  0.52284000  0.72410000  0.95194000  1.0
  Cl  Cl33  1  0.49926000  0.13666000  0.63099000  1.0
  O  O34  1  0.98855000  0.51440000  0.32296000  1.0
  O  O35  1  0.33478000  0.32159000  0.49552000  1.0
  O  O36  1  0.66394000  0.51317000  0.66657000  1.0
  O  O37  1  0.99121000  0.66863000  0.52515000  1.0
  O  O38  1  0.98151000  0.47727000  0.66337000  1.0
  O  O39  1  0.63847000  0.67177000  0.48600000  1.0
  O  O40  1  0.31140000  0.48721000  0.31873000  1.0
  O  O41  1  0.98273000  0.31876000  0.46867000  1.0
  O  O42  1  0.67926000  0.43846000  0.42856000  1.0
  O  O43  1  0.29262000  0.55193000  0.55664000  1.0
