# generated using pymatgen
data_AgH7C6N2O3
_symmetry_space_group_name_H-M   'P 1'
_cell_length_a   7.15844000
_cell_length_b   9.90817000
_cell_length_c   12.26890000
_cell_angle_alpha   110.50600000
_cell_angle_beta   90.93270000
_cell_angle_gamma   100.08000000
_symmetry_Int_Tables_number   1
_chemical_formula_structural   AgH7C6N2O3
_chemical_formula_sum   'Ag4 H28 C24 N8 O12'
_cell_volume   799.63080329
_cell_formula_units_Z   4
loop_
 _symmetry_equiv_pos_site_id
 _symmetry_equiv_pos_as_xyz
  1  'x, y, z'
loop_
 _atom_site_type_symbol
 _atom_site_label
 _atom_site_symmetry_multiplicity
 _atom_site_fract_x
 _atom_site_fract_y
 _atom_site_fract_z
 _atom_site_occupancy
  Ag  Ag0  1  0.46338000  0.62440000  0.73921000  1.0
  Ag  Ag1  1  0.53662000  0.37559000  0.26079000  1.0
  Ag  Ag2  1  0.92541000  0.54356000  0.22386000  1.0
  Ag  Ag3  1  0.07458000  0.45645000  0.77614000  1.0
  H  H4  1  0.06004000  0.89157000  0.79170000  1.0
  H  H5  1  0.93996000  0.10842000  0.20830000  1.0
  H  H6  1  0.14911000  0.79847000  0.85266000  1.0
  H  H7  1  0.85088000  0.20151000  0.14734000  1.0
  H  H8  1  0.81157000  0.91005000  0.70352000  1.0
  H  H9  1  0.18844000  0.08996000  0.29649000  1.0
  H  H10  1  0.81868000  0.05905000  0.81516000  1.0
  H  H11  1  0.18134000  0.94096000  0.18485000  1.0
  H  H12  1  0.60909000  0.39395000  0.79860000  1.0
  H  H13  1  0.39091000  0.60605000  0.20140000  1.0
  H  H14  1  0.81564000  0.80766000  0.16106000  1.0
  H  H15  1  0.18435000  0.19233000  0.83893000  1.0
  H  H16  1  0.72200000  0.91412000  0.92480000  1.0
  H  H17  1  0.27801000  0.08588000  0.07519000  1.0
  H  H18  1  0.49051000  0.86837000  0.96645000  1.0
  H  H19  1  0.50948000  0.13163000  0.03353000  1.0
  H  H20  1  0.68214000  0.96430000  0.07716000  1.0
  H  H21  1  0.31784000  0.03572000  0.92284000  1.0
  H  H22  1  0.35542000  0.82645000  0.61462000  1.0
  H  H23  1  0.64460000  0.17354000  0.38538000  1.0
  H  H24  1  0.08833000  0.34225000  0.33103000  1.0
  H  H25  1  0.91166000  0.65775000  0.66898000  1.0
  H  H26  1  0.01512000  0.84449000  0.42643000  1.0
  H  H27  1  0.98489000  0.15552000  0.57357000  1.0
  H  H28  1  0.19863000  0.82117000  0.32939000  1.0
  H  H29  1  0.80137000  0.17883000  0.67061000  1.0
  H  H30  1  0.25297000  0.93650000  0.47969000  1.0
  H  H31  1  0.74704000  0.06351000  0.52030000  1.0
  C  C32  1  0.65715000  0.48709000  0.87919000  1.0
  C  C33  1  0.34284000  0.51291000  0.12081000  1.0
  C  C34  1  0.74390000  0.46794000  0.97381000  1.0
  C  C35  1  0.25609000  0.53207000  0.02620000  1.0
  C  C36  1  0.76805000  0.71511000  0.07991000  1.0
  C  C37  1  0.23195000  0.28490000  0.92011000  1.0
  C  C38  1  0.68033000  0.73603000  0.98540000  1.0
  C  C39  1  0.31967000  0.26395000  0.01461000  1.0
  C  C40  1  0.64268000  0.87978000  0.99021000  1.0
  C  C41  1  0.35732000  0.12019000  0.00978000  1.0
  C  C42  1  0.77846000  0.31713000  0.96382000  1.0
  C  C43  1  0.22155000  0.68286000  0.03618000  1.0
  C  C44  1  0.29751000  0.71880000  0.54993000  1.0
  C  C45  1  0.70250000  0.28120000  0.45006000  1.0
  C  C46  1  0.25502000  0.46591000  0.49688000  1.0
  C  C47  1  0.74497000  0.53409000  0.50312000  1.0
  C  C48  1  0.15407000  0.45049000  0.39337000  1.0
  C  C49  1  0.84592000  0.54951000  0.60663000  1.0
  C  C50  1  0.19715000  0.70454000  0.44629000  1.0
  C  C51  1  0.80285000  0.29547000  0.55371000  1.0
  C  C52  1  0.16567000  0.83442000  0.41941000  1.0
  C  C53  1  0.83433000  0.16558000  0.58060000  1.0
  C  C54  1  0.28421000  0.33115000  0.52443000  1.0
  C  C55  1  0.71578000  0.66885000  0.47557000  1.0
  N  N56  1  0.62418000  0.61893000  0.88553000  1.0
  N  N57  1  0.37582000  0.38106000  0.11448000  1.0
  N  N58  1  0.79725000  0.58310000  0.07436000  1.0
  N  N59  1  0.20273000  0.41692000  0.92564000  1.0
  N  N60  1  0.32272000  0.60190000  0.57512000  1.0
  N  N61  1  0.67729000  0.39810000  0.42488000  1.0
  N  N62  1  0.12219000  0.56807000  0.36995000  1.0
  N  N63  1  0.87780000  0.43193000  0.63005000  1.0
  O  O64  1  0.73905000  0.21893000  0.86368000  1.0
  O  O65  1  0.26096000  0.78106000  0.13633000  1.0
  O  O66  1  0.84352000  0.30430000  0.05572000  1.0
  O  O67  1  0.15649000  0.69572000  0.94431000  1.0
  O  O68  1  0.25658000  0.21073000  0.43987000  1.0
  O  O69  1  0.74342000  0.78927000  0.56013000  1.0
  O  O70  1  0.33261000  0.35107000  0.62999000  1.0
  O  O71  1  0.66737000  0.64893000  0.37001000  1.0
  O  O72  1  0.15710000  0.82871000  0.78426000  1.0
  O  O73  1  0.84291000  0.17128000  0.21574000  1.0
  O  O74  1  0.86878000  0.96629000  0.78398000  1.0
  O  O75  1  0.13126000  0.03372000  0.21602000  1.0
