# generated using pymatgen
data_CoH14C14(NO2)4
_symmetry_space_group_name_H-M   'P 1'
_cell_length_a   7.41802000
_cell_length_b   9.36630000
_cell_length_c   12.65870000
_cell_angle_alpha   74.21900000
_cell_angle_beta   89.99700000
_cell_angle_gamma   66.68400000
_symmetry_Int_Tables_number   1
_chemical_formula_structural   CoH14C14(NO2)4
_chemical_formula_sum   'Co2 H28 C28 N8 O16'
_cell_volume   771.46853275
_cell_formula_units_Z   2
loop_
 _symmetry_equiv_pos_site_id
 _symmetry_equiv_pos_as_xyz
  1  'x, y, z'
loop_
 _atom_site_type_symbol
 _atom_site_label
 _atom_site_symmetry_multiplicity
 _atom_site_fract_x
 _atom_site_fract_y
 _atom_site_fract_z
 _atom_site_occupancy
  Co  Co0  1  0.14294000  0.99993000  0.75019000  1.0
  Co  Co1  1  0.85706000  0.00007000  0.24981000  1.0
  H  H2  1  0.55972000  0.40118000  0.80569000  1.0
  H  H3  1  0.96106000  0.59847000  0.69462000  1.0
  H  H4  1  0.44028000  0.59882000  0.19431000  1.0
  H  H5  1  0.03894000  0.40153000  0.30537000  1.0
  H  H6  1  0.67004000  0.24164000  0.93033000  1.0
  H  H7  1  0.91192000  0.75821000  0.57010000  1.0
  H  H8  1  0.32996000  0.75837000  0.06967000  1.0
  H  H9  1  0.08808000  0.24179000  0.42990000  1.0
  H  H10  1  0.78618000  0.86648000  0.84771000  1.0
  H  H11  1  0.65219000  0.13338000  0.65243000  1.0
  H  H12  1  0.21381000  0.13352000  0.15229000  1.0
  H  H13  1  0.34781000  0.86663000  0.34757000  1.0
  H  H14  1  0.75669000  0.85556000  0.98946000  1.0
  H  H15  1  0.61192000  0.14427000  0.51068000  1.0
  H  H16  1  0.24332000  0.14444000  0.01054000  1.0
  H  H17  1  0.38808000  0.85572000  0.48932000  1.0
  H  H18  1  0.61580000  0.67619000  0.78035000  1.0
  H  H19  1  0.29192000  0.32361000  0.71977000  1.0
  H  H20  1  0.38420000  0.32381000  0.21965000  1.0
  H  H21  1  0.70808000  0.67639000  0.28022000  1.0
  H  H22  1  0.79551000  0.30553000  0.09005000  1.0
  H  H23  1  0.10093000  0.69442000  0.41012000  1.0
  H  H24  1  0.20449000  0.69447000  0.90996000  1.0
  H  H25  1  0.89908000  0.30558000  0.58987000  1.0
  H  H26  1  0.82647000  0.58604000  0.11344000  1.0
  H  H27  1  0.41232000  0.41397000  0.38664000  1.0
  H  H28  1  0.17353000  0.41396000  0.88656000  1.0
  H  H29  1  0.58769000  0.58603000  0.61336000  1.0
  C  C30  1  0.87586000  0.27199000  0.81207000  1.0
  C  C31  1  0.14837000  0.72743000  0.68832000  1.0
  C  C32  1  0.12414000  0.72801000  0.18793000  1.0
  C  C33  1  0.85163000  0.27257000  0.31168000  1.0
  C  C34  1  0.69005000  0.33990000  0.86831000  1.0
  C  C35  1  0.03016000  0.65980000  0.63204000  1.0
  C  C36  1  0.30995000  0.66010000  0.13170000  1.0
  C  C37  1  0.96985000  0.34020000  0.36796000  1.0
  C  C38  1  0.48444000  0.96599000  0.87873000  1.0
  C  C39  1  0.44974000  0.03406000  0.62134000  1.0
  C  C40  1  0.51556000  0.03402000  0.12127000  1.0
  C  C41  1  0.55025000  0.96594000  0.37866000  1.0
  C  C42  1  0.69969000  0.84085000  0.91516000  1.0
  C  C43  1  0.54014000  0.15906000  0.58494000  1.0
  C  C44  1  0.30030000  0.15915000  0.08484000  1.0
  C  C45  1  0.45986000  0.84094000  0.41506000  1.0
  C  C46  1  0.67499000  0.60992000  0.86643000  1.0
  C  C47  1  0.28476000  0.38991000  0.63368000  1.0
  C  C48  1  0.32501000  0.39008000  0.13357000  1.0
  C  C49  1  0.71523000  0.61009000  0.36631000  1.0
  C  C50  1  0.76684000  0.42215000  0.03080000  1.0
  C  C51  1  0.18888000  0.57777000  0.46934000  1.0
  C  C52  1  0.23317000  0.57785000  0.96920000  1.0
  C  C53  1  0.81113000  0.42222000  0.53066000  1.0
  C  C54  1  0.77895000  0.55875000  0.04318000  1.0
  C  C55  1  0.33751000  0.44116000  0.45692000  1.0
  C  C56  1  0.22105000  0.44125000  0.95682000  1.0
  C  C57  1  0.66249000  0.55883000  0.54308000  1.0
  N  N58  1  0.70101000  0.45709000  0.92053000  1.0
  N  N59  1  0.15801000  0.54274000  0.57964000  1.0
  N  N60  1  0.29900000  0.54291000  0.07947000  1.0
  N  N61  1  0.84199000  0.45726000  0.42036000  1.0
  N  N62  1  0.72245000  0.67303000  0.93993000  1.0
  N  N63  1  0.39526000  0.32686000  0.56016000  1.0
  N  N64  1  0.27755000  0.32697000  0.06007000  1.0
  N  N65  1  0.60474000  0.67314000  0.43983000  1.0
  O  O66  1  0.89122000  0.14553000  0.78348000  1.0
  O  O67  1  0.03748000  0.85382000  0.71703000  1.0
  O  O68  1  0.10878000  0.85447000  0.21652000  1.0
  O  O69  1  0.96253000  0.14618000  0.28297000  1.0
  O  O70  1  0.99126000  0.34045000  0.79525000  1.0
  O  O71  1  0.33217000  0.65883000  0.70508000  1.0
  O  O72  1  0.00874000  0.65955000  0.20475000  1.0
  O  O73  1  0.66784000  0.34117000  0.29492000  1.0
  O  O74  1  0.35473000  0.90696000  0.87272000  1.0
  O  O75  1  0.26102000  0.09326000  0.62737000  1.0
  O  O76  1  0.64527000  0.09304000  0.12728000  1.0
  O  O77  1  0.73898000  0.90674000  0.37264000  1.0
  O  O78  1  0.45472000  0.11185000  0.85571000  1.0
  O  O79  1  0.56561000  0.88815000  0.64435000  1.0
  O  O80  1  0.54528000  0.88815000  0.14429000  1.0
  O  O81  1  0.43438000  0.11185000  0.35565000  1.0
