# generated using pymatgen
data_CuH18(C9N5)2
_symmetry_space_group_name_H-M   'P 1'
_cell_length_a   8.26657000
_cell_length_b   9.09483000
_cell_length_c   12.77390000
_cell_angle_alpha   90.00090000
_cell_angle_beta   90.00140000
_cell_angle_gamma   73.30900000
_symmetry_Int_Tables_number   1
_chemical_formula_structural   CuH18(C9N5)2
_chemical_formula_sum   'Cu2 H36 C36 N20'
_cell_volume   919.91762203
_cell_formula_units_Z   2
loop_
 _symmetry_equiv_pos_site_id
 _symmetry_equiv_pos_as_xyz
  1  'x, y, z'
loop_
 _atom_site_type_symbol
 _atom_site_label
 _atom_site_symmetry_multiplicity
 _atom_site_fract_x
 _atom_site_fract_y
 _atom_site_fract_z
 _atom_site_occupancy
  Cu  Cu0  1  0.00000000  0.50000000  0.50000000  1.0
  Cu  Cu1  1  0.00001000  0.00000000  0.00000000  1.0
  H  H2  1  0.65993000  0.75482000  0.56025000  1.0
  H  H3  1  0.65993000  0.25482000  0.93974000  1.0
  H  H4  1  0.34007000  0.24518000  0.43975000  1.0
  H  H5  1  0.34008000  0.74517000  0.06026000  1.0
  H  H6  1  0.72472000  0.80378000  0.43739000  1.0
  H  H7  1  0.72473000  0.30377000  0.06260000  1.0
  H  H8  1  0.27528000  0.19621000  0.56261000  1.0
  H  H9  1  0.27528000  0.69622000  0.93739000  1.0
  H  H10  1  0.55411000  0.03018000  0.61081000  1.0
  H  H11  1  0.55411000  0.53018000  0.88920000  1.0
  H  H12  1  0.44589000  0.96982000  0.38920000  1.0
  H  H13  1  0.44590000  0.46981000  0.11080000  1.0
  H  H14  1  0.63452000  0.08615000  0.49400000  1.0
  H  H15  1  0.63453000  0.58614000  0.00600000  1.0
  H  H16  1  0.36548000  0.91385000  0.50600000  1.0
  H  H17  1  0.36548000  0.41385000  0.99400000  1.0
  H  H18  1  0.85389000  0.04343000  0.63734000  1.0
  H  H19  1  0.85389000  0.54342000  0.86265000  1.0
  H  H20  1  0.14610000  0.95656000  0.36266000  1.0
  H  H21  1  0.14611000  0.45658000  0.13735000  1.0
  H  H22  1  0.16211000  0.04621000  0.74083000  1.0
  H  H23  1  0.16211000  0.54617000  0.75915000  1.0
  H  H24  1  0.83788000  0.95380000  0.25917000  1.0
  H  H25  1  0.83788000  0.45385000  0.24085000  1.0
  H  H26  1  0.45884000  0.87701000  0.76486000  1.0
  H  H27  1  0.45884000  0.37696000  0.73513000  1.0
  H  H28  1  0.54115000  0.12299000  0.23514000  1.0
  H  H29  1  0.54116000  0.62305000  0.26487000  1.0
  H  H30  1  0.55510000  0.62424000  0.68155000  1.0
  H  H31  1  0.55511000  0.12419000  0.81845000  1.0
  H  H32  1  0.44489000  0.37577000  0.31845000  1.0
  H  H33  1  0.44490000  0.87581000  0.18154000  1.0
  H  H34  1  0.35733000  0.52201000  0.57358000  1.0
  H  H35  1  0.35732000  0.02200000  0.92644000  1.0
  H  H36  1  0.64267000  0.47800000  0.42643000  1.0
  H  H37  1  0.64269000  0.97800000  0.07355000  1.0
  C  C38  1  0.70883000  0.84039000  0.52004000  1.0
  C  C39  1  0.70883000  0.34039000  0.97995000  1.0
  C  C40  1  0.29116000  0.15960000  0.47996000  1.0
  C  C41  1  0.29117000  0.65961000  0.02004000  1.0
  C  C42  1  0.58189000  0.99866000  0.52809000  1.0
  C  C43  1  0.58189000  0.49866000  0.97191000  1.0
  C  C44  1  0.41811000  0.00133000  0.47191000  1.0
  C  C45  1  0.41811000  0.50134000  0.02809000  1.0
  C  C46  1  0.87939000  0.82553000  0.56341000  1.0
  C  C47  1  0.87939000  0.32552000  0.93659000  1.0
  C  C48  1  0.12060000  0.17447000  0.43659000  1.0
  C  C49  1  0.12061000  0.67447000  0.06340000  1.0
  C  C50  1  0.14859000  0.72669000  0.60026000  1.0
  C  C51  1  0.14860000  0.22668000  0.89975000  1.0
  C  C52  1  0.85140000  0.27331000  0.39975000  1.0
  C  C53  1  0.85142000  0.77332000  0.10025000  1.0
  C  C54  1  0.09566000  0.87479000  0.64559000  1.0
  C  C55  1  0.09566000  0.37477000  0.85441000  1.0
  C  C56  1  0.90434000  0.12521000  0.35442000  1.0
  C  C57  1  0.90434000  0.62523000  0.14559000  1.0
  C  C58  1  0.20438000  0.93290000  0.70537000  1.0
  C  C59  1  0.20438000  0.43287000  0.79462000  1.0
  C  C60  1  0.79561000  0.06710000  0.29463000  1.0
  C  C61  1  0.79563000  0.56714000  0.20539000  1.0
  C  C62  1  0.36885000  0.83808000  0.71819000  1.0
  C  C63  1  0.36884000  0.33805000  0.78180000  1.0
  C  C64  1  0.63114000  0.16192000  0.28181000  1.0
  C  C65  1  0.63116000  0.66196000  0.21819000  1.0
  C  C66  1  0.42402000  0.69220000  0.67083000  1.0
  C  C67  1  0.42402000  0.19217000  0.82918000  1.0
  C  C68  1  0.57597000  0.30780000  0.32918000  1.0
  C  C69  1  0.57598000  0.80783000  0.17081000  1.0
  C  C70  1  0.31562000  0.63492000  0.61020000  1.0
  C  C71  1  0.31562000  0.13491000  0.88981000  1.0
  C  C72  1  0.68437000  0.36509000  0.38980000  1.0
  C  C73  1  0.68438000  0.86509000  0.11018000  1.0
  N  N74  1  0.15003000  0.51617000  0.37740000  1.0
  N  N75  1  0.15002000  0.01617000  0.12261000  1.0
  N  N76  1  0.84997000  0.48382000  0.62261000  1.0
  N  N77  1  0.84998000  0.98382000  0.87738000  1.0
  N  N78  1  0.18419000  0.63241000  0.35641000  1.0
  N  N79  1  0.18418000  0.13241000  0.14360000  1.0
  N  N80  1  0.81581000  0.36760000  0.64359000  1.0
  N  N81  1  0.81583000  0.86759000  0.85640000  1.0
  N  N82  1  0.22237000  0.74240000  0.33213000  1.0
  N  N83  1  0.22234000  0.24241000  0.16788000  1.0
  N  N84  1  0.77762000  0.25760000  0.66787000  1.0
  N  N85  1  0.77765000  0.75759000  0.83211000  1.0
  N  N86  1  0.92664000  0.93372000  0.61926000  1.0
  N  N87  1  0.92664000  0.43370000  0.88073000  1.0
  N  N88  1  0.07336000  0.06628000  0.38074000  1.0
  N  N89  1  0.07337000  0.56629000  0.11927000  1.0
  N  N90  1  0.00984000  0.69947000  0.55158000  1.0
  N  N91  1  0.00984000  0.19947000  0.94843000  1.0
  N  N92  1  0.99015000  0.30053000  0.44842000  1.0
  N  N93  1  0.99016000  0.80052000  0.05157000  1.0
