# generated using pymatgen
data_CdH18C18S2(NO)4
_symmetry_space_group_name_H-M   'P 1'
_cell_length_a   5.93346000
_cell_length_b   10.12900000
_cell_length_c   17.32150000
_cell_angle_alpha   89.99910000
_cell_angle_beta   81.86860000
_cell_angle_gamma   89.99980000
_symmetry_Int_Tables_number   1
_chemical_formula_structural   CdH18C18S2(NO)4
_chemical_formula_sum   'Cd2 H36 C36 S4 N8 O8'
_cell_volume   1030.55629575
_cell_formula_units_Z   2
loop_
 _symmetry_equiv_pos_site_id
 _symmetry_equiv_pos_as_xyz
  1  'x, y, z'
loop_
 _atom_site_type_symbol
 _atom_site_label
 _atom_site_symmetry_multiplicity
 _atom_site_fract_x
 _atom_site_fract_y
 _atom_site_fract_z
 _atom_site_occupancy
  Cd  Cd0  1  0.99999000  0.00000000  0.00000000  1.0
  Cd  Cd1  1  0.00001000  0.50000000  0.50000000  1.0
  H  H2  1  0.75514000  0.94009000  0.84990000  1.0
  H  H3  1  0.24488000  0.44007000  0.65010000  1.0
  H  H4  1  0.24490000  0.05992000  0.15009000  1.0
  H  H5  1  0.75511000  0.55992000  0.34990000  1.0
  H  H6  1  0.32865000  0.77183000  0.92053000  1.0
  H  H7  1  0.67135000  0.27183000  0.57947000  1.0
  H  H8  1  0.67137000  0.22816000  0.07947000  1.0
  H  H9  1  0.32864000  0.72816000  0.42053000  1.0
  H  H10  1  0.79049000  0.80123000  0.72974000  1.0
  H  H11  1  0.20950000  0.30120000  0.77027000  1.0
  H  H12  1  0.20954000  0.19878000  0.27025000  1.0
  H  H13  1  0.79047000  0.69879000  0.22974000  1.0
  H  H14  1  0.11483000  0.63872000  0.70544000  1.0
  H  H15  1  0.88516000  0.13870000  0.79457000  1.0
  H  H16  1  0.88520000  0.36128000  0.29456000  1.0
  H  H17  1  0.11481000  0.86129000  0.20543000  1.0
  H  H18  1  0.62436000  0.37965000  0.85468000  1.0
  H  H19  1  0.37566000  0.87965000  0.64532000  1.0
  H  H20  1  0.37566000  0.62036000  0.14532000  1.0
  H  H21  1  0.62433000  0.12036000  0.35468000  1.0
  H  H22  1  0.82785000  0.49359000  0.80854000  1.0
  H  H23  1  0.17216000  0.99358000  0.69146000  1.0
  H  H24  1  0.17218000  0.50641000  0.19146000  1.0
  H  H25  1  0.82782000  0.00642000  0.30854000  1.0
  H  H26  1  0.95889000  0.41405000  0.93017000  1.0
  H  H27  1  0.04110000  0.91406000  0.56983000  1.0
  H  H28  1  0.04112000  0.58594000  0.06984000  1.0
  H  H29  1  0.95887000  0.08594000  0.43017000  1.0
  H  H30  1  0.69509000  0.45713000  0.98641000  1.0
  H  H31  1  0.30489000  0.95714000  0.51358000  1.0
  H  H32  1  0.30491000  0.54286000  0.01359000  1.0
  H  H33  1  0.69507000  0.04286000  0.48642000  1.0
  H  H34  1  0.87991000  0.58305000  0.94293000  1.0
  H  H35  1  0.12009000  0.08306000  0.55706000  1.0
  H  H36  1  0.12010000  0.41695000  0.05707000  1.0
  H  H37  1  0.87989000  0.91695000  0.44294000  1.0
  C  C38  1  0.47949000  0.85530000  0.05884000  1.0
  C  C39  1  0.52051000  0.35530000  0.44116000  1.0
  C  C40  1  0.52051000  0.14471000  0.94116000  1.0
  C  C41  1  0.47950000  0.64470000  0.55884000  1.0
  C  C42  1  0.89384000  0.86941000  0.83717000  1.0
  C  C43  1  0.10617000  0.36940000  0.66283000  1.0
  C  C44  1  0.10619000  0.13059000  0.16283000  1.0
  C  C45  1  0.89382000  0.63059000  0.33717000  1.0
  C  C46  1  0.21363000  0.77486000  0.87682000  1.0
  C  C47  1  0.78636000  0.27485000  0.62319000  1.0
  C  C48  1  0.78638000  0.22514000  0.12319000  1.0
  C  C49  1  0.21362000  0.72515000  0.37681000  1.0
  C  C50  1  0.91391000  0.79127000  0.77036000  1.0
  C  C51  1  0.08610000  0.29125000  0.72965000  1.0
  C  C52  1  0.08612000  0.20874000  0.22964000  1.0
  C  C53  1  0.91388000  0.70875000  0.27036000  1.0
  C  C54  1  0.24245000  0.69026000  0.81236000  1.0
  C  C55  1  0.75755000  0.19025000  0.68765000  1.0
  C  C56  1  0.75757000  0.30974000  0.18765000  1.0
  C  C57  1  0.24244000  0.80975000  0.31235000  1.0
  C  C58  1  0.09185000  0.70095000  0.75728000  1.0
  C  C59  1  0.90815000  0.20094000  0.74272000  1.0
  C  C60  1  0.90819000  0.29905000  0.24272000  1.0
  C  C61  1  0.09182000  0.79906000  0.25728000  1.0
  C  C62  1  0.42283000  0.58702000  0.80252000  1.0
  C  C63  1  0.57716000  0.08702000  0.69748000  1.0
  C  C64  1  0.57720000  0.41298000  0.19748000  1.0
  C  C65  1  0.42281000  0.91298000  0.30252000  1.0
  C  C66  1  0.70618000  0.47548000  0.86135000  1.0
  C  C67  1  0.29382000  0.97547000  0.63865000  1.0
  C  C68  1  0.29384000  0.52452000  0.13866000  1.0
  C  C69  1  0.70615000  0.02452000  0.36135000  1.0
  C  C70  1  0.81530000  0.48333000  0.93460000  1.0
  C  C71  1  0.18469000  0.98333000  0.56540000  1.0
  C  C72  1  0.18471000  0.51667000  0.06541000  1.0
  C  C73  1  0.81527000  0.01667000  0.43460000  1.0
  S  S74  1  0.72810000  0.80387000  0.07547000  1.0
  S  S75  1  0.27191000  0.30388000  0.42454000  1.0
  S  S76  1  0.27190000  0.19613000  0.92453000  1.0
  S  S77  1  0.72810000  0.69612000  0.57547000  1.0
  N  N78  1  0.04354000  0.86285000  0.88858000  1.0
  N  N79  1  0.95645000  0.36284000  0.61142000  1.0
  N  N80  1  0.95647000  0.13716000  0.11142000  1.0
  N  N81  1  0.04354000  0.63715000  0.38858000  1.0
  N  N82  1  0.70357000  0.10978000  0.95253000  1.0
  N  N83  1  0.29642000  0.60976000  0.54747000  1.0
  N  N84  1  0.29644000  0.89023000  0.04747000  1.0
  N  N85  1  0.70359000  0.39023000  0.45253000  1.0
  O  O86  1  0.53066000  0.57725000  0.86579000  1.0
  O  O87  1  0.46932000  0.07725000  0.63421000  1.0
  O  O88  1  0.46936000  0.42276000  0.13421000  1.0
  O  O89  1  0.53063000  0.92276000  0.36579000  1.0
  O  O90  1  0.46507000  0.51713000  0.74449000  1.0
  O  O91  1  0.53490000  0.01711000  0.75551000  1.0
  O  O92  1  0.53494000  0.48288000  0.25551000  1.0
  O  O93  1  0.46508000  0.98288000  0.24449000  1.0
