# generated using pymatgen
data_CuH14C13N2Cl
_symmetry_space_group_name_H-M   'P 1'
_cell_length_a   6.96910000
_cell_length_b   12.43050000
_cell_length_c   13.92400000
_cell_angle_alpha   90.00000000
_cell_angle_beta   90.00000000
_cell_angle_gamma   90.00000000
_symmetry_Int_Tables_number   1
_chemical_formula_structural   CuH14C13N2Cl
_chemical_formula_sum   'Cu4 H56 C52 N8 Cl4'
_cell_volume   1206.22773149
_cell_formula_units_Z   4
loop_
 _symmetry_equiv_pos_site_id
 _symmetry_equiv_pos_as_xyz
  1  'x, y, z'
loop_
 _atom_site_type_symbol
 _atom_site_label
 _atom_site_symmetry_multiplicity
 _atom_site_fract_x
 _atom_site_fract_y
 _atom_site_fract_z
 _atom_site_occupancy
  Cu  Cu0  1  0.10409000  0.16596000  0.75000000  1.0
  Cu  Cu1  1  0.39591000  0.66597000  0.75000000  1.0
  Cu  Cu2  1  0.60409000  0.33404000  0.25000000  1.0
  Cu  Cu3  1  0.89591000  0.83403000  0.25000000  1.0
  H  H4  1  0.15375000  0.38226000  0.67209000  1.0
  H  H5  1  0.34625000  0.88226000  0.67210000  1.0
  H  H6  1  0.15375000  0.38226000  0.82790000  1.0
  H  H7  1  0.65375000  0.11774000  0.17210000  1.0
  H  H8  1  0.84625000  0.61773000  0.32791000  1.0
  H  H9  1  0.65375000  0.11774000  0.32790000  1.0
  H  H10  1  0.84625000  0.61774000  0.17209000  1.0
  H  H11  1  0.34625000  0.88226000  0.82791000  1.0
  H  H12  1  0.14956000  0.46729000  0.51232000  1.0
  H  H13  1  0.35044000  0.96729000  0.51232000  1.0
  H  H14  1  0.14956000  0.46729000  0.98768000  1.0
  H  H15  1  0.64956000  0.03271000  0.01232000  1.0
  H  H16  1  0.85044000  0.53271000  0.48768000  1.0
  H  H17  1  0.64956000  0.03271000  0.48768000  1.0
  H  H18  1  0.85044000  0.53271000  0.01232000  1.0
  H  H19  1  0.35044000  0.96729000  0.98768000  1.0
  H  H20  1  0.08155000  0.15127000  0.38795000  1.0
  H  H21  1  0.41846000  0.65128000  0.38795000  1.0
  H  H22  1  0.08154000  0.15128000  0.11205000  1.0
  H  H23  1  0.58154000  0.34872000  0.88795000  1.0
  H  H24  1  0.91846000  0.84873000  0.61205000  1.0
  H  H25  1  0.58155000  0.34873000  0.61205000  1.0
  H  H26  1  0.91845000  0.84872000  0.88795000  1.0
  H  H27  1  0.41845000  0.65128000  0.11205000  1.0
  H  H28  1  0.08513000  0.07821000  0.55474000  1.0
  H  H29  1  0.41487000  0.57821000  0.55474000  1.0
  H  H30  1  0.08513000  0.07821000  0.94526000  1.0
  H  H31  1  0.58513000  0.42179000  0.05474000  1.0
  H  H32  1  0.91487000  0.92179000  0.44526000  1.0
  H  H33  1  0.58513000  0.42179000  0.44526000  1.0
  H  H34  1  0.91487000  0.92179000  0.05474000  1.0
  H  H35  1  0.41487000  0.57821000  0.94526000  1.0
  H  H36  1  0.22065000  0.43166000  0.33553000  1.0
  H  H37  1  0.27936000  0.93167000  0.33553000  1.0
  H  H38  1  0.22065000  0.43166000  0.16447000  1.0
  H  H39  1  0.72064000  0.06833000  0.83553000  1.0
  H  H40  1  0.77936000  0.56833000  0.66447000  1.0
  H  H41  1  0.72065000  0.06833000  0.66447000  1.0
  H  H42  1  0.77935000  0.56833000  0.83553000  1.0
  H  H43  1  0.27936000  0.93167000  0.16447000  1.0
  H  H44  1  0.96937000  0.42005000  0.33677000  1.0
  H  H45  1  0.53064000  0.92005000  0.33677000  1.0
  H  H46  1  0.96937000  0.42005000  0.16323000  1.0
  H  H47  1  0.46936000  0.07995000  0.83677000  1.0
  H  H48  1  0.03064000  0.57995000  0.66323000  1.0
  H  H49  1  0.46937000  0.07995000  0.66323000  1.0
  H  H50  1  0.03063000  0.57995000  0.83677000  1.0
  H  H51  1  0.53064000  0.92005000  0.16323000  1.0
  H  H52  1  0.24326000  0.25279000  0.25000000  1.0
  H  H53  1  0.25674000  0.75279000  0.25000000  1.0
  H  H54  1  0.74326000  0.24721000  0.75000000  1.0
  H  H55  1  0.75674000  0.74721000  0.75000000  1.0
  H  H56  1  0.99015000  0.24362000  0.25000000  1.0
  H  H57  1  0.50986000  0.74362000  0.25000000  1.0
  H  H58  1  0.49014000  0.25638000  0.75000000  1.0
  H  H59  1  0.00985000  0.75638000  0.75000000  1.0
  C  C60  1  0.13288000  0.33339000  0.60806000  1.0
  C  C61  1  0.36712000  0.83339000  0.60806000  1.0
  C  C62  1  0.13288000  0.33339000  0.89194000  1.0
  C  C63  1  0.63288000  0.16661000  0.10806000  1.0
  C  C64  1  0.86712000  0.66666667  0.39194000  1.0
  C  C65  1  0.63287000  0.16661000  0.39194000  1.0
  C  C66  1  0.86712000  0.66666667  0.10806000  1.0
  C  C67  1  0.36712000  0.83339000  0.89194000  1.0
  C  C68  1  0.13189000  0.38045000  0.51808000  1.0
  C  C69  1  0.36811000  0.88045000  0.51808000  1.0
  C  C70  1  0.13189000  0.38045000  0.98192000  1.0
  C  C71  1  0.63189000  0.11955000  0.01808000  1.0
  C  C72  1  0.86811000  0.61955000  0.48192000  1.0
  C  C73  1  0.63189000  0.11955000  0.48192000  1.0
  C  C74  1  0.86811000  0.61955000  0.01808000  1.0
  C  C75  1  0.36810000  0.88045000  0.98192000  1.0
  C  C76  1  0.11124000  0.31757000  0.43509000  1.0
  C  C77  1  0.38876000  0.81757000  0.43509000  1.0
  C  C78  1  0.11124000  0.31757000  0.06491000  1.0
  C  C79  1  0.61124000  0.18243000  0.93509000  1.0
  C  C80  1  0.88876000  0.68243000  0.56491000  1.0
  C  C81  1  0.61124000  0.18243000  0.56491000  1.0
  C  C82  1  0.88876000  0.68243000  0.93509000  1.0
  C  C83  1  0.38876000  0.81757000  0.06491000  1.0
  C  C84  1  0.09774000  0.20616000  0.44865000  1.0
  C  C85  1  0.40226000  0.70616000  0.44865000  1.0
  C  C86  1  0.09774000  0.20616000  0.05135000  1.0
  C  C87  1  0.59773000  0.29384000  0.94865000  1.0
  C  C88  1  0.90227000  0.79384000  0.55135000  1.0
  C  C89  1  0.59774000  0.29384000  0.55135000  1.0
  C  C90  1  0.90226000  0.79384000  0.94865000  1.0
  C  C91  1  0.40226000  0.70616000  0.05135000  1.0
  C  C92  1  0.09969000  0.16438000  0.54141000  1.0
  C  C93  1  0.40031000  0.66439000  0.54141000  1.0
  C  C94  1  0.09969000  0.16439000  0.95859000  1.0
  C  C95  1  0.59969000  0.33562000  0.04141000  1.0
  C  C96  1  0.90031000  0.83562000  0.45859000  1.0
  C  C97  1  0.59969000  0.33562000  0.45859000  1.0
  C  C98  1  0.90031000  0.83561000  0.04141000  1.0
  C  C99  1  0.40031000  0.66439000  0.95859000  1.0
  C  C100  1  0.10315000  0.37221000  0.33910000  1.0
  C  C101  1  0.39685000  0.87221000  0.33910000  1.0
  C  C102  1  0.10315000  0.37221000  0.16090000  1.0
  C  C103  1  0.60315000  0.12779000  0.83910000  1.0
  C  C104  1  0.89685000  0.62779000  0.66090000  1.0
  C  C105  1  0.60315000  0.12779000  0.66090000  1.0
  C  C106  1  0.89685000  0.62779000  0.83910000  1.0
  C  C107  1  0.39685000  0.87221000  0.16090000  1.0
  C  C108  1  0.11035000  0.30110000  0.25000000  1.0
  C  C109  1  0.38965000  0.80110000  0.25000000  1.0
  C  C110  1  0.61035000  0.19890000  0.75000000  1.0
  C  C111  1  0.88965000  0.69890000  0.75000000  1.0
  N  N112  1  0.11573000  0.22585000  0.62104000  1.0
  N  N113  1  0.38427000  0.72585000  0.62104000  1.0
  N  N114  1  0.11573000  0.22585000  0.87896000  1.0
  N  N115  1  0.61573000  0.27414000  0.12104000  1.0
  N  N116  1  0.88427000  0.77415000  0.37896000  1.0
  N  N117  1  0.61572000  0.27415000  0.37896000  1.0
  N  N118  1  0.88427000  0.77414000  0.12104000  1.0
  N  N119  1  0.38427000  0.72585000  0.87896000  1.0
  Cl  Cl120  1  0.04875000  0.98536000  0.75000000  1.0
  Cl  Cl121  1  0.45125000  0.48536000  0.75000000  1.0
  Cl  Cl122  1  0.54875000  0.51464000  0.25000000  1.0
  Cl  Cl123  1  0.95125000  0.01463000  0.25000000  1.0
