# generated using pymatgen
data_CuH30C28(N2O3)2
_symmetry_space_group_name_H-M   'P 1'
_cell_length_a   9.32032000
_cell_length_b   11.06320000
_cell_length_c   26.41540000
_cell_angle_alpha   90.00000000
_cell_angle_beta   90.00000000
_cell_angle_gamma   89.99990000
_symmetry_Int_Tables_number   1
_chemical_formula_structural   CuH30C28(N2O3)2
_chemical_formula_sum   'Cu4 H120 C112 N16 O24'
_cell_volume   2723.75962900
_cell_formula_units_Z   4
loop_
 _symmetry_equiv_pos_site_id
 _symmetry_equiv_pos_as_xyz
  1  'x, y, z'
loop_
 _atom_site_type_symbol
 _atom_site_label
 _atom_site_symmetry_multiplicity
 _atom_site_fract_x
 _atom_site_fract_y
 _atom_site_fract_z
 _atom_site_occupancy
  Cu  Cu0  1  0.12231000  0.34100000  0.42962000  1.0
  Cu  Cu1  1  0.87769000  0.34100000  0.57038000  1.0
  Cu  Cu2  1  0.37769000  0.65900000  0.92962000  1.0
  Cu  Cu3  1  0.62231000  0.65900000  0.07038000  1.0
  H  H4  1  0.95069000  0.15701000  0.38047000  1.0
  H  H5  1  0.04931000  0.15701000  0.61953000  1.0
  H  H6  1  0.54931000  0.84299000  0.88047000  1.0
  H  H7  1  0.45069000  0.84299000  0.11953000  1.0
  H  H8  1  0.33873000  0.76048000  0.43484000  1.0
  H  H9  1  0.66127000  0.76048000  0.56516000  1.0
  H  H10  1  0.16127000  0.23952000  0.93484000  1.0
  H  H11  1  0.83873000  0.23952000  0.06516000  1.0
  H  H12  1  0.46826000  0.41168000  0.53991000  1.0
  H  H13  1  0.53173000  0.41167000  0.46009000  1.0
  H  H14  1  0.03173000  0.58832000  0.03991000  1.0
  H  H15  1  0.96827000  0.58832000  0.96009000  1.0
  H  H16  1  0.87333000  0.74665000  0.42839000  1.0
  H  H17  1  0.12667000  0.74665000  0.57162000  1.0
  H  H18  1  0.62667000  0.25335000  0.92839000  1.0
  H  H19  1  0.37333000  0.25335000  0.07161000  1.0
  H  H20  1  0.89439000  0.52321000  0.42652000  1.0
  H  H21  1  0.10562000  0.52321000  0.57348000  1.0
  H  H22  1  0.60561000  0.47679000  0.92652000  1.0
  H  H23  1  0.39438000  0.47679000  0.07348000  1.0
  H  H24  1  0.43816000  0.16508000  0.54403000  1.0
  H  H25  1  0.56184000  0.16508000  0.45597000  1.0
  H  H26  1  0.06183000  0.83492000  0.04403000  1.0
  H  H27  1  0.93817000  0.83492000  0.95597000  1.0
  H  H28  1  0.56668000  0.24163000  0.58220000  1.0
  H  H29  1  0.43333000  0.24163000  0.41780000  1.0
  H  H30  1  0.93332000  0.75837000  0.08220000  1.0
  H  H31  1  0.06668000  0.75837000  0.91780000  1.0
  H  H32  1  0.10846000  0.63647000  0.76387000  1.0
  H  H33  1  0.89154000  0.63648000  0.23613000  1.0
  H  H34  1  0.39154000  0.36352000  0.26387000  1.0
  H  H35  1  0.60846000  0.36352000  0.73612000  1.0
  H  H36  1  0.27790000  0.14793000  0.48518000  1.0
  H  H37  1  0.72210000  0.14793000  0.51482000  1.0
  H  H38  1  0.22210000  0.85207000  0.98518000  1.0
  H  H39  1  0.77789000  0.85207000  0.01482000  1.0
  H  H40  1  0.33716000  0.53556000  0.43635000  1.0
  H  H41  1  0.66284000  0.53556000  0.56365000  1.0
  H  H42  1  0.16284000  0.46444000  0.93635000  1.0
  H  H43  1  0.83716000  0.46444000  0.06364000  1.0
  H  H44  1  0.12060000  0.58340000  0.67203000  1.0
  H  H45  1  0.87940000  0.58340000  0.32798000  1.0
  H  H46  1  0.37941000  0.41660000  0.17202000  1.0
  H  H47  1  0.62060000  0.41660000  0.82798000  1.0
  H  H48  1  0.27509000  0.92283000  0.48902000  1.0
  H  H49  1  0.72491000  0.92283000  0.51098000  1.0
  H  H50  1  0.22491000  0.07717000  0.98902000  1.0
  H  H51  1  0.77508000  0.07717000  0.01098000  1.0
  H  H52  1  0.56618000  0.61740000  0.77450000  1.0
  H  H53  1  0.43382000  0.61740000  0.22550000  1.0
  H  H54  1  0.93382000  0.38261000  0.27450000  1.0
  H  H55  1  0.06618000  0.38260000  0.72550000  1.0
  H  H56  1  0.93168000  0.93049000  0.37910000  1.0
  H  H57  1  0.06832000  0.93049000  0.62090000  1.0
  H  H58  1  0.56832000  0.06951000  0.87910000  1.0
  H  H59  1  0.43168000  0.06950000  0.12090000  1.0
  H  H60  1  0.42963000  0.12983000  0.64528000  1.0
  H  H61  1  0.57038000  0.12983000  0.35472000  1.0
  H  H62  1  0.07037000  0.87017000  0.14528000  1.0
  H  H63  1  0.92963000  0.87017000  0.85472000  1.0
  H  H64  1  0.26589000  0.16047000  0.61359000  1.0
  H  H65  1  0.73411000  0.16046000  0.38641000  1.0
  H  H66  1  0.23410000  0.83954000  0.11359000  1.0
  H  H67  1  0.76590000  0.83954000  0.88641000  1.0
  H  H68  1  0.58104000  0.56366000  0.68260000  1.0
  H  H69  1  0.41896000  0.56366000  0.31740000  1.0
  H  H70  1  0.91896000  0.43634000  0.18260000  1.0
  H  H71  1  0.08104000  0.43635000  0.81740000  1.0
  H  H72  1  0.25073000  0.32622000  0.67028000  1.0
  H  H73  1  0.74928000  0.32622000  0.32972000  1.0
  H  H74  1  0.24928000  0.67379000  0.17027000  1.0
  H  H75  1  0.75073000  0.67379000  0.82973000  1.0
  H  H76  1  0.44194000  0.33137000  0.67861000  1.0
  H  H77  1  0.55806000  0.33137000  0.32139000  1.0
  H  H78  1  0.05806000  0.66863000  0.17861000  1.0
  H  H79  1  0.94194000  0.66863000  0.82139000  1.0
  H  H80  1  0.69854000  0.09742000  0.65888000  1.0
  H  H81  1  0.30146000  0.09742000  0.34112000  1.0
  H  H82  1  0.80145000  0.90258000  0.15888000  1.0
  H  H83  1  0.19854000  0.90257000  0.84112000  1.0
  H  H84  1  0.85913000  0.11644000  0.71512000  1.0
  H  H85  1  0.14087000  0.11644000  0.28488000  1.0
  H  H86  1  0.64087000  0.88356000  0.21512000  1.0
  H  H87  1  0.35913000  0.88356000  0.78488000  1.0
  H  H88  1  0.93809000  0.98932000  0.74444000  1.0
  H  H89  1  0.06192000  0.98932000  0.25556000  1.0
  H  H90  1  0.56192000  0.01068000  0.24444000  1.0
  H  H91  1  0.43808000  0.01068000  0.75556000  1.0
  H  H92  1  0.94645000  0.78077000  0.72665000  1.0
  H  H93  1  0.05355000  0.78077000  0.27335000  1.0
  H  H94  1  0.55355000  0.21922000  0.22665000  1.0
  H  H95  1  0.44645000  0.21923000  0.77336000  1.0
  H  H96  1  0.85802000  0.74364000  0.66898000  1.0
  H  H97  1  0.14198000  0.74364000  0.33102000  1.0
  H  H98  1  0.64198000  0.25636000  0.16898000  1.0
  H  H99  1  0.35801000  0.25636000  0.83102000  1.0
  H  H100  1  0.82516000  0.65758000  0.72459000  1.0
  H  H101  1  0.17484000  0.65758000  0.27541000  1.0
  H  H102  1  0.67484000  0.34242000  0.22459000  1.0
  H  H103  1  0.32516000  0.34242000  0.77542000  1.0
  H  H104  1  0.70199000  0.83178000  0.76503000  1.0
  H  H105  1  0.29801000  0.83178000  0.23497000  1.0
  H  H106  1  0.79801000  0.16822000  0.26503000  1.0
  H  H107  1  0.20200000  0.16823000  0.73497000  1.0
  H  H108  1  0.62172000  0.80166000  0.70545000  1.0
  H  H109  1  0.37828000  0.80166000  0.29454000  1.0
  H  H110  1  0.87828000  0.19834000  0.20546000  1.0
  H  H111  1  0.12172000  0.19834000  0.79454000  1.0
  H  H112  1  0.84659000  0.12879000  0.81028000  1.0
  H  H113  1  0.15341000  0.12879000  0.18972000  1.0
  H  H114  1  0.65341000  0.87121000  0.31028000  1.0
  H  H115  1  0.34659000  0.87121000  0.68971000  1.0
  H  H116  1  0.74261000  0.99513000  0.81193000  1.0
  H  H117  1  0.25739000  0.99513000  0.18807000  1.0
  H  H118  1  0.75739000  0.00487000  0.31193000  1.0
  H  H119  1  0.24260000  0.00487000  0.68807000  1.0
  H  H120  1  0.67243000  0.12793000  0.78252000  1.0
  H  H121  1  0.32757000  0.12793000  0.21748000  1.0
  H  H122  1  0.82757000  0.87207000  0.28252000  1.0
  H  H123  1  0.17243000  0.87207000  0.71747000  1.0
  C  C124  1  0.33627000  0.63012000  0.77467000  1.0
  C  C125  1  0.66373000  0.63012000  0.22533000  1.0
  C  C126  1  0.16373000  0.36988000  0.27467000  1.0
  C  C127  1  0.83627000  0.36988000  0.72533000  1.0
  C  C128  1  0.10561000  0.77389000  0.43291000  1.0
  C  C129  1  0.89439000  0.77389000  0.56709000  1.0
  C  C130  1  0.39439000  0.22611000  0.93291000  1.0
  C  C131  1  0.60561000  0.22611000  0.06709000  1.0
  C  C132  1  0.25178000  0.34611000  0.53027000  1.0
  C  C133  1  0.74822000  0.34611000  0.46973000  1.0
  C  C134  1  0.24822000  0.65389000  0.03027000  1.0
  C  C135  1  0.75178000  0.65389000  0.96973000  1.0
  C  C136  1  0.32375000  0.65089000  0.83069000  1.0
  C  C137  1  0.67625000  0.65089000  0.16931000  1.0
  C  C138  1  0.17625000  0.34911000  0.33069000  1.0
  C  C139  1  0.82375000  0.34910000  0.66931000  1.0
  C  C140  1  0.01840000  0.10016000  0.40413000  1.0
  C  C141  1  0.98160000  0.10016000  0.59587000  1.0
  C  C142  1  0.48160000  0.89984000  0.90413000  1.0
  C  C143  1  0.51839000  0.89984000  0.09587000  1.0
  C  C144  1  0.36192000  0.53086000  0.61738000  1.0
  C  C145  1  0.63808000  0.53085000  0.38262000  1.0
  C  C146  1  0.13808000  0.46914000  0.11738000  1.0
  C  C147  1  0.86192000  0.46915000  0.88262000  1.0
  C  C148  1  0.23697000  0.71204000  0.43463000  1.0
  C  C149  1  0.76303000  0.71204000  0.56537000  1.0
  C  C150  1  0.26303000  0.28796000  0.93463000  1.0
  C  C151  1  0.73697000  0.28796000  0.06537000  1.0
  C  C152  1  0.39143000  0.35668000  0.56117000  1.0
  C  C153  1  0.60857000  0.35668000  0.43883000  1.0
  C  C154  1  0.10857000  0.64332000  0.06117000  1.0
  C  C155  1  0.89143000  0.64332000  0.93883000  1.0
  C  C156  1  0.97946000  0.70542000  0.42970000  1.0
  C  C157  1  0.02054000  0.70542000  0.57030000  1.0
  C  C158  1  0.52054000  0.29458000  0.92970000  1.0
  C  C159  1  0.47946000  0.29458000  0.07030000  1.0
  C  C160  1  0.35203000  0.57109000  0.67155000  1.0
  C  C161  1  0.64797000  0.57109000  0.32845000  1.0
  C  C162  1  0.14797000  0.42891000  0.17155000  1.0
  C  C163  1  0.85203000  0.42891000  0.82845000  1.0
  C  C164  1  0.98912000  0.58012000  0.42888000  1.0
  C  C165  1  0.01088000  0.58012000  0.57113000  1.0
  C  C166  1  0.51088000  0.41988000  0.92888000  1.0
  C  C167  1  0.48912000  0.41988000  0.07112000  1.0
  C  C168  1  0.45183000  0.23130000  0.57458000  1.0
  C  C169  1  0.54817000  0.23130000  0.42542000  1.0
  C  C170  1  0.04816000  0.76870000  0.07458000  1.0
  C  C171  1  0.95184000  0.76870000  0.92542000  1.0
  C  C172  1  0.21142000  0.62248000  0.74533000  1.0
  C  C173  1  0.78858000  0.62247000  0.25467000  1.0
  C  C174  1  0.28858000  0.37752000  0.24533000  1.0
  C  C175  1  0.71142000  0.37752000  0.75467000  1.0
  C  C176  1  0.20227000  0.09570000  0.46286000  1.0
  C  C177  1  0.79772000  0.09569000  0.53714000  1.0
  C  C178  1  0.29772000  0.90431000  0.96286000  1.0
  C  C179  1  0.70227000  0.90430000  0.03714000  1.0
  C  C180  1  0.10334000  0.90702000  0.43397000  1.0
  C  C181  1  0.89666000  0.90702000  0.56603000  1.0
  C  C182  1  0.39666000  0.09298000  0.93397000  1.0
  C  C183  1  0.60333000  0.09297000  0.06603000  1.0
  C  C184  1  0.23749000  0.58647000  0.43418000  1.0
  C  C185  1  0.76252000  0.58647000  0.56582000  1.0
  C  C186  1  0.26251000  0.41353000  0.93418000  1.0
  C  C187  1  0.73749000  0.41353000  0.06581000  1.0
  C  C188  1  0.21872000  0.59305000  0.69416000  1.0
  C  C189  1  0.78128000  0.59305000  0.30584000  1.0
  C  C190  1  0.28129000  0.40695000  0.19416000  1.0
  C  C191  1  0.71872000  0.40695000  0.80584000  1.0
  C  C192  1  0.20036000  0.97053000  0.46442000  1.0
  C  C193  1  0.79964000  0.97053000  0.53558000  1.0
  C  C194  1  0.29964000  0.02947000  0.96442000  1.0
  C  C195  1  0.70035000  0.02947000  0.03558000  1.0
  C  C196  1  0.46958000  0.61191000  0.75145000  1.0
  C  C197  1  0.53042000  0.61191000  0.24855000  1.0
  C  C198  1  0.03042000  0.38809000  0.25145000  1.0
  C  C199  1  0.96958000  0.38809000  0.74855000  1.0
  C  C200  1  0.00906000  0.97474000  0.40385000  1.0
  C  C201  1  0.99094000  0.97474000  0.59615000  1.0
  C  C202  1  0.49094000  0.02526000  0.90385000  1.0
  C  C203  1  0.50906000  0.02526000  0.09615000  1.0
  C  C204  1  0.37156000  0.19756000  0.62309000  1.0
  C  C205  1  0.62844000  0.19756000  0.37691000  1.0
  C  C206  1  0.12844000  0.80244000  0.12309000  1.0
  C  C207  1  0.87156000  0.80244000  0.87691000  1.0
  C  C208  1  0.47764000  0.58242000  0.70027000  1.0
  C  C209  1  0.52236000  0.58242000  0.29973000  1.0
  C  C210  1  0.02236000  0.41759000  0.20027000  1.0
  C  C211  1  0.97764000  0.41759000  0.79973000  1.0
  C  C212  1  0.35498000  0.31812000  0.65116000  1.0
  C  C213  1  0.64502000  0.31812000  0.34884000  1.0
  C  C214  1  0.14502000  0.68188000  0.15116000  1.0
  C  C215  1  0.85498000  0.68188000  0.84884000  1.0
  C  C216  1  0.67436000  0.00058000  0.66616000  1.0
  C  C217  1  0.32564000  0.00057000  0.33384000  1.0
  C  C218  1  0.82563000  0.99943000  0.16616000  1.0
  C  C219  1  0.17436000  0.99942000  0.83384000  1.0
  C  C220  1  0.83528000  0.03605000  0.73809000  1.0
  C  C221  1  0.16472000  0.03605000  0.26191000  1.0
  C  C222  1  0.66472000  0.96395000  0.23809000  1.0
  C  C223  1  0.33528000  0.96395000  0.76191000  1.0
  C  C224  1  0.84492000  0.74929000  0.71017000  1.0
  C  C225  1  0.15508000  0.74929000  0.28983000  1.0
  C  C226  1  0.65508000  0.25071000  0.21017000  1.0
  C  C227  1  0.34492000  0.25071000  0.78983000  1.0
  C  C228  1  0.72037000  0.83271000  0.72390000  1.0
  C  C229  1  0.27963000  0.83271000  0.27610000  1.0
  C  C230  1  0.77963000  0.16729000  0.22390000  1.0
  C  C231  1  0.22037000  0.16729000  0.77610000  1.0
  C  C232  1  0.76986000  0.07405000  0.78862000  1.0
  C  C233  1  0.23015000  0.07405000  0.21138000  1.0
  C  C234  1  0.73015000  0.92595000  0.28862000  1.0
  C  C235  1  0.26985000  0.92595000  0.71138000  1.0
  N  N236  1  0.11396000  0.15994000  0.43295000  1.0
  N  N237  1  0.88604000  0.15994000  0.56705000  1.0
  N  N238  1  0.38604000  0.84006000  0.93295000  1.0
  N  N239  1  0.61396000  0.84006000  0.06705000  1.0
  N  N240  1  0.11545000  0.52175000  0.43153000  1.0
  N  N241  1  0.88455000  0.52175000  0.56847000  1.0
  N  N242  1  0.38455000  0.47825000  0.93153000  1.0
  N  N243  1  0.61545000  0.47825000  0.06847000  1.0
  N  N244  1  0.36675000  0.40976000  0.61085000  1.0
  N  N245  1  0.63325000  0.40976000  0.38915000  1.0
  N  N246  1  0.13325000  0.59024000  0.11085000  1.0
  N  N247  1  0.86675000  0.59024000  0.88915000  1.0
  N  N248  1  0.74225000  0.95780000  0.70797000  1.0
  N  N249  1  0.25775000  0.95780000  0.29203000  1.0
  N  N250  1  0.75775000  0.04220000  0.20797000  1.0
  N  N251  1  0.24225000  0.04220000  0.79202000  1.0
  O  O252  1  0.27304000  0.35001000  0.48209000  1.0
  O  O253  1  0.72696000  0.35001000  0.51791000  1.0
  O  O254  1  0.22696000  0.64999000  0.98209000  1.0
  O  O255  1  0.77304000  0.64999000  0.01791000  1.0
  O  O256  1  0.44300000  0.65576000  0.85599000  1.0
  O  O257  1  0.55701000  0.65575000  0.14401000  1.0
  O  O258  1  0.05701000  0.34424000  0.35599000  1.0
  O  O259  1  0.94300000  0.34424000  0.64401000  1.0
  O  O260  1  0.13477000  0.32996000  0.55224000  1.0
  O  O261  1  0.86523000  0.32996000  0.44776000  1.0
  O  O262  1  0.36523000  0.67004000  0.05224000  1.0
  O  O263  1  0.63477000  0.67004000  0.94776000  1.0
  O  O264  1  0.36690000  0.60456000  0.58162000  1.0
  O  O265  1  0.63310000  0.60455000  0.41838000  1.0
  O  O266  1  0.13310000  0.39544000  0.08162000  1.0
  O  O267  1  0.86689000  0.39545000  0.91838000  1.0
  O  O268  1  0.20173000  0.65995000  0.85057000  1.0
  O  O269  1  0.79828000  0.65995000  0.14943000  1.0
  O  O270  1  0.29827000  0.34005000  0.35057000  1.0
  O  O271  1  0.70173000  0.34005000  0.64943000  1.0
  O  O272  1  0.59297000  0.94125000  0.63862000  1.0
  O  O273  1  0.40703000  0.94125000  0.36138000  1.0
  O  O274  1  0.90703000  0.05875000  0.13862000  1.0
  O  O275  1  0.09297000  0.05875000  0.86138000  1.0
