# generated using pymatgen
data_Zr3H12C31S5(NO13)2
_symmetry_space_group_name_H-M   'P 1'
_cell_length_a   16.46000000
_cell_length_b   16.46054802
_cell_length_c   16.46080000
_cell_angle_alpha   89.31188549
_cell_angle_beta   60.21900000
_cell_angle_gamma   60.22088935
_symmetry_Int_Tables_number   1
_chemical_formula_structural   Zr3H12C31S5(NO13)2
_chemical_formula_sum   'Zr6 H24 C62 S10 N4 O52'
_cell_volume   3192.53729876
_cell_formula_units_Z   2
loop_
 _symmetry_equiv_pos_site_id
 _symmetry_equiv_pos_as_xyz
  1  'x, y, z'
loop_
 _atom_site_type_symbol
 _atom_site_label
 _atom_site_symmetry_multiplicity
 _atom_site_fract_x
 _atom_site_fract_y
 _atom_site_fract_z
 _atom_site_occupancy
  Zr  Zr0  1  0.21041000  0.90280000  0.38586000  1.0
  Zr  Zr1  1  0.78527000  0.11868000  0.60152000  1.0
  Zr  Zr2  1  0.99414000  0.90579000  0.38859000  1.0
  Zr  Zr3  1  0.00142000  0.11576000  0.59891000  1.0
  Zr  Zr4  1  0.99778000  0.90346000  0.60090000  1.0
  Zr  Zr5  1  0.99796000  0.11785000  0.38674000  1.0
  H  H6  1  0.16237000  0.75917000  0.41374000  1.0
  H  H7  1  0.83300000  0.09063000  0.74536000  1.0
  H  H8  1  0.82536000  0.09780000  0.41178000  1.0
  H  H9  1  0.17047000  0.09256000  0.40703000  1.0
  H  H10  1  0.46620000  0.63670000  0.20417000  1.0
  H  H11  1  0.52902000  0.30061000  0.86744000  1.0
  H  H12  1  0.85107000  0.29963000  0.33369000  1.0
  H  H13  1  0.14594000  0.74311000  0.66901000  1.0
  H  H14  1  0.84979000  0.83523000  0.76075000  1.0
  H  H15  1  0.14475000  0.17036000  0.20482000  1.0
  H  H16  1  0.14185000  0.77391000  0.02088000  1.0
  H  H17  1  0.02511000  0.14293000  0.77371000  1.0
  H  H18  1  0.96973000  0.73113000  0.36181000  1.0
  H  H19  1  0.85530000  0.48156000  0.73078000  1.0
  H  H20  1  0.55663000  0.14675000  0.65666000  1.0
  H  H21  1  0.43839000  0.84608000  0.36046000  1.0
  H  H22  1  0.28822000  0.42883000  0.10716000  1.0
  H  H23  1  0.34166000  0.37288000  0.99270000  1.0
  H  H24  1  0.17467000  0.67599000  0.18414000  1.0
  H  H25  1  0.23582000  0.56582000  0.09851000  1.0
  H  H26  1  0.70736000  0.39661000  0.07509000  1.0
  H  H27  1  0.65345000  0.51077000  0.13236000  1.0
  H  H28  1  0.82029000  0.32116000  0.82834000  1.0
  H  H29  1  0.75898000  0.40666000  0.93870000  1.0
  C  C30  1  0.26645000  0.74376000  0.50628000  1.0
  C  C31  1  0.72917000  0.99800000  0.76031000  1.0
  C  C32  1  0.72970000  0.28968000  0.49235000  1.0
  C  C33  1  0.26637000  0.01193000  0.21494000  1.0
  C  C34  1  0.26497000  0.73418000  0.23506000  1.0
  C  C35  1  0.27687000  0.99704000  0.49687000  1.0
  C  C36  1  0.73041000  0.26951000  0.77026000  1.0
  C  C37  1  0.71839000  0.00840000  0.50723000  1.0
  C  C38  1  0.99271000  0.73765000  0.49775000  1.0
  C  C39  1  0.99453000  0.01251000  0.22411000  1.0
  C  C40  1  0.00138000  0.28028000  0.49246000  1.0
  C  C41  1  0.00262000  0.00649000  0.76701000  1.0
  C  C42  1  0.64996000  0.42669000  0.41906000  1.0
  C  C43  1  0.34721000  0.61467000  0.58553000  1.0
  C  C44  1  0.64283000  0.38088000  0.49275000  1.0
  C  C45  1  0.35428000  0.65874000  0.51069000  1.0
  C  C46  1  0.45622000  0.53014000  0.55122000  1.0
  C  C47  1  0.54114000  0.51183000  0.45433000  1.0
  C  C48  1  0.64864000  0.91886000  0.88965000  1.0
  C  C49  1  0.34582000  0.08503000  0.07755000  1.0
  C  C50  1  0.64140000  0.99360000  0.84541000  1.0
  C  C51  1  0.35315000  0.01148000  0.12361000  1.0
  C  C52  1  0.45459000  0.04987000  0.99239000  1.0
  C  C53  1  0.53967000  0.95315000  0.97424000  1.0
  C  C54  1  0.98992000  0.94609000  0.08823000  1.0
  C  C55  1  0.98314000  0.08617000  0.91678000  1.0
  C  C56  1  0.98759000  0.01535000  0.13885000  1.0
  C  C57  1  0.99367000  0.01391000  0.86016000  1.0
  C  C58  1  0.98097000  0.06029000  0.99974000  1.0
  C  C59  1  0.98857000  0.97157000  0.00616000  1.0
  C  C60  1  0.01143000  0.58802000  0.41863000  1.0
  C  C61  1  0.00654000  0.41610000  0.55843000  1.0
  C  C62  1  0.00160000  0.64452000  0.49043000  1.0
  C  C63  1  0.00814000  0.36564000  0.48965000  1.0
  C  C64  1  0.00765000  0.49821000  0.53280000  1.0
  C  C65  1  0.01420000  0.50486000  0.44451000  1.0
  C  C66  1  0.34243000  0.57290000  0.12462000  1.0
  C  C67  1  0.46156000  0.59339000  0.15918000  1.0
  C  C68  1  0.55808000  0.50395000  0.09110000  1.0
  C  C69  1  0.55218000  0.45141000  0.02661000  1.0
  C  C70  1  0.65257000  0.38032000  0.93147000  1.0
  C  C71  1  0.53362000  0.34561000  0.91079000  1.0
  C  C72  1  0.43706000  0.41364000  0.00024000  1.0
  C  C73  1  0.44288000  0.47793000  0.05315000  1.0
  C  C74  1  0.35542000  0.63306000  0.17230000  1.0
  C  C75  1  0.63975000  0.33246000  0.87129000  1.0
  C  C76  1  0.50952000  0.06509000  0.58304000  1.0
  C  C77  1  0.48551000  0.92087000  0.44107000  1.0
  C  C78  1  0.62842000  0.00265000  0.51599000  1.0
  C  C79  1  0.36668000  0.98848000  0.50277000  1.0
  C  C80  1  0.53644000  0.94981000  0.47165000  1.0
  C  C81  1  0.45858000  0.03395000  0.55469000  1.0
  C  C82  1  0.74338000  0.40232000  0.31495000  1.0
  C  C83  1  0.25294000  0.64117000  0.68971000  1.0
  C  C84  1  0.74298000  0.81474000  0.86324000  1.0
  C  C85  1  0.25222000  0.18896000  0.10163000  1.0
  C  C86  1  0.98167000  0.86347000  0.12174000  1.0
  C  C87  1  0.96893000  0.18295000  0.90873000  1.0
  C  C88  1  0.02412000  0.59647000  0.32243000  1.0
  C  C89  1  0.01580000  0.38219000  0.64054000  1.0
  C  C90  1  0.43034000  0.15127000  0.67480000  1.0
  C  C91  1  0.56455000  0.82805000  0.35616000  1.0
  S  S92  1  0.50700000  0.44229000  0.60151000  1.0
  S  S93  1  0.49067000  0.59819000  0.40287000  1.0
  S  S94  1  0.50491000  0.10125000  0.90582000  1.0
  S  S95  1  0.48911000  0.90290000  0.06230000  1.0
  S  S96  1  0.97653000  0.11312000  0.09222000  1.0
  S  S97  1  0.99666000  0.91930000  0.91015000  1.0
  S  S98  1  0.99990000  0.59422000  0.58458000  1.0
  S  S99  1  0.01818000  0.41251000  0.39214000  1.0
  S  S100  1  0.67440000  0.90696000  0.42472000  1.0
  S  S101  1  0.32064000  0.08105000  0.59727000  1.0
  N  N102  1  0.33414000  0.42409000  0.03501000  1.0
  N  N103  1  0.24098000  0.60604000  0.14017000  1.0
  N  N104  1  0.66096000  0.46899000  0.08074000  1.0
  N  N105  1  0.75372000  0.36547000  0.89812000  1.0
  O  O106  1  0.29859000  0.77584000  0.43380000  1.0
  O  O107  1  0.69699000  0.07045000  0.72822000  1.0
  O  O108  1  0.69689000  0.25341000  0.56079000  1.0
  O  O109  1  0.29917000  0.94355000  0.25126000  1.0
  O  O110  1  0.16066000  0.77464000  0.26245000  1.0
  O  O111  1  0.17452000  0.06744000  0.56169000  1.0
  O  O112  1  0.83470000  0.24211000  0.72992000  1.0
  O  O113  1  0.82074000  0.94337000  0.43697000  1.0
  O  O114  1  0.99615000  0.77024000  0.56505000  1.0
  O  O115  1  0.99621000  0.08118000  0.25768000  1.0
  O  O116  1  0.99969000  0.24676000  0.42378000  1.0
  O  O117  1  0.99935000  0.93912000  0.73431000  1.0
  O  O118  1  0.99832000  0.94164000  0.25905000  1.0
  O  O119  1  0.99777000  0.24522000  0.56324000  1.0
  O  O120  1  0.01324000  0.06969000  0.72332000  1.0
  O  O121  1  0.98198000  0.78145000  0.43466000  1.0
  O  O122  1  0.29256000  0.78329000  0.26482000  1.0
  O  O123  1  0.68881000  0.08087000  0.57013000  1.0
  O  O124  1  0.70298000  0.23954000  0.72112000  1.0
  O  O125  1  0.30661000  0.93392000  0.42448000  1.0
  O  O126  1  0.16113000  0.08237000  0.25348000  1.0
  O  O127  1  0.16111000  0.77966000  0.57450000  1.0
  O  O128  1  0.83451000  0.92979000  0.72441000  1.0
  O  O129  1  0.83495000  0.25123000  0.42199000  1.0
  O  O130  1  0.12154000  0.06917000  0.43131000  1.0
  O  O131  1  0.87429000  0.07339000  0.43517000  1.0
  O  O132  1  0.88163000  0.06622000  0.67394000  1.0
  O  O133  1  0.11385000  0.83060000  0.43815000  1.0
  O  O134  1  0.90809000  0.96660000  0.53943000  1.0
  O  O135  1  0.08753000  0.96489000  0.53797000  1.0
  O  O136  1  0.91278000  0.14218000  0.53634000  1.0
  O  O137  1  0.08295000  0.96823000  0.36236000  1.0
  O  O138  1  0.84993000  0.32980000  0.28068000  1.0
  O  O139  1  0.71871000  0.45075000  0.26383000  1.0
  O  O140  1  0.14699000  0.71543000  0.72338000  1.0
  O  O141  1  0.27574000  0.59420000  0.74231000  1.0
  O  O142  1  0.84880000  0.78091000  0.78858000  1.0
  O  O143  1  0.72032000  0.76231000  0.91062000  1.0
  O  O144  1  0.14572000  0.22324000  0.17432000  1.0
  O  O145  1  0.27672000  0.23992000  0.05282000  1.0
  O  O146  1  0.07893000  0.77136000  0.07170000  1.0
  O  O147  1  0.89280000  0.87703000  0.18727000  1.0
  O  O148  1  0.00545000  0.19771000  0.82119000  1.0
  O  O149  1  0.92654000  0.24491000  0.98322000  1.0
  O  O150  1  0.98834000  0.68395000  0.30749000  1.0
  O  O151  1  0.06476000  0.52236000  0.26106000  1.0
  O  O152  1  0.91882000  0.43113000  0.73285000  1.0
  O  O153  1  0.10526000  0.31713000  0.62633000  1.0
  O  O154  1  0.47229000  0.18529000  0.70550000  1.0
  O  O155  1  0.32832000  0.18747000  0.72036000  1.0
  O  O156  1  0.52255000  0.79668000  0.32282000  1.0
  O  O157  1  0.66651000  0.78216000  0.32036000  1.0
