# generated using pymatgen
data_CoH6C5O4
_symmetry_space_group_name_H-M   'P 1'
_cell_length_a   4.81575000
_cell_length_b   9.36059000
_cell_length_c   13.64990000
_cell_angle_alpha   89.51260000
_cell_angle_beta   90.00030000
_cell_angle_gamma   89.99960000
_symmetry_Int_Tables_number   1
_chemical_formula_structural   CoH6C5O4
_chemical_formula_sum   'Co4 H24 C20 O16'
_cell_volume   615.29149548
_cell_formula_units_Z   4
loop_
 _symmetry_equiv_pos_site_id
 _symmetry_equiv_pos_as_xyz
  1  'x, y, z'
loop_
 _atom_site_type_symbol
 _atom_site_label
 _atom_site_symmetry_multiplicity
 _atom_site_fract_x
 _atom_site_fract_y
 _atom_site_fract_z
 _atom_site_occupancy
  Co  Co0  1  0.02097000  0.99906000  0.24710000  1.0
  Co  Co1  1  0.97904000  0.49906000  0.24710000  1.0
  Co  Co2  1  0.97904000  0.00094000  0.75290000  1.0
  Co  Co3  1  0.02097000  0.50094000  0.75290000  1.0
  H  H4  1  0.25385000  0.75994000  0.11467000  1.0
  H  H5  1  0.74616000  0.25993000  0.11467000  1.0
  H  H6  1  0.74615000  0.24006000  0.88533000  1.0
  H  H7  1  0.25384000  0.74006000  0.88533000  1.0
  H  H8  1  0.23763000  0.90202000  0.03158000  1.0
  H  H9  1  0.76238000  0.40202000  0.03158000  1.0
  H  H10  1  0.76238000  0.09798000  0.96842000  1.0
  H  H11  1  0.23763000  0.59798000  0.96842000  1.0
  H  H12  1  0.70509000  0.82293000  0.95938000  1.0
  H  H13  1  0.29490000  0.32294000  0.95938000  1.0
  H  H14  1  0.29490000  0.17707000  0.04062000  1.0
  H  H15  1  0.70510000  0.67706000  0.04061000  1.0
  H  H16  1  0.43435000  0.10227000  0.37922000  1.0
  H  H17  1  0.56564000  0.60227000  0.37922000  1.0
  H  H18  1  0.56565000  0.89773000  0.62078000  1.0
  H  H19  1  0.43434000  0.39773000  0.62078000  1.0
  H  H20  1  0.14970000  0.09461000  0.45932000  1.0
  H  H21  1  0.85030000  0.59462000  0.45932000  1.0
  H  H22  1  0.85030000  0.90539000  0.54068000  1.0
  H  H23  1  0.14969000  0.40538000  0.54068000  1.0
  H  H24  1  0.60081000  0.17265000  0.53747000  1.0
  H  H25  1  0.39918000  0.67266000  0.53747000  1.0
  H  H26  1  0.39917000  0.82735000  0.46253000  1.0
  H  H27  1  0.60082000  0.32734000  0.46253000  1.0
  C  C28  1  0.53998000  0.92432000  0.14329000  1.0
  C  C29  1  0.46003000  0.42432000  0.14329000  1.0
  C  C30  1  0.46003000  0.07568000  0.85671000  1.0
  C  C31  1  0.53998000  0.57568000  0.85671000  1.0
  C  C32  1  0.38568000  0.83290000  0.07124000  1.0
  C  C33  1  0.61433000  0.33290000  0.07125000  1.0
  C  C34  1  0.61433000  0.16710000  0.92876000  1.0
  C  C35  1  0.38567000  0.66710000  0.92876000  1.0
  C  C36  1  0.56726000  0.75000000  0.00000000  1.0
  C  C37  1  0.43274000  0.25000000  0.00000000  1.0
  C  C38  1  0.13101000  0.25966000  0.35256000  1.0
  C  C39  1  0.86900000  0.75967000  0.35256000  1.0
  C  C40  1  0.86899000  0.74034000  0.64744000  1.0
  C  C41  1  0.13099000  0.24033000  0.64744000  1.0
  C  C42  1  0.29553000  0.16927000  0.42371000  1.0
  C  C43  1  0.70447000  0.66928000  0.42371000  1.0
  C  C44  1  0.70447000  0.83073000  0.57629000  1.0
  C  C45  1  0.29552000  0.33072000  0.57629000  1.0
  C  C46  1  0.46481000  0.25000000  0.50000000  1.0
  C  C47  1  0.53519000  0.75000000  0.50000000  1.0
  O  O48  1  0.99749000  0.20070000  0.28236000  1.0
  O  O49  1  0.00249000  0.70071000  0.28236000  1.0
  O  O50  1  0.00250000  0.79930000  0.71764000  1.0
  O  O51  1  0.99749000  0.29929000  0.71764000  1.0
  O  O52  1  0.12652000  0.39545000  0.36168000  1.0
  O  O53  1  0.87349000  0.89546000  0.36168000  1.0
  O  O54  1  0.87349000  0.60455000  0.63832000  1.0
  O  O55  1  0.12650000  0.10455000  0.63832000  1.0
  O  O56  1  0.80270000  0.93876000  0.13384000  1.0
  O  O57  1  0.19729000  0.43875000  0.13384000  1.0
  O  O58  1  0.19730000  0.06123000  0.86617000  1.0
  O  O59  1  0.80270000  0.56124000  0.86616000  1.0
  O  O60  1  0.41147000  0.98576000  0.21334000  1.0
  O  O61  1  0.58855000  0.48576000  0.21334000  1.0
  O  O62  1  0.58854000  0.01424000  0.78666000  1.0
  O  O63  1  0.41148000  0.51425000  0.78666000  1.0
