# generated using pymatgen
data_AlH9C15N2O5F
_symmetry_space_group_name_H-M   'P 1'
_cell_length_a   6.64121000
_cell_length_b   16.95410000
_cell_length_c   17.69670000
_cell_angle_alpha   87.36510000
_cell_angle_beta   80.98580000
_cell_angle_gamma   82.54150000
_symmetry_Int_Tables_number   1
_chemical_formula_structural   AlH9C15N2O5F
_chemical_formula_sum   'Al2 H18 C30 N4 O10 F2'
_cell_volume   1950.64457158
_cell_formula_units_Z   2
loop_
 _symmetry_equiv_pos_site_id
 _symmetry_equiv_pos_as_xyz
  1  'x, y, z'
loop_
 _atom_site_type_symbol
 _atom_site_label
 _atom_site_symmetry_multiplicity
 _atom_site_fract_x
 _atom_site_fract_y
 _atom_site_fract_z
 _atom_site_occupancy
  Al  Al0  1  0.49820000  0.49997000  0.49831000  1.0
  Al  Al1  1  0.99898000  0.49949000  0.49565000  1.0
  H  H2  1  0.76995000  0.54470000  0.40523000  1.0
  H  H3  1  0.21380000  0.46612000  0.59146000  1.0
  H  H4  1  0.14213000  0.26314000  0.45741000  1.0
  H  H5  1  0.20838000  0.11365000  0.45600000  1.0
  H  H6  1  0.56483000  0.10372000  0.53365000  1.0
  H  H7  1  0.39765000  0.89392000  0.53380000  1.0
  H  H8  1  0.81451000  0.88953000  0.45813000  1.0
  H  H9  1  0.88187000  0.74001000  0.45590000  1.0
  H  H10  1  0.68191000  0.44566000  0.27253000  1.0
  H  H11  1  0.76755000  0.44911000  0.13038000  1.0
  H  H12  1  0.12573000  0.52341000  0.11612000  1.0
  H  H13  1  0.90047000  0.47512000  0.87436000  1.0
  H  H14  1  0.32737000  0.55469000  0.72617000  1.0
  H  H15  1  0.25503000  0.55098000  0.86864000  1.0
  H  H16  1  0.42281000  0.31843000  0.53787000  1.0
  H  H17  1  0.33929000  0.22409000  0.55216000  1.0
  H  H18  1  0.54522000  0.67996000  0.52591000  1.0
  H  H19  1  0.61090000  0.77122000  0.54872000  1.0
  C  C20  1  0.31908000  0.48315000  0.36007000  1.0
  C  C21  1  0.19662000  0.64483000  0.49266000  1.0
  C  C22  1  0.68256000  0.51653000  0.63445000  1.0
  C  C23  1  0.80019000  0.35542000  0.50137000  1.0
  C  C24  1  0.82092000  0.26807000  0.49926000  1.0
  C  C25  1  0.01835000  0.22692000  0.47575000  1.0
  C  C26  1  0.05620000  0.14500000  0.47484000  1.0
  C  C27  1  0.88814000  0.10130000  0.49756000  1.0
  C  C28  1  0.69037000  0.13989000  0.51809000  1.0
  C  C29  1  0.65023000  0.22391000  0.52035000  1.0
  C  C30  1  0.28478000  0.85884000  0.51782000  1.0
  C  C31  1  0.10258000  0.89886000  0.49836000  1.0
  C  C32  1  0.95242000  0.85683000  0.47575000  1.0
  C  C33  1  0.99090000  0.77484000  0.47461000  1.0
  C  C34  1  0.17216000  0.73243000  0.49522000  1.0
  C  C35  1  0.32504000  0.77487000  0.51721000  1.0
  C  C36  1  0.35930000  0.48089000  0.27488000  1.0
  C  C37  1  0.56167000  0.46164000  0.23719000  1.0
  C  C38  1  0.60955000  0.46401000  0.15809000  1.0
  C  C39  1  0.45361000  0.48734000  0.11279000  1.0
  C  C40  1  0.24953000  0.50517000  0.14925000  1.0
  C  C41  1  0.20610000  0.50124000  0.22837000  1.0
  C  C42  1  0.49833000  0.49495000  0.03219000  1.0
  C  C43  1  0.53196000  0.50395000  0.96271000  1.0
  C  C44  1  0.57147000  0.51180000  0.88204000  1.0
  C  C45  1  0.77292000  0.49379000  0.84312000  1.0
  C  C46  1  0.80883000  0.49790000  0.76387000  1.0
  C  C47  1  0.65075000  0.51857000  0.71960000  1.0
  C  C48  1  0.45127000  0.53819000  0.75971000  1.0
  C  C49  1  0.41084000  0.53570000  0.83895000  1.0
  N  N50  1  0.90450000  0.01728000  0.49920000  1.0
  N  N51  1  0.08507000  0.98287000  0.50042000  1.0
  N  N52  1  0.45513000  0.25835000  0.54350000  1.0
  N  N53  1  0.50151000  0.73785000  0.53969000  1.0
  O  O54  1  0.47545000  0.47595000  0.39461000  1.0
  O  O55  1  0.03503000  0.61054000  0.49681000  1.0
  O  O56  1  0.86612000  0.50559000  0.59980000  1.0
  O  O57  1  0.61762000  0.39332000  0.51466000  1.0
  O  O58  1  0.52201000  0.52442000  0.60226000  1.0
  O  O59  1  0.96355000  0.38937000  0.49138000  1.0
  O  O60  1  0.13328000  0.49370000  0.39235000  1.0
  O  O61  1  0.38024000  0.60799000  0.48538000  1.0
  O  O62  1  0.75210000  0.53230000  0.45972000  1.0
  O  O63  1  0.24239000  0.46806000  0.53589000  1.0
  F  F64  1  0.00585000  0.52044000  0.25920000  1.0
  F  F65  1  0.00725000  0.47863000  0.73059000  1.0
