# generated using pymatgen
data_NaZnH2C3O7
_symmetry_space_group_name_H-M   'P 1'
_cell_length_a   5.95535000
_cell_length_b   7.04225000
_cell_length_c   15.50610000
_cell_angle_alpha   89.99540000
_cell_angle_beta   89.99840000
_cell_angle_gamma   100.25200000
_symmetry_Int_Tables_number   1
_chemical_formula_structural   NaZnH2C3O7
_chemical_formula_sum   'Na4 Zn4 H8 C12 O28'
_cell_volume   639.92875586
_cell_formula_units_Z   4
loop_
 _symmetry_equiv_pos_site_id
 _symmetry_equiv_pos_as_xyz
  1  'x, y, z'
loop_
 _atom_site_type_symbol
 _atom_site_label
 _atom_site_symmetry_multiplicity
 _atom_site_fract_x
 _atom_site_fract_y
 _atom_site_fract_z
 _atom_site_occupancy
  Na  Na0  1  0.02755000  0.68979000  0.81704000  1.0
  Na  Na1  1  0.97241000  0.81027000  0.31706000  1.0
  Na  Na2  1  0.97247000  0.31023000  0.18295000  1.0
  Na  Na3  1  0.02758000  0.18969000  0.68297000  1.0
  Zn  Zn4  1  0.22707000  0.29099000  0.90091000  1.0
  Zn  Zn5  1  0.77294000  0.20905000  0.40092000  1.0
  Zn  Zn6  1  0.77294000  0.70908000  0.09909000  1.0
  Zn  Zn7  1  0.22705000  0.79089000  0.59908000  1.0
  H  H8  1  0.33111000  0.63742000  0.97478000  1.0
  H  H9  1  0.66884000  0.86259000  0.47477000  1.0
  H  H10  1  0.66894000  0.36265000  0.02522000  1.0
  H  H11  1  0.33116000  0.13738000  0.52523000  1.0
  H  H12  1  0.45191000  0.64327000  0.87978000  1.0
  H  H13  1  0.54805000  0.85682000  0.37977000  1.0
  H  H14  1  0.54814000  0.35680000  0.12022000  1.0
  H  H15  1  0.45192000  0.14315000  0.62024000  1.0
  C  C16  1  0.70117000  0.28698000  0.84972000  1.0
  C  C17  1  0.29884000  0.21302000  0.34971000  1.0
  C  C18  1  0.29883000  0.71300000  0.15030000  1.0
  C  C19  1  0.70114000  0.78690000  0.65027000  1.0
  C  C20  1  0.54878000  0.24910000  0.76770000  1.0
  C  C21  1  0.45126000  0.25089000  0.26768000  1.0
  C  C22  1  0.45121000  0.75094000  0.23232000  1.0
  C  C23  1  0.54878000  0.74915000  0.73231000  1.0
  C  C24  1  0.00555000  0.07262000  0.03749000  1.0
  C  C25  1  0.99438000  0.42737000  0.53751000  1.0
  C  C26  1  0.99443000  0.92741000  0.96249000  1.0
  C  C27  1  0.00559000  0.57257000  0.46250000  1.0
  O  O28  1  0.11394000  0.24279000  0.02545000  1.0
  O  O29  1  0.88614000  0.25716000  0.52545000  1.0
  O  O30  1  0.88608000  0.75722000  0.97454000  1.0
  O  O31  1  0.11386000  0.74277000  0.47455000  1.0
  O  O32  1  0.90474000  0.01271000  0.10667000  1.0
  O  O33  1  0.09524000  0.48723000  0.60668000  1.0
  O  O34  1  0.09523000  0.98732000  0.89331000  1.0
  O  O35  1  0.90468000  0.51271000  0.39334000  1.0
  O  O36  1  0.31209000  0.58827000  0.91455000  1.0
  O  O37  1  0.68786000  0.91179000  0.41455000  1.0
  O  O38  1  0.68795000  0.41181000  0.08545000  1.0
  O  O39  1  0.31213000  0.08816000  0.58545000  1.0
  O  O40  1  0.63915000  0.20494000  0.69888000  1.0
  O  O41  1  0.36088000  0.29500000  0.19885000  1.0
  O  O42  1  0.36083000  0.79508000  0.30113000  1.0
  O  O43  1  0.63915000  0.70502000  0.80113000  1.0
  O  O44  1  0.91428000  0.32893000  0.83658000  1.0
  O  O45  1  0.08575000  0.17108000  0.33658000  1.0
  O  O46  1  0.08573000  0.67109000  0.16342000  1.0
  O  O47  1  0.91425000  0.82889000  0.66340000  1.0
  O  O48  1  0.59779000  0.27442000  0.92161000  1.0
  O  O49  1  0.40223000  0.22563000  0.42159000  1.0
  O  O50  1  0.40225000  0.72560000  0.07841000  1.0
  O  O51  1  0.59772000  0.77427000  0.57839000  1.0
  O  O52  1  0.34044000  0.26570000  0.77630000  1.0
  O  O53  1  0.65962000  0.23438000  0.27628000  1.0
  O  O54  1  0.65957000  0.73438000  0.22372000  1.0
  O  O55  1  0.34041000  0.76563000  0.72371000  1.0
