# generated using pymatgen
data_ZnH10C12N3O5
_symmetry_space_group_name_H-M   'P 1'
_cell_length_a   6.31805000
_cell_length_b   12.97730000
_cell_length_c   17.17060000
_cell_angle_alpha   69.99940000
_cell_angle_beta   80.70350000
_cell_angle_gamma   76.32420000
_symmetry_Int_Tables_number   1
_chemical_formula_structural   ZnH10C12N3O5
_chemical_formula_sum   'Zn4 H40 C48 N12 O20'
_cell_volume   1280.39624887
_cell_formula_units_Z   4
loop_
 _symmetry_equiv_pos_site_id
 _symmetry_equiv_pos_as_xyz
  1  'x, y, z'
loop_
 _atom_site_type_symbol
 _atom_site_label
 _atom_site_symmetry_multiplicity
 _atom_site_fract_x
 _atom_site_fract_y
 _atom_site_fract_z
 _atom_site_occupancy
  Zn  Zn0  1  0.81778000  0.95962000  0.21832000  1.0
  Zn  Zn1  1  0.99066000  0.54059000  0.28344000  1.0
  Zn  Zn2  1  0.18222000  0.04039000  0.78167000  1.0
  Zn  Zn3  1  0.00933000  0.45941000  0.71656000  1.0
  H  H4  1  0.17751000  0.02517000  0.19429000  1.0
  H  H5  1  0.39168000  0.47395000  0.30685000  1.0
  H  H6  1  0.82249000  0.97483000  0.80570000  1.0
  H  H7  1  0.60832000  0.52605000  0.69315000  1.0
  H  H8  1  0.24754000  0.89383000  0.22692000  1.0
  H  H9  1  0.36695000  0.60475000  0.27505000  1.0
  H  H10  1  0.75245000  0.10617000  0.77308000  1.0
  H  H11  1  0.63304000  0.39525000  0.72495000  1.0
  H  H12  1  0.50507000  0.90051000  0.53921000  1.0
  H  H13  1  0.94503000  0.60037000  0.95991000  1.0
  H  H14  1  0.49494000  0.09949000  0.46079000  1.0
  H  H15  1  0.05497000  0.39963000  0.04009000  1.0
  H  H16  1  0.62439000  0.51437000  0.55021000  1.0
  H  H17  1  0.68873000  0.98646000  0.94793000  1.0
  H  H18  1  0.37561000  0.48563000  0.44979000  1.0
  H  H19  1  0.31128000  0.01354000  0.05206000  1.0
  H  H20  1  0.61796000  0.16031000  0.27930000  1.0
  H  H21  1  0.05546000  0.33970000  0.22211000  1.0
  H  H22  1  0.38204000  0.83969000  0.72070000  1.0
  H  H23  1  0.94452000  0.66030000  0.77790000  1.0
  H  H24  1  0.51060000  0.36479000  0.21237000  1.0
  H  H25  1  0.08675000  0.13514000  0.28847000  1.0
  H  H26  1  0.48939000  0.63521000  0.78763000  1.0
  H  H27  1  0.91324000  0.86486000  0.71153000  1.0
  H  H28  1  0.64343000  0.30699000  0.97419000  1.0
  H  H29  1  0.92608000  0.19295000  0.52642000  1.0
  H  H30  1  0.35656000  0.69302000  0.02581000  1.0
  H  H31  1  0.07394000  0.80704000  0.47358000  1.0
  H  H32  1  0.75711000  0.10587000  0.04998000  1.0
  H  H33  1  0.91235000  0.39421000  0.45135000  1.0
  H  H34  1  0.24288000  0.89413000  0.95002000  1.0
  H  H35  1  0.08767000  0.60579000  0.54865000  1.0
  H  H36  1  0.32924000  0.50343000  0.07478000  1.0
  H  H37  1  0.90577000  0.99695000  0.42354000  1.0
  H  H38  1  0.67074000  0.49657000  0.92522000  1.0
  H  H39  1  0.09424000  0.00304000  0.57646000  1.0
  H  H40  1  0.60088000  0.51952000  0.06864000  1.0
  H  H41  1  0.18595000  0.98050000  0.43302000  1.0
  H  H42  1  0.39911000  0.48049000  0.93136000  1.0
  H  H43  1  0.81406000  0.01950000  0.56698000  1.0
  C  C44  1  0.62321000  0.88786000  0.38170000  1.0
  C  C45  1  0.89453000  0.61327000  0.11800000  1.0
  C  C46  1  0.37680000  0.11215000  0.61830000  1.0
  C  C47  1  0.10546000  0.38673000  0.88201000  1.0
  C  C48  1  0.58446000  0.79406000  0.46019000  1.0
  C  C49  1  0.84070000  0.70685000  0.03870000  1.0
  C  C50  1  0.41555000  0.20594000  0.53981000  1.0
  C  C51  1  0.15929000  0.29315000  0.96130000  1.0
  C  C52  1  0.53123000  0.81556000  0.53647000  1.0
  C  C53  1  0.88424000  0.68537000  0.96232000  1.0
  C  C54  1  0.46878000  0.18444000  0.46353000  1.0
  C  C55  1  0.11576000  0.31463000  0.03768000  1.0
  C  C56  1  0.59646000  0.60389000  0.54118000  1.0
  C  C57  1  0.74233000  0.89700000  0.95717000  1.0
  C  C58  1  0.40355000  0.39611000  0.45882000  1.0
  C  C59  1  0.25768000  0.10300000  0.04282000  1.0
  C  C60  1  0.61583000  0.68322000  0.46213000  1.0
  C  C61  1  0.76254000  0.81757000  0.03650000  1.0
  C  C62  1  0.38418000  0.31678000  0.53787000  1.0
  C  C63  1  0.23747000  0.18243000  0.96350000  1.0
  C  C64  1  0.67065000  0.64176000  0.38781000  1.0
  C  C65  1  0.70182000  0.85925000  0.11070000  1.0
  C  C66  1  0.32935000  0.35824000  0.61219000  1.0
  C  C67  1  0.29819000  0.14075000  0.88929000  1.0
  C  C68  1  0.62518000  0.19635000  0.21179000  1.0
  C  C69  1  0.03078000  0.30366000  0.28946000  1.0
  C  C70  1  0.37482000  0.80365000  0.78821000  1.0
  C  C71  1  0.96921000  0.69633000  0.71054000  1.0
  C  C72  1  0.56295000  0.31052000  0.17369000  1.0
  C  C73  1  0.04531000  0.18949000  0.32719000  1.0
  C  C74  1  0.43704000  0.68948000  0.82631000  1.0
  C  C75  1  0.95469000  0.81051000  0.67280000  1.0
  C  C76  1  0.56680000  0.35534000  0.08685000  1.0
  C  C77  1  0.00768000  0.14472000  0.41376000  1.0
  C  C78  1  0.43319000  0.64466000  0.91315000  1.0
  C  C79  1  0.99232000  0.85528000  0.58624000  1.0
  C  C80  1  0.63657000  0.27948000  0.04183000  1.0
  C  C81  1  0.95763000  0.22053000  0.45896000  1.0
  C  C82  1  0.36341000  0.72053000  0.95817000  1.0
  C  C83  1  0.04238000  0.77947000  0.54105000  1.0
  C  C84  1  0.69921000  0.16623000  0.08367000  1.0
  C  C85  1  0.94792000  0.33381000  0.41751000  1.0
  C  C86  1  0.30079000  0.83377000  0.91633000  1.0
  C  C87  1  0.05209000  0.66618000  0.58249000  1.0
  C  C88  1  0.49618000  0.47942000  0.04732000  1.0
  C  C89  1  0.02176000  0.02065000  0.45281000  1.0
  C  C90  1  0.50380000  0.52059000  0.95268000  1.0
  C  C91  1  0.97825000  0.97934000  0.54719000  1.0
  N  N92  1  0.69473000  0.12445000  0.16742000  1.0
  N  N93  1  0.98372000  0.37560000  0.33399000  1.0
  N  N94  1  0.30526000  0.87555000  0.83258000  1.0
  N  N95  1  0.01628000  0.62440000  0.66602000  1.0
  N  N96  1  0.51528000  0.73646000  0.61030000  1.0
  N  N97  1  0.86134000  0.76445000  0.88825000  1.0
  N  N98  1  0.48473000  0.26354000  0.38971000  1.0
  N  N99  1  0.13866000  0.23555000  0.11175000  1.0
  N  N100  1  0.55003000  0.63068000  0.61130000  1.0
  N  N101  1  0.79171000  0.87025000  0.88706000  1.0
  N  N102  1  0.44997000  0.36933000  0.38870000  1.0
  N  N103  1  0.20829000  0.12975000  0.11293000  1.0
  O  O104  1  0.71650000  0.85400000  0.31982000  1.0
  O  O105  1  0.87774000  0.64661000  0.18177000  1.0
  O  O106  1  0.28351000  0.14600000  0.68018000  1.0
  O  O107  1  0.12226000  0.35339000  0.81823000  1.0
  O  O108  1  0.13289000  0.95437000  0.23801000  1.0
  O  O109  1  0.31738000  0.54526000  0.26359000  1.0
  O  O110  1  0.86711000  0.04563000  0.76199000  1.0
  O  O111  1  0.68262000  0.45474000  0.73641000  1.0
  O  O112  1  0.57294000  0.98677000  0.38209000  1.0
  O  O113  1  0.95562000  0.51477000  0.11695000  1.0
  O  O114  1  0.42706000  0.01323000  0.61791000  1.0
  O  O115  1  0.04436000  0.48522000  0.88305000  1.0
  O  O116  1  0.51720000  0.64303000  0.34992000  1.0
  O  O117  1  0.51230000  0.86049000  0.14508000  1.0
  O  O118  1  0.48279000  0.35698000  0.65008000  1.0
  O  O119  1  0.48770000  0.13951000  0.85492000  1.0
  O  O120  1  0.87514000  0.59900000  0.37752000  1.0
  O  O121  1  0.85422000  0.90013000  0.12443000  1.0
  O  O122  1  0.12486000  0.40099000  0.62248000  1.0
  O  O123  1  0.14579000  0.09987000  0.87557000  1.0
