# generated using pymatgen
data_ZnH22C24(SN)2
_symmetry_space_group_name_H-M   'P 1'
_cell_length_a   10.42720000
_cell_length_b   11.04170000
_cell_length_c   26.17290000
_cell_angle_alpha   89.59030000
_cell_angle_beta   89.11170000
_cell_angle_gamma   61.84870000
_symmetry_Int_Tables_number   1
_chemical_formula_structural   ZnH22C24(SN)2
_chemical_formula_sum   'Zn4 H88 C96 S8 N8'
_cell_volume   2656.60195874
_cell_formula_units_Z   4
loop_
 _symmetry_equiv_pos_site_id
 _symmetry_equiv_pos_as_xyz
  1  'x, y, z'
loop_
 _atom_site_type_symbol
 _atom_site_label
 _atom_site_symmetry_multiplicity
 _atom_site_fract_x
 _atom_site_fract_y
 _atom_site_fract_z
 _atom_site_occupancy
  Zn  Zn0  1  0.41738000  0.97192000  0.39061000  1.0
  Zn  Zn1  1  0.61103000  0.97194000  0.10943000  1.0
  Zn  Zn2  1  0.58262000  0.02808000  0.60939000  1.0
  Zn  Zn3  1  0.38897000  0.02806000  0.89057000  1.0
  H  H4  1  0.52347000  0.85245000  0.49192000  1.0
  H  H5  1  0.62370000  0.85190000  0.00812000  1.0
  H  H6  1  0.47654000  0.14754000  0.50808000  1.0
  H  H7  1  0.37630000  0.14808000  0.99188000  1.0
  H  H8  1  0.56011000  0.65465000  0.54403000  1.0
  H  H9  1  0.78528000  0.65435000  0.95597000  1.0
  H  H10  1  0.43988000  0.34535000  0.45596000  1.0
  H  H11  1  0.21473000  0.34563000  0.04404000  1.0
  H  H12  1  0.41130000  0.50864000  0.41581000  1.0
  H  H13  1  0.07946000  0.50845000  0.08432000  1.0
  H  H14  1  0.58869000  0.49136000  0.58418000  1.0
  H  H15  1  0.92056000  0.49156000  0.91569000  1.0
  H  H16  1  0.38030000  0.71471000  0.36879000  1.0
  H  H17  1  0.90396000  0.71423000  0.13138000  1.0
  H  H18  1  0.61971000  0.28529000  0.63121000  1.0
  H  H19  1  0.09603000  0.28578000  0.86862000  1.0
  H  H20  1  0.10876000  0.03666000  0.39314000  1.0
  H  H21  1  0.85552000  0.03642000  0.10682000  1.0
  H  H22  1  0.89124000  0.96334000  0.60686000  1.0
  H  H23  1  0.14448000  0.96358000  0.89318000  1.0
  H  H24  1  0.91878000  0.04268000  0.33513000  1.0
  H  H25  1  0.03934000  0.04257000  0.16488000  1.0
  H  H26  1  0.08122000  0.95732000  0.66487000  1.0
  H  H27  1  0.96067000  0.95742000  0.83512000  1.0
  H  H28  1  0.23776000  0.92857000  0.21188000  1.0
  H  H29  1  0.83384000  0.92914000  0.28813000  1.0
  H  H30  1  0.76224000  0.07144000  0.78812000  1.0
  H  H31  1  0.16614000  0.07088000  0.71188000  1.0
  H  H32  1  0.41175000  0.92782000  0.27482000  1.0
  H  H33  1  0.66069000  0.92833000  0.22516000  1.0
  H  H34  1  0.58825000  0.07219000  0.72518000  1.0
  H  H35  1  0.33929000  0.07169000  0.77484000  1.0
  H  H36  1  0.10258000  0.40246000  0.48568000  1.0
  H  H37  1  0.49643000  0.40219000  0.01435000  1.0
  H  H38  1  0.89740000  0.59755000  0.51431000  1.0
  H  H39  1  0.50357000  0.59780000  0.98565000  1.0
  H  H40  1  0.02158000  0.63191000  0.44713000  1.0
  H  H41  1  0.34768000  0.63186000  0.05273000  1.0
  H  H42  1  0.97841000  0.36810000  0.55286000  1.0
  H  H43  1  0.65233000  0.36814000  0.94727000  1.0
  H  H44  1  0.27229000  0.44206000  0.31135000  1.0
  H  H45  1  0.28623000  0.44249000  0.18855000  1.0
  H  H46  1  0.72772000  0.55795000  0.68864000  1.0
  H  H47  1  0.71376000  0.55750000  0.81145000  1.0
  H  H48  1  0.35243000  0.21320000  0.34937000  1.0
  H  H49  1  0.43519000  0.21349000  0.15070000  1.0
  H  H50  1  0.64758000  0.78681000  0.65063000  1.0
  H  H51  1  0.56481000  0.78650000  0.84930000  1.0
  H  H52  1  0.15600000  0.69277000  0.32035000  1.0
  H  H53  1  0.15182000  0.69307000  0.17945000  1.0
  H  H54  1  0.84400000  0.30724000  0.67965000  1.0
  H  H55  1  0.84819000  0.30692000  0.82055000  1.0
  H  H56  1  0.08282000  0.76951000  0.38080000  1.0
  H  H57  1  0.14830000  0.76962000  0.11895000  1.0
  H  H58  1  0.91717000  0.23050000  0.61920000  1.0
  H  H59  1  0.85172000  0.23037000  0.88105000  1.0
  H  H60  1  0.97475000  0.73449000  0.33843000  1.0
  H  H61  1  0.29119000  0.73500000  0.16134000  1.0
  H  H62  1  0.02524000  0.26552000  0.66157000  1.0
  H  H63  1  0.70882000  0.26499000  0.83866000  1.0
  H  H64  1  0.77772000  0.89268000  0.43819000  1.0
  H  H65  1  0.32998000  0.89331000  0.06180000  1.0
  H  H66  1  0.22228000  0.10732000  0.56182000  1.0
  H  H67  1  0.67000000  0.10670000  0.93819000  1.0
  H  H68  1  0.87928000  0.02235000  0.48301000  1.0
  H  H69  1  0.09897000  0.02288000  0.01691000  1.0
  H  H70  1  0.12072000  0.97765000  0.51700000  1.0
  H  H71  1  0.90101000  0.97714000  0.98308000  1.0
  H  H72  1  0.69461000  0.34516000  0.37104000  1.0
  H  H73  1  0.96035000  0.34531000  0.12912000  1.0
  H  H74  1  0.30542000  0.65482000  0.62896000  1.0
  H  H75  1  0.03964000  0.65469000  0.87088000  1.0
  H  H76  1  0.59193000  0.21431000  0.32600000  1.0
  H  H77  1  0.19382000  0.21472000  0.17416000  1.0
  H  H78  1  0.40809000  0.78567000  0.67400000  1.0
  H  H79  1  0.80618000  0.78527000  0.82584000  1.0
  H  H80  1  0.84058000  0.27235000  0.49925000  1.0
  H  H81  1  0.88710000  0.27265000  0.00088000  1.0
  H  H82  1  0.15943000  0.72765000  0.50075000  1.0
  H  H83  1  0.11289000  0.72737000  0.99911000  1.0
  H  H84  1  0.81148000  0.37929000  0.44491000  1.0
  H  H85  1  0.80937000  0.37937000  0.05528000  1.0
  H  H86  1  0.18853000  0.62071000  0.55509000  1.0
  H  H87  1  0.19062000  0.62064000  0.94472000  1.0
  H  H88  1  0.97804000  0.22584000  0.45173000  1.0
  H  H89  1  0.79662000  0.22569000  0.04843000  1.0
  H  H90  1  0.02197000  0.77416000  0.54827000  1.0
  H  H91  1  0.20337000  0.77432000  0.95157000  1.0
  C  C92  1  0.49936000  0.77420000  0.47620000  1.0
  C  C93  1  0.72598000  0.77372000  0.02388000  1.0
  C  C94  1  0.50064000  0.22580000  0.52380000  1.0
  C  C95  1  0.27402000  0.22626000  0.97613000  1.0
  C  C96  1  0.52062000  0.66100000  0.50541000  1.0
  C  C97  1  0.81813000  0.66065000  0.99464000  1.0
  C  C98  1  0.47937000  0.33900000  0.49459000  1.0
  C  C99  1  0.18188000  0.33934000  0.00537000  1.0
  C  C100  1  0.49013000  0.56054000  0.48494000  1.0
  C  C101  1  0.94912000  0.56036000  0.01511000  1.0
  C  C102  1  0.50986000  0.43946000  0.51506000  1.0
  C  C103  1  0.05090000  0.43964000  0.98490000  1.0
  C  C104  1  0.43899000  0.58072000  0.43452000  1.0
  C  C105  1  0.97971000  0.58040000  0.06560000  1.0
  C  C106  1  0.56099000  0.41929000  0.56548000  1.0
  C  C107  1  0.02030000  0.41961000  0.93441000  1.0
  C  C108  1  0.42073000  0.69649000  0.40776000  1.0
  C  C109  1  0.88199000  0.69603000  0.09238000  1.0
  C  C110  1  0.57927000  0.30350000  0.59224000  1.0
  C  C111  1  0.11802000  0.30398000  0.90763000  1.0
  C  C112  1  0.13188000  0.01158000  0.35265000  1.0
  C  C113  1  0.85736000  0.01145000  0.14731000  1.0
  C  C114  1  0.86813000  0.98842000  0.64735000  1.0
  C  C115  1  0.14263000  0.98856000  0.85269000  1.0
  C  C116  1  0.02685000  0.01498000  0.31997000  1.0
  C  C117  1  0.95887000  0.01495000  0.18003000  1.0
  C  C118  1  0.97314000  0.98502000  0.68003000  1.0
  C  C119  1  0.04113000  0.98505000  0.81997000  1.0
  C  C120  1  0.06159000  0.98476000  0.26801000  1.0
  C  C121  1  0.95424000  0.98481000  0.23199000  1.0
  C  C122  1  0.93840000  0.01525000  0.73199000  1.0
  C  C123  1  0.04576000  0.01520000  0.76801000  1.0
  C  C124  1  0.20250000  0.95312000  0.25154000  1.0
  C  C125  1  0.84477000  0.95343000  0.24846000  1.0
  C  C126  1  0.79749000  0.04689000  0.74847000  1.0
  C  C127  1  0.15522000  0.04658000  0.75154000  1.0
  C  C128  1  0.30177000  0.95102000  0.28671000  1.0
  C  C129  1  0.74764000  0.95133000  0.21327000  1.0
  C  C130  1  0.69823000  0.04898000  0.71329000  1.0
  C  C131  1  0.25235000  0.04868000  0.78673000  1.0
  C  C132  1  0.23075000  0.29021000  0.42015000  1.0
  C  C133  1  0.48014000  0.29024000  0.07989000  1.0
  C  C134  1  0.76926000  0.70979000  0.57984000  1.0
  C  C135  1  0.51987000  0.70976000  0.92011000  1.0
  C  C136  1  0.13804000  0.41113000  0.44705000  1.0
  C  C137  1  0.45212000  0.41105000  0.05295000  1.0
  C  C138  1  0.86196000  0.58888000  0.55294000  1.0
  C  C139  1  0.54789000  0.58894000  0.94705000  1.0
  C  C140  1  0.09345000  0.54003000  0.42533000  1.0
  C  C141  1  0.36767000  0.54005000  0.07459000  1.0
  C  C142  1  0.90654000  0.45998000  0.57467000  1.0
  C  C143  1  0.63234000  0.45994000  0.92541000  1.0
  C  C144  1  0.13910000  0.55474000  0.37599000  1.0
  C  C145  1  0.30694000  0.55494000  0.12387000  1.0
  C  C146  1  0.86089000  0.44527000  0.62401000  1.0
  C  C147  1  0.69306000  0.44506000  0.87613000  1.0
  C  C148  1  0.23308000  0.43444000  0.34964000  1.0
  C  C149  1  0.33333333  0.43472000  0.15029000  1.0
  C  C150  1  0.76692000  0.56556000  0.65036000  1.0
  C  C151  1  0.66672000  0.56527000  0.84971000  1.0
  C  C152  1  0.27817000  0.30453000  0.37096000  1.0
  C  C153  1  0.41827000  0.30471000  0.12906000  1.0
  C  C154  1  0.72183000  0.69548000  0.62903000  1.0
  C  C155  1  0.58173000  0.69528000  0.87094000  1.0
  C  C156  1  0.08638000  0.69464000  0.35263000  1.0
  C  C157  1  0.21953000  0.69493000  0.14716000  1.0
  C  C158  1  0.91361000  0.30536000  0.64737000  1.0
  C  C159  1  0.78048000  0.30506000  0.85284000  1.0
  C  C160  1  0.67793000  0.04338000  0.37845000  1.0
  C  C161  1  0.27897000  0.04385000  0.12161000  1.0
  C  C162  1  0.32209000  0.95661000  0.62155000  1.0
  C  C163  1  0.72101000  0.95615000  0.87838000  1.0
  C  C164  1  0.76038000  0.99134000  0.42295000  1.0
  C  C165  1  0.24863000  0.99188000  0.07707000  1.0
  C  C166  1  0.23962000  0.00866000  0.57706000  1.0
  C  C167  1  0.75136000  0.00812000  0.92292000  1.0
  C  C168  1  0.81793000  0.06526000  0.44810000  1.0
  C  C169  1  0.11729000  0.06575000  0.05188000  1.0
  C  C170  1  0.18207000  0.93474000  0.55190000  1.0
  C  C171  1  0.88269000  0.93426000  0.94811000  1.0
  C  C172  1  0.79619000  0.19385000  0.43025000  1.0
  C  C173  1  0.01033000  0.19417000  0.06982000  1.0
  C  C174  1  0.20383000  0.80614000  0.56975000  1.0
  C  C175  1  0.98966000  0.80584000  0.93018000  1.0
  C  C176  1  0.71354000  0.24554000  0.38602000  1.0
  C  C177  1  0.04116000  0.24582000  0.11410000  1.0
  C  C178  1  0.28649000  0.75444000  0.61398000  1.0
  C  C179  1  0.95883000  0.75419000  0.88589000  1.0
  C  C180  1  0.65509000  0.17222000  0.36052000  1.0
  C  C181  1  0.17286000  0.17260000  0.13961000  1.0
  C  C182  1  0.34493000  0.82776000  0.63949000  1.0
  C  C183  1  0.82713000  0.82739000  0.86038000  1.0
  C  C184  1  0.85932000  0.27213000  0.45779000  1.0
  C  C185  1  0.86884000  0.27225000  0.04236000  1.0
  C  C186  1  0.14069000  0.72787000  0.54221000  1.0
  C  C187  1  0.13114000  0.72776000  0.95763000  1.0
  S  S188  1  0.28194000  0.13136000  0.45049000  1.0
  S  S189  1  0.58753000  0.13125000  0.04957000  1.0
  S  S190  1  0.71805000  0.86864000  0.54951000  1.0
  S  S191  1  0.41247000  0.86874000  0.95042000  1.0
  S  S192  1  0.61424000  0.94494000  0.34405000  1.0
  S  S193  1  0.44092000  0.94549000  0.15606000  1.0
  S  S194  1  0.38577000  0.05505000  0.65596000  1.0
  S  S195  1  0.55907000  0.05451000  0.84394000  1.0
  N  N196  1  0.45002000  0.79242000  0.42806000  1.0
  N  N197  1  0.75696000  0.79196000  0.07204000  1.0
  N  N198  1  0.54998000  0.20758000  0.57193000  1.0
  N  N199  1  0.24305000  0.20804000  0.92797000  1.0
  N  N200  1  0.26765000  0.97887000  0.33655000  1.0
  N  N201  1  0.75417000  0.97886000  0.16340000  1.0
  N  N202  1  0.73235000  0.02114000  0.66345000  1.0
  N  N203  1  0.24582000  0.02115000  0.83660000  1.0
