# generated using pymatgen
data_ZnH10C9(NO3)2
_symmetry_space_group_name_H-M   'P 1'
_cell_length_a   7.20882000
_cell_length_b   7.37383000
_cell_length_c   21.84290000
_cell_angle_alpha   89.99960000
_cell_angle_beta   89.99890000
_cell_angle_gamma   90.00000000
_symmetry_Int_Tables_number   1
_chemical_formula_structural   ZnH10C9(NO3)2
_chemical_formula_sum   'Zn4 H40 C36 N8 O24'
_cell_volume   1161.09458580
_cell_formula_units_Z   4
loop_
 _symmetry_equiv_pos_site_id
 _symmetry_equiv_pos_as_xyz
  1  'x, y, z'
loop_
 _atom_site_type_symbol
 _atom_site_label
 _atom_site_symmetry_multiplicity
 _atom_site_fract_x
 _atom_site_fract_y
 _atom_site_fract_z
 _atom_site_occupancy
  Zn  Zn0  1  0.75001000  0.92662000  0.21444000  1.0
  Zn  Zn1  1  0.25000000  0.42661000  0.28556000  1.0
  Zn  Zn2  1  0.75000000  0.57338000  0.71444000  1.0
  Zn  Zn3  1  0.25000000  0.07338000  0.78557000  1.0
  H  H4  1  0.75000000  0.29274000  0.86009000  1.0
  H  H5  1  0.25000000  0.79274000  0.63991000  1.0
  H  H6  1  0.75000000  0.20726000  0.36009000  1.0
  H  H7  1  0.25001000  0.70725000  0.13991000  1.0
  H  H8  1  0.63728000  0.20950000  0.27026000  1.0
  H  H9  1  0.36272000  0.70950000  0.22974000  1.0
  H  H10  1  0.86272000  0.29050000  0.77026000  1.0
  H  H11  1  0.13728000  0.79050000  0.72974000  1.0
  H  H12  1  0.36272000  0.79051000  0.72974000  1.0
  H  H13  1  0.63728000  0.29050000  0.77026000  1.0
  H  H14  1  0.13728000  0.70949000  0.22974000  1.0
  H  H15  1  0.86273000  0.20950000  0.27026000  1.0
  H  H16  1  0.75001000  0.93967000  0.07671000  1.0
  H  H17  1  0.25001000  0.43967000  0.42329000  1.0
  H  H18  1  0.74999000  0.56033000  0.57671000  1.0
  H  H19  1  0.24999000  0.06033000  0.92329000  1.0
  H  H20  1  0.75001000  0.72720000  0.98754000  1.0
  H  H21  1  0.25001000  0.22719000  0.51245000  1.0
  H  H22  1  0.74999000  0.77279000  0.48755000  1.0
  H  H23  1  0.24998000  0.27281000  0.01246000  1.0
  H  H24  1  0.75000000  0.28578000  0.11782000  1.0
  H  H25  1  0.24999000  0.78578000  0.38218000  1.0
  H  H26  1  0.75000000  0.21421000  0.61781000  1.0
  H  H27  1  0.24998000  0.71422000  0.88218000  1.0
  H  H28  1  0.75000000  0.51573000  0.20070000  1.0
  H  H29  1  0.24999000  0.01573000  0.29930000  1.0
  H  H30  1  0.75000000  0.98427000  0.70069000  1.0
  H  H31  1  0.24999000  0.48427000  0.79930000  1.0
  H  H32  1  0.75000000  0.20677000  0.01110000  1.0
  H  H33  1  0.25000000  0.70676000  0.48890000  1.0
  H  H34  1  0.75000000  0.29322000  0.51110000  1.0
  H  H35  1  0.25000000  0.79324000  0.98890000  1.0
  H  H36  1  0.25002000  0.35848000  0.13441000  1.0
  H  H37  1  0.75000000  0.85849000  0.36559000  1.0
  H  H38  1  0.25001000  0.14151000  0.63441000  1.0
  H  H39  1  0.74999000  0.64152000  0.86559000  1.0
  H  H40  1  0.25002000  0.12479000  0.11064000  1.0
  H  H41  1  0.74999000  0.62481000  0.38936000  1.0
  H  H42  1  0.25001000  0.37519000  0.61065000  1.0
  H  H43  1  0.74999000  0.87520000  0.88936000  1.0
  C  C44  1  0.75001000  0.79332000  0.08335000  1.0
  C  C45  1  0.25001000  0.29332000  0.41665000  1.0
  C  C46  1  0.74999000  0.70668000  0.58335000  1.0
  C  C47  1  0.24998000  0.20669000  0.91665000  1.0
  C  C48  1  0.75000000  0.67502000  0.03413000  1.0
  C  C49  1  0.25000000  0.17503000  0.46587000  1.0
  C  C50  1  0.74999000  0.82497000  0.53413000  1.0
  C  C51  1  0.24998000  0.32497000  0.96587000  1.0
  C  C52  1  0.75000000  0.48694000  0.04515000  1.0
  C  C53  1  0.25000000  0.98694000  0.45485000  1.0
  C  C54  1  0.74999000  0.01305000  0.54515000  1.0
  C  C55  1  0.24998000  0.51306000  0.95485000  1.0
  C  C56  1  0.75000000  0.42950000  0.10640000  1.0
  C  C57  1  0.24999000  0.92950000  0.39360000  1.0
  C  C58  1  0.74999000  0.07050000  0.60640000  1.0
  C  C59  1  0.24999000  0.57050000  0.89360000  1.0
  C  C60  1  0.75001000  0.55754000  0.15292000  1.0
  C  C61  1  0.25000000  0.05754000  0.34708000  1.0
  C  C62  1  0.75000000  0.94246000  0.65292000  1.0
  C  C63  1  0.24999000  0.44247000  0.84708000  1.0
  C  C64  1  0.75000000  0.35002000  0.99737000  1.0
  C  C65  1  0.25000000  0.85002000  0.50262000  1.0
  C  C66  1  0.75000000  0.14997000  0.49737000  1.0
  C  C67  1  0.24999000  0.64998000  0.00262000  1.0
  C  C68  1  0.42492000  0.18422000  0.18724000  1.0
  C  C69  1  0.57508000  0.68422000  0.31276000  1.0
  C  C70  1  0.07509000  0.31579000  0.68724000  1.0
  C  C71  1  0.92490000  0.81578000  0.81276000  1.0
  C  C72  1  0.57509000  0.81579000  0.81276000  1.0
  C  C73  1  0.42492000  0.31579000  0.68724000  1.0
  C  C74  1  0.92491000  0.68421000  0.31276000  1.0
  C  C75  1  0.07510000  0.18422000  0.18724000  1.0
  C  C76  1  0.25002000  0.21628000  0.15003000  1.0
  C  C77  1  0.74999000  0.71628000  0.34997000  1.0
  C  C78  1  0.25001000  0.28372000  0.65003000  1.0
  C  C79  1  0.74999000  0.78373000  0.84997000  1.0
  N  N80  1  0.75001000  0.73681000  0.14211000  1.0
  N  N81  1  0.25000000  0.23680000  0.35789000  1.0
  N  N82  1  0.75000000  0.76319000  0.64211000  1.0
  N  N83  1  0.24999000  0.26320000  0.85789000  1.0
  N  N84  1  0.75000000  0.39279000  0.94003000  1.0
  N  N85  1  0.25000000  0.89279000  0.55997000  1.0
  N  N86  1  0.75000000  0.10721000  0.44002000  1.0
  N  N87  1  0.25000000  0.60721000  0.05997000  1.0
  O  O88  1  0.75000000  0.24273000  0.90311000  1.0
  O  O89  1  0.25000000  0.74272000  0.59689000  1.0
  O  O90  1  0.75000000  0.25727000  0.40311000  1.0
  O  O91  1  0.25001000  0.75727000  0.09689000  1.0
  O  O92  1  0.75000000  0.14514000  0.28731000  1.0
  O  O93  1  0.25000000  0.64514000  0.21269000  1.0
  O  O94  1  0.75000000  0.35487000  0.78731000  1.0
  O  O95  1  0.25000000  0.85487000  0.71269000  1.0
  O  O96  1  0.53695000  0.06569000  0.16796000  1.0
  O  O97  1  0.46306000  0.56568000  0.33204000  1.0
  O  O98  1  0.96307000  0.43432000  0.66796000  1.0
  O  O99  1  0.03694000  0.93431000  0.83204000  1.0
  O  O100  1  0.46306000  0.93432000  0.83204000  1.0
  O  O101  1  0.53694000  0.43432000  0.66796000  1.0
  O  O102  1  0.03693000  0.56568000  0.33204000  1.0
  O  O103  1  0.96307000  0.06569000  0.16796000  1.0
  O  O104  1  0.45178000  0.27832000  0.23601000  1.0
  O  O105  1  0.54823000  0.77832000  0.26399000  1.0
  O  O106  1  0.04823000  0.22168000  0.73601000  1.0
  O  O107  1  0.95177000  0.72169000  0.76399000  1.0
  O  O108  1  0.54823000  0.72169000  0.76399000  1.0
  O  O109  1  0.45178000  0.22168000  0.73601000  1.0
  O  O110  1  0.95178000  0.77832000  0.26399000  1.0
  O  O111  1  0.04824000  0.27832000  0.23601000  1.0
