# generated using pymatgen
data_CuMo2H8C10N2O7
_symmetry_space_group_name_H-M   'P 1'
_cell_length_a   7.23319000
_cell_length_b   11.52450000
_cell_length_c   16.78120000
_cell_angle_alpha   89.55430000
_cell_angle_beta   79.74340000
_cell_angle_gamma   81.80910000
_symmetry_Int_Tables_number   1
_chemical_formula_structural   CuMo2H8C10N2O7
_chemical_formula_sum   'Cu4 Mo8 H32 C40 N8 O28'
_cell_volume   1362.24466001
_cell_formula_units_Z   4
loop_
 _symmetry_equiv_pos_site_id
 _symmetry_equiv_pos_as_xyz
  1  'x, y, z'
loop_
 _atom_site_type_symbol
 _atom_site_label
 _atom_site_symmetry_multiplicity
 _atom_site_fract_x
 _atom_site_fract_y
 _atom_site_fract_z
 _atom_site_occupancy
  Cu  Cu0  1  0.15512000  0.78632000  0.02853000  1.0
  Cu  Cu1  1  0.84488000  0.21368000  0.97148000  1.0
  Cu  Cu2  1  0.68768000  0.28414000  0.47828000  1.0
  Cu  Cu3  1  0.31232000  0.71586000  0.52172000  1.0
  Mo  Mo4  1  0.41599000  0.10904000  0.94391000  1.0
  Mo  Mo5  1  0.58401000  0.89096000  0.05609000  1.0
  Mo  Mo6  1  0.07710000  0.05092000  0.08439000  1.0
  Mo  Mo7  1  0.92289000  0.94908000  0.91561000  1.0
  Mo  Mo8  1  0.64618000  0.54210000  0.41629000  1.0
  Mo  Mo9  1  0.35382000  0.45790000  0.58371000  1.0
  Mo  Mo10  1  0.86578000  0.61171000  0.55560000  1.0
  Mo  Mo11  1  0.13422000  0.38829000  0.44440000  1.0
  H  H12  1  0.32555000  0.78987000  0.85145000  1.0
  H  H13  1  0.67444000  0.21014000  0.14855000  1.0
  H  H14  1  0.47073000  0.63176000  0.74470000  1.0
  H  H15  1  0.52927000  0.36825000  0.25530000  1.0
  H  H16  1  0.46128000  0.42234000  0.78352000  1.0
  H  H17  1  0.53872000  0.57767000  0.21647000  1.0
  H  H18  1  0.33221000  0.37587000  0.92558000  1.0
  H  H19  1  0.66779000  0.62413000  0.07442000  1.0
  H  H20  1  0.22580000  0.35175000  0.05109000  1.0
  H  H21  1  0.77419000  0.64825000  0.94891000  1.0
  H  H22  1  0.11415000  0.34605000  0.20022000  1.0
  H  H23  1  0.88584000  0.65395000  0.79978000  1.0
  H  H24  1  0.00969000  0.53569000  0.27889000  1.0
  H  H25  1  0.99031000  0.46431000  0.72111000  1.0
  H  H26  1  0.01280000  0.72533000  0.20299000  1.0
  H  H27  1  0.98720000  0.27467000  0.79701000  1.0
  H  H28  1  0.70779000  0.20175000  0.30603000  1.0
  H  H29  1  0.29222000  0.79824000  0.69397000  1.0
  H  H30  1  0.72919000  0.00181000  0.23911000  1.0
  H  H31  1  0.27082000  0.99819000  0.76089000  1.0
  H  H32  1  0.75476000  0.82430000  0.32534000  1.0
  H  H33  1  0.24524000  0.17570000  0.67466000  1.0
  H  H34  1  0.76475000  0.84801000  0.47153000  1.0
  H  H35  1  0.23525000  0.15199000  0.52848000  1.0
  H  H36  1  0.78905000  0.88735000  0.59486000  1.0
  H  H37  1  0.21096000  0.11265000  0.40514000  1.0
  H  H38  1  0.78297000  0.95290000  0.73658000  1.0
  H  H39  1  0.21704000  0.04710000  0.26342000  1.0
  H  H40  1  0.73383000  0.16777000  0.76966000  1.0
  H  H41  1  0.26618000  0.83223000  0.23034000  1.0
  H  H42  1  0.69342000  0.31077000  0.65639000  1.0
  H  H43  1  0.30658000  0.68923000  0.34361000  1.0
  C  C44  1  0.32976000  0.69669000  0.86395000  1.0
  C  C45  1  0.67024000  0.30332000  0.13605000  1.0
  C  C46  1  0.40735000  0.60948000  0.80570000  1.0
  C  C47  1  0.59264000  0.39053000  0.19430000  1.0
  C  C48  1  0.40521000  0.49271000  0.82783000  1.0
  C  C49  1  0.59478000  0.50730000  0.17217000  1.0
  C  C50  1  0.32973000  0.46641000  0.90695000  1.0
  C  C51  1  0.67026000  0.53360000  0.09305000  1.0
  C  C52  1  0.25750000  0.55773000  0.96278000  1.0
  C  C53  1  0.74250000  0.44227000  0.03722000  1.0
  C  C54  1  0.18491000  0.54166000  0.04921000  1.0
  C  C55  1  0.81508000  0.45834000  0.95079000  1.0
  C  C56  1  0.18003000  0.43291000  0.08648000  1.0
  C  C57  1  0.81997000  0.56709000  0.91352000  1.0
  C  C58  1  0.11722000  0.42984000  0.16985000  1.0
  C  C59  1  0.88278000  0.57016000  0.83015000  1.0
  C  C60  1  0.05832000  0.53487000  0.21382000  1.0
  C  C61  1  0.94168000  0.46513000  0.78618000  1.0
  C  C62  1  0.06124000  0.64022000  0.17272000  1.0
  C  C63  1  0.93875000  0.35978000  0.82728000  1.0
  C  C64  1  0.71774000  0.12060000  0.33975000  1.0
  C  C65  1  0.28226000  0.87939000  0.66025000  1.0
  C  C66  1  0.73290000  0.01061000  0.30331000  1.0
  C  C67  1  0.26710000  0.98938000  0.69668000  1.0
  C  C68  1  0.74805000  0.91160000  0.35134000  1.0
  C  C69  1  0.25196000  0.08840000  0.64866000  1.0
  C  C70  1  0.75128000  0.92466000  0.43358000  1.0
  C  C71  1  0.24872000  0.07534000  0.56642000  1.0
  C  C72  1  0.73459000  0.03747000  0.46646000  1.0
  C  C73  1  0.26541000  0.96253000  0.53354000  1.0
  C  C74  1  0.73532000  0.06414000  0.55210000  1.0
  C  C75  1  0.26469000  0.93586000  0.44790000  1.0
  C  C76  1  0.76250000  0.98024000  0.61098000  1.0
  C  C77  1  0.23751000  0.01976000  0.38902000  1.0
  C  C78  1  0.76108000  0.01713000  0.68996000  1.0
  C  C79  1  0.23893000  0.98287000  0.31004000  1.0
  C  C80  1  0.73547000  0.13681000  0.70841000  1.0
  C  C81  1  0.26454000  0.86319000  0.29159000  1.0
  C  C82  1  0.71180000  0.21610000  0.64680000  1.0
  C  C83  1  0.28821000  0.78390000  0.35320000  1.0
  N  N84  1  0.25584000  0.67081000  0.93988000  1.0
  N  N85  1  0.74415000  0.32920000  0.06012000  1.0
  N  N86  1  0.12445000  0.64282000  0.09280000  1.0
  N  N87  1  0.87555000  0.35718000  0.90720000  1.0
  N  N88  1  0.71557000  0.13294000  0.41918000  1.0
  N  N89  1  0.28443000  0.86706000  0.58082000  1.0
  N  N90  1  0.70972000  0.18004000  0.57126000  1.0
  N  N91  1  0.29028000  0.81996000  0.42874000  1.0
  O  O92  1  0.37136000  0.01964000  0.05622000  1.0
  O  O93  1  0.62864000  0.98036000  0.94378000  1.0
  O  O94  1  0.38754000  0.09454000  0.84516000  1.0
  O  O95  1  0.61246000  0.90545000  0.15484000  1.0
  O  O96  1  0.53298000  0.22924000  0.94879000  1.0
  O  O97  1  0.46702000  0.77076000  0.05121000  1.0
  O  O98  1  0.16815000  0.16584000  0.99756000  1.0
  O  O99  1  0.83185000  0.83416000  0.00244000  1.0
  O  O100  1  0.14843000  0.92434000  0.95459000  1.0
  O  O101  1  0.85156000  0.07566000  0.04541000  1.0
  O  O102  1  0.03891000  0.13494000  0.17117000  1.0
  O  O103  1  0.96109000  0.86506000  0.82883000  1.0
  O  O104  1  0.08020000  0.90227000  0.11756000  1.0
  O  O105  1  0.91980000  0.09773000  0.88244000  1.0
  O  O106  1  0.67881000  0.61977000  0.32861000  1.0
  O  O107  1  0.32119000  0.38023000  0.67139000  1.0
  O  O108  1  0.68115000  0.39042000  0.38613000  1.0
  O  O109  1  0.31885000  0.60958000  0.61386000  1.0
  O  O110  1  0.61380000  0.43142000  0.54638000  1.0
  O  O111  1  0.38620000  0.56858000  0.45361000  1.0
  O  O112  1  0.92216000  0.51566000  0.44200000  1.0
  O  O113  1  0.07784000  0.48434000  0.55800000  1.0
  O  O114  1  0.66367000  0.66294000  0.50060000  1.0
  O  O115  1  0.33632000  0.33706000  0.49940000  1.0
  O  O116  1  0.75221000  0.60775000  0.65454000  1.0
  O  O117  1  0.24778000  0.39225000  0.34546000  1.0
  O  O118  1  0.98335000  0.73327000  0.54729000  1.0
  O  O119  1  0.01665000  0.26672000  0.45271000  1.0
