# generated using pymatgen
data_SmH2C4N3O5
_symmetry_space_group_name_H-M   'P 1'
_cell_length_a   8.55463860
_cell_length_b   8.55438000
_cell_length_c   9.84038000
_cell_angle_alpha   90.01740000
_cell_angle_beta   90.00029999
_cell_angle_gamma   59.99900000
_symmetry_Int_Tables_number   1
_chemical_formula_structural   SmH2C4N3O5
_chemical_formula_sum   'Sm3 H6 C12 N9 O15'
_cell_volume   623.63187415
_cell_formula_units_Z   3
loop_
 _symmetry_equiv_pos_site_id
 _symmetry_equiv_pos_as_xyz
  1  'x, y, z'
loop_
 _atom_site_type_symbol
 _atom_site_label
 _atom_site_symmetry_multiplicity
 _atom_site_fract_x
 _atom_site_fract_y
 _atom_site_fract_z
 _atom_site_occupancy
  Sm  Sm0  1  0.99994000  0.21779000  0.33333333  1.0
  Sm  Sm1  1  0.21774000  0.78220000  0.66666667  1.0
  Sm  Sm2  1  0.78226000  1.00000000  1.00000000  1.0
  H  H3  1  0.63808000  0.26955000  0.20597000  1.0
  H  H4  1  0.26951000  0.09240000  0.53933000  1.0
  H  H5  1  0.09251000  0.63807000  0.87262000  1.0
  H  H6  1  0.36191000  0.90760000  0.46067000  1.0
  H  H7  1  0.73058000  0.36194000  0.12738000  1.0
  H  H8  1  0.90763000  0.73046000  0.79403000  1.0
  C  C9  1  0.30461000  0.03627000  0.06625000  1.0
  C  C10  1  0.03615000  0.65928000  0.39943000  1.0
  C  C11  1  0.65925000  0.30443000  0.73304000  1.0
  C  C12  1  0.69544000  0.34071000  0.60057000  1.0
  C  C13  1  0.96368000  0.69556000  0.26696000  1.0
  C  C14  1  0.34088000  0.96374000  0.93375000  1.0
  C  C15  1  0.39198000  0.09402000  0.17083000  1.0
  C  C16  1  0.09391000  0.51417000  0.50384000  1.0
  C  C17  1  0.51406000  0.39185000  0.83750000  1.0
  C  C18  1  0.60807000  0.48583000  0.49617000  1.0
  C  C19  1  0.90591000  0.60815000  0.16250000  1.0
  C  C20  1  0.48599000  0.90599000  0.82918000  1.0
  N  N21  1  0.14266000  0.05588000  0.10249000  1.0
  N  N22  1  0.05583000  0.80158000  0.43573000  1.0
  N  N23  1  0.80160000  0.14248000  0.76922000  1.0
  N  N24  1  0.85742000  0.19841000  0.56428000  1.0
  N  N25  1  0.94408000  0.85752000  0.23078000  1.0
  N  N26  1  0.19854000  0.94412000  0.89752000  1.0
  N  N27  1  0.08178000  1.00000000  1.00000000  1.0
  N  N28  1  0.99997000  0.91836000  0.33333333  1.0
  N  N29  1  0.91833000  0.08163000  0.66671000  1.0
  O  O30  1  0.75312000  0.24695000  0.16670000  1.0
  O  O31  1  0.24688000  1.00000000  0.50000000  1.0
  O  O32  1  0.00007000  0.75305000  0.83330000  1.0
  O  O33  1  0.54826000  0.07262000  0.15229000  1.0
  O  O34  1  0.07238000  0.37936000  0.48532000  1.0
  O  O35  1  0.37917000  0.54812000  0.81891000  1.0
  O  O36  1  0.45174000  0.62064000  0.51468000  1.0
  O  O37  1  0.92729000  0.45188000  0.18110000  1.0
  O  O38  1  0.62088000  0.92738000  0.84771000  1.0
  O  O39  1  0.30107000  0.16293000  0.27835000  1.0
  O  O40  1  0.16296000  0.53603000  0.61133000  1.0
  O  O41  1  0.53593000  0.30104000  0.94504000  1.0
  O  O42  1  0.69899000  0.46397000  0.38868000  1.0
  O  O43  1  0.83696000  0.69897000  0.05496000  1.0
  O  O44  1  0.46401000  0.83707000  0.72166000  1.0
