# generated using pymatgen
data_CdH14C14(N2Cl)2
_symmetry_space_group_name_H-M   'P 1'
_cell_length_a   8.57714000
_cell_length_b   8.96744000
_cell_length_c   10.82220000
_cell_angle_alpha   75.04750000
_cell_angle_beta   75.19910000
_cell_angle_gamma   88.09910000
_symmetry_Int_Tables_number   1
_chemical_formula_structural   CdH14C14(N2Cl)2
_chemical_formula_sum   'Cd2 H28 C28 N8 Cl4'
_cell_volume   777.04289001
_cell_formula_units_Z   2
loop_
 _symmetry_equiv_pos_site_id
 _symmetry_equiv_pos_as_xyz
  1  'x, y, z'
loop_
 _atom_site_type_symbol
 _atom_site_label
 _atom_site_symmetry_multiplicity
 _atom_site_fract_x
 _atom_site_fract_y
 _atom_site_fract_z
 _atom_site_occupancy
  Cd  Cd0  1  0.03362000  0.02219000  0.17413000  1.0
  Cd  Cd1  1  0.96638000  0.97781000  0.82587000  1.0
  H  H2  1  0.79935000  0.85807000  0.47649000  1.0
  H  H3  1  0.20065000  0.14193000  0.52351000  1.0
  H  H4  1  0.69939000  0.55098000  0.57277000  1.0
  H  H5  1  0.30061000  0.44902000  0.42723000  1.0
  H  H6  1  0.85656000  0.42095000  0.36919000  1.0
  H  H7  1  0.14344000  0.57905000  0.63081000  1.0
  H  H8  1  0.06605000  0.74635000  0.08239000  1.0
  H  H9  1  0.93395000  0.25365000  0.91762000  1.0
  H  H10  1  0.98689000  0.55519000  0.11896000  1.0
  H  H11  1  0.01311000  0.44481000  0.88103000  1.0
  H  H12  1  0.30480000  0.76961000  0.20380000  1.0
  H  H13  1  0.69520000  0.23039000  0.79620000  1.0
  H  H14  1  0.56885000  0.65911000  0.22137000  1.0
  H  H15  1  0.43115000  0.34089000  0.77863000  1.0
  H  H16  1  0.63196000  0.39602000  0.18886000  1.0
  H  H17  1  0.36804000  0.60398000  0.81114000  1.0
  H  H18  1  0.16255000  0.35607000  0.12356000  1.0
  H  H19  1  0.83745000  0.64393000  0.87644000  1.0
  H  H20  1  0.38451000  0.18180000  0.05453000  1.0
  H  H21  1  0.61549000  0.81820000  0.94548000  1.0
  H  H22  1  0.57183000  0.19203000  0.09363000  1.0
  H  H23  1  0.42817000  0.80797000  0.90637000  1.0
  H  H24  1  0.60841000  0.03548000  0.30575000  1.0
  H  H25  1  0.39159000  0.96452000  0.69425000  1.0
  H  H26  1  0.41667000  0.81505000  0.51520000  1.0
  H  H27  1  0.58333000  0.18495000  0.48480000  1.0
  H  H28  1  0.11918000  0.84224000  0.46209000  1.0
  H  H29  1  0.88082000  0.15775000  0.53791000  1.0
  C  C30  1  0.83147000  0.76285000  0.43085000  1.0
  C  C31  1  0.16852000  0.23715000  0.56915000  1.0
  C  C32  1  0.78074000  0.60680000  0.47851000  1.0
  C  C33  1  0.21926000  0.39320000  0.52149000  1.0
  C  C34  1  0.85821000  0.53853000  0.37866000  1.0
  C  C35  1  0.14179000  0.46147000  0.62134000  1.0
  C  C36  1  0.05234000  0.63251000  0.15355000  1.0
  C  C37  1  0.94766000  0.36748000  0.84644000  1.0
  C  C38  1  0.21474000  0.56809000  0.16498000  1.0
  C  C39  1  0.78526000  0.43191000  0.83502000  1.0
  C  C40  1  0.33031000  0.65370000  0.19153000  1.0
  C  C41  1  0.66969000  0.34630000  0.80847000  1.0
  C  C42  1  0.47930000  0.59142000  0.20131000  1.0
  C  C43  1  0.52070000  0.40858000  0.79869000  1.0
  C  C44  1  0.51473000  0.44410000  0.18322000  1.0
  C  C45  1  0.48527000  0.55590000  0.81678000  1.0
  C  C46  1  0.40139000  0.35816000  0.15488000  1.0
  C  C47  1  0.59861000  0.64184000  0.84513000  1.0
  C  C48  1  0.25205000  0.42132000  0.14611000  1.0
  C  C49  1  0.74795000  0.57868000  0.85389000  1.0
  C  C50  1  0.44118000  0.20148000  0.12940000  1.0
  C  C51  1  0.55882000  0.79852000  0.87060000  1.0
  C  C52  1  0.48180000  0.00168000  0.32839000  1.0
  C  C53  1  0.51820000  0.99831000  0.67162000  1.0
  C  C54  1  0.38320000  0.89305000  0.43225000  1.0
  C  C55  1  0.61679000  0.10694000  0.56775000  1.0
  C  C56  1  0.23071000  0.90662000  0.40625000  1.0
  C  C57  1  0.76929000  0.09338000  0.59376000  1.0
  N  N58  1  0.93375000  0.78835000  0.30960000  1.0
  N  N59  1  0.06625000  0.21165000  0.69040000  1.0
  N  N60  1  0.94809000  0.65052000  0.27875000  1.0
  N  N61  1  0.05192000  0.34948000  0.72125000  1.0
  N  N62  1  0.38954000  0.07265000  0.24735000  1.0
  N  N63  1  0.61046000  0.92735000  0.75265000  1.0
  N  N64  1  0.23459000  0.01615000  0.29334000  1.0
  N  N65  1  0.76541000  0.98385000  0.70666000  1.0
  Cl  Cl66  1  0.78479000  0.95154000  0.04836000  1.0
  Cl  Cl67  1  0.21521000  0.04846000  0.95164000  1.0
  Cl  Cl68  1  0.86323000  0.23127000  0.23054000  1.0
  Cl  Cl69  1  0.13677000  0.76873000  0.76946000  1.0
