# generated using pymatgen
data_MnH8C2(N5O2)2
_symmetry_space_group_name_H-M   'P 1'
_cell_length_a   6.06251871
_cell_length_b   6.20635000
_cell_length_c   7.25571000
_cell_angle_alpha   107.88840000
_cell_angle_beta   97.18360050
_cell_angle_gamma   64.15128202
_symmetry_Int_Tables_number   1
_chemical_formula_structural   MnH8C2(N5O2)2
_chemical_formula_sum   'Mn1 H8 C2 N10 O4'
_cell_volume   233.79963435
_cell_formula_units_Z   1
loop_
 _symmetry_equiv_pos_site_id
 _symmetry_equiv_pos_as_xyz
  1  'x, y, z'
loop_
 _atom_site_type_symbol
 _atom_site_label
 _atom_site_symmetry_multiplicity
 _atom_site_fract_x
 _atom_site_fract_y
 _atom_site_fract_z
 _atom_site_occupancy
  Mn  Mn0  1  0.50000000  0.99999000  0.49999000  1.0
  H  H1  1  0.74640000  0.46640000  0.46772000  1.0
  H  H2  1  0.25353000  0.53362000  0.53229000  1.0
  H  H3  1  0.73918000  0.62742000  0.69125000  1.0
  H  H4  1  0.26083000  0.37258000  0.30874000  1.0
  H  H5  1  0.08329000  0.97596000  0.33744000  1.0
  H  H6  1  0.91671000  0.02404000  0.66255000  1.0
  H  H7  1  0.33514000  0.72962000  0.25680000  1.0
  H  H8  1  0.66487000  0.27035000  0.74318000  1.0
  C  C9  1  0.64015000  0.70451000  0.08053000  1.0
  C  C10  1  0.35986000  0.29549000  0.91947000  1.0
  N  N11  1  0.66761000  0.87192000  0.24426000  1.0
  N  N12  1  0.33239000  0.12807000  0.75574000  1.0
  N  N13  1  0.81160000  0.96156000  0.19245000  1.0
  N  N14  1  0.18840000  0.03844000  0.80755000  1.0
  N  N15  1  0.86553000  0.85468000  0.00733000  1.0
  N  N16  1  0.13446000  0.14532000  0.99266000  1.0
  N  N17  1  0.76218000  0.69457000  0.93251000  1.0
  N  N18  1  0.23782000  0.30542000  0.06749000  1.0
  N  N19  1  0.50717000  0.57835000  0.08330000  1.0
  N  N20  1  0.49285000  0.42164000  0.91669000  1.0
  O  O21  1  0.71587000  0.63298000  0.55156000  1.0
  O  O22  1  0.28418000  0.36702000  0.44843000  1.0
  O  O23  1  0.24900000  0.87537000  0.38193000  1.0
  O  O24  1  0.75099000  0.12467000  0.61812000  1.0
