# generated using pymatgen
data_LuH10(C3O4)2
_symmetry_space_group_name_H-M   'P 1'
_cell_length_a   5.14246000
_cell_length_b   8.79972000
_cell_length_c   25.91830000
_cell_angle_alpha   89.99720000
_cell_angle_beta   89.99890000
_cell_angle_gamma   84.31790000
_symmetry_Int_Tables_number   1
_chemical_formula_structural   LuH10(C3O4)2
_chemical_formula_sum   'Lu4 H40 C24 O32'
_cell_volume   1167.09751383
_cell_formula_units_Z   4
loop_
 _symmetry_equiv_pos_site_id
 _symmetry_equiv_pos_as_xyz
  1  'x, y, z'
loop_
 _atom_site_type_symbol
 _atom_site_label
 _atom_site_symmetry_multiplicity
 _atom_site_fract_x
 _atom_site_fract_y
 _atom_site_fract_z
 _atom_site_occupancy
  Lu  Lu0  1  0.40559000  0.47755000  0.33974000  1.0
  Lu  Lu1  1  0.59439000  0.02241000  0.83975000  1.0
  Lu  Lu2  1  0.59444000  0.52246000  0.66026000  1.0
  Lu  Lu3  1  0.40558000  0.97758000  0.16026000  1.0
  H  H4  1  0.02814000  0.89335000  0.36240000  1.0
  H  H5  1  0.09455000  0.85976000  0.29721000  1.0
  H  H6  1  0.56118000  0.99538000  0.34073000  1.0
  H  H7  1  0.79401000  0.10146000  0.31193000  1.0
  H  H8  1  0.26074000  0.54807000  0.52006000  1.0
  H  H9  1  0.02157000  0.67026000  0.48802000  1.0
  H  H10  1  0.62500000  0.27133000  0.41424000  1.0
  H  H11  1  0.88761000  0.33713000  0.39631000  1.0
  H  H12  1  0.01974000  0.31884000  0.29272000  1.0
  H  H13  1  0.26837000  0.19368000  0.28567000  1.0
  H  H14  1  0.97181000  0.60661000  0.86240000  1.0
  H  H15  1  0.90543000  0.64022000  0.79721000  1.0
  H  H16  1  0.43877000  0.50459000  0.84073000  1.0
  H  H17  1  0.20596000  0.39851000  0.81193000  1.0
  H  H18  1  0.73927000  0.95193000  0.02007000  1.0
  H  H19  1  0.97846000  0.82974000  0.98804000  1.0
  H  H20  1  0.37497000  0.22865000  0.91424000  1.0
  H  H21  1  0.11236000  0.16284000  0.89632000  1.0
  H  H22  1  0.98025000  0.18114000  0.79273000  1.0
  H  H23  1  0.73162000  0.30630000  0.78567000  1.0
  H  H24  1  0.97189000  0.10664000  0.63760000  1.0
  H  H25  1  0.90549000  0.14021000  0.70279000  1.0
  H  H26  1  0.43888000  0.00464000  0.65927000  1.0
  H  H27  1  0.20605000  0.89853000  0.68806000  1.0
  H  H28  1  0.73926000  0.45198000  0.47993000  1.0
  H  H29  1  0.97845000  0.32978000  0.51197000  1.0
  H  H30  1  0.37503000  0.72867000  0.58576000  1.0
  H  H31  1  0.11240000  0.66288000  0.60368000  1.0
  H  H32  1  0.98028000  0.68116000  0.70728000  1.0
  H  H33  1  0.73164000  0.80632000  0.71433000  1.0
  H  H34  1  0.02812000  0.39339000  0.13759000  1.0
  H  H35  1  0.09455000  0.35979000  0.20278000  1.0
  H  H36  1  0.56118000  0.49542000  0.15927000  1.0
  H  H37  1  0.79402000  0.60149000  0.18807000  1.0
  H  H38  1  0.26071000  0.04805000  0.97993000  1.0
  H  H39  1  0.02150000  0.17024000  0.01197000  1.0
  H  H40  1  0.62501000  0.77135000  0.08576000  1.0
  H  H41  1  0.88762000  0.83715000  0.10369000  1.0
  H  H42  1  0.01973000  0.81886000  0.20728000  1.0
  H  H43  1  0.26838000  0.69369000  0.21433000  1.0
  C  C44  1  0.84599000  0.70846000  0.33137000  1.0
  C  C45  1  0.93578000  0.86598000  0.32565000  1.0
  C  C46  1  0.71861000  0.98872000  0.31193000  1.0
  C  C47  1  0.59508000  0.97074000  0.25998000  1.0
  C  C48  1  0.23241000  0.50628000  0.44043000  1.0
  C  C49  1  0.10319000  0.55037000  0.49131000  1.0
  C  C50  1  0.15399000  0.79152000  0.83138000  1.0
  C  C51  1  0.06418000  0.63400000  0.82566000  1.0
  C  C52  1  0.28134000  0.51126000  0.81193000  1.0
  C  C53  1  0.40491000  0.52926000  0.75998000  1.0
  C  C54  1  0.76759000  0.99370000  0.94044000  1.0
  C  C55  1  0.89682000  0.94963000  0.99132000  1.0
  C  C56  1  0.15403000  0.29154000  0.66863000  1.0
  C  C57  1  0.06425000  0.13401000  0.67435000  1.0
  C  C58  1  0.28142000  0.01128000  0.68807000  1.0
  C  C59  1  0.40493000  0.02925000  0.74002000  1.0
  C  C60  1  0.76762000  0.49375000  0.55957000  1.0
  C  C61  1  0.89683000  0.44967000  0.50869000  1.0
  C  C62  1  0.84599000  0.20848000  0.16863000  1.0
  C  C63  1  0.93578000  0.36600000  0.17434000  1.0
  C  C64  1  0.71863000  0.48874000  0.18806000  1.0
  C  C65  1  0.59510000  0.47074000  0.24001000  1.0
  C  C66  1  0.23238000  0.00629000  0.05957000  1.0
  C  C67  1  0.10314000  0.05036000  0.00869000  1.0
  O  O68  1  0.60373000  0.69279000  0.33063000  1.0
  O  O69  1  0.01926000  0.59593000  0.33719000  1.0
  O  O70  1  0.37469000  0.04579000  0.24994000  1.0
  O  O71  1  0.70696000  0.88709000  0.22428000  1.0
  O  O72  1  0.18167000  0.38534000  0.41558000  1.0
  O  O73  1  0.39653000  0.59057000  0.42208000  1.0
  O  O74  1  0.71084000  0.31145000  0.38445000  1.0
  O  O75  1  0.19483000  0.28316000  0.30706000  1.0
  O  O76  1  0.39624000  0.80719000  0.83064000  1.0
  O  O77  1  0.98072000  0.90404000  0.83720000  1.0
  O  O78  1  0.62530000  0.45421000  0.74994000  1.0
  O  O79  1  0.29305000  0.61291000  0.72428000  1.0
  O  O80  1  0.81831000  0.11463000  0.91558000  1.0
  O  O81  1  0.60348000  0.90940000  0.92209000  1.0
  O  O82  1  0.28914000  0.18851000  0.88445000  1.0
  O  O83  1  0.80515000  0.21683000  0.80707000  1.0
  O  O84  1  0.39628000  0.30722000  0.66937000  1.0
  O  O85  1  0.98074000  0.40406000  0.66281000  1.0
  O  O86  1  0.62532000  0.95420000  0.75007000  1.0
  O  O87  1  0.29304000  0.11289000  0.77572000  1.0
  O  O88  1  0.81836000  0.61468000  0.58442000  1.0
  O  O89  1  0.60349000  0.40945000  0.57792000  1.0
  O  O90  1  0.28918000  0.68855000  0.61555000  1.0
  O  O91  1  0.80519000  0.71684000  0.69294000  1.0
  O  O92  1  0.60374000  0.19280000  0.16936000  1.0
  O  O93  1  0.01926000  0.09596000  0.16281000  1.0
  O  O94  1  0.37470000  0.54579000  0.25005000  1.0
  O  O95  1  0.70695000  0.38709000  0.27571000  1.0
  O  O96  1  0.18167000  0.88536000  0.08442000  1.0
  O  O97  1  0.39649000  0.09059000  0.07791000  1.0
  O  O98  1  0.71083000  0.81149000  0.11555000  1.0
  O  O99  1  0.19483000  0.78317000  0.19293000  1.0
