# generated using pymatgen
data_Zn2H11C15N2O9
_symmetry_space_group_name_H-M   'P 1'
_cell_length_a   8.68855000
_cell_length_b   9.48562000
_cell_length_c   11.11340000
_cell_angle_alpha   79.06390000
_cell_angle_beta   77.13930000
_cell_angle_gamma   69.14480000
_symmetry_Int_Tables_number   1
_chemical_formula_structural   Zn2H11C15N2O9
_chemical_formula_sum   'Zn4 H22 C30 N4 O18'
_cell_volume   828.28750640
_cell_formula_units_Z   2
loop_
 _symmetry_equiv_pos_site_id
 _symmetry_equiv_pos_as_xyz
  1  'x, y, z'
loop_
 _atom_site_type_symbol
 _atom_site_label
 _atom_site_symmetry_multiplicity
 _atom_site_fract_x
 _atom_site_fract_y
 _atom_site_fract_z
 _atom_site_occupancy
  Zn  Zn0  1  0.89433000  0.36043000  0.65863000  1.0
  Zn  Zn1  1  0.10566000  0.63957000  0.34137000  1.0
  Zn  Zn2  1  0.55607000  0.22765000  0.00799000  1.0
  Zn  Zn3  1  0.44394000  0.77234000  0.99201000  1.0
  H  H4  1  0.84803000  0.99540000  0.98108000  1.0
  H  H5  1  0.15196000  0.00459000  0.01891000  1.0
  H  H6  1  0.78836000  0.98780000  0.12597000  1.0
  H  H7  1  0.21165000  0.01220000  0.87402000  1.0
  H  H8  1  0.36454000  0.20940000  0.21331000  1.0
  H  H9  1  0.63546000  0.79060000  0.78669000  1.0
  H  H10  1  0.40795000  0.36700000  0.62543000  1.0
  H  H11  1  0.59204000  0.63300000  0.37457000  1.0
  H  H12  1  0.59219000  0.12663000  0.30402000  1.0
  H  H13  1  0.40781000  0.87337000  0.69598000  1.0
  H  H14  1  0.85658000  0.97361000  0.61307000  1.0
  H  H15  1  0.14343000  0.02641000  0.38692000  1.0
  H  H16  1  0.00435000  0.62779000  0.62888000  1.0
  H  H17  1  0.99564000  0.37222000  0.37113000  1.0
  H  H18  1  0.18800000  0.70695000  0.72720000  1.0
  H  H19  1  0.81200000  0.29305000  0.27281000  1.0
  H  H20  1  0.21520000  0.31302000  0.00201000  1.0
  H  H21  1  0.78481000  0.68697000  0.99799000  1.0
  H  H22  1  0.02800000  0.25292000  0.89453000  1.0
  H  H23  1  0.97199000  0.74707000  0.10547000  1.0
  H  H24  1  0.41933000  0.04547000  0.15452000  1.0
  H  H25  1  0.58067000  0.95452000  0.84548000  1.0
  C  C26  1  0.63495000  0.17324000  0.63247000  1.0
  C  C27  1  0.36504000  0.82677000  0.36753000  1.0
  C  C28  1  0.49985000  0.27383000  0.57772000  1.0
  C  C29  1  0.50014000  0.72617000  0.42228000  1.0
  C  C30  1  0.48343000  0.25664000  0.45951000  1.0
  C  C31  1  0.51657000  0.74337000  0.54049000  1.0
  C  C32  1  0.60181000  0.13844000  0.39724000  1.0
  C  C33  1  0.39819000  0.86157000  0.60275000  1.0
  C  C34  1  0.73528000  0.03632000  0.45220000  1.0
  C  C35  1  0.26472000  0.96369000  0.54780000  1.0
  C  C36  1  0.75208000  0.05364000  0.57065000  1.0
  C  C37  1  0.24793000  0.94637000  0.42935000  1.0
  C  C38  1  0.64612000  0.19549000  0.75966000  1.0
  C  C39  1  0.35387000  0.80451000  0.24033000  1.0
  C  C40  1  0.34436000  0.36629000  0.39658000  1.0
  C  C41  1  0.65563000  0.63371000  0.60343000  1.0
  C  C42  1  0.85977000  0.91188000  0.38132000  1.0
  C  C43  1  0.14024000  0.08813000  0.61867000  1.0
  C  C44  1  0.05565000  0.56038000  0.71030000  1.0
  C  C45  1  0.94434000  0.43962000  0.28970000  1.0
  C  C46  1  0.15733000  0.60389000  0.76514000  1.0
  C  C47  1  0.84267000  0.39611000  0.23486000  1.0
  C  C48  1  0.22229000  0.51327000  0.86955000  1.0
  C  C49  1  0.77772000  0.48672000  0.13045000  1.0
  C  C50  1  0.17491000  0.38482000  0.91834000  1.0
  C  C51  1  0.82509000  0.61517000  0.08166000  1.0
  C  C52  1  0.07014000  0.35017000  0.85929000  1.0
  C  C53  1  0.92986000  0.64982000  0.14071000  1.0
  C  C54  1  0.32904000  0.56638000  0.92520000  1.0
  C  C55  1  0.67096000  0.43361000  0.07480000  1.0
  N  N56  1  0.45417000  0.46603000  0.97827000  1.0
  N  N57  1  0.54583000  0.53395000  0.02173000  1.0
  N  N58  1  0.01455000  0.43367000  0.75580000  1.0
  N  N59  1  0.98544000  0.56634000  0.24420000  1.0
  O  O60  1  0.74246000  0.25977000  0.77855000  1.0
  O  O61  1  0.25755000  0.74022000  0.22146000  1.0
  O  O62  1  0.54904000  0.14885000  0.85056000  1.0
  O  O63  1  0.45096000  0.85114000  0.14943000  1.0
  O  O64  1  0.25549000  0.48713000  0.44903000  1.0
  O  O65  1  0.74448000  0.51286000  0.55098000  1.0
  O  O66  1  0.32056000  0.34146000  0.29612000  1.0
  O  O67  1  0.67944000  0.65854000  0.70388000  1.0
  O  O68  1  0.94967000  0.79642000  0.44667000  1.0
  O  O69  1  0.05034000  0.20359000  0.55333000  1.0
  O  O70  1  0.87320000  0.92385000  0.26506000  1.0
  O  O71  1  0.12682000  0.07616000  0.73493000  1.0
  O  O72  1  0.29327000  0.71151000  0.91477000  1.0
  O  O73  1  0.70674000  0.28848000  0.08523000  1.0
  O  O74  1  0.75099000  0.99787000  0.04538000  1.0
  O  O75  1  0.24902000  0.00212000  0.95462000  1.0
  O  O76  1  0.38600000  0.15755000  0.13668000  1.0
  O  O77  1  0.61401000  0.84244000  0.86332000  1.0
