# generated using pymatgen
data_Al2H15C22Cl3O10
_symmetry_space_group_name_H-M   'P 1'
_cell_length_a   6.73534000
_cell_length_b   17.92940000
_cell_length_c   20.78910000
_cell_angle_alpha   72.42230000
_cell_angle_beta   89.99840000
_cell_angle_gamma   89.99950000
_symmetry_Int_Tables_number   1
_chemical_formula_structural   Al2H15C22Cl3O10
_chemical_formula_sum   'Al4 H30 C44 Cl6 O20'
_cell_volume   2393.28453013
_cell_formula_units_Z   2
loop_
 _symmetry_equiv_pos_site_id
 _symmetry_equiv_pos_as_xyz
  1  'x, y, z'
loop_
 _atom_site_type_symbol
 _atom_site_label
 _atom_site_symmetry_multiplicity
 _atom_site_fract_x
 _atom_site_fract_y
 _atom_site_fract_z
 _atom_site_occupancy
  Al  Al0  1  0.09961000  0.50015000  0.49892000  1.0
  Al  Al1  1  0.59961000  0.49985000  0.50108000  1.0
  Al  Al2  1  0.65900000  0.99988000  0.00095000  1.0
  Al  Al3  1  0.15900000  0.00013000  0.99905000  1.0
  H  H4  1  0.83061000  0.11200000  0.29726000  1.0
  H  H5  1  0.33061000  0.88800000  0.70274000  1.0
  H  H6  1  0.19960000  0.24572000  0.20083000  1.0
  H  H7  1  0.69959000  0.75429000  0.79915000  1.0
  H  H8  1  0.15698000  0.15649000  0.26422000  1.0
  H  H9  1  0.65699000  0.84351000  0.73577000  1.0
  H  H10  1  0.11004000  0.22047000  0.34465000  1.0
  H  H11  1  0.61002000  0.77953000  0.65534000  1.0
  H  H12  1  0.65969000  0.28313000  0.15408000  1.0
  H  H13  1  0.15971000  0.71687000  0.84593000  1.0
  H  H14  1  0.66157000  0.36689000  0.22070000  1.0
  H  H15  1  0.16156000  0.63311000  0.77931000  1.0
  H  H16  1  0.56751000  0.24486000  0.30176000  1.0
  H  H17  1  0.06749000  0.75514000  0.69825000  1.0
  H  H18  1  0.91675000  0.38797000  0.20382000  1.0
  H  H19  1  0.41674000  0.61203000  0.79618000  1.0
  H  H20  1  0.39987000  0.15886000  0.40337000  1.0
  H  H21  1  0.51494000  0.07866000  0.38495000  1.0
  H  H22  1  0.54101000  0.09066000  0.46639000  1.0
  H  H23  1  0.85305000  0.13594000  0.40129000  1.0
  H  H24  1  0.72949000  0.21471000  0.41832000  1.0
  H  H25  1  0.89984000  0.84113000  0.59665000  1.0
  H  H26  1  0.01487000  0.92132000  0.61506000  1.0
  H  H27  1  0.04097000  0.90933000  0.53362000  1.0
  H  H28  1  0.35301000  0.86407000  0.59870000  1.0
  H  H29  1  0.22947000  0.78528000  0.58168000  1.0
  H  H30  1  0.35071000  0.40209000  0.50093000  1.0
  H  H31  1  0.85071000  0.59791000  0.49907000  1.0
  H  H32  1  0.40784000  0.09745000  0.00045000  1.0
  H  H33  1  0.90784000  0.90255000  0.99955000  1.0
  C  C34  1  0.34717000  0.57811000  0.57617000  1.0
  C  C35  1  0.84718000  0.42188000  0.42384000  1.0
  C  C36  1  0.35168000  0.60689000  0.39623000  1.0
  C  C37  1  0.85168000  0.39311000  0.60377000  1.0
  C  C38  1  0.85791000  0.33211000  0.66754000  1.0
  C  C39  1  0.35791000  0.66789000  0.33246000  1.0
  C  C40  1  0.87217000  0.27969000  0.72096000  1.0
  C  C41  1  0.37218000  0.72030000  0.27904000  1.0
  C  C42  1  0.88724000  0.22174000  0.77986000  1.0
  C  C43  1  0.38724000  0.77827000  0.22014000  1.0
  C  C44  1  0.90120000  0.16912000  0.83315000  1.0
  C  C45  1  0.40118000  0.83089000  0.16684000  1.0
  C  C46  1  0.75577000  0.16626000  0.26853000  1.0
  C  C47  1  0.25577000  0.83374000  0.73148000  1.0
  C  C48  1  0.09653000  0.21514000  0.24081000  1.0
  C  C49  1  0.59653000  0.78486000  0.75917000  1.0
  C  C50  1  0.07612000  0.25865000  0.29381000  1.0
  C  C51  1  0.57610000  0.74135000  0.70617000  1.0
  C  C52  1  0.84428000  0.37657000  0.37720000  1.0
  C  C53  1  0.34425000  0.62342000  0.62281000  1.0
  C  C54  1  0.89408000  0.20763000  0.20855000  1.0
  C  C55  1  0.39408000  0.79238000  0.79145000  1.0
  C  C56  1  0.71572000  0.21872000  0.31397000  1.0
  C  C57  1  0.21570000  0.78128000  0.68603000  1.0
  C  C58  1  0.86184000  0.29028000  0.29319000  1.0
  C  C59  1  0.36182000  0.70972000  0.70682000  1.0
  C  C60  1  0.80833000  0.34044000  0.22052000  1.0
  C  C61  1  0.30832000  0.65956000  0.77948000  1.0
  C  C62  1  0.80918000  0.28999000  0.17233000  1.0
  C  C63  1  0.30918000  0.71001000  0.82768000  1.0
  C  C64  1  0.84558000  0.33723000  0.33882000  1.0
  C  C65  1  0.34556000  0.66276000  0.66119000  1.0
  C  C66  1  0.91085000  0.16135000  0.16231000  1.0
  C  C67  1  0.41086000  0.83866000  0.83768000  1.0
  C  C68  1  0.91352000  0.12195000  0.12404000  1.0
  C  C69  1  0.41354000  0.87805000  0.87596000  1.0
  C  C70  1  0.40721000  0.89239000  0.10326000  1.0
  C  C71  1  0.90723000  0.10762000  0.89673000  1.0
  C  C72  1  0.41120000  0.92282000  0.92306000  1.0
  C  C73  1  0.91117000  0.07719000  0.07693000  1.0
  C  C74  1  0.71869000  0.17272000  0.38932000  1.0
  C  C75  1  0.53383000  0.12202000  0.41217000  1.0
  C  C76  1  0.21866000  0.82728000  0.61069000  1.0
  C  C77  1  0.03379000  0.87797000  0.58783000  1.0
  Cl  Cl78  1  0.53031000  0.13377000  0.23956000  1.0
  Cl  Cl79  1  0.03031000  0.86624000  0.76045000  1.0
  Cl  Cl80  1  0.25596000  0.33653000  0.27988000  1.0
  Cl  Cl81  1  0.75594000  0.66347000  0.72010000  1.0
  Cl  Cl82  1  0.95008000  0.33686000  0.09757000  1.0
  Cl  Cl83  1  0.45010000  0.66315000  0.90242000  1.0
  O  O84  1  0.51991000  0.58357000  0.42260000  1.0
  O  O85  1  0.01991000  0.41643000  0.57740000  1.0
  O  O86  1  0.17921000  0.56126000  0.55610000  1.0
  O  O87  1  0.67923000  0.43873000  0.44391000  1.0
  O  O88  1  0.18070000  0.58347000  0.41999000  1.0
  O  O89  1  0.68072000  0.41653000  0.58002000  1.0
  O  O90  1  0.01757000  0.43975000  0.44135000  1.0
  O  O91  1  0.51756000  0.56025000  0.55865000  1.0
  O  O92  1  0.34962000  0.45400000  0.50609000  1.0
  O  O93  1  0.84961000  0.54600000  0.49392000  1.0
  O  O94  1  0.24098000  0.94040000  0.94094000  1.0
  O  O95  1  0.74096000  0.05960000  0.05906000  1.0
  O  O96  1  0.57807000  0.91595000  0.07960000  1.0
  O  O97  1  0.07811000  0.08406000  0.92039000  1.0
  O  O98  1  0.57926000  0.93974000  0.94297000  1.0
  O  O99  1  0.07924000  0.06027000  0.05701000  1.0
  O  O100  1  0.73882000  0.08412000  0.92276000  1.0
  O  O101  1  0.23879000  0.91589000  0.07724000  1.0
  O  O102  1  0.40897000  0.04596000  0.99435000  1.0
  O  O103  1  0.90897000  0.95405000  0.00564000  1.0
