# generated using pymatgen
data_H10PbC12Br2N4O
_symmetry_space_group_name_H-M   'P 1'
_cell_length_a   7.37600000
_cell_length_b   10.26300000
_cell_length_c   10.82450000
_cell_angle_alpha   92.06540000
_cell_angle_beta   100.97800000
_cell_angle_gamma   103.60200000
_symmetry_Int_Tables_number   1
_chemical_formula_structural   H10PbC12Br2N4O
_chemical_formula_sum   'H20 Pb2 C24 Br4 N8 O2'
_cell_volume   779.04666962
_cell_formula_units_Z   2
loop_
 _symmetry_equiv_pos_site_id
 _symmetry_equiv_pos_as_xyz
  1  'x, y, z'
loop_
 _atom_site_type_symbol
 _atom_site_label
 _atom_site_symmetry_multiplicity
 _atom_site_fract_x
 _atom_site_fract_y
 _atom_site_fract_z
 _atom_site_occupancy
  H  H0  1  0.17347000  0.60716000  0.05947000  1.0
  H  H1  1  0.82652000  0.39284000  0.94051000  1.0
  H  H2  1  0.39668000  0.80145000  0.19891000  1.0
  H  H3  1  0.60331000  0.19853000  0.80110000  1.0
  H  H4  1  0.73637000  0.82628000  0.03799000  1.0
  H  H5  1  0.26362000  0.17371000  0.96205000  1.0
  H  H6  1  0.83065000  0.61843000  0.98104000  1.0
  H  H7  1  0.16934000  0.38157000  0.01897000  1.0
  H  H8  1  0.82333000  0.44383000  0.26429000  1.0
  H  H9  1  0.17667000  0.55617000  0.73572000  1.0
  H  H10  1  0.40788000  0.57975000  0.46929000  1.0
  H  H11  1  0.59213000  0.42025000  0.53071000  1.0
  H  H12  1  0.04714000  0.83442000  0.46949000  1.0
  H  H13  1  0.95286000  0.16558000  0.53053000  1.0
  H  H14  1  0.77652000  0.66647000  0.33359000  1.0
  H  H15  1  0.22348000  0.33354000  0.66642000  1.0
  H  H16  1  0.81610000  0.05178000  0.13994000  1.0
  H  H17  1  0.18393000  0.94823000  0.86005000  1.0
  H  H18  1  0.89912000  0.26712000  0.23168000  1.0
  H  H19  1  0.10089000  0.73288000  0.76832000  1.0
  Pb  Pb20  1  0.44276000  0.12206000  0.35583000  1.0
  Pb  Pb21  1  0.55726000  0.87794000  0.64411000  1.0
  C  C22  1  0.01705000  0.92250000  0.14820000  1.0
  C  C23  1  0.98296000  0.07749000  0.85182000  1.0
  C  C24  1  0.12245000  0.69391000  0.08422000  1.0
  C  C25  1  0.87754000  0.30609000  0.91578000  1.0
  C  C26  1  0.24891000  0.80300000  0.16094000  1.0
  C  C27  1  0.75108000  0.19699000  0.83906000  1.0
  C  C28  1  0.88117000  0.81679000  0.07280000  1.0
  C  C29  1  0.11882000  0.18321000  0.92722000  1.0
  C  C30  1  0.93508000  0.70083000  0.04057000  1.0
  C  C31  1  0.06491000  0.29916000  0.95944000  1.0
  C  C32  1  0.96317000  0.04655000  0.17699000  1.0
  C  C33  1  0.03684000  0.95345000  0.82301000  1.0
  C  C34  1  0.17743000  0.36782000  0.33238000  1.0
  C  C35  1  0.82258000  0.63218000  0.66763000  1.0
  C  C36  1  0.12306000  0.49465000  0.36067000  1.0
  C  C37  1  0.87694000  0.50535000  0.63934000  1.0
  C  C38  1  0.94231000  0.51896000  0.32234000  1.0
  C  C39  1  0.05769000  0.48104000  0.67767000  1.0
  C  C40  1  0.26653000  0.59628000  0.43668000  1.0
  C  C41  1  0.73347000  0.40372000  0.56333000  1.0
  C  C42  1  0.06506000  0.73701000  0.43707000  1.0
  C  C43  1  0.93495000  0.26299000  0.56295000  1.0
  C  C44  1  0.91425000  0.64251000  0.36079000  1.0
  C  C45  1  0.08575000  0.35749000  0.63923000  1.0
  Br  Br46  1  0.29816000  0.07107000  0.60746000  1.0
  Br  Br47  1  0.70174000  0.92885000  0.39242000  1.0
  Br  Br48  1  0.58186000  0.23460000  0.13545000  1.0
  Br  Br49  1  0.41815000  0.76548000  0.86449000  1.0
  N  N50  1  0.08985000  0.14695000  0.24155000  1.0
  N  N51  1  0.91016000  0.85305000  0.75847000  1.0
  N  N52  1  0.03946000  0.26262000  0.26489000  1.0
  N  N53  1  0.96054000  0.73738000  0.73512000  1.0
  N  N54  1  0.23866000  0.71393000  0.47518000  1.0
  N  N55  1  0.76135000  0.28607000  0.52483000  1.0
  N  N56  1  0.19842000  0.91439000  0.19272000  1.0
  N  N57  1  0.80158000  0.08560000  0.80729000  1.0
  O  O58  1  0.34388000  0.35781000  0.37073000  1.0
  O  O59  1  0.65614000  0.64220000  0.62926000  1.0
