# generated using pymatgen
data_ZnH23C24(N2O3)2
_symmetry_space_group_name_H-M   'P 1'
_cell_length_a   14.65690000
_cell_length_b   16.06710000
_cell_length_c   19.19310000
_cell_angle_alpha   90.02540000
_cell_angle_beta   90.14890000
_cell_angle_gamma   89.98280000
_symmetry_Int_Tables_number   1
_chemical_formula_structural   ZnH23C24(N2O3)2
_chemical_formula_sum   'Zn2 H46 C48 N8 O12'
_cell_volume   4519.84164046
_cell_formula_units_Z   2
loop_
 _symmetry_equiv_pos_site_id
 _symmetry_equiv_pos_as_xyz
  1  'x, y, z'
loop_
 _atom_site_type_symbol
 _atom_site_label
 _atom_site_symmetry_multiplicity
 _atom_site_fract_x
 _atom_site_fract_y
 _atom_site_fract_z
 _atom_site_occupancy
  Zn  Zn0  1  0.40321000  0.49970000  0.50009000  1.0
  Zn  Zn1  1  0.59567000  0.49814000  0.50028000  1.0
  H  H2  1  0.35366000  0.50404000  0.27736000  1.0
  H  H3  1  0.64501000  0.52613000  0.28119000  1.0
  H  H4  1  0.35303000  0.52945000  0.14839000  1.0
  H  H5  1  0.64561000  0.55214000  0.15210000  1.0
  H  H6  1  0.35282000  0.53929000  0.84954000  1.0
  H  H7  1  0.64646000  0.54211000  0.85074000  1.0
  H  H8  1  0.35424000  0.51435000  0.72030000  1.0
  H  H9  1  0.64657000  0.51710000  0.72150000  1.0
  H  H10  1  0.43140000  0.92361000  0.60595000  1.0
  H  H11  1  0.59358000  0.93549000  0.59276000  1.0
  H  H12  1  0.64903000  0.92121000  0.51235000  1.0
  H  H13  1  0.35660000  0.92997000  0.53361000  1.0
  H  H14  1  0.41106000  0.06715000  0.41685000  1.0
  H  H15  1  0.52641000  0.07460000  0.39495000  1.0
  H  H16  1  0.42367000  0.92317000  0.41011000  1.0
  H  H17  1  0.54331000  0.92929000  0.39953000  1.0
  H  H18  1  0.07316000  0.40517000  0.57000000  1.0
  H  H19  1  0.91629000  0.38516000  0.55333000  1.0
  H  H20  1  0.91451000  0.61997000  0.55032000  1.0
  H  H21  1  0.06984000  0.63099000  0.52361000  1.0
  H  H22  1  0.93200000  0.53198000  0.60380000  1.0
  H  H23  1  0.08810000  0.56196000  0.59381000  1.0
  H  H24  1  0.91289000  0.49072000  0.38341000  1.0
  H  H25  1  0.06189000  0.46332000  0.38661000  1.0
  H  H26  1  0.92861000  0.37282000  0.46233000  1.0
  H  H27  1  0.08610000  0.36660000  0.48438000  1.0
  H  H28  1  0.93655000  0.61852000  0.29346000  1.0
  H  H29  1  0.82366000  0.58973000  0.31580000  1.0
  H  H30  1  0.85679000  0.69590000  0.31885000  1.0
  H  H31  1  0.84598000  0.63288000  0.43749000  1.0
  H  H32  1  0.95692000  0.66894000  0.42127000  1.0
  H  H33  1  0.23305000  0.52382000  0.36294000  1.0
  H  H34  1  0.15497000  0.51888000  0.29191000  1.0
  H  H35  1  0.21709000  0.61157000  0.30906000  1.0
  H  H36  1  0.05700000  0.62698000  0.34674000  1.0
  H  H37  1  0.13060000  0.63542000  0.41816000  1.0
  H  H38  1  0.41630000  0.97725000  0.70428000  1.0
  H  H39  1  0.53034000  0.00249000  0.68250000  1.0
  H  H40  1  0.46792000  0.06714000  0.73974000  1.0
  H  H41  1  0.46222000  0.14332000  0.63103000  1.0
  H  H42  1  0.35582000  0.10067000  0.64645000  1.0
  H  H43  1  0.76167000  0.15643000  0.54800000  1.0
  H  H44  1  0.66034000  0.21680000  0.55564000  1.0
  H  H45  1  0.72439000  0.19006000  0.63108000  1.0
  H  H46  1  0.59340000  0.09916000  0.63018000  1.0
  H  H47  1  0.69184000  0.03973000  0.61357000  1.0
  C  C48  1  0.49736000  0.33709000  0.50178000  1.0
  C  C49  1  0.49880000  0.50345000  0.36432000  1.0
  C  C50  1  0.50037000  0.66168000  0.50134000  1.0
  C  C51  1  0.50073000  0.50430000  0.63594000  1.0
  C  C52  1  0.41700000  0.51445000  0.24918000  1.0
  C  C53  1  0.58174000  0.52688000  0.25126000  1.0
  C  C54  1  0.41672000  0.52846000  0.17777000  1.0
  C  C55  1  0.58203000  0.54115000  0.17987000  1.0
  C  C56  1  0.49929000  0.54283000  0.14255000  1.0
  C  C57  1  0.49929000  0.51427000  0.28662000  1.0
  C  C58  1  0.49902000  0.55892000  0.93294000  1.0
  C  C59  1  0.49891000  0.55911000  0.06749000  1.0
  C  C60  1  0.41685000  0.53400000  0.82119000  1.0
  C  C61  1  0.58276000  0.53561000  0.82189000  1.0
  C  C62  1  0.41756000  0.52027000  0.74973000  1.0
  C  C63  1  0.58290000  0.52184000  0.75041000  1.0
  C  C64  1  0.50044000  0.51485000  0.71367000  1.0
  C  C65  1  0.49958000  0.54267000  0.85784000  1.0
  C  C66  1  0.42422000  0.04614000  0.55833000  1.0
  C  C67  1  0.59826000  0.04580000  0.52793000  1.0
  C  C68  1  0.59023000  0.95112000  0.53708000  1.0
  C  C69  1  0.42265000  0.95067000  0.55401000  1.0
  C  C70  1  0.50056000  0.75178000  0.50410000  1.0
  C  C71  1  0.50160000  0.08156000  0.50613000  1.0
  C  C72  1  0.49978000  0.91773000  0.50690000  1.0
  C  C73  1  0.48610000  0.95072000  0.43178000  1.0
  C  C74  1  0.47932000  0.04651000  0.43218000  1.0
  C  C75  1  0.50006000  0.82735000  0.50632000  1.0
  C  C76  1  0.49996000  0.17165000  0.50539000  1.0
  C  C77  1  0.49656000  0.24706000  0.50368000  1.0
  C  C78  1  0.94844000  0.41191000  0.50683000  1.0
  C  C79  1  0.05298000  0.41528000  0.51549000  1.0
  C  C80  1  0.94867000  0.55931000  0.55294000  1.0
  C  C81  1  0.05254000  0.56904000  0.54375000  1.0
  C  C82  1  0.91220000  0.50135000  0.49467000  1.0
  C  C83  1  0.08714000  0.50210000  0.49184000  1.0
  C  C84  1  0.05046000  0.52074000  0.41670000  1.0
  C  C85  1  0.94397000  0.53319000  0.42176000  1.0
  C  C86  1  0.18589000  0.50174000  0.49430000  1.0
  C  C87  1  0.81340000  0.49969000  0.49681000  1.0
  C  C88  1  0.90712000  0.62116000  0.40572000  1.0
  C  C89  1  0.87997000  0.63210000  0.32920000  1.0
  C  C90  1  0.10367000  0.59083000  0.37960000  1.0
  C  C91  1  0.18158000  0.55911000  0.33370000  1.0
  C  C92  1  0.42605000  0.08348000  0.63307000  1.0
  C  C93  1  0.46259000  0.02900000  0.69235000  1.0
  C  C94  1  0.64632000  0.08735000  0.59131000  1.0
  C  C95  1  0.70085000  0.16745000  0.58007000  1.0
  N  N96  1  0.57926000  0.57270000  0.03466000  1.0
  N  N97  1  0.41777000  0.56841000  0.03428000  1.0
  N  N98  1  0.57935000  0.57282000  0.96612000  1.0
  N  N99  1  0.41788000  0.56809000  0.96575000  1.0
  N  N100  1  0.26463000  0.50065000  0.49950000  1.0
  N  N101  1  0.73445000  0.49757000  0.49887000  1.0
  N  N102  1  0.66886000  0.06246000  0.46725000  1.0
  N  N103  1  0.33145000  0.07969000  0.52573000  1.0
  O  O104  1  0.42014000  0.37289000  0.49860000  1.0
  O  O105  1  0.57585000  0.37109000  0.50369000  1.0
  O  O106  1  0.42113000  0.50200000  0.39388000  1.0
  O  O107  1  0.57608000  0.49802000  0.39449000  1.0
  O  O108  1  0.42232000  0.62693000  0.50148000  1.0
  O  O109  1  0.57801000  0.62625000  0.49911000  1.0
  O  O110  1  0.42333000  0.49954000  0.60595000  1.0
  O  O111  1  0.57832000  0.50226000  0.60626000  1.0
  O  O112  1  0.65981000  0.12582000  0.43180000  1.0
  O  O113  1  0.73447000  0.01425000  0.46343000  1.0
  O  O114  1  0.30951000  0.15145000  0.54087000  1.0
  O  O115  1  0.28734000  0.03363000  0.48636000  1.0
