# generated using pymatgen
data_MgCuH16(C4O3)4
_symmetry_space_group_name_H-M   'P 1'
_cell_length_a   6.46698000
_cell_length_b   6.89076000
_cell_length_c   20.49290000
_cell_angle_alpha   89.99990000
_cell_angle_beta   89.99910000
_cell_angle_gamma   90.00000000
_symmetry_Int_Tables_number   1
_chemical_formula_structural   MgCuH16(C4O3)4
_chemical_formula_sum   'Mg2 Cu2 H32 C32 O24'
_cell_volume   913.21295244
_cell_formula_units_Z   2
loop_
 _symmetry_equiv_pos_site_id
 _symmetry_equiv_pos_as_xyz
  1  'x, y, z'
loop_
 _atom_site_type_symbol
 _atom_site_label
 _atom_site_symmetry_multiplicity
 _atom_site_fract_x
 _atom_site_fract_y
 _atom_site_fract_z
 _atom_site_occupancy
  Mg  Mg0  1  0.50000000  0.11532000  0.00000000  1.0
  Mg  Mg1  1  0.00000000  0.88471000  0.50000000  1.0
  Cu  Cu2  1  0.00000000  0.72499000  0.00000000  1.0
  Cu  Cu3  1  0.50000000  0.27500000  0.50000000  1.0
  H  H4  1  0.48794000  0.41271000  0.91964000  1.0
  H  H5  1  0.98791000  0.58740000  0.58039000  1.0
  H  H6  1  0.01209000  0.58740000  0.41961000  1.0
  H  H7  1  0.51206000  0.41271000  0.08036000  1.0
  H  H8  1  0.24969000  0.37732000  0.93508000  1.0
  H  H9  1  0.74965000  0.62267000  0.56494000  1.0
  H  H10  1  0.25035000  0.62267000  0.43506000  1.0
  H  H11  1  0.75031000  0.37732000  0.06492000  1.0
  H  H12  1  0.51876000  0.77748000  0.92658000  1.0
  H  H13  1  0.01877000  0.22252000  0.57346000  1.0
  H  H14  1  0.98123000  0.22251000  0.42654000  1.0
  H  H15  1  0.48124000  0.77748000  0.07342000  1.0
  H  H16  1  0.29426000  0.88087000  0.91791000  1.0
  H  H17  1  0.79426000  0.11915000  0.58213000  1.0
  H  H18  1  0.20574000  0.11915000  0.41787000  1.0
  H  H19  1  0.70574000  0.88086000  0.08209000  1.0
  H  H20  1  0.82522000  0.58288000  0.77635000  1.0
  H  H21  1  0.32524000  0.41709000  0.72368000  1.0
  H  H22  1  0.67476000  0.41709000  0.27632000  1.0
  H  H23  1  0.17478000  0.58288000  0.22365000  1.0
  H  H24  1  0.89512000  0.38039000  0.67885000  1.0
  H  H25  1  0.39512000  0.61960000  0.82119000  1.0
  H  H26  1  0.60488000  0.61959000  0.17881000  1.0
  H  H27  1  0.10488000  0.38039000  0.32115000  1.0
  H  H28  1  0.99197000  0.03223000  0.69174000  1.0
  H  H29  1  0.49197000  0.96774000  0.80831000  1.0
  H  H30  1  0.50803000  0.96774000  0.19169000  1.0
  H  H31  1  0.00803000  0.03223000  0.30827000  1.0
  H  H32  1  0.00823000  0.88752000  0.80336000  1.0
  H  H33  1  0.50820000  0.11250000  0.69668000  1.0
  H  H34  1  0.49180000  0.11250000  0.30331000  1.0
  H  H35  1  0.99177000  0.88752000  0.19664000  1.0
  C  C36  1  0.92709000  0.15250000  0.85225000  1.0
  C  C37  1  0.42710000  0.84749000  0.64779000  1.0
  C  C38  1  0.57290000  0.84749000  0.35220000  1.0
  C  C39  1  0.07291000  0.15250000  0.14775000  1.0
  C  C40  1  0.87777000  0.35049000  0.84462000  1.0
  C  C41  1  0.37780000  0.64950000  0.65542000  1.0
  C  C42  1  0.62220000  0.64949000  0.34458000  1.0
  C  C43  1  0.12223000  0.35049000  0.15538000  1.0
  C  C44  1  0.86512000  0.43014000  0.78204000  1.0
  C  C45  1  0.36515000  0.56984000  0.71799000  1.0
  C  C46  1  0.63485000  0.56984000  0.28200000  1.0
  C  C47  1  0.13488000  0.43014000  0.21796000  1.0
  C  C48  1  0.90474000  0.31558000  0.72724000  1.0
  C  C49  1  0.40476000  0.68441000  0.77280000  1.0
  C  C50  1  0.59525000  0.68441000  0.22720000  1.0
  C  C51  1  0.09526000  0.31558000  0.27276000  1.0
  C  C52  1  0.96005000  0.12101000  0.73460000  1.0
  C  C53  1  0.46005000  0.87897000  0.76544000  1.0
  C  C54  1  0.53996000  0.87897000  0.23456000  1.0
  C  C55  1  0.03995000  0.12101000  0.26540000  1.0
  C  C56  1  0.97020000  0.04029000  0.79695000  1.0
  C  C57  1  0.47019000  0.95971000  0.70309000  1.0
  C  C58  1  0.52981000  0.95970000  0.29691000  1.0
  C  C59  1  0.02980000  0.04029000  0.20305000  1.0
  C  C60  1  0.91154000  0.05746000  0.91765000  1.0
  C  C61  1  0.41149000  0.94254000  0.58239000  1.0
  C  C62  1  0.58851000  0.94253000  0.41761000  1.0
  C  C63  1  0.08846000  0.05746000  0.08235000  1.0
  C  C64  1  0.85425000  0.48698000  0.90122000  1.0
  C  C65  1  0.35420000  0.51301000  0.59881000  1.0
  C  C66  1  0.64580000  0.51301000  0.40119000  1.0
  C  C67  1  0.14575000  0.48698000  0.09878000  1.0
  O  O68  1  0.02143000  0.90247000  0.92567000  1.0
  O  O69  1  0.52137000  0.09752000  0.57434000  1.0
  O  O70  1  0.47863000  0.09751000  0.42566000  1.0
  O  O71  1  0.97857000  0.90246000  0.07433000  1.0
  O  O72  1  0.79028000  0.12614000  0.95940000  1.0
  O  O73  1  0.29019000  0.87382000  0.54065000  1.0
  O  O74  1  0.70981000  0.87382000  0.45935000  1.0
  O  O75  1  0.20973000  0.12613000  0.04060000  1.0
  O  O76  1  0.02149000  0.51802000  0.93387000  1.0
  O  O77  1  0.52138000  0.48199000  0.56614000  1.0
  O  O78  1  0.47862000  0.48198000  0.43385000  1.0
  O  O79  1  0.97851000  0.51802000  0.06613000  1.0
  O  O80  1  0.68577000  0.57310000  0.91180000  1.0
  O  O81  1  0.18569000  0.42693000  0.58828000  1.0
  O  O82  1  0.81430000  0.42693000  0.41172000  1.0
  O  O83  1  0.31423000  0.57310000  0.08821000  1.0
  O  O84  1  0.38581000  0.31269000  0.93273000  1.0
  O  O85  1  0.88575000  0.68736000  0.56727000  1.0
  O  O86  1  0.11425000  0.68736000  0.43273000  1.0
  O  O87  1  0.61420000  0.31269000  0.06727000  1.0
  O  O88  1  0.43927000  0.89817000  0.93152000  1.0
  O  O89  1  0.93924000  0.10186000  0.56849000  1.0
  O  O90  1  0.06076000  0.10185000  0.43151000  1.0
  O  O91  1  0.56073000  0.89817000  0.06848000  1.0
