# generated using pymatgen
data_CdH4C3N5O2
_symmetry_space_group_name_H-M   'P 1'
_cell_length_a   8.15931000
_cell_length_b   17.95190000
_cell_length_c   22.42550000
_cell_angle_alpha   90.00020000
_cell_angle_beta   89.99940000
_cell_angle_gamma   89.99990000
_symmetry_Int_Tables_number   1
_chemical_formula_structural   CdH4C3N5O2
_chemical_formula_sum   'Cd16 H64 C48 N80 O32'
_cell_volume   3284.77774032
_cell_formula_units_Z   16
loop_
 _symmetry_equiv_pos_site_id
 _symmetry_equiv_pos_as_xyz
  1  'x, y, z'
loop_
 _atom_site_type_symbol
 _atom_site_label
 _atom_site_symmetry_multiplicity
 _atom_site_fract_x
 _atom_site_fract_y
 _atom_site_fract_z
 _atom_site_occupancy
  Cd  Cd0  1  0.22616000  0.09858000  0.86276000  1.0
  Cd  Cd1  1  0.77386000  0.40141000  0.36276000  1.0
  Cd  Cd2  1  0.72614000  0.90141000  0.63724000  1.0
  Cd  Cd3  1  0.27386000  0.59859000  0.13724000  1.0
  Cd  Cd4  1  0.77385000  0.90141000  0.13724000  1.0
  Cd  Cd5  1  0.22614000  0.59858000  0.63724000  1.0
  Cd  Cd6  1  0.27384000  0.09859000  0.36276000  1.0
  Cd  Cd7  1  0.72613000  0.40142000  0.86277000  1.0
  Cd  Cd8  1  0.03875000  0.25281000  0.11086000  1.0
  Cd  Cd9  1  0.96125000  0.24719000  0.61086000  1.0
  Cd  Cd10  1  0.53879000  0.74721000  0.38914000  1.0
  Cd  Cd11  1  0.46123000  0.75280000  0.88914000  1.0
  Cd  Cd12  1  0.96122000  0.74720000  0.88914000  1.0
  Cd  Cd13  1  0.03876000  0.75279000  0.38914000  1.0
  Cd  Cd14  1  0.46123000  0.25279000  0.61085000  1.0
  Cd  Cd15  1  0.53878000  0.24720000  0.11085000  1.0
  H  H16  1  0.52923000  0.17550000  0.95957000  1.0
  H  H17  1  0.47078000  0.32449000  0.45958000  1.0
  H  H18  1  0.02924000  0.82450000  0.54043000  1.0
  H  H19  1  0.97075000  0.67551000  0.04042000  1.0
  H  H20  1  0.47076000  0.82449000  0.04043000  1.0
  H  H21  1  0.52922000  0.67550000  0.54044000  1.0
  H  H22  1  0.97077000  0.17551000  0.45958000  1.0
  H  H23  1  0.02923000  0.32449000  0.95957000  1.0
  H  H24  1  0.02725000  0.13649000  0.98830000  1.0
  H  H25  1  0.97274000  0.36353000  0.48830000  1.0
  H  H26  1  0.52726000  0.86351000  0.51171000  1.0
  H  H27  1  0.47272000  0.63648000  0.01170000  1.0
  H  H28  1  0.97275000  0.86351000  0.01170000  1.0
  H  H29  1  0.02725000  0.63649000  0.51170000  1.0
  H  H30  1  0.47274000  0.13649000  0.48830000  1.0
  H  H31  1  0.52725000  0.36350000  0.98830000  1.0
  H  H32  1  0.45822000  0.94819000  0.89946000  1.0
  H  H33  1  0.54177000  0.55181000  0.39946000  1.0
  H  H34  1  0.95824000  0.05182000  0.60053000  1.0
  H  H35  1  0.04176000  0.44819000  0.10055000  1.0
  H  H36  1  0.54177000  0.05181000  0.10054000  1.0
  H  H37  1  0.45825000  0.44819000  0.60055000  1.0
  H  H38  1  0.04178000  0.94819000  0.39946000  1.0
  H  H39  1  0.95823000  0.55181000  0.89946000  1.0
  H  H40  1  0.95476000  0.94346000  0.86098000  1.0
  H  H41  1  0.04524000  0.55654000  0.36098000  1.0
  H  H42  1  0.45478000  0.05652000  0.63902000  1.0
  H  H43  1  0.54524000  0.44346000  0.13901000  1.0
  H  H44  1  0.04522000  0.05654000  0.13902000  1.0
  H  H45  1  0.95476000  0.44346000  0.63902000  1.0
  H  H46  1  0.54526000  0.94346000  0.36098000  1.0
  H  H47  1  0.45476000  0.55655000  0.86099000  1.0
  H  H48  1  0.97099000  0.12986000  0.74189000  1.0
  H  H49  1  0.02899000  0.37013000  0.24190000  1.0
  H  H50  1  0.47100000  0.87014000  0.75812000  1.0
  H  H51  1  0.52900000  0.62986000  0.25811000  1.0
  H  H52  1  0.02901000  0.87015000  0.25812000  1.0
  H  H53  1  0.97102000  0.62987000  0.75810000  1.0
  H  H54  1  0.52901000  0.12987000  0.24189000  1.0
  H  H55  1  0.47100000  0.37015000  0.74189000  1.0
  H  H56  1  0.47039000  0.18231000  0.75882000  1.0
  H  H57  1  0.52958000  0.31768000  0.25881000  1.0
  H  H58  1  0.97040000  0.81771000  0.74118000  1.0
  H  H59  1  0.02961000  0.68231000  0.24118000  1.0
  H  H60  1  0.52961000  0.81769000  0.24119000  1.0
  H  H61  1  0.47042000  0.68231000  0.74118000  1.0
  H  H62  1  0.02960000  0.18230000  0.25882000  1.0
  H  H63  1  0.97039000  0.31769000  0.75882000  1.0
  H  H64  1  0.56087000  0.03722000  0.81903000  1.0
  H  H65  1  0.43910000  0.46276000  0.31904000  1.0
  H  H66  1  0.06089000  0.96277000  0.68097000  1.0
  H  H67  1  0.93912000  0.53724000  0.18096000  1.0
  H  H68  1  0.43913000  0.96277000  0.18097000  1.0
  H  H69  1  0.56090000  0.53724000  0.68096000  1.0
  H  H70  1  0.93910000  0.03723000  0.31903000  1.0
  H  H71  1  0.06088000  0.46276000  0.81904000  1.0
  H  H72  1  0.60642000  0.10832000  0.85721000  1.0
  H  H73  1  0.39358000  0.39167000  0.35722000  1.0
  H  H74  1  0.10641000  0.89168000  0.64278000  1.0
  H  H75  1  0.89359000  0.60834000  0.14278000  1.0
  H  H76  1  0.39358000  0.89167000  0.14280000  1.0
  H  H77  1  0.60642000  0.60833000  0.64278000  1.0
  H  H78  1  0.89359000  0.10833000  0.35722000  1.0
  H  H79  1  0.10640000  0.39166000  0.85722000  1.0
  C  C80  1  0.40848000  0.17280000  0.97981000  1.0
  C  C81  1  0.59153000  0.32720000  0.47982000  1.0
  C  C82  1  0.90849000  0.82720000  0.52019000  1.0
  C  C83  1  0.09151000  0.67280000  0.02019000  1.0
  C  C84  1  0.59152000  0.82720000  0.02019000  1.0
  C  C85  1  0.40848000  0.67281000  0.52019000  1.0
  C  C86  1  0.09152000  0.17281000  0.47982000  1.0
  C  C87  1  0.90848000  0.32719000  0.97981000  1.0
  C  C88  1  0.15402000  0.15319000  0.99428000  1.0
  C  C89  1  0.84598000  0.34682000  0.49428000  1.0
  C  C90  1  0.65403000  0.84681000  0.50573000  1.0
  C  C91  1  0.34596000  0.65318000  0.00572000  1.0
  C  C92  1  0.84598000  0.84681000  0.00572000  1.0
  C  C93  1  0.15402000  0.65319000  0.50573000  1.0
  C  C94  1  0.34598000  0.15318000  0.49427000  1.0
  C  C95  1  0.65401000  0.34680000  0.99427000  1.0
  C  C96  1  0.33427000  0.92882000  0.89122000  1.0
  C  C97  1  0.66573000  0.57118000  0.39122000  1.0
  C  C98  1  0.83428000  0.07117000  0.60877000  1.0
  C  C99  1  0.16572000  0.42882000  0.10878000  1.0
  C  C100  1  0.66573000  0.07118000  0.10878000  1.0
  C  C101  1  0.33428000  0.42882000  0.60878000  1.0
  C  C102  1  0.16573000  0.92882000  0.39122000  1.0
  C  C103  1  0.83428000  0.57119000  0.89122000  1.0
  C  C104  1  0.07907000  0.92637000  0.87151000  1.0
  C  C105  1  0.92092000  0.57361000  0.37152000  1.0
  C  C106  1  0.57908000  0.07363000  0.62848000  1.0
  C  C107  1  0.42093000  0.42638000  0.12848000  1.0
  C  C108  1  0.92092000  0.07362000  0.12849000  1.0
  C  C109  1  0.07907000  0.42637000  0.62848000  1.0
  C  C110  1  0.42094000  0.92638000  0.37151000  1.0
  C  C111  1  0.57908000  0.57362000  0.87152000  1.0
  C  C112  1  0.09346000  0.15068000  0.73297000  1.0
  C  C113  1  0.90652000  0.34931000  0.23297000  1.0
  C  C114  1  0.59348000  0.84933000  0.76703000  1.0
  C  C115  1  0.40653000  0.65068000  0.26702000  1.0
  C  C116  1  0.90654000  0.84933000  0.26704000  1.0
  C  C117  1  0.09349000  0.65068000  0.76703000  1.0
  C  C118  1  0.40653000  0.15068000  0.23298000  1.0
  C  C119  1  0.59346000  0.34933000  0.73296000  1.0
  C  C120  1  0.34661000  0.17746000  0.74154000  1.0
  C  C121  1  0.65337000  0.32253000  0.24154000  1.0
  C  C122  1  0.84663000  0.82254000  0.75846000  1.0
  C  C123  1  0.15338000  0.67747000  0.25846000  1.0
  C  C124  1  0.65339000  0.82254000  0.25846000  1.0
  C  C125  1  0.34663000  0.67746000  0.75846000  1.0
  C  C126  1  0.15338000  0.17746000  0.24153000  1.0
  C  C127  1  0.84661000  0.32254000  0.74154000  1.0
  N  N128  1  0.27440000  0.14248000  0.95354000  1.0
  N  N129  1  0.72561000  0.35752000  0.45354000  1.0
  N  N130  1  0.77441000  0.85752000  0.54647000  1.0
  N  N131  1  0.22558000  0.64248000  0.04646000  1.0
  N  N132  1  0.72559000  0.85752000  0.04647000  1.0
  N  N133  1  0.27440000  0.64248000  0.54647000  1.0
  N  N134  1  0.22558000  0.14248000  0.45354000  1.0
  N  N135  1  0.77440000  0.35751000  0.95353000  1.0
  N  N136  1  0.20883000  0.18766000  0.04275000  1.0
  N  N137  1  0.79118000  0.31234000  0.54275000  1.0
  N  N138  1  0.70884000  0.81234000  0.45725000  1.0
  N  N139  1  0.29115000  0.68765000  0.95725000  1.0
  N  N140  1  0.79117000  0.81234000  0.95725000  1.0
  N  N141  1  0.20882000  0.68766000  0.45726000  1.0
  N  N142  1  0.29118000  0.18766000  0.54274000  1.0
  N  N143  1  0.70883000  0.31234000  0.04274000  1.0
  N  N144  1  0.37289000  0.20039000  0.03345000  1.0
  N  N145  1  0.62711000  0.29961000  0.53345000  1.0
  N  N146  1  0.87291000  0.79962000  0.46655000  1.0
  N  N147  1  0.12709000  0.70038000  0.96655000  1.0
  N  N148  1  0.62710000  0.79961000  0.96655000  1.0
  N  N149  1  0.37289000  0.70039000  0.46655000  1.0
  N  N150  1  0.12712000  0.20039000  0.53345000  1.0
  N  N151  1  0.87289000  0.29961000  0.03345000  1.0
  N  N152  1  0.22327000  0.14160000  0.77010000  1.0
  N  N153  1  0.77672000  0.35839000  0.27011000  1.0
  N  N154  1  0.72330000  0.85841000  0.72990000  1.0
  N  N155  1  0.27671000  0.64160000  0.22990000  1.0
  N  N156  1  0.77673000  0.85841000  0.22990000  1.0
  N  N157  1  0.22328000  0.64161000  0.72990000  1.0
  N  N158  1  0.27671000  0.14160000  0.27010000  1.0
  N  N159  1  0.72326000  0.35841000  0.77010000  1.0
  N  N160  1  0.29688000  0.20653000  0.69004000  1.0
  N  N161  1  0.70308000  0.29346000  0.19004000  1.0
  N  N162  1  0.79689000  0.79347000  0.80997000  1.0
  N  N163  1  0.20312000  0.70653000  0.30996000  1.0
  N  N164  1  0.70312000  0.79347000  0.30996000  1.0
  N  N165  1  0.29691000  0.70653000  0.80997000  1.0
  N  N166  1  0.20313000  0.20653000  0.19004000  1.0
  N  N167  1  0.79689000  0.29347000  0.69004000  1.0
  N  N168  1  0.13380000  0.18914000  0.68436000  1.0
  N  N169  1  0.86619000  0.31086000  0.18436000  1.0
  N  N170  1  0.63378000  0.81087000  0.81564000  1.0
  N  N171  1  0.36622000  0.68913000  0.31564000  1.0
  N  N172  1  0.86621000  0.81087000  0.31564000  1.0
  N  N173  1  0.13382000  0.68914000  0.81564000  1.0
  N  N174  1  0.36622000  0.18914000  0.18437000  1.0
  N  N175  1  0.63380000  0.31086000  0.68436000  1.0
  N  N176  1  0.20710000  0.97409000  0.87685000  1.0
  N  N177  1  0.79288000  0.52590000  0.37686000  1.0
  N  N178  1  0.70710000  0.02590000  0.62314000  1.0
  N  N179  1  0.29290000  0.47410000  0.12314000  1.0
  N  N180  1  0.79289000  0.02590000  0.12315000  1.0
  N  N181  1  0.20710000  0.47409000  0.62315000  1.0
  N  N182  1  0.29290000  0.97409000  0.37686000  1.0
  N  N183  1  0.70712000  0.52591000  0.87686000  1.0
  N  N184  1  0.28850000  0.85777000  0.89423000  1.0
  N  N185  1  0.71150000  0.64223000  0.39424000  1.0
  N  N186  1  0.78853000  0.14222000  0.60576000  1.0
  N  N187  1  0.21149000  0.35778000  0.10576000  1.0
  N  N188  1  0.71150000  0.14223000  0.10576000  1.0
  N  N189  1  0.28852000  0.35777000  0.60576000  1.0
  N  N190  1  0.21151000  0.85777000  0.39423000  1.0
  N  N191  1  0.78850000  0.64223000  0.89424000  1.0
  N  N192  1  0.12413000  0.85610000  0.88148000  1.0
  N  N193  1  0.87588000  0.64389000  0.38148000  1.0
  N  N194  1  0.62415000  0.14390000  0.61852000  1.0
  N  N195  1  0.37587000  0.35611000  0.11851000  1.0
  N  N196  1  0.87587000  0.14389000  0.11852000  1.0
  N  N197  1  0.12413000  0.35611000  0.61851000  1.0
  N  N198  1  0.37588000  0.85611000  0.38148000  1.0
  N  N199  1  0.62412000  0.64389000  0.88148000  1.0
  N  N200  1  0.87850000  0.15701000  0.86676000  1.0
  N  N201  1  0.12149000  0.34298000  0.36676000  1.0
  N  N202  1  0.37850000  0.84299000  0.63324000  1.0
  N  N203  1  0.62149000  0.65702000  0.13325000  1.0
  N  N204  1  0.12149000  0.84300000  0.13325000  1.0
  N  N205  1  0.87851000  0.65702000  0.63324000  1.0
  N  N206  1  0.62149000  0.15701000  0.36676000  1.0
  N  N207  1  0.37850000  0.34299000  0.86675000  1.0
  O  O208  1  0.51822000  0.07003000  0.84973000  1.0
  O  O209  1  0.48178000  0.42996000  0.34974000  1.0
  O  O210  1  0.01823000  0.92998000  0.65026000  1.0
  O  O211  1  0.98177000  0.57004000  0.15026000  1.0
  O  O212  1  0.48178000  0.92997000  0.15027000  1.0
  O  O213  1  0.51823000  0.57004000  0.65027000  1.0
  O  O214  1  0.98177000  0.07003000  0.34973000  1.0
  O  O215  1  0.01821000  0.42996000  0.84974000  1.0
  O  O216  1  0.91346000  0.08833000  0.85650000  1.0
  O  O217  1  0.08655000  0.41166000  0.35651000  1.0
  O  O218  1  0.41344000  0.91167000  0.64350000  1.0
  O  O219  1  0.58653000  0.58833000  0.14349000  1.0
  O  O220  1  0.08653000  0.91168000  0.14351000  1.0
  O  O221  1  0.91346000  0.58834000  0.64349000  1.0
  O  O222  1  0.58654000  0.08834000  0.35651000  1.0
  O  O223  1  0.41345000  0.41167000  0.85651000  1.0
  O  O224  1  0.99198000  0.20372000  0.87284000  1.0
  O  O225  1  0.00801000  0.29627000  0.37282000  1.0
  O  O226  1  0.49200000  0.79628000  0.62717000  1.0
  O  O227  1  0.50800000  0.70373000  0.12718000  1.0
  O  O228  1  0.00800000  0.79629000  0.12716000  1.0
  O  O229  1  0.99201000  0.70373000  0.62719000  1.0
  O  O230  1  0.50801000  0.20373000  0.37282000  1.0
  O  O231  1  0.49200000  0.29628000  0.87282000  1.0
  O  O232  1  0.72983000  0.17713000  0.87051000  1.0
  O  O233  1  0.27016000  0.32286000  0.37052000  1.0
  O  O234  1  0.22984000  0.82287000  0.62947000  1.0
  O  O235  1  0.77015000  0.67714000  0.12950000  1.0
  O  O236  1  0.27016000  0.82287000  0.12950000  1.0
  O  O237  1  0.72985000  0.67714000  0.62947000  1.0
  O  O238  1  0.77016000  0.17713000  0.37054000  1.0
  O  O239  1  0.22984000  0.32286000  0.87050000  1.0
