# generated using pymatgen
data_NaH2(C2O)2
_symmetry_space_group_name_H-M   'P 1'
_cell_length_a   3.50952000
_cell_length_b   10.74170000
_cell_length_c   19.02430000
_cell_angle_alpha   90.00110000
_cell_angle_beta   90.00070000
_cell_angle_gamma   89.99970000
_symmetry_Int_Tables_number   1
_chemical_formula_structural   NaH2(C2O)2
_chemical_formula_sum   'Na8 H16 C32 O16'
_cell_volume   717.18207503
_cell_formula_units_Z   8
loop_
 _symmetry_equiv_pos_site_id
 _symmetry_equiv_pos_as_xyz
  1  'x, y, z'
loop_
 _atom_site_type_symbol
 _atom_site_label
 _atom_site_symmetry_multiplicity
 _atom_site_fract_x
 _atom_site_fract_y
 _atom_site_fract_z
 _atom_site_occupancy
  Na  Na0  1  0.04091000  0.93126000  0.67558000  1.0
  Na  Na1  1  0.95909000  0.43126000  0.67558000  1.0
  Na  Na2  1  0.04089000  0.56875000  0.17557000  1.0
  Na  Na3  1  0.95911000  0.06875000  0.17558000  1.0
  Na  Na4  1  0.52784000  0.68161000  0.77181000  1.0
  Na  Na5  1  0.47217000  0.18161000  0.77181000  1.0
  Na  Na6  1  0.52782000  0.81839000  0.27181000  1.0
  Na  Na7  1  0.47219000  0.31839000  0.27181000  1.0
  H  H8  1  0.60276000  0.08221000  0.92382000  1.0
  H  H9  1  0.39724000  0.58221000  0.92383000  1.0
  H  H10  1  0.60274000  0.41779000  0.42382000  1.0
  H  H11  1  0.39723000  0.91779000  0.42383000  1.0
  H  H12  1  0.47381000  0.03806000  0.04963000  1.0
  H  H13  1  0.52621000  0.53806000  0.04963000  1.0
  H  H14  1  0.47379000  0.46194000  0.54963000  1.0
  H  H15  1  0.52620000  0.96194000  0.54963000  1.0
  H  H16  1  0.90068000  0.66680000  0.02305000  1.0
  H  H17  1  0.09930000  0.16680000  0.02306000  1.0
  H  H18  1  0.90070000  0.83320000  0.52305000  1.0
  H  H19  1  0.09929000  0.33321000  0.52306000  1.0
  H  H20  1  0.02845000  0.71085000  0.89718000  1.0
  H  H21  1  0.97156000  0.21084000  0.89718000  1.0
  H  H22  1  0.02844000  0.78915000  0.39717000  1.0
  H  H23  1  0.97153000  0.28915000  0.39718000  1.0
  C  C24  1  0.83268000  0.90005000  0.90233000  1.0
  C  C25  1  0.16732000  0.40005000  0.90234000  1.0
  C  C26  1  0.83269000  0.59994000  0.40233000  1.0
  C  C27  1  0.16730000  0.09995000  0.40234000  1.0
  C  C28  1  0.67170000  0.99139000  0.94560000  1.0
  C  C29  1  0.32831000  0.49139000  0.94560000  1.0
  C  C30  1  0.67170000  0.50861000  0.44559000  1.0
  C  C31  1  0.32829000  0.00861000  0.44560000  1.0
  C  C32  1  0.59538000  0.96645000  0.01589000  1.0
  C  C33  1  0.40464000  0.46644000  0.01589000  1.0
  C  C34  1  0.59537000  0.53355000  0.51589000  1.0
  C  C35  1  0.40463000  0.03356000  0.51589000  1.0
  C  C36  1  0.67105000  0.84894000  0.04452000  1.0
  C  C37  1  0.32896000  0.34894000  0.04452000  1.0
  C  C38  1  0.67104000  0.65106000  0.54452000  1.0
  C  C39  1  0.32896000  0.15106000  0.54453000  1.0
  C  C40  1  0.83132000  0.75754000  0.00124000  1.0
  C  C41  1  0.16868000  0.25754000  0.00124000  1.0
  C  C42  1  0.83134000  0.74246000  0.50124000  1.0
  C  C43  1  0.16866000  0.24246000  0.50124000  1.0
  C  C44  1  0.90726000  0.78248000  0.93094000  1.0
  C  C45  1  0.09275000  0.28248000  0.93094000  1.0
  C  C46  1  0.90726000  0.71751000  0.43094000  1.0
  C  C47  1  0.09272000  0.21752000  0.43095000  1.0
  C  C48  1  0.94223000  0.92692000  0.82729000  1.0
  C  C49  1  0.05778000  0.42692000  0.82729000  1.0
  C  C50  1  0.94223000  0.57307000  0.32729000  1.0
  C  C51  1  0.05777000  0.07308000  0.32730000  1.0
  C  C52  1  0.56800000  0.82215000  0.11985000  1.0
  C  C53  1  0.43199000  0.32215000  0.11985000  1.0
  C  C54  1  0.56802000  0.67786000  0.61984000  1.0
  C  C55  1  0.43199000  0.17785000  0.61985000  1.0
  O  O56  1  0.95048000  0.03955000  0.80653000  1.0
  O  O57  1  0.04954000  0.53955000  0.80653000  1.0
  O  O58  1  0.95055000  0.46045000  0.30653000  1.0
  O  O59  1  0.04952000  0.96046000  0.30653000  1.0
  O  O60  1  0.02765000  0.83418000  0.78804000  1.0
  O  O61  1  0.97236000  0.33419000  0.78804000  1.0
  O  O62  1  0.02760000  0.66581000  0.28804000  1.0
  O  O63  1  0.97237000  0.16582000  0.28805000  1.0
  O  O64  1  0.56767000  0.70963000  0.14088000  1.0
  O  O65  1  0.43230000  0.20963000  0.14089000  1.0
  O  O66  1  0.56772000  0.79037000  0.64088000  1.0
  O  O67  1  0.43228000  0.29038000  0.64089000  1.0
  O  O68  1  0.48228000  0.91463000  0.15922000  1.0
  O  O69  1  0.51772000  0.41463000  0.15923000  1.0
  O  O70  1  0.48228000  0.58538000  0.65923000  1.0
  O  O71  1  0.51772000  0.08537000  0.65923000  1.0
