# generated using pymatgen
data_CdH16C20(N3O5)2
_symmetry_space_group_name_H-M   'P 1'
_cell_length_a   6.36780000
_cell_length_b   7.47436000
_cell_length_c   11.10200000
_cell_angle_alpha   82.37010000
_cell_angle_beta   87.84490000
_cell_angle_gamma   84.49930000
_symmetry_Int_Tables_number   1
_chemical_formula_structural   CdH16C20(N3O5)2
_chemical_formula_sum   'Cd1 H16 C20 N6 O10'
_cell_volume   521.14647635
_cell_formula_units_Z   1
loop_
 _symmetry_equiv_pos_site_id
 _symmetry_equiv_pos_as_xyz
  1  'x, y, z'
loop_
 _atom_site_type_symbol
 _atom_site_label
 _atom_site_symmetry_multiplicity
 _atom_site_fract_x
 _atom_site_fract_y
 _atom_site_fract_z
 _atom_site_occupancy
  Cd  Cd0  1  0.00000000  0.50000000  0.50000000  1.0
  H  H1  1  0.34476000  0.72003000  0.80355000  1.0
  H  H2  1  0.65523000  0.27997000  0.19645000  1.0
  H  H3  1  0.39706000  0.46246000  0.63871000  1.0
  H  H4  1  0.60294000  0.53754000  0.36129000  1.0
  H  H5  1  0.31344000  0.26510000  0.65244000  1.0
  H  H6  1  0.68656000  0.73490000  0.34756000  1.0
  H  H7  1  0.24743000  0.82829000  0.08060000  1.0
  H  H8  1  0.75258000  0.17170000  0.91940000  1.0
  H  H9  1  0.24821000  0.33164000  0.84305000  1.0
  H  H10  1  0.75180000  0.66835000  0.15694000  1.0
  H  H11  1  0.27369000  0.90780000  0.57240000  1.0
  H  H12  1  0.72633000  0.09219000  0.42760000  1.0
  H  H13  1  0.27111000  0.49480000  0.02043000  1.0
  H  H14  1  0.72890000  0.50520000  0.97957000  1.0
  H  H15  1  0.08635000  0.73374000  0.25110000  1.0
  H  H16  1  0.91364000  0.26627000  0.74889000  1.0
  C  C17  1  0.24777000  0.06922000  0.16906000  1.0
  C  C18  1  0.75225000  0.93078000  0.83094000  1.0
  C  C19  1  0.24478000  0.97511000  0.06872000  1.0
  C  C20  1  0.75521000  0.02488000  0.93129000  1.0
  C  C21  1  0.29729000  0.36375000  0.25596000  1.0
  C  C22  1  0.70273000  0.63625000  0.74405000  1.0
  C  C23  1  0.26456000  0.96607000  0.84399000  1.0
  C  C24  1  0.73543000  0.03394000  0.15598000  1.0
  C  C25  1  0.24826000  0.25699000  0.93423000  1.0
  C  C26  1  0.75174000  0.74299000  0.06577000  1.0
  C  C27  1  0.24299000  0.90214000  0.47739000  1.0
  C  C28  1  0.75701000  0.09787000  0.52261000  1.0
  C  C29  1  0.26557000  0.25661000  0.15283000  1.0
  C  C30  1  0.73443000  0.74339000  0.84717000  1.0
  C  C31  1  0.24644000  0.06776000  0.95094000  1.0
  C  C32  1  0.75357000  0.93222000  0.04906000  1.0
  C  C33  1  0.26098000  0.34865000  0.03438000  1.0
  C  C34  1  0.73903000  0.65134000  0.96561000  1.0
  C  C35  1  0.14881000  0.81049000  0.31528000  1.0
  C  C36  1  0.85118000  0.18952000  0.68472000  1.0
  N  N37  1  0.23257000  0.97022000  0.28667000  1.0
  N  N38  1  0.76742000  0.02979000  0.71333000  1.0
  N  N39  1  0.15236000  0.76405000  0.43489000  1.0
  N  N40  1  0.84766000  0.23596000  0.56511000  1.0
  N  N41  1  0.29337000  0.03048000  0.38996000  1.0
  N  N42  1  0.70665000  0.96951000  0.61004000  1.0
  O  O43  1  0.26762000  0.78713000  0.87115000  1.0
  O  O44  1  0.73236000  0.21285000  0.12886000  1.0
  O  O45  1  0.13211000  0.42399000  0.30847000  1.0
  O  O46  1  0.86787000  0.57603000  0.69152000  1.0
  O  O47  1  0.48823000  0.39319000  0.27246000  1.0
  O  O48  1  0.51176000  0.60681000  0.72754000  1.0
  O  O49  1  0.28136000  0.04245000  0.73831000  1.0
  O  O50  1  0.71862000  0.95753000  0.26170000  1.0
  O  O51  1  0.31330000  0.38175000  0.59944000  1.0
  O  O52  1  0.68671000  0.61825000  0.40057000  1.0
