# generated using pymatgen
data_ZnH30C40(N3O2)2
_symmetry_space_group_name_H-M   'P 1'
_cell_length_a   10.28400000
_cell_length_b   12.45700000
_cell_length_c   15.59960000
_cell_angle_alpha   89.99890000
_cell_angle_beta   104.47400000
_cell_angle_gamma   89.99990000
_symmetry_Int_Tables_number   1
_chemical_formula_structural   ZnH30C40(N3O2)2
_chemical_formula_sum   'Zn2 H60 C80 N12 O8'
_cell_volume   1935.00239041
_cell_formula_units_Z   2
loop_
 _symmetry_equiv_pos_site_id
 _symmetry_equiv_pos_as_xyz
  1  'x, y, z'
loop_
 _atom_site_type_symbol
 _atom_site_label
 _atom_site_symmetry_multiplicity
 _atom_site_fract_x
 _atom_site_fract_y
 _atom_site_fract_z
 _atom_site_occupancy
  Zn  Zn0  1  0.75000000  0.82338000  0.50000000  1.0
  Zn  Zn1  1  0.24999000  0.17662000  0.50000000  1.0
  H  H2  1  0.47692000  0.83988000  0.34439000  1.0
  H  H3  1  0.02308000  0.83989000  0.65561000  1.0
  H  H4  1  0.52305000  0.16012000  0.65561000  1.0
  H  H5  1  0.97691000  0.16011000  0.34439000  1.0
  H  H6  1  0.78161000  0.07059000  0.42677000  1.0
  H  H7  1  0.71838000  0.07059000  0.57323000  1.0
  H  H8  1  0.21840000  0.92938000  0.57322000  1.0
  H  H9  1  0.28160000  0.92940000  0.42678000  1.0
  H  H10  1  0.59515000  0.14991000  0.27951000  1.0
  H  H11  1  0.90483000  0.14990000  0.72050000  1.0
  H  H12  1  0.40486000  0.85008000  0.72048000  1.0
  H  H13  1  0.09516000  0.85009000  0.27951000  1.0
  H  H14  1  0.36650000  0.83536000  0.19558000  1.0
  H  H15  1  0.13349000  0.83536000  0.80443000  1.0
  H  H16  1  0.63347000  0.16463000  0.80443000  1.0
  H  H17  1  0.86649000  0.16464000  0.19558000  1.0
  H  H18  1  0.15604000  0.85136000  0.07514000  1.0
  H  H19  1  0.34396000  0.85136000  0.92487000  1.0
  H  H20  1  0.84393000  0.14865000  0.92487000  1.0
  H  H21  1  0.65603000  0.14865000  0.07514000  1.0
  H  H22  1  0.16984000  0.19477000  0.10464000  1.0
  H  H23  1  0.33017000  0.19477000  0.89534000  1.0
  H  H24  1  0.83019000  0.80523000  0.89534000  1.0
  H  H25  1  0.66984000  0.80523000  0.10464000  1.0
  H  H26  1  0.37542000  0.17964000  0.22752000  1.0
  H  H27  1  0.12458000  0.17963000  0.77246000  1.0
  H  H28  1  0.62460000  0.82036000  0.77246000  1.0
  H  H29  1  0.87542000  0.82036000  0.22752000  1.0
  H  H30  1  0.05438000  0.68853000  0.35949000  1.0
  H  H31  1  0.44563000  0.68853000  0.64051000  1.0
  H  H32  1  0.94565000  0.31148000  0.64051000  1.0
  H  H33  1  0.55434000  0.31147000  0.35949000  1.0
  H  H34  1  0.12589000  0.61791000  0.22758000  1.0
  H  H35  1  0.37412000  0.61791000  0.77242000  1.0
  H  H36  1  0.87414000  0.38209000  0.77242000  1.0
  H  H37  1  0.62587000  0.38209000  0.22759000  1.0
  H  H38  1  0.71680000  0.52897000  0.10674000  1.0
  H  H39  1  0.78322000  0.52900000  0.89327000  1.0
  H  H40  1  0.28322000  0.47102000  0.89327000  1.0
  H  H41  1  0.21678000  0.47101000  0.10672000  1.0
  H  H42  1  0.64757000  0.60100000  0.23883000  1.0
  H  H43  1  0.85244000  0.60102000  0.76118000  1.0
  H  H44  1  0.35246000  0.39900000  0.76119000  1.0
  H  H45  1  0.14754000  0.39900000  0.23881000  1.0
  H  H46  1  0.92306000  0.35889000  0.17461000  1.0
  H  H47  1  0.57694000  0.35891000  0.82539000  1.0
  H  H48  1  0.07695000  0.64110000  0.82539000  1.0
  H  H49  1  0.42306000  0.64109000  0.17461000  1.0
  H  H50  1  0.94124000  0.26098000  0.09471000  1.0
  H  H51  1  0.55877000  0.26098000  0.90529000  1.0
  H  H52  1  0.05877000  0.73902000  0.90529000  1.0
  H  H53  1  0.44124000  0.73902000  0.09472000  1.0
  H  H54  1  0.78783000  0.33161000  0.08226000  1.0
  H  H55  1  0.71217000  0.33162000  0.91774000  1.0
  H  H56  1  0.21218000  0.66838000  0.91775000  1.0
  H  H57  1  0.28784000  0.66838000  0.08226000  1.0
  H  H58  1  0.02082000  0.69021000  0.04579000  1.0
  H  H59  1  0.47920000  0.69022000  0.95422000  1.0
  H  H60  1  0.97920000  0.30979000  0.95422000  1.0
  H  H61  1  0.52079000  0.30979000  0.04578000  1.0
  C  C62  1  0.53387000  0.91356000  0.34791000  1.0
  C  C63  1  0.96612000  0.91356000  0.65209000  1.0
  C  C64  1  0.46611000  0.08644000  0.65209000  1.0
  C  C65  1  0.03386000  0.08644000  0.34791000  1.0
  C  C66  1  0.68925000  0.03514000  0.38806000  1.0
  C  C67  1  0.81074000  0.03515000  0.61194000  1.0
  C  C68  1  0.31075000  0.96484000  0.61193000  1.0
  C  C69  1  0.18924000  0.96485000  0.38807000  1.0
  C  C70  1  0.59850000  0.07552000  0.31567000  1.0
  C  C71  1  0.90148000  0.07552000  0.68434000  1.0
  C  C72  1  0.40151000  0.92446000  0.68434000  1.0
  C  C73  1  0.09850000  0.92447000  0.31566000  1.0
  C  C74  1  0.38287000  0.00641000  0.21955000  1.0
  C  C75  1  0.11712000  0.00642000  0.78044000  1.0
  C  C76  1  0.61713000  0.99358000  0.78044000  1.0
  C  C77  1  0.88287000  0.99358000  0.21956000  1.0
  C  C78  1  0.32147000  0.91368000  0.17658000  1.0
  C  C79  1  0.17852000  0.91368000  0.82342000  1.0
  C  C80  1  0.67851000  0.08632000  0.82342000  1.0
  C  C81  1  0.82147000  0.08632000  0.17659000  1.0
  C  C82  1  0.20493000  0.92233000  0.10931000  1.0
  C  C83  1  0.29506000  0.92233000  0.89069000  1.0
  C  C84  1  0.79505000  0.07767000  0.89069000  1.0
  C  C85  1  0.70493000  0.07767000  0.10931000  1.0
  C  C86  1  0.14874000  0.02410000  0.08354000  1.0
  C  C87  1  0.35127000  0.02410000  0.91645000  1.0
  C  C88  1  0.85127000  0.97591000  0.91645000  1.0
  C  C89  1  0.64873000  0.97591000  0.08354000  1.0
  C  C90  1  0.21309000  0.11625000  0.12545000  1.0
  C  C91  1  0.28691000  0.11625000  0.87453000  1.0
  C  C92  1  0.78693000  0.88375000  0.87453000  1.0
  C  C93  1  0.71309000  0.88375000  0.12545000  1.0
  C  C94  1  0.32914000  0.10780000  0.19349000  1.0
  C  C95  1  0.17086000  0.10780000  0.80650000  1.0
  C  C96  1  0.67087000  0.89221000  0.80650000  1.0
  C  C97  1  0.82914000  0.89220000  0.19349000  1.0
  C  C98  1  0.79711000  0.70471000  0.37751000  1.0
  C  C99  1  0.70289000  0.70471000  0.62249000  1.0
  C  C100  1  0.20292000  0.29529000  0.62250000  1.0
  C  C101  1  0.29708000  0.29529000  0.37751000  1.0
  C  C102  1  0.84617000  0.65092000  0.30557000  1.0
  C  C103  1  0.65384000  0.65092000  0.69444000  1.0
  C  C104  1  0.15385000  0.34910000  0.69443000  1.0
  C  C105  1  0.34614000  0.34908000  0.30557000  1.0
  C  C106  1  0.98150000  0.65403000  0.30321000  1.0
  C  C107  1  0.51850000  0.65403000  0.69678000  1.0
  C  C108  1  0.01853000  0.34597000  0.69679000  1.0
  C  C109  1  0.48148000  0.34598000  0.30322000  1.0
  C  C110  1  0.02055000  0.61530000  0.22949000  1.0
  C  C111  1  0.47946000  0.61531000  0.77051000  1.0
  C  C112  1  0.97948000  0.38470000  0.77051000  1.0
  C  C113  1  0.52053000  0.38469000  0.22949000  1.0
  C  C114  1  0.92518000  0.57075000  0.15767000  1.0
  C  C115  1  0.57483000  0.57076000  0.84233000  1.0
  C  C116  1  0.07483000  0.42925000  0.84233000  1.0
  C  C117  1  0.42516000  0.42925000  0.15767000  1.0
  C  C118  1  0.79091000  0.56370000  0.16218000  1.0
  C  C119  1  0.70910000  0.56371000  0.83783000  1.0
  C  C120  1  0.20911000  0.43630000  0.83783000  1.0
  C  C121  1  0.29089000  0.43629000  0.16217000  1.0
  C  C122  1  0.75186000  0.60369000  0.23512000  1.0
  C  C123  1  0.74816000  0.60371000  0.76490000  1.0
  C  C124  1  0.24817000  0.39631000  0.76490000  1.0
  C  C125  1  0.25183000  0.39630000  0.23510000  1.0
  C  C126  1  0.96313000  0.53232000  0.07734000  1.0
  C  C127  1  0.53688000  0.53233000  0.92267000  1.0
  C  C128  1  0.03688000  0.46768000  0.92266000  1.0
  C  C129  1  0.46312000  0.46768000  0.07734000  1.0
  C  C130  1  0.94811000  0.42376000  0.05087000  1.0
  C  C131  1  0.55189000  0.42377000  0.94913000  1.0
  C  C132  1  0.05190000  0.57623000  0.94913000  1.0
  C  C133  1  0.44811000  0.57623000  0.05088000  1.0
  C  C134  1  0.89786000  0.33942000  0.10371000  1.0
  C  C135  1  0.60215000  0.33942000  0.89629000  1.0
  C  C136  1  0.10215000  0.66058000  0.89629000  1.0
  C  C137  1  0.39786000  0.66058000  0.10372000  1.0
  C  C138  1  0.01415000  0.60579000  0.02601000  1.0
  C  C139  1  0.48585000  0.60579000  0.97400000  1.0
  C  C140  1  0.98586000  0.39421000  0.97399000  1.0
  C  C141  1  0.51415000  0.39421000  0.02601000  1.0
  N  N142  1  0.64717000  0.93464000  0.40773000  1.0
  N  N143  1  0.85282000  0.93464000  0.59227000  1.0
  N  N144  1  0.35282000  0.06535000  0.59226000  1.0
  N  N145  1  0.14716000  0.06535000  0.40773000  1.0
  N  N146  1  0.49985000  0.99764000  0.29011000  1.0
  N  N147  1  0.00014000  0.99764000  0.70988000  1.0
  N  N148  1  0.50015000  0.00236000  0.70988000  1.0
  N  N149  1  0.99985000  0.00236000  0.29011000  1.0
  N  N150  1  0.02985000  0.04228000  0.01729000  1.0
  N  N151  1  0.47015000  0.04228000  0.98269000  1.0
  N  N152  1  0.97015000  0.95773000  0.98270000  1.0
  N  N153  1  0.52985000  0.95773000  0.01729000  1.0
  O  O154  1  0.67588000  0.69459000  0.37949000  1.0
  O  O155  1  0.82412000  0.69460000  0.62051000  1.0
  O  O156  1  0.32416000  0.30540000  0.62053000  1.0
  O  O157  1  0.17584000  0.30541000  0.37948000  1.0
  O  O158  1  0.88101000  0.76506000  0.43250000  1.0
  O  O159  1  0.61899000  0.76506000  0.56749000  1.0
  O  O160  1  0.11901000  0.23496000  0.56750000  1.0
  O  O161  1  0.38099000  0.23495000  0.43251000  1.0
