# generated using pymatgen
data_CdH20C28N4(Cl3O2)2
_symmetry_space_group_name_H-M   'P 1'
_cell_length_a   9.32731000
_cell_length_b   13.98120000
_cell_length_c   13.98120000
_cell_angle_alpha   77.10190000
_cell_angle_beta   70.55180000
_cell_angle_gamma   70.55150000
_symmetry_Int_Tables_number   1
_chemical_formula_structural   CdH20C28N4(Cl3O2)2
_chemical_formula_sum   'Cd2 H40 C56 N8 Cl12 O8'
_cell_volume   1608.12495778
_cell_formula_units_Z   2
loop_
 _symmetry_equiv_pos_site_id
 _symmetry_equiv_pos_as_xyz
  1  'x, y, z'
loop_
 _atom_site_type_symbol
 _atom_site_label
 _atom_site_symmetry_multiplicity
 _atom_site_fract_x
 _atom_site_fract_y
 _atom_site_fract_z
 _atom_site_occupancy
  Cd  Cd0  1  0.50000000  0.22808000  0.77193000  1.0
  Cd  Cd1  1  0.50000000  0.72777000  0.27223000  1.0
  H  H2  1  0.27918000  0.45068000  0.83958000  1.0
  H  H3  1  0.72082000  0.16043000  0.54932000  1.0
  H  H4  1  0.43026000  0.95060000  0.33985000  1.0
  H  H5  1  0.56972000  0.66016000  0.04940000  1.0
  H  H6  1  0.28990000  0.62784000  0.82619000  1.0
  H  H7  1  0.71010000  0.17381000  0.37216000  1.0
  H  H8  1  0.25633000  0.12789000  0.32621000  1.0
  H  H9  1  0.74367000  0.67379000  0.87211000  1.0
  H  H10  1  0.74651000  0.54687000  0.60276000  1.0
  H  H11  1  0.25349000  0.39725000  0.45313000  1.0
  H  H12  1  0.10420000  0.04701000  0.10237000  1.0
  H  H13  1  0.89580000  0.89763000  0.95299000  1.0
  H  H14  1  0.72280000  0.36742000  0.63427000  1.0
  H  H15  1  0.27720000  0.36573000  0.63258000  1.0
  H  H16  1  0.27562000  0.86743000  0.13405000  1.0
  H  H17  1  0.72438000  0.86595000  0.13257000  1.0
  H  H18  1  0.63418000  0.72362000  0.64268000  1.0
  H  H19  1  0.36582000  0.35731000  0.27639000  1.0
  H  H20  1  0.99982000  0.22371000  0.14270000  1.0
  H  H21  1  0.00018000  0.85729000  0.77629000  1.0
  H  H22  1  0.38200000  0.73672000  0.85362000  1.0
  H  H23  1  0.61801000  0.14638000  0.26328000  1.0
  H  H24  1  0.02809000  0.23643000  0.35384000  1.0
  H  H25  1  0.97192000  0.64615000  0.76357000  1.0
  H  H26  1  0.70333000  0.85155000  0.65930000  1.0
  H  H27  1  0.29667000  0.34070000  0.14846000  1.0
  H  H28  1  0.78622000  0.35117000  0.15944000  1.0
  H  H29  1  0.21379000  0.84056000  0.64883000  1.0
  H  H30  1  0.71438000  0.02342000  0.66676000  1.0
  H  H31  1  0.28562000  0.33324000  0.97659000  1.0
  H  H32  1  0.59567000  0.52295000  0.16708000  1.0
  H  H33  1  0.40433000  0.83292000  0.47704000  1.0
  H  H34  1  0.30671000  0.07374000  0.91027000  1.0
  H  H35  1  0.69328000  0.08973000  0.92626000  1.0
  H  H36  1  0.70929000  0.57332000  0.41083000  1.0
  H  H37  1  0.29072000  0.58918000  0.42668000  1.0
  H  H38  1  0.28332000  0.89877000  0.91754000  1.0
  H  H39  1  0.71668000  0.08246000  0.10123000  1.0
  H  H40  1  0.90060000  0.39846000  0.41800000  1.0
  H  H41  1  0.09941000  0.58201000  0.60153000  1.0
  C  C42  1  0.38354000  0.47395000  0.79106000  1.0
  C  C43  1  0.61646000  0.20894000  0.52605000  1.0
  C  C44  1  0.35143000  0.97394000  0.29109000  1.0
  C  C45  1  0.64857000  0.70892000  0.02605000  1.0
  C  C46  1  0.38993000  0.57315000  0.78239000  1.0
  C  C47  1  0.61006000  0.21761000  0.42686000  1.0
  C  C48  1  0.25493000  0.07320000  0.28223000  1.0
  C  C49  1  0.74506000  0.71777000  0.92680000  1.0
  C  C50  1  0.52455000  0.60147000  0.71670000  1.0
  C  C51  1  0.47544000  0.28329000  0.39854000  1.0
  C  C52  1  0.15776000  0.10150000  0.21648000  1.0
  C  C53  1  0.84225000  0.78351000  0.89850000  1.0
  C  C54  1  0.64293000  0.52739000  0.65802000  1.0
  C  C55  1  0.35707000  0.34197000  0.47262000  1.0
  C  C56  1  0.17199000  0.02748000  0.15773000  1.0
  C  C57  1  0.82801000  0.84227000  0.97252000  1.0
  C  C58  1  0.62937000  0.42863000  0.67375000  1.0
  C  C59  1  0.37063000  0.32625000  0.57137000  1.0
  C  C60  1  0.26826000  0.92868000  0.17362000  1.0
  C  C61  1  0.73174000  0.82638000  0.07131000  1.0
  C  C62  1  0.54643000  0.70120000  0.71105000  1.0
  C  C63  1  0.45356000  0.28894000  0.29881000  1.0
  C  C64  1  0.04167000  0.20120000  0.21105000  1.0
  C  C65  1  0.95835000  0.78894000  0.79880000  1.0
  C  C66  1  0.46843000  0.76186000  0.78619000  1.0
  C  C67  1  0.53157000  0.21381000  0.23815000  1.0
  C  C68  1  0.98391000  0.26160000  0.28643000  1.0
  C  C69  1  0.01610000  0.71357000  0.73840000  1.0
  C  C70  1  0.48857000  0.86041000  0.78691000  1.0
  C  C71  1  0.51143000  0.21309000  0.13960000  1.0
  C  C72  1  0.86435000  0.36009000  0.28725000  1.0
  C  C73  1  0.13565000  0.71276000  0.63990000  1.0
  C  C74  1  0.61243000  0.89718000  0.71662000  1.0
  C  C75  1  0.38756000  0.28338000  0.10283000  1.0
  C  C76  1  0.77407000  0.39678000  0.21689000  1.0
  C  C77  1  0.22593000  0.78312000  0.60321000  1.0
  C  C78  1  0.61908000  0.99374000  0.72023000  1.0
  C  C79  1  0.38092000  0.27976000  0.00627000  1.0
  C  C80  1  0.66729000  0.49326000  0.22055000  1.0
  C  C81  1  0.33271000  0.77945000  0.50674000  1.0
  C  C82  1  0.39360000  0.02069000  0.85758000  1.0
  C  C83  1  0.60640000  0.14241000  0.97932000  1.0
  C  C84  1  0.72831000  0.52026000  0.35803000  1.0
  C  C85  1  0.27170000  0.64197000  0.47974000  1.0
  C  C86  1  0.38030000  0.92402000  0.86022000  1.0
  C  C87  1  0.61969000  0.13978000  0.07599000  1.0
  C  C88  1  0.83566000  0.42365000  0.36066000  1.0
  C  C89  1  0.16435000  0.63935000  0.57634000  1.0
  C  C90  1  0.89446000  0.11202000  0.71778000  1.0
  C  C91  1  0.10554000  0.28222000  0.88798000  1.0
  C  C92  1  0.27576000  0.61170000  0.21806000  1.0
  C  C93  1  0.72425000  0.78194000  0.38830000  1.0
  C  C94  1  0.04693000  0.10809000  0.62159000  1.0
  C  C95  1  0.95307000  0.37841000  0.89191000  1.0
  C  C96  1  0.22323000  0.60792000  0.12185000  1.0
  C  C97  1  0.77677000  0.87816000  0.39208000  1.0
  N  N98  1  0.50293000  0.40152000  0.74032000  1.0
  N  N99  1  0.49707000  0.25968000  0.59848000  1.0
  N  N100  1  0.35489000  0.90150000  0.24042000  1.0
  N  N101  1  0.64510000  0.75959000  0.09849000  1.0
  N  N102  1  0.51052000  0.05569000  0.78796000  1.0
  N  N103  1  0.48946000  0.21204000  0.94432000  1.0
  N  N104  1  0.64610000  0.55521000  0.28833000  1.0
  N  N105  1  0.35390000  0.71167000  0.44477000  1.0
  Cl  Cl106  1  0.02605000  0.03834000  0.53513000  1.0
  Cl  Cl107  1  0.97395000  0.46487000  0.96166000  1.0
  Cl  Cl108  1  0.40012000  0.53831000  0.03532000  1.0
  Cl  Cl109  1  0.59987000  0.96468000  0.46169000  1.0
  Cl  Cl110  1  0.05678000  0.23253000  0.55782000  1.0
  Cl  Cl111  1  0.94322000  0.44218000  0.76747000  1.0
  Cl  Cl112  1  0.15277000  0.73246000  0.05830000  1.0
  Cl  Cl113  1  0.84722000  0.94171000  0.26753000  1.0
  Cl  Cl114  1  0.22614000  0.04399000  0.65452000  1.0
  Cl  Cl115  1  0.77385000  0.34548000  0.95601000  1.0
  Cl  Cl116  1  0.07514000  0.54386000  0.15458000  1.0
  Cl  Cl117  1  0.92487000  0.84542000  0.45613000  1.0
  O  O118  1  0.77696000  0.18627000  0.70446000  1.0
  O  O119  1  0.22304000  0.29554000  0.81373000  1.0
  O  O120  1  0.33278000  0.68580000  0.20465000  1.0
  O  O121  1  0.66723000  0.79535000  0.31419000  1.0
  O  O122  1  0.90708000  0.04111000  0.78868000  1.0
  O  O123  1  0.09293000  0.21131000  0.95889000  1.0
  O  O124  1  0.26280000  0.54090000  0.28904000  1.0
  O  O125  1  0.73721000  0.71097000  0.45910000  1.0
