# generated using pymatgen
data_ZnH15C16N7O4
_symmetry_space_group_name_H-M   'P 1'
_cell_length_a   8.89202000
_cell_length_b   14.55120000
_cell_length_c   14.58380000
_cell_angle_alpha   89.99990000
_cell_angle_beta   80.82930000
_cell_angle_gamma   89.99970000
_symmetry_Int_Tables_number   1
_chemical_formula_structural   ZnH15C16N7O4
_chemical_formula_sum   'Zn4 H60 C64 N28 O16'
_cell_volume   1862.87176496
_cell_formula_units_Z   4
loop_
 _symmetry_equiv_pos_site_id
 _symmetry_equiv_pos_as_xyz
  1  'x, y, z'
loop_
 _atom_site_type_symbol
 _atom_site_label
 _atom_site_symmetry_multiplicity
 _atom_site_fract_x
 _atom_site_fract_y
 _atom_site_fract_z
 _atom_site_occupancy
  Zn  Zn0  1  0.21870000  0.65182000  0.80157000  1.0
  Zn  Zn1  1  0.28129000  0.15183000  0.69843000  1.0
  Zn  Zn2  1  0.78130000  0.34818000  0.19843000  1.0
  Zn  Zn3  1  0.71871000  0.84817000  0.30157000  1.0
  H  H4  1  0.46978000  0.71263000  0.02294000  1.0
  H  H5  1  0.03021000  0.21264000  0.47705000  1.0
  H  H6  1  0.53023000  0.28736000  0.97706000  1.0
  H  H7  1  0.96979000  0.78735000  0.52294000  1.0
  H  H8  1  0.87738000  0.61794000  0.11581000  1.0
  H  H9  1  0.62262000  0.11793000  0.38420000  1.0
  H  H10  1  0.12264000  0.38207000  0.88419000  1.0
  H  H11  1  0.37737000  0.88207000  0.61582000  1.0
  H  H12  1  0.74485000  0.50421000  0.86766000  1.0
  H  H13  1  0.75517000  0.00422000  0.63234000  1.0
  H  H14  1  0.25517000  0.49579000  0.13234000  1.0
  H  H15  1  0.24484000  0.99579000  0.36767000  1.0
  H  H16  1  0.21878000  0.34108000  0.64255000  1.0
  H  H17  1  0.28119000  0.84108000  0.85745000  1.0
  H  H18  1  0.78121000  0.65892000  0.35745000  1.0
  H  H19  1  0.71880000  0.15891000  0.14255000  1.0
  H  H20  1  0.16776000  0.73644000  0.01028000  1.0
  H  H21  1  0.33224000  0.23644000  0.48972000  1.0
  H  H22  1  0.83222000  0.26355000  0.98972000  1.0
  H  H23  1  0.66778000  0.76355000  0.51028000  1.0
  H  H24  1  0.93392000  0.56928000  0.72059000  1.0
  H  H25  1  0.56606000  0.06929000  0.77941000  1.0
  H  H26  1  0.06609000  0.43072000  0.27940000  1.0
  H  H27  1  0.43393000  0.93071000  0.22060000  1.0
  H  H28  1  0.09835000  0.41348000  0.47467000  1.0
  H  H29  1  0.40165000  0.91347000  0.02533000  1.0
  H  H30  1  0.90167000  0.58652000  0.52533000  1.0
  H  H31  1  0.59833000  0.08652000  0.97467000  1.0
  H  H32  1  0.90680000  0.42322000  0.46118000  1.0
  H  H33  1  0.59320000  0.92322000  0.03881000  1.0
  H  H34  1  0.09322000  0.57678000  0.53881000  1.0
  H  H35  1  0.40677000  0.07678000  0.96120000  1.0
  H  H36  1  0.82148000  0.43816000  0.62924000  1.0
  H  H37  1  0.67850000  0.93816000  0.87076000  1.0
  H  H38  1  0.17853000  0.56184000  0.37075000  1.0
  H  H39  1  0.32148000  0.06183000  0.12926000  1.0
  H  H40  1  0.93090000  0.33729000  0.60277000  1.0
  H  H41  1  0.56908000  0.83729000  0.89723000  1.0
  H  H42  1  0.06910000  0.66271000  0.39723000  1.0
  H  H43  1  0.43091000  0.16270000  0.10278000  1.0
  H  H44  1  0.87329000  0.74298000  0.81182000  1.0
  H  H45  1  0.62671000  0.24298000  0.68818000  1.0
  H  H46  1  0.12671000  0.25704000  0.18817000  1.0
  H  H47  1  0.37330000  0.75703000  0.31182000  1.0
  H  H48  1  0.00990000  0.85731000  0.12948000  1.0
  H  H49  1  0.49010000  0.35730000  0.37052000  1.0
  H  H50  1  0.99009000  0.14268000  0.87052000  1.0
  H  H51  1  0.50990000  0.64268000  0.62948000  1.0
  H  H52  1  0.83781000  0.89652000  0.09764000  1.0
  H  H53  1  0.66219000  0.39652000  0.40236000  1.0
  H  H54  1  0.16218000  0.10347000  0.90236000  1.0
  H  H55  1  0.33781000  0.60347000  0.59763000  1.0
  H  H56  1  0.03002000  0.01994000  0.09972000  1.0
  H  H57  1  0.46997000  0.51993000  0.40028000  1.0
  H  H58  1  0.96997000  0.98006000  0.90029000  1.0
  H  H59  1  0.53002000  0.48005000  0.59971000  1.0
  H  H60  1  0.15773000  0.96365000  0.01268000  1.0
  H  H61  1  0.34227000  0.46364000  0.48731000  1.0
  H  H62  1  0.84226000  0.03635000  0.98732000  1.0
  H  H63  1  0.65773000  0.53634000  0.51268000  1.0
  C  C64  1  0.56938000  0.66814000  0.01306000  1.0
  C  C65  1  0.93061000  0.16815000  0.48693000  1.0
  C  C66  1  0.43063000  0.33185000  0.98694000  1.0
  C  C67  1  0.06939000  0.83185000  0.51306000  1.0
  C  C68  1  0.50022000  0.61485000  0.86035000  1.0
  C  C69  1  0.99978000  0.11487000  0.63965000  1.0
  C  C70  1  0.49979000  0.38515000  0.13965000  1.0
  C  C71  1  0.00022000  0.88515000  0.36035000  1.0
  C  C72  1  0.67020000  0.67193000  0.07776000  1.0
  C  C73  1  0.82980000  0.17193000  0.42224000  1.0
  C  C74  1  0.32982000  0.32807000  0.92224000  1.0
  C  C75  1  0.17020000  0.82806000  0.57776000  1.0
  C  C76  1  0.59768000  0.61029000  0.93571000  1.0
  C  C77  1  0.90233000  0.11030000  0.56428000  1.0
  C  C78  1  0.40234000  0.38971000  0.06428000  1.0
  C  C79  1  0.09767000  0.88970000  0.43572000  1.0
  C  C80  1  0.64153000  0.74063000  0.15570000  1.0
  C  C81  1  0.85844000  0.24063000  0.34430000  1.0
  C  C82  1  0.35849000  0.25937000  0.84430000  1.0
  C  C83  1  0.14153000  0.75937000  0.65570000  1.0
  C  C84  1  0.79738000  0.61486000  0.06685000  1.0
  C  C85  1  0.70261000  0.11486000  0.43315000  1.0
  C  C86  1  0.20263000  0.38514000  0.93314000  1.0
  C  C87  1  0.29737000  0.88514000  0.56686000  1.0
  C  C88  1  0.82295000  0.55322000  0.99183000  1.0
  C  C89  1  0.67706000  0.05322000  0.50817000  1.0
  C  C90  1  0.17707000  0.44678000  0.00817000  1.0
  C  C91  1  0.32294000  0.94678000  0.49183000  1.0
  C  C92  1  0.72324000  0.55117000  0.92650000  1.0
  C  C93  1  0.77677000  0.05118000  0.57350000  1.0
  C  C94  1  0.27678000  0.44883000  0.07349000  1.0
  C  C95  1  0.22323000  0.94883000  0.42651000  1.0
  C  C96  1  0.17885000  0.40639000  0.67269000  1.0
  C  C97  1  0.32113000  0.90639000  0.82731000  1.0
  C  C98  1  0.82115000  0.59361000  0.32731000  1.0
  C  C99  1  0.67886000  0.09360000  0.17269000  1.0
  C  C100  1  0.07578000  0.75389000  0.97270000  1.0
  C  C101  1  0.42422000  0.25389000  0.52730000  1.0
  C  C102  1  0.92421000  0.24611000  0.02730000  1.0
  C  C103  1  0.57579000  0.74610000  0.47270000  1.0
  C  C104  1  0.02887000  0.52178000  0.71408000  1.0
  C  C105  1  0.47112000  0.02178000  0.78592000  1.0
  C  C106  1  0.97114000  0.47822000  0.28592000  1.0
  C  C107  1  0.52888000  0.97821000  0.21409000  1.0
  C  C108  1  0.99057000  0.44779000  0.50339000  1.0
  C  C109  1  0.50943000  0.94779000  0.99661000  1.0
  C  C110  1  0.00945000  0.55221000  0.49661000  1.0
  C  C111  1  0.49055000  0.05221000  0.00340000  1.0
  C  C112  1  0.93588000  0.41258000  0.60203000  1.0
  C  C113  1  0.56411000  0.91258000  0.89797000  1.0
  C  C114  1  0.06413000  0.58742000  0.39797000  1.0
  C  C115  1  0.43588000  0.08741000  0.10204000  1.0
  C  C116  1  0.92231000  0.75777000  0.87367000  1.0
  C  C117  1  0.57769000  0.25777000  0.62633000  1.0
  C  C118  1  0.07768000  0.24224000  0.12632000  1.0
  C  C119  1  0.42233000  0.74223000  0.37368000  1.0
  C  C120  1  0.95909000  0.88598000  0.07202000  1.0
  C  C121  1  0.54091000  0.38597000  0.42798000  1.0
  C  C122  1  0.04090000  0.11402000  0.92798000  1.0
  C  C123  1  0.45909000  0.61401000  0.57202000  1.0
  C  C124  1  0.03591000  0.97616000  0.03791000  1.0
  C  C125  1  0.46409000  0.47615000  0.46209000  1.0
  C  C126  1  0.96408000  0.02384000  0.96210000  1.0
  C  C127  1  0.53591000  0.52384000  0.53790000  1.0
  N  N128  1  0.25301000  0.46035000  0.72249000  1.0
  N  N129  1  0.24697000  0.96036000  0.77752000  1.0
  N  N130  1  0.74699000  0.53965000  0.27752000  1.0
  N  N131  1  0.75302000  0.03964000  0.22248000  1.0
  N  N132  1  0.05081000  0.71525000  0.89295000  1.0
  N  N133  1  0.44919000  0.21525000  0.60705000  1.0
  N  N134  1  0.94918000  0.28475000  0.10705000  1.0
  N  N135  1  0.55083000  0.78475000  0.39295000  1.0
  N  N136  1  0.96798000  0.81736000  0.99845000  1.0
  N  N137  1  0.53202000  0.31736000  0.50154000  1.0
  N  N138  1  0.03201000  0.18264000  0.00155000  1.0
  N  N139  1  0.46799000  0.68263000  0.49846000  1.0
  N  N140  1  0.15703000  0.53368000  0.74824000  1.0
  N  N141  1  0.34295000  0.03368000  0.75176000  1.0
  N  N142  1  0.84297000  0.46632000  0.25176000  1.0
  N  N143  1  0.65704000  0.96632000  0.24824000  1.0
  N  N144  1  0.94870000  0.49252000  0.97531000  1.0
  N  N145  1  0.55131000  0.99252000  0.52469000  1.0
  N  N146  1  0.05132000  0.50749000  0.02468000  1.0
  N  N147  1  0.44869000  0.00749000  0.47532000  1.0
  N  N148  1  0.03831000  0.44205000  0.66564000  1.0
  N  N149  1  0.46167000  0.94206000  0.83436000  1.0
  N  N150  1  0.96170000  0.55794000  0.33436000  1.0
  N  N151  1  0.53832000  0.05794000  0.16564000  1.0
  N  N152  1  0.86857000  0.82035000  0.93640000  1.0
  N  N153  1  0.63143000  0.32035000  0.56360000  1.0
  N  N154  1  0.13143000  0.17965000  0.06360000  1.0
  N  N155  1  0.36858000  0.67965000  0.43640000  1.0
  O  O156  1  0.36926000  0.65627000  0.88491000  1.0
  O  O157  1  0.13075000  0.15628000  0.61508000  1.0
  O  O158  1  0.63075000  0.34373000  0.11509000  1.0
  O  O159  1  0.86926000  0.84372000  0.38492000  1.0
  O  O160  1  0.75386000  0.75375000  0.20149000  1.0
  O  O161  1  0.74613000  0.25375000  0.29850000  1.0
  O  O162  1  0.24615000  0.24624000  0.79851000  1.0
  O  O163  1  0.25386000  0.74624000  0.70149000  1.0
  O  O164  1  0.51664000  0.78235000  0.17097000  1.0
  O  O165  1  0.98334000  0.28236000  0.32903000  1.0
  O  O166  1  0.48337000  0.21765000  0.82903000  1.0
  O  O167  1  0.01664000  0.71765000  0.67097000  1.0
  O  O168  1  0.54719000  0.58320000  0.78169000  1.0
  O  O169  1  0.95280000  0.08325000  0.71831000  1.0
  O  O170  1  0.45283000  0.41680000  0.21830000  1.0
  O  O171  1  0.04718000  0.91678000  0.28169000  1.0
