# generated using pymatgen
data_ZnMoH9C12N5O4
_symmetry_space_group_name_H-M   'P 1'
_cell_length_a   6.35989000
_cell_length_b   9.38817000
_cell_length_c   22.97430000
_cell_angle_alpha   89.99980000
_cell_angle_beta   90.00000000
_cell_angle_gamma   89.99970000
_symmetry_Int_Tables_number   1
_chemical_formula_structural   ZnMoH9C12N5O4
_chemical_formula_sum   'Zn4 Mo4 H36 C48 N20 O16'
_cell_volume   1371.74326688
_cell_formula_units_Z   4
loop_
 _symmetry_equiv_pos_site_id
 _symmetry_equiv_pos_as_xyz
  1  'x, y, z'
loop_
 _atom_site_type_symbol
 _atom_site_label
 _atom_site_symmetry_multiplicity
 _atom_site_fract_x
 _atom_site_fract_y
 _atom_site_fract_z
 _atom_site_occupancy
  Zn  Zn0  1  0.49860000  0.31070000  0.06182000  1.0
  Zn  Zn1  1  0.99860000  0.68930000  0.93818000  1.0
  Zn  Zn2  1  0.49859000  0.18930000  0.56182000  1.0
  Zn  Zn3  1  0.99860000  0.81070000  0.43818000  1.0
  Mo  Mo4  1  0.99861000  0.51873000  0.08052000  1.0
  Mo  Mo5  1  0.49861000  0.48127000  0.91948000  1.0
  Mo  Mo6  1  0.99861000  0.98127000  0.58052000  1.0
  Mo  Mo7  1  0.49861000  0.01873000  0.41948000  1.0
  H  H8  1  0.50015000  0.11765000  0.28326000  1.0
  H  H9  1  0.00014000  0.88235000  0.71674000  1.0
  H  H10  1  0.50015000  0.38235000  0.78325000  1.0
  H  H11  1  0.00015000  0.61765000  0.21675000  1.0
  H  H12  1  0.50925000  0.31587000  0.32466000  1.0
  H  H13  1  0.00925000  0.68413000  0.67535000  1.0
  H  H14  1  0.50925000  0.18413000  0.82466000  1.0
  H  H15  1  0.00925000  0.81587000  0.17534000  1.0
  H  H16  1  0.49853000  0.10840000  0.95626000  1.0
  H  H17  1  0.99853000  0.89161000  0.04374000  1.0
  H  H18  1  0.49853000  0.39161000  0.45626000  1.0
  H  H19  1  0.99853000  0.60839000  0.54374000  1.0
  H  H20  1  0.50685000  0.79505000  0.12771000  1.0
  H  H21  1  0.00685000  0.20495000  0.87229000  1.0
  H  H22  1  0.50685000  0.70495000  0.62770000  1.0
  H  H23  1  0.00685000  0.29505000  0.37230000  1.0
  H  H24  1  0.49205000  0.52360000  0.15668000  1.0
  H  H25  1  0.99204000  0.47640000  0.84332000  1.0
  H  H26  1  0.49204000  0.97640000  0.65668000  1.0
  H  H27  1  0.99204000  0.02360000  0.34332000  1.0
  H  H28  1  0.49391000  0.75894000  0.21171000  1.0
  H  H29  1  0.99391000  0.24106000  0.78829000  1.0
  H  H30  1  0.49390000  0.74106000  0.71171000  1.0
  H  H31  1  0.99391000  0.25894000  0.28829000  1.0
  H  H32  1  0.50201000  0.75565000  0.31884000  1.0
  H  H33  1  0.00201000  0.24435000  0.68116000  1.0
  H  H34  1  0.50201000  0.74436000  0.81884000  1.0
  H  H35  1  0.00201000  0.25565000  0.18116000  1.0
  H  H36  1  0.50028000  0.84424000  0.94048000  1.0
  H  H37  1  0.00028000  0.15576000  0.05952000  1.0
  H  H38  1  0.50028000  0.65576000  0.44048000  1.0
  H  H39  1  0.00028000  0.34424000  0.55952000  1.0
  H  H40  1  0.50422000  0.68381000  0.02874000  1.0
  H  H41  1  0.00422000  0.31619000  0.97126000  1.0
  H  H42  1  0.50422000  0.81619000  0.52874000  1.0
  H  H43  1  0.00422000  0.18381000  0.47126000  1.0
  C  C44  1  0.50062000  0.26057000  0.20823000  1.0
  C  C45  1  0.00062000  0.73943000  0.79177000  1.0
  C  C46  1  0.50062000  0.23943000  0.70823000  1.0
  C  C47  1  0.00062000  0.76057000  0.29177000  1.0
  C  C48  1  0.50076000  0.40030000  0.23631000  1.0
  C  C49  1  0.00076000  0.59969000  0.76369000  1.0
  C  C50  1  0.50077000  0.09970000  0.73631000  1.0
  C  C51  1  0.00076000  0.90030000  0.26369000  1.0
  C  C52  1  0.50233000  0.00854000  0.09350000  1.0
  C  C53  1  0.00232000  0.99146000  0.90650000  1.0
  C  C54  1  0.50232000  0.49146000  0.59350000  1.0
  C  C55  1  0.00233000  0.50854000  0.40650000  1.0
  C  C56  1  0.50552000  0.41150000  0.29755000  1.0
  C  C57  1  0.00552000  0.58850000  0.70246000  1.0
  C  C58  1  0.50553000  0.08851000  0.79754000  1.0
  C  C59  1  0.00552000  0.91150000  0.20246000  1.0
  C  C60  1  0.50216000  0.08441000  0.14887000  1.0
  C  C61  1  0.00215000  0.91558000  0.85113000  1.0
  C  C62  1  0.50216000  0.41558000  0.64886000  1.0
  C  C63  1  0.00215000  0.58442000  0.35114000  1.0
  C  C64  1  0.49978000  0.03382000  0.99258000  1.0
  C  C65  1  0.99978000  0.96618000  0.00742000  1.0
  C  C66  1  0.49978000  0.46618000  0.49258000  1.0
  C  C67  1  0.99978000  0.53382000  0.50742000  1.0
  C  C68  1  0.50417000  0.86019000  0.08864000  1.0
  C  C69  1  0.00417000  0.13981000  0.91136000  1.0
  C  C70  1  0.50417000  0.63981000  0.58864000  1.0
  C  C71  1  0.00417000  0.36019000  0.41136000  1.0
  C  C72  1  0.49639000  0.52730000  0.20405000  1.0
  C  C73  1  0.99639000  0.47270000  0.79595000  1.0
  C  C74  1  0.49639000  0.97270000  0.70405000  1.0
  C  C75  1  0.99639000  0.02730000  0.29595000  1.0
  C  C76  1  0.49714000  0.65634000  0.23387000  1.0
  C  C77  1  0.99714000  0.34366000  0.76613000  1.0
  C  C78  1  0.49713000  0.84366000  0.73387000  1.0
  C  C79  1  0.99714000  0.15634000  0.26613000  1.0
  C  C80  1  0.50164000  0.65538000  0.29462000  1.0
  C  C81  1  0.00164000  0.34461000  0.70538000  1.0
  C  C82  1  0.50164000  0.84462000  0.79462000  1.0
  C  C83  1  0.00164000  0.15539000  0.20538000  1.0
  C  C84  1  0.50075000  0.88716000  0.98448000  1.0
  C  C85  1  0.00075000  0.11284000  0.01551000  1.0
  C  C86  1  0.50075000  0.61284000  0.48448000  1.0
  C  C87  1  0.00075000  0.38716000  0.51552000  1.0
  C  C88  1  0.50299000  0.79915000  0.03348000  1.0
  C  C89  1  0.00299000  0.20085000  0.96651000  1.0
  C  C90  1  0.50299000  0.70085000  0.53348000  1.0
  C  C91  1  0.00299000  0.29915000  0.46652000  1.0
  N  N92  1  0.50105000  0.13522000  0.23768000  1.0
  N  N93  1  0.00105000  0.86478000  0.76232000  1.0
  N  N94  1  0.50106000  0.36478000  0.73768000  1.0
  N  N95  1  0.00105000  0.63522000  0.26232000  1.0
  N  N96  1  0.50108000  0.22975000  0.15095000  1.0
  N  N97  1  0.00107000  0.77025000  0.84905000  1.0
  N  N98  1  0.50108000  0.27025000  0.65095000  1.0
  N  N99  1  0.00107000  0.72975000  0.34905000  1.0
  N  N100  1  0.50226000  0.02315000  0.20127000  1.0
  N  N101  1  0.00225000  0.97685000  0.79873000  1.0
  N  N102  1  0.50226000  0.47685000  0.70127000  1.0
  N  N103  1  0.00226000  0.52315000  0.29873000  1.0
  N  N104  1  0.50027000  0.09303000  0.04586000  1.0
  N  N105  1  0.00027000  0.90697000  0.95414000  1.0
  N  N106  1  0.50027000  0.40697000  0.54586000  1.0
  N  N107  1  0.00027000  0.59303000  0.45414000  1.0
  N  N108  1  0.50560000  0.53544000  0.32640000  1.0
  N  N109  1  0.00560000  0.46456000  0.67360000  1.0
  N  N110  1  0.50561000  0.96456000  0.82640000  1.0
  N  N111  1  0.00560000  0.03544000  0.17360000  1.0
  O  O112  1  0.76708000  0.41363000  0.07286000  1.0
  O  O113  1  0.26709000  0.58638000  0.92714000  1.0
  O  O114  1  0.76708000  0.08638000  0.57286000  1.0
  O  O115  1  0.26709000  0.91362000  0.42714000  1.0
  O  O116  1  0.22905000  0.41219000  0.07307000  1.0
  O  O117  1  0.72906000  0.58780000  0.92693000  1.0
  O  O118  1  0.22905000  0.08780000  0.57307000  1.0
  O  O119  1  0.72906000  0.91220000  0.42693000  1.0
  O  O120  1  0.99925000  0.65417000  0.02703000  1.0
  O  O121  1  0.49925000  0.34582000  0.97297000  1.0
  O  O122  1  0.99925000  0.84582000  0.52703000  1.0
  O  O123  1  0.49925000  0.15418000  0.47297000  1.0
  O  O124  1  0.99877000  0.59965000  0.14950000  1.0
  O  O125  1  0.49877000  0.40035000  0.85050000  1.0
  O  O126  1  0.99878000  0.90035000  0.64950000  1.0
  O  O127  1  0.49877000  0.09965000  0.35050000  1.0
