# generated using pymatgen
data_LaH11C17O11
_symmetry_space_group_name_H-M   'P 1'
_cell_length_a   8.89135000
_cell_length_b   8.90237000
_cell_length_c   12.69034084
_cell_angle_alpha   78.45445106
_cell_angle_beta   69.74895167
_cell_angle_gamma   60.92650000
_symmetry_Int_Tables_number   1
_chemical_formula_structural   LaH11C17O11
_chemical_formula_sum   'La2 H22 C34 O22'
_cell_volume   823.02905962
_cell_formula_units_Z   2
loop_
 _symmetry_equiv_pos_site_id
 _symmetry_equiv_pos_as_xyz
  1  'x, y, z'
loop_
 _atom_site_type_symbol
 _atom_site_label
 _atom_site_symmetry_multiplicity
 _atom_site_fract_x
 _atom_site_fract_y
 _atom_site_fract_z
 _atom_site_occupancy
  La  La0  1  0.32975000  0.23445000  0.58466000  1.0
  La  La1  1  0.67025000  0.76555000  0.41534000  1.0
  H  H2  1  0.99261000  0.18464000  0.46118000  1.0
  H  H3  1  0.00740000  0.81536000  0.53881000  1.0
  H  H4  1  0.37198000  0.99563000  0.14234000  1.0
  H  H5  1  0.62802000  0.00437000  0.85766000  1.0
  H  H6  1  0.84144000  0.03256000  0.22688000  1.0
  H  H7  1  0.15856000  0.96744000  0.77312000  1.0
  H  H8  1  0.29282000  0.09225000  0.98604000  1.0
  H  H9  1  0.70718000  0.90774000  0.01396000  1.0
  H  H10  1  0.24611000  0.99189000  0.89890000  1.0
  H  H11  1  0.75389000  0.00811000  0.10110000  1.0
  H  H12  1  0.22834000  0.72751000  0.93873000  1.0
  H  H13  1  0.77167000  0.27249000  0.06126000  1.0
  H  H14  1  0.09709000  0.46383000  0.84324000  1.0
  H  H15  1  0.90291000  0.53618000  0.15676000  1.0
  H  H16  1  0.66687000  0.33639000  0.71380000  1.0
  H  H17  1  0.33314000  0.66361000  0.28620000  1.0
  H  H18  1  0.77325000  0.63046000  0.88614000  1.0
  H  H19  1  0.22675000  0.36955000  0.11386000  1.0
  H  H20  1  0.28799000  0.59997000  0.49626000  1.0
  H  H21  1  0.71201000  0.40003000  0.50374000  1.0
  H  H22  1  0.16070000  0.57018000  0.44532000  1.0
  H  H23  1  0.83930000  0.42982000  0.55468000  1.0
  C  C24  1  0.71971000  0.14468000  0.43514000  1.0
  C  C25  1  0.28028000  0.85532000  0.56487000  1.0
  C  C26  1  0.89815000  0.11091000  0.35308000  1.0
  C  C27  1  0.10185000  0.88909000  0.64692000  1.0
  C  C28  1  0.02257000  0.13851000  0.37985000  1.0
  C  C29  1  0.97743000  0.86149000  0.62015000  1.0
  C  C30  1  0.19233000  0.09612000  0.30319000  1.0
  C  C31  1  0.80767000  0.90388000  0.69681000  1.0
  C  C32  1  0.33281000  0.10570000  0.33739000  1.0
  C  C33  1  0.66719000  0.89429000  0.66261000  1.0
  C  C34  1  0.23635000  0.03329000  0.19842000  1.0
  C  C35  1  0.76365000  0.96671000  0.80158000  1.0
  C  C36  1  0.10642000  0.01841000  0.16946000  1.0
  C  C37  1  0.89358000  0.98159000  0.83054000  1.0
  C  C38  1  0.93983000  0.05091000  0.24813000  1.0
  C  C39  1  0.06016000  0.94909000  0.75187000  1.0
  C  C40  1  0.27750000  0.98055000  0.97715000  1.0
  C  C41  1  0.72250000  0.01945000  0.02285000  1.0
  C  C42  1  0.49530000  0.69789000  0.91466000  1.0
  C  C43  1  0.50470000  0.30211000  0.08534000  1.0
  C  C44  1  0.37189000  0.65774000  0.89731000  1.0
  C  C45  1  0.62811000  0.34226000  0.10269000  1.0
  C  C46  1  0.43673000  0.52569000  0.82462000  1.0
  C  C47  1  0.56327000  0.47431000  0.17538000  1.0
  C  C48  1  0.31780000  0.47625000  0.79689000  1.0
  C  C49  1  0.68220000  0.52375000  0.20311000  1.0
  C  C50  1  0.62069000  0.43546000  0.77152000  1.0
  C  C51  1  0.37931000  0.56453000  0.22848000  1.0
  C  C52  1  0.74287000  0.47025000  0.79488000  1.0
  C  C53  1  0.25713000  0.52976000  0.20512000  1.0
  C  C54  1  0.93806000  0.37783000  0.73393000  1.0
  C  C55  1  0.06195000  0.62217000  0.26607000  1.0
  C  C56  1  0.68028000  0.59932000  0.86844000  1.0
  C  C57  1  0.31972000  0.40068000  0.13156000  1.0
  O  O58  1  0.63743000  0.26587000  0.50350000  1.0
  O  O59  1  0.36256000  0.73413000  0.49651000  1.0
  O  O60  1  0.64730000  0.05060000  0.43515000  1.0
  O  O61  1  0.35269000  0.94940000  0.56485000  1.0
  O  O62  1  0.28187000  0.22023000  0.40466000  1.0
  O  O63  1  0.71813000  0.77977000  0.59534000  1.0
  O  O64  1  0.49497000  0.99089000  0.29856000  1.0
  O  O65  1  0.50503000  0.00910000  0.70144000  1.0
  O  O66  1  0.13199000  0.97085000  0.06539000  1.0
  O  O67  1  0.86801000  0.02915000  0.93461000  1.0
  O  O68  1  0.44580000  0.83484000  0.97597000  1.0
  O  O69  1  0.55420000  0.16516000  0.02403000  1.0
  O  O70  1  0.15687000  0.51430000  0.87125000  1.0
  O  O71  1  0.84313000  0.48571000  0.12875000  1.0
  O  O72  1  0.37013000  0.40103000  0.70929000  1.0
  O  O73  1  0.62987000  0.59897000  0.29072000  1.0
  O  O74  1  0.05865000  0.35092000  0.77842000  1.0
  O  O75  1  0.94135000  0.64908000  0.22158000  1.0
  O  O76  1  0.98410000  0.32617000  0.63532000  1.0
  O  O77  1  0.01590000  0.67383000  0.36468000  1.0
  O  O78  1  0.24011000  0.51853000  0.49556000  1.0
  O  O79  1  0.75989000  0.48147000  0.50444000  1.0
