# generated using pymatgen
data_ZnH16C12(O2F)4
_symmetry_space_group_name_H-M   'P 1'
_cell_length_a   8.36607000
_cell_length_b   8.36608000
_cell_length_c   13.34320000
_cell_angle_alpha   93.25680000
_cell_angle_beta   93.25670000
_cell_angle_gamma   115.37600000
_symmetry_Int_Tables_number   1
_chemical_formula_structural   ZnH16C12(O2F)4
_chemical_formula_sum   'Zn2 H32 C24 O16 F8'
_cell_volume   839.01945096
_cell_formula_units_Z   2
loop_
 _symmetry_equiv_pos_site_id
 _symmetry_equiv_pos_as_xyz
  1  'x, y, z'
loop_
 _atom_site_type_symbol
 _atom_site_label
 _atom_site_symmetry_multiplicity
 _atom_site_fract_x
 _atom_site_fract_y
 _atom_site_fract_z
 _atom_site_occupancy
  Zn  Zn0  1  0.02664000  0.97337000  0.25000000  1.0
  Zn  Zn1  1  0.97337000  0.02663000  0.75000000  1.0
  H  H2  1  0.68195000  0.65011000  0.26075000  1.0
  H  H3  1  0.34990000  0.31805000  0.23925000  1.0
  H  H4  1  0.31805000  0.34989000  0.73925000  1.0
  H  H5  1  0.65010000  0.68195000  0.76075000  1.0
  H  H6  1  0.62330000  0.52276000  0.14009000  1.0
  H  H7  1  0.47725000  0.37671000  0.35991000  1.0
  H  H8  1  0.37670000  0.47724000  0.85991000  1.0
  H  H9  1  0.52276000  0.62330000  0.64009000  1.0
  H  H10  1  0.55996000  0.69901000  0.16317000  1.0
  H  H11  1  0.30100000  0.44005000  0.33683000  1.0
  H  H12  1  0.44004000  0.30099000  0.83683000  1.0
  H  H13  1  0.69901000  0.55996000  0.66317000  1.0
  H  H14  1  0.50522000  0.09588000  0.18006000  1.0
  H  H15  1  0.90412000  0.49478000  0.31994000  1.0
  H  H16  1  0.49478000  0.90412000  0.81994000  1.0
  H  H17  1  0.09588000  0.50522000  0.68006000  1.0
  H  H18  1  0.41222000  0.85867000  0.16918000  1.0
  H  H19  1  0.14133000  0.58779000  0.33082000  1.0
  H  H20  1  0.58779000  0.14134000  0.83082000  1.0
  H  H21  1  0.85866000  0.41221000  0.66918000  1.0
  H  H22  1  0.39827000  0.97499000  0.28249000  1.0
  H  H23  1  0.02501000  0.60173000  0.21751000  1.0
  H  H24  1  0.60173000  0.02501000  0.71751000  1.0
  H  H25  1  0.97499000  0.39827000  0.78249000  1.0
  H  H26  1  0.80840000  0.85243000  0.09507000  1.0
  H  H27  1  0.14758000  0.19160000  0.40493000  1.0
  H  H28  1  0.19160000  0.14757000  0.90493000  1.0
  H  H29  1  0.85243000  0.80840000  0.59507000  1.0
  H  H30  1  0.21839000  0.97368000  0.08914000  1.0
  H  H31  1  0.02632000  0.78161000  0.41086000  1.0
  H  H32  1  0.78162000  0.02632000  0.91086000  1.0
  H  H33  1  0.97368000  0.21838000  0.58914000  1.0
  C  C34  1  0.83829000  0.07047000  0.41670000  1.0
  C  C35  1  0.92952000  0.16171000  0.08330000  1.0
  C  C36  1  0.16170000  0.92952000  0.58330000  1.0
  C  C37  1  0.07047000  0.83829000  0.91670000  1.0
  C  C38  1  0.66448000  0.03555000  0.45963000  1.0
  C  C39  1  0.96444000  0.33552000  0.04037000  1.0
  C  C40  1  0.33552000  0.96444000  0.54037000  1.0
  C  C41  1  0.03555000  0.66448000  0.95963000  1.0
  C  C42  1  0.54001000  0.86205000  0.46928000  1.0
  C  C43  1  0.13794000  0.45999000  0.03072000  1.0
  C  C44  1  0.45999000  0.13794000  0.53072000  1.0
  C  C45  1  0.86205000  0.54001000  0.96927000  1.0
  C  C46  1  0.37967000  0.82760000  0.50937000  1.0
  C  C47  1  0.17239000  0.62033000  0.99063000  1.0
  C  C48  1  0.62033000  0.17239000  0.49063000  1.0
  C  C49  1  0.82761000  0.37967000  0.00937000  1.0
  C  C50  1  0.66418000  0.65519000  0.17920000  1.0
  C  C51  1  0.34481000  0.33583000  0.32080000  1.0
  C  C52  1  0.33582000  0.34481000  0.82080000  1.0
  C  C53  1  0.65519000  0.66418000  0.67920000  1.0
  C  C54  1  0.39529000  0.97438000  0.20033000  1.0
  C  C55  1  0.02562000  0.60472000  0.29967000  1.0
  C  C56  1  0.60472000  0.02562000  0.79967000  1.0
  C  C57  1  0.97438000  0.39528000  0.70033000  1.0
  O  O58  1  0.82501000  0.98612000  0.33294000  1.0
  O  O59  1  0.01388000  0.17499000  0.16706000  1.0
  O  O60  1  0.17500000  0.01388000  0.66706000  1.0
  O  O61  1  0.98612000  0.82501000  0.83294000  1.0
  O  O62  1  0.98103000  0.17895000  0.46797000  1.0
  O  O63  1  0.82105000  0.01897000  0.03203000  1.0
  O  O64  1  0.01897000  0.82105000  0.53203000  1.0
  O  O65  1  0.17895000  0.98103000  0.96797000  1.0
  O  O66  1  0.82983000  0.77766000  0.14606000  1.0
  O  O67  1  0.22234000  0.17017000  0.35394000  1.0
  O  O68  1  0.17017000  0.22234000  0.85394000  1.0
  O  O69  1  0.77766000  0.82983000  0.64606000  1.0
  O  O70  1  0.22669000  0.96459000  0.16388000  1.0
  O  O71  1  0.03541000  0.77331000  0.33612000  1.0
  O  O72  1  0.77331000  0.03541000  0.83612000  1.0
  O  O73  1  0.96459000  0.22669000  0.66388000  1.0
  F  F74  1  0.57517000  0.72302000  0.44186000  1.0
  F  F75  1  0.27697000  0.42483000  0.05815000  1.0
  F  F76  1  0.42483000  0.27697000  0.55815000  1.0
  F  F77  1  0.72302000  0.57517000  0.94185000  1.0
  F  F78  1  0.26660000  0.65617000  0.51989000  1.0
  F  F79  1  0.34382000  0.73340000  0.98011000  1.0
  F  F80  1  0.73340000  0.34382000  0.48011000  1.0
  F  F81  1  0.65618000  0.26660000  0.01989000  1.0
