# generated using pymatgen
data_NaZnH24C15S2N3O2
_symmetry_space_group_name_H-M   'P 1'
_cell_length_a   7.69817000
_cell_length_b   9.29075000
_cell_length_c   15.13250000
_cell_angle_alpha   75.44310000
_cell_angle_beta   77.03060000
_cell_angle_gamma   78.54690000
_symmetry_Int_Tables_number   1
_chemical_formula_structural   NaZnH24C15S2N3O2
_chemical_formula_sum   'Na2 Zn2 H48 C30 S4 N6 O4'
_cell_volume   1009.17549918
_cell_formula_units_Z   2
loop_
 _symmetry_equiv_pos_site_id
 _symmetry_equiv_pos_as_xyz
  1  'x, y, z'
loop_
 _atom_site_type_symbol
 _atom_site_label
 _atom_site_symmetry_multiplicity
 _atom_site_fract_x
 _atom_site_fract_y
 _atom_site_fract_z
 _atom_site_occupancy
  Na  Na0  1  0.81445000  0.01936000  0.07427000  1.0
  Na  Na1  1  0.18556000  0.98064000  0.92573000  1.0
  Zn  Zn2  1  0.41644000  0.01239000  0.26906000  1.0
  Zn  Zn3  1  0.58357000  0.98760000  0.73094000  1.0
  H  H4  1  0.41992000  0.56112000  0.26657000  1.0
  H  H5  1  0.58009000  0.43887000  0.73343000  1.0
  H  H6  1  0.46634000  0.63177000  0.35607000  1.0
  H  H7  1  0.53368000  0.36821000  0.64394000  1.0
  H  H8  1  0.08530000  0.77907000  0.20827000  1.0
  H  H9  1  0.91471000  0.22093000  0.79172000  1.0
  H  H10  1  0.30390000  0.75438000  0.14155000  1.0
  H  H11  1  0.69611000  0.24561000  0.85844000  1.0
  H  H12  1  0.08406000  0.27202000  0.11575000  1.0
  H  H13  1  0.91595000  0.72798000  0.88425000  1.0
  H  H14  1  0.31964000  0.26422000  0.07390000  1.0
  H  H15  1  0.68037000  0.73577000  0.92610000  1.0
  H  H16  1  0.11716000  0.31648000  0.26506000  1.0
  H  H17  1  0.88286000  0.68351000  0.73494000  1.0
  H  H18  1  0.22186000  0.44851000  0.17267000  1.0
  H  H19  1  0.77816000  0.55147000  0.82734000  1.0
  H  H20  1  0.13587000  0.65311000  0.38919000  1.0
  H  H21  1  0.86415000  0.34688000  0.61080000  1.0
  H  H22  1  0.03158000  0.83479000  0.34258000  1.0
  H  H23  1  0.96840000  0.16521000  0.65742000  1.0
  H  H24  1  0.07160000  0.67632000  0.55097000  1.0
  H  H25  1  0.92838000  0.32369000  0.44902000  1.0
  H  H26  1  0.11905000  0.80322000  0.67013000  1.0
  H  H27  1  0.88090000  0.19680000  0.32987000  1.0
  H  H28  1  0.26789000  0.03652000  0.61545000  1.0
  H  H29  1  0.73207000  0.96349000  0.38457000  1.0
  H  H30  1  0.36846000  0.12731000  0.44326000  1.0
  H  H31  1  0.63152000  0.87269000  0.55675000  1.0
  H  H32  1  0.73912000  0.46040000  0.23642000  1.0
  H  H33  1  0.26089000  0.53960000  0.76357000  1.0
  H  H34  1  0.77905000  0.53861000  0.32515000  1.0
  H  H35  1  0.22095000  0.46140000  0.67485000  1.0
  H  H36  1  0.90824000  0.57930000  0.21099000  1.0
  H  H37  1  0.09176000  0.42071000  0.78901000  1.0
  H  H38  1  0.58973000  0.63778000  0.10124000  1.0
  H  H39  1  0.41028000  0.36222000  0.89876000  1.0
  H  H40  1  0.77710000  0.73328000  0.08106000  1.0
  H  H41  1  0.22290000  0.26672000  0.91894000  1.0
  H  H42  1  0.55535000  0.83512000  0.09366000  1.0
  H  H43  1  0.44467000  0.16488000  0.90633000  1.0
  H  H44  1  0.59801000  0.27327000  0.12242000  1.0
  H  H45  1  0.40200000  0.72673000  0.87758000  1.0
  H  H46  1  0.66545000  0.48778000  0.99328000  1.0
  H  H47  1  0.33455000  0.51223000  0.00672000  1.0
  H  H48  1  0.85766000  0.36009000  0.95518000  1.0
  H  H49  1  0.14234000  0.63990000  0.04482000  1.0
  H  H50  1  0.83572000  0.41312000  0.06301000  1.0
  H  H51  1  0.16428000  0.58689000  0.93699000  1.0
  C  C52  1  0.63342000  0.69849000  0.22415000  1.0
  C  C53  1  0.36660000  0.30151000  0.77585000  1.0
  C  C54  1  0.44974000  0.66247000  0.28299000  1.0
  C  C55  1  0.55026000  0.33753000  0.71701000  1.0
  C  C56  1  0.21854000  0.81659000  0.19237000  1.0
  C  C57  1  0.78147000  0.18341000  0.80763000  1.0
  C  C58  1  0.18954000  0.98287000  0.14365000  1.0
  C  C59  1  0.81045000  0.01713000  0.85635000  1.0
  C  C60  1  0.21698000  0.23821000  0.13705000  1.0
  C  C61  1  0.78304000  0.76178000  0.86295000  1.0
  C  C62  1  0.23097000  0.32853000  0.20630000  1.0
  C  C63  1  0.76905000  0.67147000  0.79370000  1.0
  C  C64  1  0.16010000  0.77091000  0.36084000  1.0
  C  C65  1  0.83988000  0.22909000  0.63917000  1.0
  C  C66  1  0.19918000  0.83368000  0.43608000  1.0
  C  C67  1  0.80086000  0.16631000  0.56392000  1.0
  C  C68  1  0.13911000  0.77556000  0.53020000  1.0
  C  C69  1  0.86085000  0.22444000  0.46980000  1.0
  C  C70  1  0.16408000  0.84693000  0.59623000  1.0
  C  C71  1  0.83590000  0.15306000  0.40377000  1.0
  C  C72  1  0.24629000  0.97608000  0.56649000  1.0
  C  C73  1  0.75363000  0.02394000  0.43351000  1.0
  C  C74  1  0.30337000  0.02690000  0.47171000  1.0
  C  C75  1  0.69663000  0.97312000  0.52829000  1.0
  C  C76  1  0.77362000  0.56073000  0.25092000  1.0
  C  C77  1  0.22639000  0.43927000  0.74908000  1.0
  C  C78  1  0.63816000  0.72855000  0.11933000  1.0
  C  C79  1  0.36185000  0.27146000  0.88067000  1.0
  C  C80  1  0.76056000  0.38671000  0.01641000  1.0
  C  C81  1  0.23944000  0.61329000  0.98358000  1.0
  S  S82  1  0.69481000  0.86216000  0.25226000  1.0
  S  S83  1  0.30521000  0.13784000  0.74774000  1.0
  S  S84  1  0.44157000  0.27009000  0.25197000  1.0
  S  S85  1  0.55844000  0.72990000  0.74803000  1.0
  N  N86  1  0.29736000  0.78553000  0.27620000  1.0
  N  N87  1  0.70263000  0.21447000  0.72380000  1.0
  N  N88  1  0.24478000  0.07825000  0.17827000  1.0
  N  N89  1  0.75524000  0.92175000  0.82172000  1.0
  N  N90  1  0.28256000  0.95623000  0.40836000  1.0
  N  N91  1  0.71742000  0.04379000  0.59164000  1.0
  O  O92  1  0.11126000  0.01534000  0.07322000  1.0
  O  O93  1  0.88874000  0.98467000  0.92678000  1.0
  O  O94  1  0.67072000  0.25996000  0.05939000  1.0
  O  O95  1  0.32929000  0.74004000  0.94061000  1.0
