# generated using pymatgen
data_Zn2H11C30Br5(NO7)2
_symmetry_space_group_name_H-M   'P 1'
_cell_length_a   9.98756000
_cell_length_b   11.06970000
_cell_length_c   13.29410000
_cell_angle_alpha   90.49300000
_cell_angle_beta   110.68200000
_cell_angle_gamma   100.52900000
_symmetry_Int_Tables_number   1
_chemical_formula_structural   Zn2H11C30Br5(NO7)2
_chemical_formula_sum   'Zn2 H11 C30 Br5 N2 O14'
_cell_volume   1347.63226368
_cell_formula_units_Z   1
loop_
 _symmetry_equiv_pos_site_id
 _symmetry_equiv_pos_as_xyz
  1  'x, y, z'
loop_
 _atom_site_type_symbol
 _atom_site_label
 _atom_site_symmetry_multiplicity
 _atom_site_fract_x
 _atom_site_fract_y
 _atom_site_fract_z
 _atom_site_occupancy
  Zn  Zn0  1  0.64829000  0.49695000  0.51546000  1.0
  Zn  Zn1  1  0.33854000  0.45591000  0.47729000  1.0
  H  H2  1  0.73453000  0.63884000  0.12428000  1.0
  H  H3  1  0.47697000  0.06351000  0.58459000  1.0
  H  H4  1  0.86645000  0.39291000  0.51731000  1.0
  H  H5  1  0.03385000  0.52262000  0.33596000  1.0
  H  H6  1  0.12368000  0.44373000  0.55637000  1.0
  H  H7  1  0.17181000  0.56407000  0.23201000  1.0
  H  H8  1  0.72643000  0.90787000  0.58177000  1.0
  H  H9  1  0.94389000  0.48295000  0.94798000  1.0
  H  H10  1  0.83502000  0.72283000  0.74002000  1.0
  H  H11  1  0.95782000  0.78087000  0.14456000  1.0
  H  H12  1  0.23209000  0.63431000  0.63051000  1.0
  C  C13  1  0.48298000  0.24636000  0.51663000  1.0
  C  C14  1  0.58465000  0.55879000  0.70005000  1.0
  C  C15  1  0.49612000  0.70809000  0.46652000  1.0
  C  C16  1  0.41304000  0.45250000  0.28787000  1.0
  C  C17  1  0.18416000  0.48592000  0.99748000  1.0
  C  C18  1  0.37653000  0.47321000  0.17062000  1.0
  C  C19  1  0.76365000  0.67259000  0.87735000  1.0
  C  C20  1  0.80108000  0.68547000  0.99108000  1.0
  C  C21  1  0.70060000  0.63426000  0.03670000  1.0
  C  C22  1  0.55423000  0.58222000  0.97204000  1.0
  C  C23  1  0.51230000  0.59300000  0.85968000  1.0
  C  C24  1  0.44307000  0.53103000  0.01482000  1.0
  C  C25  1  0.29154000  0.52323000  0.95041000  1.0
  C  C26  1  0.25911000  0.56597000  0.84374000  1.0
  C  C27  1  0.36328000  0.59765000  0.79842000  1.0
  C  C28  1  0.47684000  0.48494000  0.11866000  1.0
  C  C29  1  0.22998000  0.47982000  0.10913000  1.0
  C  C30  1  0.62205000  0.61421000  0.81269000  1.0
  C  C31  1  0.40057000  0.90545000  0.41187000  1.0
  C  C32  1  0.50833000  0.84224000  0.45334000  1.0
  C  C33  1  0.42732000  0.04036000  0.41739000  1.0
  C  C34  1  0.46596000  0.10916000  0.51029000  1.0
  C  C35  1  0.91086000  0.53781000  0.44375000  1.0
  C  C36  1  0.03133000  0.50264000  0.41587000  1.0
  C  C37  1  0.12637000  0.48871000  0.16602000  1.0
  C  C38  1  0.66627000  0.90912000  0.49366000  1.0
  C  C39  1  0.02538000  0.43881000  0.93102000  1.0
  C  C40  1  0.85483000  0.75137000  0.82493000  1.0
  C  C41  1  0.95206000  0.73409000  0.06778000  1.0
  C  C42  1  0.33401000  0.67033000  0.70004000  1.0
  Br  Br43  1  0.39562000  0.11045000  0.28267000  1.0
  Br  Br44  1  0.87573000  0.69352000  0.39903000  1.0
  Br  Br45  1  0.07110000  0.60242000  0.76761000  1.0
  Br  Br46  1  0.64730000  0.41488000  0.17401000  1.0
  Br  Br47  1  0.19849000  0.83211000  0.34893000  1.0
  N  N48  1  0.84177000  0.47799000  0.49782000  1.0
  N  N49  1  0.13388000  0.45760000  0.48276000  1.0
  O  O50  1  0.60423000  0.30980000  0.52060000  1.0
  O  O51  1  0.37186000  0.28659000  0.51717000  1.0
  O  O52  1  0.69032000  0.53516000  0.67609000  1.0
  O  O53  1  0.45019000  0.52873000  0.63972000  1.0
  O  O54  1  0.62078000  0.67686000  0.50553000  1.0
  O  O55  1  0.37251000  0.63653000  0.44055000  1.0
  O  O56  1  0.54533000  0.48176000  0.34958000  1.0
  O  O57  1  0.30505000  0.41280000  0.31734000  1.0
  O  O58  1  0.99975000  0.43250000  0.13816000  1.0
  O  O59  1  0.72617000  0.95779000  0.43454000  1.0
  O  O60  1  0.99096000  0.35002000  0.86540000  1.0
  O  O61  1  0.93360000  0.84922000  0.86961000  1.0
  O  O62  1  0.06308000  0.71731000  0.05549000  1.0
  O  O63  1  0.41021000  0.77012000  0.70001000  1.0
