# generated using pymatgen
data_Zn2H7C11N3O7
_symmetry_space_group_name_H-M   'P 1'
_cell_length_a   8.75645000
_cell_length_b   9.75369000
_cell_length_c   15.33990000
_cell_angle_alpha   89.99990000
_cell_angle_beta   94.89640000
_cell_angle_gamma   89.99990000
_symmetry_Int_Tables_number   1
_chemical_formula_structural   Zn2H7C11N3O7
_chemical_formula_sum   'Zn8 H28 C44 N12 O28'
_cell_volume   1305.36439371
_cell_formula_units_Z   4
loop_
 _symmetry_equiv_pos_site_id
 _symmetry_equiv_pos_as_xyz
  1  'x, y, z'
loop_
 _atom_site_type_symbol
 _atom_site_label
 _atom_site_symmetry_multiplicity
 _atom_site_fract_x
 _atom_site_fract_y
 _atom_site_fract_z
 _atom_site_occupancy
  Zn  Zn0  1  0.44485000  0.97915000  0.14091000  1.0
  Zn  Zn1  1  0.55515000  0.47915000  0.35909000  1.0
  Zn  Zn2  1  0.55515000  0.02085000  0.85909000  1.0
  Zn  Zn3  1  0.44485000  0.52085000  0.64091000  1.0
  Zn  Zn4  1  0.08221000  0.07146000  0.20395000  1.0
  Zn  Zn5  1  0.91779000  0.57146000  0.29605000  1.0
  Zn  Zn6  1  0.91779000  0.92854000  0.79605000  1.0
  Zn  Zn7  1  0.08221000  0.42854000  0.70395000  1.0
  H  H8  1  0.04273000  0.16247000  0.03274000  1.0
  H  H9  1  0.95727000  0.66247000  0.46726000  1.0
  H  H10  1  0.95727000  0.83753000  0.96726000  1.0
  H  H11  1  0.04273000  0.33753000  0.53274000  1.0
  H  H12  1  0.03077000  0.28460000  0.10753000  1.0
  H  H13  1  0.96923000  0.78460000  0.39247000  1.0
  H  H14  1  0.96923000  0.71540000  0.89247000  1.0
  H  H15  1  0.03077000  0.21540000  0.60753000  1.0
  H  H16  1  0.58461000  0.17267000  0.61059000  1.0
  H  H17  1  0.41539000  0.67267000  0.88941000  1.0
  H  H18  1  0.41539000  0.82733000  0.38941000  1.0
  H  H19  1  0.58461000  0.32733000  0.11059000  1.0
  H  H20  1  0.62883000  0.92831000  0.57260000  1.0
  H  H21  1  0.37117000  0.42832000  0.92740000  1.0
  H  H22  1  0.37117000  0.07168000  0.42740000  1.0
  H  H23  1  0.62883000  0.57169000  0.07260000  1.0
  H  H24  1  0.78228000  0.87282000  0.44851000  1.0
  H  H25  1  0.21772000  0.37282000  0.05149000  1.0
  H  H26  1  0.21772000  0.12718000  0.55149000  1.0
  H  H27  1  0.78228000  0.62718000  0.94851000  1.0
  H  H28  1  0.64107000  0.20856000  0.25152000  1.0
  H  H29  1  0.35893000  0.70856000  0.24848000  1.0
  H  H30  1  0.35893000  0.79144000  0.74848000  1.0
  H  H31  1  0.64107000  0.29144000  0.75152000  1.0
  H  H32  1  0.21912000  0.32976000  0.34164000  1.0
  H  H33  1  0.78088000  0.82977000  0.15836000  1.0
  H  H34  1  0.78088000  0.67024000  0.65836000  1.0
  H  H35  1  0.21912000  0.17024000  0.84164000  1.0
  C  C36  1  0.82402000  0.08394000  0.41677000  1.0
  C  C37  1  0.17597000  0.58394000  0.08323000  1.0
  C  C38  1  0.17597000  0.91606000  0.58323000  1.0
  C  C39  1  0.82403000  0.41606000  0.91677000  1.0
  C  C40  1  0.79665000  0.22255000  0.43709000  1.0
  C  C41  1  0.20335000  0.72255000  0.06291000  1.0
  C  C42  1  0.20335000  0.77745000  0.56291000  1.0
  C  C43  1  0.79665000  0.27745000  0.93709000  1.0
  C  C44  1  0.70869000  0.25333000  0.50759000  1.0
  C  C45  1  0.29131000  0.75333000  0.99241000  1.0
  C  C46  1  0.29131000  0.74667000  0.49241000  1.0
  C  C47  1  0.70869000  0.24667000  0.00759000  1.0
  C  C48  1  0.65112000  0.14636000  0.55623000  1.0
  C  C49  1  0.34887000  0.64636000  0.94377000  1.0
  C  C50  1  0.34888000  0.85364000  0.44377000  1.0
  C  C51  1  0.65113000  0.35364000  0.05623000  1.0
  C  C52  1  0.67655000  0.01024000  0.53522000  1.0
  C  C53  1  0.32345000  0.51024000  0.96478000  1.0
  C  C54  1  0.32345000  0.98975000  0.46478000  1.0
  C  C55  1  0.67655000  0.48976000  0.03522000  1.0
  C  C56  1  0.76255000  0.97931000  0.46578000  1.0
  C  C57  1  0.23745000  0.47931000  0.03422000  1.0
  C  C58  1  0.23745000  0.02069000  0.53422000  1.0
  C  C59  1  0.76255000  0.52069000  0.96578000  1.0
  C  C60  1  0.91851000  0.04364000  0.34383000  1.0
  C  C61  1  0.08149000  0.54364000  0.15617000  1.0
  C  C62  1  0.08149000  0.95636000  0.65617000  1.0
  C  C63  1  0.91851000  0.45636000  0.84383000  1.0
  C  C64  1  0.87756000  0.33703000  0.39301000  1.0
  C  C65  1  0.12243000  0.83703000  0.10699000  1.0
  C  C66  1  0.12243000  0.66298000  0.60699000  1.0
  C  C67  1  0.87757000  0.16297000  0.89301000  1.0
  C  C68  1  0.66986000  0.39702000  0.53380000  1.0
  C  C69  1  0.33014000  0.89702000  0.96620000  1.0
  C  C70  1  0.33014000  0.60298000  0.46620000  1.0
  C  C71  1  0.66986000  0.10298000  0.03380000  1.0
  C  C72  1  0.52068000  0.21301000  0.26341000  1.0
  C  C73  1  0.47932000  0.71301000  0.23659000  1.0
  C  C74  1  0.47932000  0.78699000  0.73659000  1.0
  C  C75  1  0.52069000  0.28699000  0.76341000  1.0
  C  C76  1  0.30559000  0.27484000  0.30862000  1.0
  C  C77  1  0.69441000  0.77484000  0.19138000  1.0
  C  C78  1  0.69441000  0.72516000  0.69138000  1.0
  C  C79  1  0.30559000  0.22516000  0.80862000  1.0
  N  N80  1  0.27768000  0.16492000  0.25858000  1.0
  N  N81  1  0.72232000  0.66492000  0.24142000  1.0
  N  N82  1  0.72232000  0.83508000  0.74142000  1.0
  N  N83  1  0.27768000  0.33508000  0.75858000  1.0
  N  N84  1  0.41476000  0.12591000  0.22942000  1.0
  N  N85  1  0.58524000  0.62591000  0.27058000  1.0
  N  N86  1  0.58524000  0.87409000  0.77058000  1.0
  N  N87  1  0.41476000  0.37409000  0.72942000  1.0
  N  N88  1  0.45679000  0.30782000  0.31339000  1.0
  N  N89  1  0.54321000  0.80782000  0.18661000  1.0
  N  N90  1  0.54321000  0.69218000  0.68661000  1.0
  N  N91  1  0.45679000  0.19218000  0.81339000  1.0
  O  O92  1  0.92757000  0.13208000  0.28174000  1.0
  O  O93  1  0.07243000  0.63207000  0.21826000  1.0
  O  O94  1  0.07243000  0.86793000  0.71826000  1.0
  O  O95  1  0.92757000  0.36793000  0.78174000  1.0
  O  O96  1  0.98494000  0.92923000  0.34363000  1.0
  O  O97  1  0.01506000  0.42923000  0.15637000  1.0
  O  O98  1  0.01506000  0.07077000  0.65637000  1.0
  O  O99  1  0.98494000  0.57077000  0.84363000  1.0
  O  O100  1  0.80393000  0.40339000  0.32953000  1.0
  O  O101  1  0.19607000  0.90339000  0.17047000  1.0
  O  O102  1  0.19607000  0.59661000  0.67047000  1.0
  O  O103  1  0.80393000  0.09662000  0.82953000  1.0
  O  O104  1  0.01139000  0.36664000  0.42269000  1.0
  O  O105  1  0.98861000  0.86664000  0.07731000  1.0
  O  O106  1  0.98861000  0.63336000  0.57731000  1.0
  O  O107  1  0.01139000  0.13335000  0.92270000  1.0
  O  O108  1  0.65976000  0.49391000  0.47715000  1.0
  O  O109  1  0.34024000  0.99391000  0.02285000  1.0
  O  O110  1  0.34024000  0.50609000  0.52285000  1.0
  O  O111  1  0.65976000  0.00609000  0.97715000  1.0
  O  O112  1  0.64338000  0.41578000  0.61285000  1.0
  O  O113  1  0.35662000  0.91579000  0.88715000  1.0
  O  O114  1  0.35662000  0.58421000  0.38715000  1.0
  O  O115  1  0.64338000  0.08421000  0.11285000  1.0
  O  O116  1  0.05495000  0.18577000  0.09623000  1.0
  O  O117  1  0.94506000  0.68577000  0.40377000  1.0
  O  O118  1  0.94505000  0.81423000  0.90377000  1.0
  O  O119  1  0.05495000  0.31423000  0.59623000  1.0
