# generated using pymatgen
data_CdH24C30Br2(NO)4
_symmetry_space_group_name_H-M   'P 1'
_cell_length_a   8.32377000
_cell_length_b   10.76440000
_cell_length_c   19.90405634
_cell_angle_alpha   83.83934028
_cell_angle_beta   78.25693673
_cell_angle_gamma   85.26410000
_symmetry_Int_Tables_number   1
_chemical_formula_structural   CdH24C30Br2(NO)4
_chemical_formula_sum   'Cd2 H48 C60 Br4 N8 O8'
_cell_volume   1732.61989002
_cell_formula_units_Z   2
loop_
 _symmetry_equiv_pos_site_id
 _symmetry_equiv_pos_as_xyz
  1  'x, y, z'
loop_
 _atom_site_type_symbol
 _atom_site_label
 _atom_site_symmetry_multiplicity
 _atom_site_fract_x
 _atom_site_fract_y
 _atom_site_fract_z
 _atom_site_occupancy
  Cd  Cd0  1  0.91263000  0.79599000  0.86094000  1.0
  Cd  Cd1  1  0.08738000  0.20401000  0.13905000  1.0
  H  H2  1  0.85562000  0.01835000  0.74334000  1.0
  H  H3  1  0.14436000  0.98165000  0.25666000  1.0
  H  H4  1  0.78150000  0.03535000  0.95566000  1.0
  H  H5  1  0.21850000  0.96466000  0.04434000  1.0
  H  H6  1  0.75022000  0.23283000  0.72431000  1.0
  H  H7  1  0.24977000  0.76717000  0.27569000  1.0
  H  H8  1  0.67533000  0.25650000  0.94556000  1.0
  H  H9  1  0.32467000  0.74350000  0.05444000  1.0
  H  H10  1  0.77263000  0.43421000  0.71952000  1.0
  H  H11  1  0.22738000  0.56579000  0.28048000  1.0
  H  H12  1  0.46813000  0.39806000  0.92467000  1.0
  H  H13  1  0.53188000  0.60193000  0.07533000  1.0
  H  H14  1  0.63383000  0.64616000  0.70155000  1.0
  H  H15  1  0.36617000  0.35385000  0.29845000  1.0
  H  H16  1  0.34427000  0.61326000  0.89825000  1.0
  H  H17  1  0.65572000  0.38674000  0.10175000  1.0
  H  H18  1  0.28074000  0.75933000  0.82101000  1.0
  H  H19  1  0.71926000  0.24066000  0.17899000  1.0
  H  H20  1  0.37729000  0.76607000  0.73260000  1.0
  H  H21  1  0.62271000  0.23393000  0.26740000  1.0
  H  H22  1  0.55062000  0.83071000  0.84581000  1.0
  H  H23  1  0.44937000  0.16928000  0.15420000  1.0
  H  H24  1  0.60754000  0.87531000  0.75614000  1.0
  H  H25  1  0.39246000  0.12468000  0.24387000  1.0
  H  H26  1  0.44523000  0.97309000  0.90888000  1.0
  H  H27  1  0.55477000  0.02690000  0.09113000  1.0
  H  H28  1  0.34794000  0.99268000  0.70856000  1.0
  H  H29  1  0.65206000  0.00732000  0.29144000  1.0
  H  H30  1  0.29326000  0.18057000  0.92910000  1.0
  H  H31  1  0.70674000  0.81943000  0.07091000  1.0
  H  H32  1  0.18399000  0.18552000  0.72292000  1.0
  H  H33  1  0.81602000  0.81448000  0.27708000  1.0
  H  H34  1  0.04642000  0.30293000  0.94436000  1.0
  H  H35  1  0.95358000  0.69707000  0.05564000  1.0
  H  H36  1  0.22690000  0.39566000  0.72589000  1.0
  H  H37  1  0.77312000  0.60433000  0.27411000  1.0
  H  H38  1  0.92968000  0.52358000  0.94973000  1.0
  H  H39  1  0.07032000  0.47642000  0.05027000  1.0
  H  H40  1  0.10859000  0.61252000  0.74195000  1.0
  H  H41  1  0.89141000  0.38748000  0.25805000  1.0
  H  H42  1  0.19826000  0.97225000  0.49373000  1.0
  H  H43  1  0.80175000  0.02775000  0.50627000  1.0
  H  H44  1  0.11100000  0.79692000  0.44133000  1.0
  H  H45  1  0.88899000  0.20310000  0.55867000  1.0
  H  H46  1  0.97237000  0.61957000  0.51711000  1.0
  H  H47  1  0.02763000  0.38044000  0.48289000  1.0
  H  H48  1  0.91002000  0.62842000  0.64452000  1.0
  H  H49  1  0.08999000  0.37159000  0.35547000  1.0
  C  C50  1  0.80939000  0.07075000  0.78789000  1.0
  C  C51  1  0.19060000  0.92924000  0.21211000  1.0
  C  C52  1  0.76902000  0.08234000  0.90545000  1.0
  C  C53  1  0.23097000  0.91767000  0.09455000  1.0
  C  C54  1  0.75259000  0.19503000  0.77713000  1.0
  C  C55  1  0.24741000  0.80497000  0.22286000  1.0
  C  C56  1  0.70999000  0.20702000  0.89927000  1.0
  C  C57  1  0.29001000  0.79298000  0.10073000  1.0
  C  C58  1  0.69873000  0.26567000  0.83361000  1.0
  C  C59  1  0.30127000  0.73432000  0.16639000  1.0
  C  C60  1  0.62962000  0.39534000  0.82326000  1.0
  C  C61  1  0.37037000  0.60466000  0.17674000  1.0
  C  C62  1  0.67647000  0.46838000  0.76028000  1.0
  C  C63  1  0.32353000  0.53162000  0.23972000  1.0
  C  C64  1  0.51045000  0.44899000  0.87445000  1.0
  C  C65  1  0.48955000  0.55101000  0.12555000  1.0
  C  C66  1  0.60173000  0.58587000  0.74908000  1.0
  C  C67  1  0.39826000  0.41413000  0.25092000  1.0
  C  C68  1  0.43938000  0.56734000  0.86118000  1.0
  C  C69  1  0.56062000  0.43265000  0.13882000  1.0
  C  C70  1  0.39962000  0.75645000  0.78532000  1.0
  C  C71  1  0.60038000  0.24355000  0.21468000  1.0
  C  C72  1  0.50284000  0.85920000  0.79865000  1.0
  C  C73  1  0.49717000  0.14079000  0.20135000  1.0
  C  C74  1  0.38526000  0.02668000  0.87033000  1.0
  C  C75  1  0.61473000  0.97331000  0.12968000  1.0
  C  C76  1  0.33226000  0.03427000  0.75768000  1.0
  C  C77  1  0.66774000  0.96573000  0.24232000  1.0
  C  C78  1  0.29986000  0.14073000  0.88028000  1.0
  C  C79  1  0.70015000  0.85926000  0.11972000  1.0
  C  C80  1  0.24255000  0.14734000  0.76579000  1.0
  C  C81  1  0.75746000  0.85266000  0.23421000  1.0
  C  C82  1  0.22869000  0.20441000  0.82704000  1.0
  C  C83  1  0.77131000  0.79559000  0.17297000  1.0
  C  C84  1  0.14917000  0.33090000  0.83419000  1.0
  C  C85  1  0.85083000  0.66910000  0.16581000  1.0
  C  C86  1  0.06499000  0.36845000  0.89797000  1.0
  C  C87  1  0.93502000  0.63155000  0.10203000  1.0
  C  C88  1  0.16199000  0.41961000  0.77663000  1.0
  C  C89  1  0.83802000  0.58039000  0.22337000  1.0
  C  C90  1  0.99932000  0.49131000  0.90142000  1.0
  C  C91  1  0.00068000  0.50869000  0.09858000  1.0
  C  C92  1  0.09577000  0.54091000  0.78535000  1.0
  C  C93  1  0.90423000  0.45909000  0.21465000  1.0
  C  C94  1  0.01395000  0.80659000  0.64039000  1.0
  C  C95  1  0.98605000  0.19341000  0.35961000  1.0
  C  C96  1  0.09720000  0.90430000  0.59803000  1.0
  C  C97  1  0.90279000  0.09570000  0.40197000  1.0
  C  C98  1  0.13429000  0.89672000  0.52661000  1.0
  C  C99  1  0.86571000  0.10328000  0.47339000  1.0
  C  C100  1  0.08823000  0.79649000  0.49731000  1.0
  C  C101  1  0.91176000  0.20352000  0.50269000  1.0
  C  C102  1  0.00757000  0.69891000  0.53957000  1.0
  C  C103  1  0.99243000  0.30110000  0.46043000  1.0
  C  C104  1  0.97088000  0.70451000  0.61068000  1.0
  C  C105  1  0.02912000  0.29549000  0.38932000  1.0
  C  C106  1  0.97330000  0.80642000  0.71682000  1.0
  C  C107  1  0.02669000  0.19358000  0.28318000  1.0
  C  C108  1  0.14235000  0.01907000  0.62674000  1.0
  C  C109  1  0.85764000  0.98093000  0.37326000  1.0
  Br  Br110  1  0.64529000  0.72563000  0.95587000  1.0
  Br  Br111  1  0.35471000  0.27436000  0.04413000  1.0
  Br  Br112  1  0.11971000  0.81565000  0.94513000  1.0
  Br  Br113  1  0.88029000  0.18435000  0.05487000  1.0
  N  N114  1  0.81544000  0.01423000  0.85100000  1.0
  N  N115  1  0.18455000  0.98577000  0.14900000  1.0
  N  N116  1  0.48232000  0.63241000  0.79862000  1.0
  N  N117  1  0.51768000  0.36759000  0.20138000  1.0
  N  N118  1  0.40318000  0.97709000  0.80915000  1.0
  N  N119  1  0.59681000  0.02290000  0.19086000  1.0
  N  N120  1  0.01616000  0.57703000  0.84658000  1.0
  N  N121  1  0.98384000  0.42297000  0.15342000  1.0
  O  O122  1  0.83731000  0.76352000  0.75008000  1.0
  O  O123  1  0.16269000  0.23648000  0.24992000  1.0
  O  O124  1  0.07637000  0.84458000  0.74861000  1.0
  O  O125  1  0.92363000  0.15542000  0.25139000  1.0
  O  O126  1  0.02429000  0.09226000  0.65350000  1.0
  O  O127  1  0.97571000  0.90774000  0.34650000  1.0
  O  O128  1  0.29465000  0.03148000  0.62047000  1.0
  O  O129  1  0.70535000  0.96852000  0.37953000  1.0
