# generated using pymatgen
data_MgH3C7SO3
_symmetry_space_group_name_H-M   'P 1'
_cell_length_a   6.87753000
_cell_length_b   25.71090840
_cell_length_c   25.72250000
_cell_angle_alpha   119.14584124
_cell_angle_beta   95.10710000
_cell_angle_gamma   95.16341622
_symmetry_Int_Tables_number   1
_chemical_formula_structural   MgH3C7SO3
_chemical_formula_sum   'Mg6 H18 C42 S6 O18'
_cell_volume   3909.99885892
_cell_formula_units_Z   6
loop_
 _symmetry_equiv_pos_site_id
 _symmetry_equiv_pos_as_xyz
  1  'x, y, z'
loop_
 _atom_site_type_symbol
 _atom_site_label
 _atom_site_symmetry_multiplicity
 _atom_site_fract_x
 _atom_site_fract_y
 _atom_site_fract_z
 _atom_site_occupancy
  Mg  Mg0  1  0.06828000  0.66902000  0.37543000  1.0
  Mg  Mg1  1  0.39956000  0.70661000  0.33100000  1.0
  Mg  Mg2  1  0.69279000  0.62458000  0.29348000  1.0
  Mg  Mg3  1  0.66669000  0.32010000  0.62105000  1.0
  Mg  Mg4  1  0.34675000  0.30112000  0.68031000  1.0
  Mg  Mg5  1  0.04605000  0.37929000  0.69921000  1.0
  H  H6  1  0.44927000  0.84607000  0.47850000  1.0
  H  H7  1  0.60369000  0.63236000  0.15406000  1.0
  H  H8  1  0.97029000  0.52153000  0.36747000  1.0
  H  H9  1  0.77455000  0.87519000  0.42295000  1.0
  H  H10  1  0.89916000  0.54799000  0.12485000  1.0
  H  H11  1  0.35005000  0.57642000  0.45163000  1.0
  H  H12  1  0.01211000  0.96394000  0.50148000  1.0
  H  H13  1  0.04846000  0.53770000  0.03613000  1.0
  H  H14  1  0.50912000  0.49778000  0.46179000  1.0
  H  H15  1  0.27540000  0.15302000  0.59431000  1.0
  H  H16  1  0.12406000  0.44137000  0.84729000  1.0
  H  H17  1  0.68185000  0.40590000  0.55881000  1.0
  H  H18  1  0.98213000  0.13257000  0.61932000  1.0
  H  H19  1  0.85136000  0.48667000  0.86752000  1.0
  H  H20  1  0.36320000  0.38056000  0.51309000  1.0
  H  H21  1  0.72734000  0.04515000  0.59201000  1.0
  H  H22  1  0.68447000  0.54665000  0.95499000  1.0
  H  H23  1  0.13555000  0.40759000  0.45282000  1.0
  C  C24  1  0.24290000  0.91000000  0.49657000  1.0
  C  C25  1  0.33340000  0.58661000  0.09010000  1.0
  C  C26  1  0.74556000  0.50314000  0.41313000  1.0
  C  C27  1  0.30187000  0.85329000  0.46650000  1.0
  C  C28  1  0.44889000  0.61327000  0.14683000  1.0
  C  C29  1  0.83471000  0.53338000  0.38658000  1.0
  C  C30  1  0.16977000  0.80270000  0.42173000  1.0
  C  C31  1  0.36703000  0.61924000  0.19741000  1.0
  C  C32  1  0.74723000  0.57813000  0.38073000  1.0
  C  C33  1  0.97248000  0.81114000  0.40776000  1.0
  C  C34  1  0.16112000  0.59691000  0.18896000  1.0
  C  C35  1  0.56365000  0.59193000  0.40300000  1.0
  C  C36  1  0.92403000  0.86992000  0.43559000  1.0
  C  C37  1  0.05400000  0.56594000  0.13017000  1.0
  C  C38  1  0.48711000  0.56389000  0.43380000  1.0
  C  C39  1  0.05530000  0.91929000  0.47931000  1.0
  C  C40  1  0.13623000  0.56021000  0.08081000  1.0
  C  C41  1  0.57473000  0.52016000  0.43946000  1.0
  C  C42  1  0.81288000  0.76082000  0.36932000  1.0
  C  C43  1  0.05187000  0.60879000  0.23927000  1.0
  C  C44  1  0.44281000  0.63045000  0.39120000  1.0
  C  C45  1  0.48490000  0.09433000  0.59339000  1.0
  C  C46  1  0.39259000  0.49900000  0.90585000  1.0
  C  C47  1  0.89197000  0.40647000  0.50081000  1.0
  C  C48  1  0.43023000  0.14759000  0.59906000  1.0
  C  C49  1  0.28435000  0.45148000  0.85265000  1.0
  C  C50  1  0.83179000  0.40105000  0.54856000  1.0
  C  C51  1  0.57311000  0.19734000  0.61313000  1.0
  C  C52  1  0.37703000  0.41586000  0.80292000  1.0
  C  C53  1  0.96058000  0.38712000  0.58431000  1.0
  C  C54  1  0.77732000  0.19171000  0.62214000  1.0
  C  C55  1  0.58694000  0.43051000  0.80849000  1.0
  C  C56  1  0.15568000  0.37799000  0.56960000  1.0
  C  C57  1  0.82618000  0.13585000  0.61239000  1.0
  C  C58  1  0.69207000  0.47653000  0.86428000  1.0
  C  C59  1  0.21417000  0.38749000  0.52332000  1.0
  C  C60  1  0.68496000  0.08720000  0.59772000  1.0
  C  C61  1  0.59978000  0.51044000  0.91295000  1.0
  C  C62  1  0.08755000  0.40201000  0.48924000  1.0
  C  C63  1  0.93817000  0.24273000  0.64621000  1.0
  C  C64  1  0.69640000  0.40357000  0.75748000  1.0
  C  C65  1  0.29244000  0.35409000  0.59671000  1.0
  S  S66  1  0.29238000  0.04273000  0.59189000  1.0
  S  S67  1  0.25156000  0.54896000  0.95729000  1.0
  S  S68  1  0.70083000  0.40788000  0.45078000  1.0
  S  S69  1  0.40441000  0.96364000  0.56287000  1.0
  S  S70  1  0.44230000  0.59907000  0.03643000  1.0
  S  S71  1  0.84136000  0.43696000  0.40060000  1.0
  O  O72  1  0.63922000  0.77018000  0.35815000  1.0
  O  O73  1  0.86877000  0.58827000  0.22996000  1.0
  O  O74  1  0.28028000  0.64160000  0.41168000  1.0
  O  O75  1  0.85189000  0.70646000  0.34928000  1.0
  O  O76  1  0.14543000  0.64309000  0.29360000  1.0
  O  O77  1  0.50229000  0.65067000  0.35702000  1.0
  O  O78  1  0.23313000  0.74907000  0.39583000  1.0
  O  O79  1  0.48392000  0.64700000  0.25104000  1.0
  O  O80  1  0.83669000  0.60418000  0.35310000  1.0
  O  O81  1  0.11432000  0.23790000  0.66143000  1.0
  O  O82  1  0.87745000  0.42363000  0.76229000  1.0
  O  O83  1  0.45343000  0.33891000  0.57672000  1.0
  O  O84  1  0.89753000  0.29367000  0.65285000  1.0
  O  O85  1  0.60452000  0.35931000  0.70662000  1.0
  O  O86  1  0.24507000  0.34753000  0.64106000  1.0
  O  O87  1  0.50998000  0.24729000  0.61838000  1.0
  O  O88  1  0.26367000  0.37118000  0.75305000  1.0
  O  O89  1  0.89237000  0.38212000  0.62917000  1.0
