# generated using pymatgen
data_CoPH8C7N2O3
_symmetry_space_group_name_H-M   'P 1'
_cell_length_a   5.28209000
_cell_length_b   11.07900000
_cell_length_c   17.79000000
_cell_angle_alpha   101.80500000
_cell_angle_beta   89.99950000
_cell_angle_gamma   89.99990000
_symmetry_Int_Tables_number   1
_chemical_formula_structural   CoPH8C7N2O3
_chemical_formula_sum   'Co4 P4 H32 C28 N8 O12'
_cell_volume   1019.05646370
_cell_formula_units_Z   4
loop_
 _symmetry_equiv_pos_site_id
 _symmetry_equiv_pos_as_xyz
  1  'x, y, z'
loop_
 _atom_site_type_symbol
 _atom_site_label
 _atom_site_symmetry_multiplicity
 _atom_site_fract_x
 _atom_site_fract_y
 _atom_site_fract_z
 _atom_site_occupancy
  Co  Co0  1  0.79918000  0.48760000  0.08951000  1.0
  Co  Co1  1  0.29918000  0.01240000  0.41050000  1.0
  Co  Co2  1  0.20082000  0.51239000  0.91050000  1.0
  Co  Co3  1  0.70080000  0.98760000  0.58950000  1.0
  P  P4  1  0.28235000  0.34475000  0.03071000  1.0
  P  P5  1  0.78235000  0.15524000  0.46929000  1.0
  P  P6  1  0.71764000  0.65524000  0.96929000  1.0
  P  P7  1  0.21764000  0.84475000  0.53071000  1.0
  H  H8  1  0.23932000  0.21895000  0.02996000  1.0
  H  H9  1  0.73931000  0.28104000  0.47003000  1.0
  H  H10  1  0.76068000  0.78104000  0.97004000  1.0
  H  H11  1  0.26067000  0.71895000  0.52996000  1.0
  H  H12  1  0.01174000  0.49829000  0.26141000  1.0
  H  H13  1  0.51174000  0.00171000  0.23859000  1.0
  H  H14  1  0.98826000  0.50171000  0.73859000  1.0
  H  H15  1  0.48825000  0.99828000  0.76141000  1.0
  H  H16  1  0.34105000  0.63652000  0.18196000  1.0
  H  H17  1  0.84104000  0.86348000  0.31805000  1.0
  H  H18  1  0.65897000  0.36348000  0.81805000  1.0
  H  H19  1  0.15894000  0.13652000  0.68195000  1.0
  H  H20  1  0.37426000  0.71920000  0.34197000  1.0
  H  H21  1  0.87425000  0.78080000  0.15803000  1.0
  H  H22  1  0.62575000  0.28080000  0.65803000  1.0
  H  H23  1  0.12574000  0.21920000  0.84197000  1.0
  H  H24  1  0.80572000  0.72565000  0.42912000  1.0
  H  H25  1  0.30573000  0.77436000  0.07088000  1.0
  H  H26  1  0.19429000  0.27435000  0.57088000  1.0
  H  H27  1  0.69427000  0.22565000  0.92911000  1.0
  H  H28  1  0.00206000  0.59532000  0.40096000  1.0
  H  H29  1  0.50206000  0.90469000  0.09904000  1.0
  H  H30  1  0.99795000  0.40469000  0.59904000  1.0
  H  H31  1  0.49794000  0.09531000  0.90096000  1.0
  H  H32  1  0.82407000  0.65443000  0.55591000  1.0
  H  H33  1  0.32407000  0.84558000  0.94409000  1.0
  H  H34  1  0.17594000  0.34558000  0.44410000  1.0
  H  H35  1  0.67593000  0.15443000  0.05591000  1.0
  H  H36  1  0.42838000  0.45001000  0.35912000  1.0
  H  H37  1  0.92836000  0.05000000  0.14088000  1.0
  H  H38  1  0.57162000  0.55000000  0.64088000  1.0
  H  H39  1  0.07163000  0.95000000  0.85912000  1.0
  C  C40  1  0.83182000  0.54512000  0.26058000  1.0
  C  C41  1  0.33181000  0.95488000  0.23942000  1.0
  C  C42  1  0.16819000  0.45488000  0.73942000  1.0
  C  C43  1  0.66818000  0.04511000  0.76058000  1.0
  C  C44  1  0.48503000  0.62099000  0.22227000  1.0
  C  C45  1  0.98503000  0.87901000  0.27773000  1.0
  C  C46  1  0.51497000  0.37901000  0.77772000  1.0
  C  C47  1  0.01496000  0.12099000  0.72227000  1.0
  C  C48  1  0.49553000  0.66031000  0.30066000  1.0
  C  C49  1  0.99553000  0.83969000  0.19935000  1.0
  C  C50  1  0.50448000  0.33969000  0.69935000  1.0
  C  C51  1  0.00447000  0.16031000  0.80065000  1.0
  C  C52  1  0.80433000  0.62681000  0.40279000  1.0
  C  C53  1  0.30433000  0.87320000  0.09722000  1.0
  C  C54  1  0.19568000  0.37319000  0.59721000  1.0
  C  C55  1  0.69567000  0.12681000  0.90278000  1.0
  C  C56  1  0.64595000  0.55904000  0.45164000  1.0
  C  C57  1  0.14595000  0.94097000  0.04836000  1.0
  C  C58  1  0.35406000  0.44096000  0.54836000  1.0
  C  C59  1  0.85405000  0.05904000  0.95164000  1.0
  C  C60  1  0.68480000  0.58500000  0.53117000  1.0
  C  C61  1  0.18479000  0.91500000  0.96883000  1.0
  C  C62  1  0.31522000  0.41500000  0.46883000  1.0
  C  C63  1  0.81521000  0.08500000  0.03117000  1.0
  C  C64  1  0.45989000  0.47314000  0.42103000  1.0
  C  C65  1  0.95989000  0.02687000  0.07897000  1.0
  C  C66  1  0.54013000  0.52687000  0.57897000  1.0
  C  C67  1  0.04011000  0.97314000  0.92103000  1.0
  N  N68  1  0.69644000  0.54980000  0.19791000  1.0
  N  N69  1  0.19644000  0.95020000  0.30210000  1.0
  N  N70  1  0.30356000  0.45020000  0.80210000  1.0
  N  N71  1  0.80356000  0.04980000  0.69790000  1.0
  N  N72  1  0.71636000  0.61135000  0.32386000  1.0
  N  N73  1  0.21635000  0.88866000  0.17614000  1.0
  N  N74  1  0.28365000  0.38865000  0.67614000  1.0
  N  N75  1  0.78364000  0.11134000  0.82386000  1.0
  O  O76  1  0.13550000  0.42066000  0.09920000  1.0
  O  O77  1  0.63552000  0.07933000  0.40080000  1.0
  O  O78  1  0.86449000  0.57933000  0.90081000  1.0
  O  O79  1  0.36448000  0.92066000  0.59920000  1.0
  O  O80  1  0.57068000  0.36126000  0.03941000  1.0
  O  O81  1  0.07069000  0.13874000  0.46060000  1.0
  O  O82  1  0.42931000  0.63874000  0.96060000  1.0
  O  O83  1  0.92931000  0.86126000  0.53940000  1.0
  O  O84  1  0.18579000  0.36260000  0.95173000  1.0
  O  O85  1  0.68577000  0.13740000  0.54827000  1.0
  O  O86  1  0.81420000  0.63740000  0.04827000  1.0
  O  O87  1  0.31423000  0.86260000  0.45173000  1.0
