# generated using pymatgen
data_ZnH12C10(SN4)2
_symmetry_space_group_name_H-M   'P 1'
_cell_length_a   5.75891000
_cell_length_b   8.38219000
_cell_length_c   18.03510000
_cell_angle_alpha   98.99640000
_cell_angle_beta   90.02600000
_cell_angle_gamma   110.05600000
_symmetry_Int_Tables_number   1
_chemical_formula_structural   ZnH12C10(SN4)2
_chemical_formula_sum   'Zn2 H24 C20 S4 N16'
_cell_volume   806.36684860
_cell_formula_units_Z   2
loop_
 _symmetry_equiv_pos_site_id
 _symmetry_equiv_pos_as_xyz
  1  'x, y, z'
loop_
 _atom_site_type_symbol
 _atom_site_label
 _atom_site_symmetry_multiplicity
 _atom_site_fract_x
 _atom_site_fract_y
 _atom_site_fract_z
 _atom_site_occupancy
  Zn  Zn0  1  0.29414000  0.00035000  0.24962000  1.0
  Zn  Zn1  1  0.70590000  0.99965000  0.75038000  1.0
  H  H2  1  0.21620000  0.37005000  0.22161000  1.0
  H  H3  1  0.84867000  0.63041000  0.27813000  1.0
  H  H4  1  0.78382000  0.62996000  0.77838000  1.0
  H  H5  1  0.15136000  0.36958000  0.72186000  1.0
  H  H6  1  0.00933000  0.07679000  0.39651000  1.0
  H  H7  1  0.93010000  0.92318000  0.10318000  1.0
  H  H8  1  0.99071000  0.92321000  0.60349000  1.0
  H  H9  1  0.06987000  0.07684000  0.89683000  1.0
  H  H10  1  0.59181000  0.31657000  0.39871000  1.0
  H  H11  1  0.27336000  0.68138000  0.10168000  1.0
  H  H12  1  0.40820000  0.68342000  0.60130000  1.0
  H  H13  1  0.72659000  0.31864000  0.89834000  1.0
  H  H14  1  0.72052000  0.21536000  0.45841000  1.0
  H  H15  1  0.50181000  0.78377000  0.04192000  1.0
  H  H16  1  0.27949000  0.78460000  0.54158000  1.0
  H  H17  1  0.49813000  0.21625000  0.95810000  1.0
  H  H18  1  0.92418000  0.59887000  0.44476000  1.0
  H  H19  1  0.32610000  0.40013000  0.05512000  1.0
  H  H20  1  0.07587000  0.40110000  0.55525000  1.0
  H  H21  1  0.67386000  0.59990000  0.94489000  1.0
  H  H22  1  0.74239000  0.50931000  0.51734000  1.0
  H  H23  1  0.23245000  0.48967000  0.98274000  1.0
  H  H24  1  0.25762000  0.49064000  0.48266000  1.0
  H  H25  1  0.76747000  0.51035000  0.01727000  1.0
  C  C26  1  0.13130000  0.32190000  0.27118000  1.0
  C  C27  1  0.81081000  0.67846000  0.22864000  1.0
  C  C28  1  0.86873000  0.67811000  0.72881000  1.0
  C  C29  1  0.18920000  0.32154000  0.77135000  1.0
  C  C30  1  0.03324000  0.17209000  0.35988000  1.0
  C  C31  1  0.85974000  0.82795000  0.13989000  1.0
  C  C32  1  0.96678000  0.82790000  0.64011000  1.0
  C  C33  1  0.14024000  0.17206000  0.86011000  1.0
  C  C34  1  0.76452000  0.32284000  0.42681000  1.0
  C  C35  1  0.43993000  0.67610000  0.07343000  1.0
  C  C36  1  0.23550000  0.67713000  0.57319000  1.0
  C  C37  1  0.56002000  0.32392000  0.92659000  1.0
  C  C38  1  0.88347000  0.49473000  0.47834000  1.0
  C  C39  1  0.38850000  0.50462000  0.02170000  1.0
  C  C40  1  0.11656000  0.50523000  0.52167000  1.0
  C  C41  1  0.61144000  0.49541000  0.97831000  1.0
  C  C42  1  0.64972000  0.13229000  0.12583000  1.0
  C  C43  1  0.51825000  0.86810000  0.37336000  1.0
  C  C44  1  0.35028000  0.86775000  0.87416000  1.0
  C  C45  1  0.48178000  0.13188000  0.62663000  1.0
  S  S46  1  0.85214000  0.19308000  0.06513000  1.0
  S  S47  1  0.65868000  0.80685000  0.43428000  1.0
  S  S48  1  0.14788000  0.80697000  0.93487000  1.0
  S  S49  1  0.34133000  0.19309000  0.56570000  1.0
  N  N50  1  0.16393000  0.18642000  0.29822000  1.0
  N  N51  1  0.97756000  0.81405000  0.20140000  1.0
  N  N52  1  0.83609000  0.81358000  0.70177000  1.0
  N  N53  1  0.02244000  0.18596000  0.79859000  1.0
  N  N54  1  0.98813000  0.38992000  0.31278000  1.0
  N  N55  1  0.59912000  0.60991000  0.18730000  1.0
  N  N56  1  0.01188000  0.61008000  0.68722000  1.0
  N  N57  1  0.40088000  0.39010000  0.81270000  1.0
  N  N58  1  0.92693000  0.29228000  0.36843000  1.0
  N  N59  1  0.63379000  0.70738000  0.13163000  1.0
  N  N60  1  0.07307000  0.70771000  0.63156000  1.0
  N  N61  1  0.36619000  0.29263000  0.86838000  1.0
  N  N62  1  0.50283000  0.08387000  0.17088000  1.0
  N  N63  1  0.42051000  0.91687000  0.32820000  1.0
  N  N64  1  0.49716000  0.91616000  0.82910000  1.0
  N  N65  1  0.57953000  0.08313000  0.67180000  1.0
