# generated using pymatgen
data_BiH3RhC8O8F9
_symmetry_space_group_name_H-M   'P 1'
_cell_length_a   8.77908000
_cell_length_b   9.59319000
_cell_length_c   19.98860000
_cell_angle_alpha   90.00070000
_cell_angle_beta   90.00300000
_cell_angle_gamma   74.58900000
_symmetry_Int_Tables_number   1
_chemical_formula_structural   BiH3RhC8O8F9
_chemical_formula_sum   'Bi4 H12 Rh4 C32 O32 F36'
_cell_volume   1622.89890420
_cell_formula_units_Z   4
loop_
 _symmetry_equiv_pos_site_id
 _symmetry_equiv_pos_as_xyz
  1  'x, y, z'
loop_
 _atom_site_type_symbol
 _atom_site_label
 _atom_site_symmetry_multiplicity
 _atom_site_fract_x
 _atom_site_fract_y
 _atom_site_fract_z
 _atom_site_occupancy
  Bi  Bi0  1  0.28083000  0.46397000  0.33821000  1.0
  Bi  Bi1  1  0.71918000  0.03606000  0.83822000  1.0
  Bi  Bi2  1  0.71915000  0.53609000  0.66178000  1.0
  Bi  Bi3  1  0.28081000  0.96393000  0.16178000  1.0
  H  H4  1  0.16972000  0.57645000  0.08881000  1.0
  H  H5  1  0.83031000  0.92354000  0.58880000  1.0
  H  H6  1  0.83030000  0.42353000  0.91118000  1.0
  H  H7  1  0.16971000  0.07647000  0.41119000  1.0
  H  H8  1  0.00133000  0.71922000  0.11237000  1.0
  H  H9  1  0.99868000  0.78077000  0.61239000  1.0
  H  H10  1  0.99867000  0.28074000  0.88759000  1.0
  H  H11  1  0.00132000  0.21925000  0.38761000  1.0
  H  H12  1  0.99818000  0.53256000  0.11788000  1.0
  H  H13  1  0.00182000  0.96743000  0.61790000  1.0
  H  H14  1  0.00183000  0.46741000  0.88211000  1.0
  H  H15  1  0.99817000  0.03259000  0.38211000  1.0
  Rh  Rh16  1  0.22201000  0.73644000  0.31427000  1.0
  Rh  Rh17  1  0.77801000  0.76357000  0.81427000  1.0
  Rh  Rh18  1  0.77800000  0.26358000  0.68573000  1.0
  Rh  Rh19  1  0.22200000  0.23644000  0.18574000  1.0
  C  C20  1  0.13345000  0.60120000  0.19376000  1.0
  C  C21  1  0.86652000  0.89880000  0.69377000  1.0
  C  C22  1  0.86654000  0.39881000  0.80622000  1.0
  C  C23  1  0.13344000  0.10120000  0.30623000  1.0
  C  C24  1  0.07020000  0.60904000  0.12394000  1.0
  C  C25  1  0.92980000  0.89096000  0.62395000  1.0
  C  C26  1  0.92980000  0.39094000  0.87604000  1.0
  C  C27  1  0.07019000  0.10905000  0.37604000  1.0
  C  C28  1  0.54386000  0.59610000  0.27299000  1.0
  C  C29  1  0.45614000  0.90387000  0.77301000  1.0
  C  C30  1  0.45612000  0.40393000  0.72699000  1.0
  C  C31  1  0.54388000  0.09609000  0.22700000  1.0
  C  C32  1  0.69956000  0.60229000  0.23791000  1.0
  C  C33  1  0.30044000  0.89770000  0.73791000  1.0
  C  C34  1  0.30046000  0.39771000  0.76209000  1.0
  C  C35  1  0.69956000  0.10229000  0.26209000  1.0
  C  C36  1  0.33057000  0.68541000  0.45125000  1.0
  C  C37  1  0.66948000  0.81458000  0.95125000  1.0
  C  C38  1  0.66945000  0.31460000  0.54874000  1.0
  C  C39  1  0.33050000  0.18541000  0.04874000  1.0
  C  C40  1  0.35372000  0.75102000  0.52041000  1.0
  C  C41  1  0.64630000  0.74898000  0.02040000  1.0
  C  C42  1  0.64630000  0.24897000  0.47960000  1.0
  C  C43  1  0.35369000  0.25102000  0.97960000  1.0
  C  C44  1  0.95403000  0.67074000  0.38252000  1.0
  C  C45  1  0.04601000  0.82925000  0.88250000  1.0
  C  C46  1  0.04598000  0.32928000  0.61750000  1.0
  C  C47  1  0.95400000  0.17074000  0.11750000  1.0
  C  C48  1  0.79616000  0.71921000  0.42184000  1.0
  C  C49  1  0.20388000  0.78078000  0.92184000  1.0
  C  C50  1  0.20383000  0.28079000  0.57817000  1.0
  C  C51  1  0.79613000  0.21922000  0.07816000  1.0
  O  O52  1  0.18737000  0.47815000  0.22214000  1.0
  O  O53  1  0.81260000  0.02187000  0.72215000  1.0
  O  O54  1  0.81258000  0.52189000  0.77784000  1.0
  O  O55  1  0.18732000  0.97813000  0.27784000  1.0
  O  O56  1  0.01448000  0.53611000  0.37980000  1.0
  O  O57  1  0.98556000  0.96388000  0.87980000  1.0
  O  O58  1  0.98552000  0.46390000  0.62021000  1.0
  O  O59  1  0.01446000  0.03611000  0.12020000  1.0
  O  O60  1  0.33289000  0.55401000  0.44885000  1.0
  O  O61  1  0.66711000  0.94601000  0.94885000  1.0
  O  O62  1  0.66713000  0.44602000  0.55115000  1.0
  O  O63  1  0.33286000  0.05399000  0.05115000  1.0
  O  O64  1  0.53905000  0.47890000  0.29932000  1.0
  O  O65  1  0.46096000  0.02107000  0.79934000  1.0
  O  O66  1  0.46093000  0.52109000  0.70065000  1.0
  O  O67  1  0.53905000  0.97891000  0.20067000  1.0
  O  O68  1  0.13167000  0.72145000  0.22224000  1.0
  O  O69  1  0.86826000  0.77856000  0.72223000  1.0
  O  O70  1  0.86830000  0.27857000  0.77776000  1.0
  O  O71  1  0.13173000  0.22143000  0.27777000  1.0
  O  O72  1  0.00662000  0.77281000  0.35997000  1.0
  O  O73  1  0.99344000  0.72719000  0.85994000  1.0
  O  O74  1  0.99339000  0.22721000  0.64005000  1.0
  O  O75  1  0.00657000  0.27281000  0.14005000  1.0
  O  O76  1  0.30624000  0.77879000  0.40447000  1.0
  O  O77  1  0.69385000  0.72120000  0.90448000  1.0
  O  O78  1  0.69378000  0.22123000  0.59553000  1.0
  O  O79  1  0.30615000  0.27880000  0.09552000  1.0
  O  O80  1  0.43558000  0.71496000  0.26953000  1.0
  O  O81  1  0.56442000  0.78502000  0.76955000  1.0
  O  O82  1  0.56443000  0.28505000  0.73046000  1.0
  O  O83  1  0.43559000  0.21496000  0.23045000  1.0
  F  F84  1  0.83043000  0.71417000  0.48875000  1.0
  F  F85  1  0.16956000  0.78583000  0.98875000  1.0
  F  F86  1  0.16951000  0.28583000  0.51126000  1.0
  F  F87  1  0.83044000  0.21417000  0.01125000  1.0
  F  F88  1  0.71219000  0.85492000  0.40681000  1.0
  F  F89  1  0.28786000  0.64508000  0.90683000  1.0
  F  F90  1  0.28779000  0.14507000  0.59319000  1.0
  F  F91  1  0.71216000  0.35493000  0.09318000  1.0
  F  F92  1  0.70403000  0.62857000  0.41013000  1.0
  F  F93  1  0.29601000  0.87142000  0.91015000  1.0
  F  F94  1  0.29598000  0.37142000  0.58986000  1.0
  F  F95  1  0.70400000  0.12858000  0.08985000  1.0
  F  F96  1  0.49569000  0.78287000  0.52437000  1.0
  F  F97  1  0.50432000  0.71714000  0.02434000  1.0
  F  F98  1  0.50432000  0.21712000  0.47566000  1.0
  F  F99  1  0.49568000  0.28284000  0.97567000  1.0
  F  F100  1  0.23872000  0.87633000  0.52973000  1.0
  F  F101  1  0.76130000  0.62366000  0.02972000  1.0
  F  F102  1  0.76131000  0.12365000  0.47030000  1.0
  F  F103  1  0.23870000  0.37634000  0.97027000  1.0
  F  F104  1  0.34515000  0.66029000  0.57101000  1.0
  F  F105  1  0.65488000  0.83970000  0.07101000  1.0
  F  F106  1  0.65487000  0.33969000  0.42899000  1.0
  F  F107  1  0.34514000  0.16028000  0.92899000  1.0
  F  F108  1  0.67278000  0.62560000  0.17124000  1.0
  F  F109  1  0.32724000  0.87442000  0.67124000  1.0
  F  F110  1  0.32730000  0.37440000  0.82876000  1.0
  F  F111  1  0.67275000  0.12561000  0.32876000  1.0
  F  F112  1  0.81503000  0.47907000  0.24570000  1.0
  F  F113  1  0.18497000  0.02093000  0.74570000  1.0
  F  F114  1  0.18498000  0.52092000  0.75431000  1.0
  F  F115  1  0.81503000  0.97907000  0.25431000  1.0
  F  F116  1  0.75347000  0.71238000  0.26267000  1.0
  F  F117  1  0.24651000  0.78762000  0.76266000  1.0
  F  F118  1  0.24656000  0.28761000  0.73732000  1.0
  F  F119  1  0.75348000  0.21238000  0.23733000  1.0
