# generated using pymatgen
data_Cu5H8C8(BrN4)3
_symmetry_space_group_name_H-M   'P 1'
_cell_length_a   6.28700000
_cell_length_b   7.20406000
_cell_length_c   20.62140000
_cell_angle_alpha   90.00010000
_cell_angle_beta   90.00030000
_cell_angle_gamma   88.29030000
_symmetry_Int_Tables_number   1
_chemical_formula_structural   Cu5H8C8(BrN4)3
_chemical_formula_sum   'Cu10 H16 C16 Br6 N24'
_cell_volume   933.56711937
_cell_formula_units_Z   2
loop_
 _symmetry_equiv_pos_site_id
 _symmetry_equiv_pos_as_xyz
  1  'x, y, z'
loop_
 _atom_site_type_symbol
 _atom_site_label
 _atom_site_symmetry_multiplicity
 _atom_site_fract_x
 _atom_site_fract_y
 _atom_site_fract_z
 _atom_site_occupancy
  Cu  Cu0  1  0.99999000  0.50000000  0.00000000  1.0
  Cu  Cu1  1  0.00000000  0.50000000  0.50000000  1.0
  Cu  Cu2  1  0.64922000  0.74357000  0.99868000  1.0
  Cu  Cu3  1  0.35078000  0.25644000  0.49868000  1.0
  Cu  Cu4  1  0.35077000  0.25643000  0.00132000  1.0
  Cu  Cu5  1  0.64923000  0.74356000  0.50132000  1.0
  Cu  Cu6  1  0.03146000  0.51349000  0.75000000  1.0
  Cu  Cu7  1  0.96854000  0.48651000  0.25000000  1.0
  Cu  Cu8  1  0.03030000  0.98660000  0.75000000  1.0
  Cu  Cu9  1  0.96971000  0.01340000  0.25000000  1.0
  H  H10  1  0.74601000  0.04534000  0.11018000  1.0
  H  H11  1  0.25398000  0.95466000  0.61018000  1.0
  H  H12  1  0.25399000  0.95466000  0.88983000  1.0
  H  H13  1  0.74604000  0.04533000  0.38983000  1.0
  H  H14  1  0.72440000  0.46112000  0.11560000  1.0
  H  H15  1  0.27560000  0.53888000  0.61561000  1.0
  H  H16  1  0.27558000  0.53888000  0.88440000  1.0
  H  H17  1  0.72440000  0.46112000  0.38439000  1.0
  H  H18  1  0.73875000  0.46108000  0.88370000  1.0
  H  H19  1  0.26122000  0.53892000  0.38371000  1.0
  H  H20  1  0.26123000  0.53891000  0.11629000  1.0
  H  H21  1  0.73874000  0.46108000  0.61630000  1.0
  H  H22  1  0.75014000  0.04414000  0.88885000  1.0
  H  H23  1  0.24988000  0.95586000  0.38886000  1.0
  H  H24  1  0.24987000  0.95586000  0.11115000  1.0
  H  H25  1  0.75015000  0.04414000  0.61114000  1.0
  C  C26  1  0.76471000  0.90132000  0.12489000  1.0
  C  C27  1  0.23528000  0.09869000  0.62489000  1.0
  C  C28  1  0.23528000  0.09868000  0.87511000  1.0
  C  C29  1  0.76472000  0.90131000  0.37511000  1.0
  C  C30  1  0.75455000  0.60456000  0.12741000  1.0
  C  C31  1  0.24544000  0.39544000  0.62741000  1.0
  C  C32  1  0.24544000  0.39544000  0.87259000  1.0
  C  C33  1  0.75457000  0.60456000  0.37258000  1.0
  C  C34  1  0.76533000  0.60437000  0.87090000  1.0
  C  C35  1  0.23466000  0.39563000  0.37089000  1.0
  C  C36  1  0.23466000  0.39562000  0.12910000  1.0
  C  C37  1  0.76532000  0.60436000  0.62910000  1.0
  C  C38  1  0.76961000  0.90100000  0.87327000  1.0
  C  C39  1  0.23039000  0.09902000  0.37327000  1.0
  C  C40  1  0.23038000  0.09901000  0.12673000  1.0
  C  C41  1  0.76963000  0.90099000  0.62673000  1.0
  Br  Br42  1  0.35217000  0.74399000  0.75001000  1.0
  Br  Br43  1  0.64782000  0.25602000  0.25000000  1.0
  Br  Br44  1  0.21473000  0.74931000  0.00050000  1.0
  Br  Br45  1  0.78527000  0.25069000  0.50050000  1.0
  Br  Br46  1  0.78525000  0.25069000  0.99950000  1.0
  Br  Br47  1  0.21474000  0.74931000  0.49949000  1.0
  N  N48  1  0.85671000  0.84647000  0.18015000  1.0
  N  N49  1  0.14329000  0.15351000  0.68015000  1.0
  N  N50  1  0.14329000  0.15351000  0.81985000  1.0
  N  N51  1  0.85671000  0.84647000  0.31985000  1.0
  N  N52  1  0.85039000  0.65725000  0.18154000  1.0
  N  N53  1  0.14961000  0.34276000  0.68155000  1.0
  N  N54  1  0.14960000  0.34276000  0.81846000  1.0
  N  N55  1  0.85040000  0.65725000  0.31846000  1.0
  N  N56  1  0.69950000  0.75369000  0.08987000  1.0
  N  N57  1  0.30049000  0.24632000  0.58987000  1.0
  N  N58  1  0.30050000  0.24631000  0.91013000  1.0
  N  N59  1  0.69952000  0.75368000  0.41013000  1.0
  N  N60  1  0.86655000  0.65788000  0.81791000  1.0
  N  N61  1  0.13344000  0.34211000  0.31791000  1.0
  N  N62  1  0.13344000  0.34211000  0.18209000  1.0
  N  N63  1  0.86656000  0.65788000  0.68209000  1.0
  N  N64  1  0.86866000  0.84702000  0.81916000  1.0
  N  N65  1  0.13135000  0.15300000  0.31916000  1.0
  N  N66  1  0.13134000  0.15300000  0.18084000  1.0
  N  N67  1  0.86867000  0.84702000  0.68084000  1.0
  N  N68  1  0.70299000  0.75283000  0.90778000  1.0
  N  N69  1  0.29700000  0.24717000  0.40778000  1.0
  N  N70  1  0.29701000  0.24717000  0.09222000  1.0
  N  N71  1  0.70300000  0.75283000  0.59222000  1.0
