# generated using pymatgen
data_Zn4H48C54N10O31
_symmetry_space_group_name_H-M   'P 1'
_cell_length_a   16.02320000
_cell_length_b   19.14540000
_cell_length_c   19.17860000
_cell_angle_alpha   94.78750000
_cell_angle_beta   94.87300000
_cell_angle_gamma   90.57060000
_symmetry_Int_Tables_number   1
_chemical_formula_structural   Zn4H48C54N10O31
_chemical_formula_sum   'Zn4 H48 C54 N10 O31'
_cell_volume   5840.85035799
_cell_formula_units_Z   1
loop_
 _symmetry_equiv_pos_site_id
 _symmetry_equiv_pos_as_xyz
  1  'x, y, z'
loop_
 _atom_site_type_symbol
 _atom_site_label
 _atom_site_symmetry_multiplicity
 _atom_site_fract_x
 _atom_site_fract_y
 _atom_site_fract_z
 _atom_site_occupancy
  Zn  Zn0  1  0.43656000  0.56141000  0.56056000  1.0
  Zn  Zn1  1  0.58607000  0.44856000  0.55766000  1.0
  Zn  Zn2  1  0.56975000  0.56459000  0.44658000  1.0
  Zn  Zn3  1  0.43275000  0.44210000  0.43593000  1.0
  H  H4  1  0.01521000  0.57282000  0.49905000  1.0
  H  H5  1  0.36230000  0.89870000  0.57077000  1.0
  H  H6  1  0.38080000  0.76813000  0.56704000  1.0
  H  H7  1  0.53666000  0.21768000  0.37612000  1.0
  H  H8  1  0.53099000  0.08702000  0.38399000  1.0
  H  H9  1  0.59401000  0.60329000  0.91751000  1.0
  H  H10  1  0.00545000  0.30335000  0.53831000  1.0
  H  H11  1  0.09835000  0.35616000  0.55510000  1.0
  H  H12  1  0.02508000  0.29083000  0.41050000  1.0
  H  H13  1  0.11493000  0.34659000  0.42445000  1.0
  H  H14  1  0.18878000  0.26095000  0.50013000  1.0
  H  H15  1  0.15673000  0.22016000  0.41553000  1.0
  H  H16  1  0.09903000  0.20444000  0.48784000  1.0
  H  H17  1  0.70418000  0.69976000  0.48948000  1.0
  H  H18  1  0.64941000  0.72720000  0.56384000  1.0
  H  H19  1  0.79794000  0.80649000  0.51468000  1.0
  H  H20  1  0.74215000  0.83433000  0.58731000  1.0
  H  H21  1  0.78585000  0.72533000  0.64668000  1.0
  H  H22  1  0.87434000  0.77407000  0.62709000  1.0
  H  H23  1  0.84162000  0.69667000  0.57365000  1.0
  H  H24  1  0.37127000  0.41510000  0.65844000  1.0
  H  H25  1  0.33325000  0.46871000  0.72976000  1.0
  H  H26  1  0.31955000  0.30841000  0.71012000  1.0
  H  H27  1  0.27393000  0.36280000  0.77547000  1.0
  H  H28  1  0.18357000  0.41795000  0.67896000  1.0
  H  H29  1  0.16570000  0.32617000  0.67631000  1.0
  H  H30  1  0.22913000  0.36094000  0.61528000  1.0
  H  H31  1  0.27696000  0.34339000  0.18864000  1.0
  H  H32  1  0.27235000  0.43447000  0.17635000  1.0
  H  H33  1  0.27544000  0.37237000  0.31922000  1.0
  H  H34  1  0.26776000  0.46215000  0.30566000  1.0
  H  H35  1  0.12928000  0.43812000  0.23239000  1.0
  H  H36  1  0.12578000  0.41097000  0.31825000  1.0
  H  H37  1  0.13649000  0.34782000  0.24649000  1.0
  H  H38  1  0.46285000  0.64335000  0.30857000  1.0
  H  H39  1  0.44913000  0.67936000  0.22508000  1.0
  H  H40  1  0.59069000  0.71603000  0.34116000  1.0
  H  H41  1  0.58511000  0.74715000  0.25636000  1.0
  H  H42  1  0.44729000  0.80444000  0.27821000  1.0
  H  H43  1  0.52718000  0.83521000  0.34385000  1.0
  H  H44  1  0.45178000  0.77249000  0.36285000  1.0
  H  H45  1  0.36053000  0.05463000  0.64724000  1.0
  H  H46  1  0.34101000  0.05938000  0.55512000  1.0
  H  H47  1  0.31887000  0.17986000  0.66856000  1.0
  H  H48  1  0.30134000  0.18671000  0.57696000  1.0
  H  H49  1  0.18732000  0.09375000  0.56821000  1.0
  H  H50  1  0.16562000  0.16516000  0.62870000  1.0
  H  H51  1  0.20432000  0.08602000  0.66001000  1.0
  C  C52  1  0.51337000  0.31807000  0.48138000  1.0
  C  C53  1  0.49945000  0.69230000  0.51444000  1.0
  C  C54  1  0.51624000  0.50480000  0.68713000  1.0
  C  C55  1  0.47870000  0.50845000  0.31614000  1.0
  C  C56  1  0.73126000  0.51692000  0.50590000  1.0
  C  C57  1  0.28336000  0.48538000  0.50247000  1.0
  C  C58  1  0.82019000  0.51998000  0.50491000  1.0
  C  C59  1  0.98290000  0.52295000  0.50211000  1.0
  C  C60  1  0.03077000  0.46381000  0.50411000  1.0
  C  C61  1  0.11871000  0.46998000  0.50387000  1.0
  C  C62  1  0.89616000  0.52133000  0.50270000  1.0
  C  C63  1  0.19439000  0.47706000  0.50410000  1.0
  C  C64  1  0.49872000  0.77047000  0.52235000  1.0
  C  C65  1  0.56244000  0.81313000  0.49995000  1.0
  C  C66  1  0.54903000  0.88556000  0.49968000  1.0
  C  C67  1  0.47671000  0.91654000  0.52436000  1.0
  C  C68  1  0.41729000  0.87379000  0.55085000  1.0
  C  C69  1  0.42800000  0.80206000  0.54906000  1.0
  C  C70  1  0.46916000  0.13910000  0.54641000  1.0
  C  C71  1  0.48105000  0.21146000  0.54270000  1.0
  C  C72  1  0.48916000  0.09420000  0.48700000  1.0
  C  C73  1  0.50366000  0.24024000  0.48210000  1.0
  C  C74  1  0.51889000  0.19550000  0.42330000  1.0
  C  C75  1  0.51432000  0.12356000  0.42706000  1.0
  C  C76  1  0.47012000  0.50581000  0.23756000  1.0
  C  C77  1  0.51293000  0.55635000  0.20308000  1.0
  C  C78  1  0.51652000  0.54797000  0.13042000  1.0
  C  C79  1  0.47679000  0.49093000  0.08924000  1.0
  C  C80  1  0.43156000  0.44352000  0.12414000  1.0
  C  C81  1  0.42557000  0.44997000  0.19693000  1.0
  C  C82  1  0.47256000  0.45766000  0.86909000  1.0
  C  C83  1  0.47265000  0.45566000  0.79588000  1.0
  C  C84  1  0.51582000  0.51073000  0.91386000  1.0
  C  C85  1  0.51851000  0.50720000  0.76609000  1.0
  C  C86  1  0.56188000  0.55927000  0.81115000  1.0
  C  C87  1  0.56089000  0.56175000  0.88357000  1.0
  C  C88  1  0.04635000  0.34020000  0.51563000  1.0
  C  C89  1  0.07860000  0.30727000  0.44834000  1.0
  C  C90  1  0.13380000  0.24472000  0.46388000  1.0
  C  C91  1  0.68693000  0.74557000  0.52326000  1.0
  C  C92  1  0.76311000  0.78751000  0.55662000  1.0
  C  C93  1  0.81928000  0.74334000  0.60353000  1.0
  C  C94  1  0.35520000  0.41618000  0.71308000  1.0
  C  C95  1  0.29063000  0.35962000  0.72085000  1.0
  C  C96  1  0.21296000  0.36663000  0.67006000  1.0
  C  C97  1  0.29235000  0.39621000  0.21384000  1.0
  C  C98  1  0.25065000  0.40924000  0.28182000  1.0
  C  C99  1  0.15539000  0.40095000  0.26886000  1.0
  C  C100  1  0.49583000  0.66607000  0.26737000  1.0
  C  C101  1  0.54720000  0.72999000  0.29721000  1.0
  C  C102  1  0.49010000  0.78883000  0.32190000  1.0
  C  C103  1  0.35862000  0.09033000  0.60519000  1.0
  C  C104  1  0.29869000  0.15018000  0.61821000  1.0
  C  C105  1  0.20908000  0.12218000  0.61882000  1.0
  N  N106  1  0.45851000  0.98827000  0.52686000  1.0
  N  N107  1  0.49620000  0.02139000  0.48399000  1.0
  N  N108  1  0.47594000  0.47659000  0.01635000  1.0
  N  N109  1  0.51671000  0.52121000  0.98689000  1.0
  N  N110  1  0.42204000  0.40194000  0.89483000  1.0
  N  N111  1  0.39210000  0.38150000  0.08234000  1.0
  N  N112  1  0.61036000  0.61427000  0.78180000  1.0
  N  N113  1  0.56333000  0.60373000  0.10060000  1.0
  N  N114  1  0.46110000  0.25954000  0.60278000  1.0
  N  N115  1  0.61840000  0.92763000  0.47757000  1.0
  O  O116  1  0.50684000  0.50344000  0.50154000  1.0
  O  O117  1  0.47418000  0.34581000  0.43032000  1.0
  O  O118  1  0.45877000  0.66136000  0.55773000  1.0
  O  O119  1  0.56846000  0.46533000  0.65819000  1.0
  O  O120  1  0.54863000  0.53151000  0.34644000  1.0
  O  O121  1  0.70134000  0.46851000  0.53920000  1.0
  O  O122  1  0.32009000  0.43563000  0.46940000  1.0
  O  O123  1  0.68994000  0.56299000  0.47316000  1.0
  O  O124  1  0.31637000  0.54165000  0.53392000  1.0
  O  O125  1  0.45728000  0.53945000  0.65874000  1.0
  O  O126  1  0.41740000  0.48621000  0.34688000  1.0
  O  O127  1  0.56068000  0.34831000  0.53161000  1.0
  O  O128  1  0.53666000  0.66289000  0.46383000  1.0
  O  O129  1  0.99341000  0.40027000  0.50472000  1.0
  O  O130  1  0.63591000  0.78954000  0.47846000  1.0
  O  O131  1  0.43147000  0.40167000  0.75711000  1.0
  O  O132  1  0.45837000  0.34777000  0.90833000  1.0
  O  O133  1  0.34647000  0.41343000  0.89641000  1.0
  O  O134  1  0.32040000  0.38821000  0.05484000  1.0
  O  O135  1  0.43395000  0.32782000  0.07991000  1.0
  O  O136  1  0.38406000  0.40034000  0.22761000  1.0
  O  O137  1  0.64467000  0.66087000  0.82324000  1.0
  O  O138  1  0.61349000  0.61008000  0.71707000  1.0
  O  O139  1  0.52333000  0.65610000  0.08577000  1.0
  O  O140  1  0.63892000  0.59510000  0.09691000  1.0
  O  O141  1  0.55172000  0.61435000  0.23712000  1.0
  O  O142  1  0.40606000  0.30336000  0.58985000  1.0
  O  O143  1  0.49818000  0.25272000  0.66050000  1.0
  O  O144  1  0.44495000  0.11550000  0.60614000  1.0
  O  O145  1  0.66333000  0.96079000  0.52495000  1.0
  O  O146  1  0.62903000  0.92341000  0.41440000  1.0
