# generated using pymatgen
data_AlH5C11SNO5F
_symmetry_space_group_name_H-M   'P 1'
_cell_length_a   6.67454000
_cell_length_b   12.73342810
_cell_length_c   16.92980000
_cell_angle_alpha   90.99882686
_cell_angle_beta   97.14000000
_cell_angle_gamma   104.59124964
_symmetry_Int_Tables_number   1
_chemical_formula_structural   AlH5C11SNO5F
_chemical_formula_sum   'Al2 H10 C22 S2 N2 O10 F2'
_cell_volume   1379.87408797
_cell_formula_units_Z   2
loop_
 _symmetry_equiv_pos_site_id
 _symmetry_equiv_pos_as_xyz
  1  'x, y, z'
loop_
 _atom_site_type_symbol
 _atom_site_label
 _atom_site_symmetry_multiplicity
 _atom_site_fract_x
 _atom_site_fract_y
 _atom_site_fract_z
 _atom_site_occupancy
  Al  Al0  1  0.00000000  0.50000000  0.50000000  1.0
  Al  Al1  1  0.50000000  0.50000000  0.50000000  1.0
  H  H2  1  0.17056000  0.37146000  0.45097000  1.0
  H  H3  1  0.82944000  0.62854000  0.54903000  1.0
  H  H4  1  0.64966000  0.50296000  0.73607000  1.0
  H  H5  1  0.71071000  0.50008000  0.88608000  1.0
  H  H6  1  0.06865000  0.49508000  0.89568000  1.0
  H  H7  1  0.00706000  0.49636000  0.74501000  1.0
  H  H8  1  0.93134000  0.50492000  0.10432000  1.0
  H  H9  1  0.28929000  0.49992000  0.11392000  1.0
  H  H10  1  0.35033000  0.49704000  0.26393000  1.0
  H  H11  1  0.99294000  0.50364000  0.25499000  1.0
  C  C12  1  0.65337000  0.30553000  0.50863000  1.0
  C  C13  1  0.70871000  0.49681000  0.35609000  1.0
  C  C14  1  0.34662000  0.69447000  0.49136000  1.0
  C  C15  1  0.29129000  0.50319000  0.64391000  1.0
  C  C16  1  0.32525000  0.50017000  0.73257000  1.0
  C  C17  1  0.52430000  0.50116000  0.77198000  1.0
  C  C18  1  0.55830000  0.49976000  0.85433000  1.0
  C  C19  1  0.39243000  0.49811000  0.89869000  1.0
  C  C20  1  0.19341000  0.49660000  0.85943000  1.0
  C  C21  1  0.15988000  0.49737000  0.77675000  1.0
  C  C22  1  0.80658000  0.50340000  0.14057000  1.0
  C  C23  1  0.60757000  0.50189000  0.10131000  1.0
  C  C24  1  0.44169000  0.50024000  0.14567000  1.0
  C  C25  1  0.47568000  0.49883000  0.22802000  1.0
  C  C26  1  0.67473000  0.49982000  0.26743000  1.0
  C  C27  1  0.84011000  0.50262000  0.22325000  1.0
  C  C28  1  0.29459000  0.88506000  0.51628000  1.0
  C  C29  1  0.70542000  0.11494000  0.48371000  1.0
  C  C30  1  0.40453000  0.81350000  0.49291000  1.0
  C  C31  1  0.59547000  0.18650000  0.50707000  1.0
  C  C32  1  0.59759000  0.00484000  0.48682000  1.0
  C  C33  1  0.40241000  0.99516000  0.51317000  1.0
  S  S34  1  0.64643000  0.88127000  0.46695000  1.0
  S  S35  1  0.35357000  0.11873000  0.53304000  1.0
  N  N36  1  0.40911000  0.49783000  0.98267000  1.0
  N  N37  1  0.59088000  0.50217000  0.01733000  1.0
  O  O38  1  0.83964000  0.35197000  0.49789000  1.0
  O  O39  1  0.54670000  0.48090000  0.39172000  1.0
  O  O40  1  0.48990000  0.64772000  0.48036000  1.0
  O  O41  1  0.10433000  0.49133000  0.61066000  1.0
  O  O42  1  0.16036000  0.64803000  0.50211000  1.0
  O  O43  1  0.45329000  0.51910000  0.60828000  1.0
  O  O44  1  0.51010000  0.35228000  0.51964000  1.0
  O  O45  1  0.89567000  0.50867000  0.38934000  1.0
  O  O46  1  0.21472000  0.44813000  0.46712000  1.0
  O  O47  1  0.78529000  0.55188000  0.53288000  1.0
  F  F48  1  0.10550000  0.85488000  0.54119000  1.0
  F  F49  1  0.89451000  0.14512000  0.45880000  1.0
