# generated using pymatgen
data_CuH16C14(N5O3)2
_symmetry_space_group_name_H-M   'P 1'
_cell_length_a   8.57625000
_cell_length_b   8.57625000
_cell_length_c   14.05520000
_cell_angle_alpha   89.99980000
_cell_angle_beta   89.99990000
_cell_angle_gamma   62.52700000
_symmetry_Int_Tables_number   1
_chemical_formula_structural   CuH16C14(N5O3)2
_chemical_formula_sum   'Cu2 H32 C28 N20 O12'
_cell_volume   917.20686068
_cell_formula_units_Z   2
loop_
 _symmetry_equiv_pos_site_id
 _symmetry_equiv_pos_as_xyz
  1  'x, y, z'
loop_
 _atom_site_type_symbol
 _atom_site_label
 _atom_site_symmetry_multiplicity
 _atom_site_fract_x
 _atom_site_fract_y
 _atom_site_fract_z
 _atom_site_occupancy
  Cu  Cu0  1  0.00000000  0.00000000  0.00000000  1.0
  Cu  Cu1  1  0.50000000  0.50000000  0.50000000  1.0
  H  H2  1  0.20133000  0.61089000  0.08508000  1.0
  H  H3  1  0.29868000  0.88911000  0.58508000  1.0
  H  H4  1  0.38911000  0.79867000  0.91492000  1.0
  H  H5  1  0.11089000  0.70132000  0.41492000  1.0
  H  H6  1  0.79868000  0.38911000  0.91492000  1.0
  H  H7  1  0.70133000  0.11089000  0.41492000  1.0
  H  H8  1  0.61089000  0.20133000  0.08508000  1.0
  H  H9  1  0.88911000  0.29867000  0.58508000  1.0
  H  H10  1  0.14184000  0.41542000  0.81756000  1.0
  H  H11  1  0.35816000  0.08459000  0.31756000  1.0
  H  H12  1  0.58459000  0.85816000  0.18244000  1.0
  H  H13  1  0.91542000  0.64184000  0.68244000  1.0
  H  H14  1  0.85816000  0.58458000  0.18244000  1.0
  H  H15  1  0.64184000  0.91542000  0.68244000  1.0
  H  H16  1  0.41541000  0.14184000  0.81756000  1.0
  H  H17  1  0.08458000  0.35816000  0.31756000  1.0
  H  H18  1  0.01101000  0.78064000  0.80691000  1.0
  H  H19  1  0.48899000  0.71937000  0.30692000  1.0
  H  H20  1  0.21936000  0.98899000  0.19309000  1.0
  H  H21  1  0.28064000  0.51101000  0.69308000  1.0
  H  H22  1  0.98899000  0.21936000  0.19308000  1.0
  H  H23  1  0.51101000  0.28064000  0.69308000  1.0
  H  H24  1  0.78063000  0.01101000  0.80691000  1.0
  H  H25  1  0.71936000  0.48899000  0.30692000  1.0
  H  H26  1  0.21475000  0.21476000  0.97195000  1.0
  H  H27  1  0.28525000  0.28525000  0.47195000  1.0
  H  H28  1  0.78525000  0.78525000  0.02805000  1.0
  H  H29  1  0.71475000  0.71475000  0.52805000  1.0
  H  H30  1  0.28896000  0.28896000  0.07514000  1.0
  H  H31  1  0.21103000  0.21103000  0.57514000  1.0
  H  H32  1  0.71104000  0.71104000  0.92486000  1.0
  H  H33  1  0.78896000  0.78896000  0.42486000  1.0
  C  C34  1  0.16353000  0.61187000  0.01131000  1.0
  C  C35  1  0.33647000  0.88813000  0.51131000  1.0
  C  C36  1  0.38813000  0.83647000  0.98869000  1.0
  C  C37  1  0.11187000  0.66353000  0.48869000  1.0
  C  C38  1  0.83647000  0.38813000  0.98869000  1.0
  C  C39  1  0.66353000  0.11187000  0.48868000  1.0
  C  C40  1  0.61187000  0.16353000  0.01131000  1.0
  C  C41  1  0.88813000  0.33647000  0.51131000  1.0
  C  C42  1  0.13274000  0.51277000  0.86985000  1.0
  C  C43  1  0.36726000  0.98723000  0.36985000  1.0
  C  C44  1  0.48723000  0.86726000  0.13015000  1.0
  C  C45  1  0.01277000  0.63274000  0.63015000  1.0
  C  C46  1  0.86726000  0.48723000  0.13015000  1.0
  C  C47  1  0.63274000  0.01277000  0.63015000  1.0
  C  C48  1  0.51277000  0.13274000  0.86984000  1.0
  C  C49  1  0.98723000  0.36726000  0.36985000  1.0
  C  C50  1  0.06475000  0.69216000  0.86662000  1.0
  C  C51  1  0.43525000  0.80784000  0.36662000  1.0
  C  C52  1  0.30784000  0.93525000  0.13338000  1.0
  C  C53  1  0.19216000  0.56475000  0.63338000  1.0
  C  C54  1  0.93525000  0.30784000  0.13338000  1.0
  C  C55  1  0.56475000  0.19216000  0.63338000  1.0
  C  C56  1  0.69216000  0.06475000  0.86661000  1.0
  C  C57  1  0.80784000  0.43525000  0.36662000  1.0
  C  C58  1  0.28543000  0.28543000  0.99709000  1.0
  C  C59  1  0.21457000  0.21457000  0.49709000  1.0
  C  C60  1  0.71457000  0.71457000  0.00291000  1.0
  C  C61  1  0.78543000  0.78543000  0.50291000  1.0
  N  N62  1  0.08244000  0.75196000  0.95526000  1.0
  N  N63  1  0.41756000  0.74804000  0.45526000  1.0
  N  N64  1  0.24804000  0.91756000  0.04474000  1.0
  N  N65  1  0.25196000  0.58244000  0.54474000  1.0
  N  N66  1  0.91757000  0.24804000  0.04474000  1.0
  N  N67  1  0.58244000  0.25196000  0.54474000  1.0
  N  N68  1  0.75196000  0.08244000  0.95526000  1.0
  N  N69  1  0.74804000  0.41756000  0.45526000  1.0
  N  N70  1  0.19508000  0.46460000  0.96161000  1.0
  N  N71  1  0.30492000  0.03540000  0.46161000  1.0
  N  N72  1  0.53540000  0.80491000  0.03839000  1.0
  N  N73  1  0.96460000  0.69508000  0.53839000  1.0
  N  N74  1  0.80492000  0.53540000  0.03839000  1.0
  N  N75  1  0.69508000  0.96460000  0.53839000  1.0
  N  N76  1  0.46460000  0.19509000  0.96161000  1.0
  N  N77  1  0.03540000  0.30491000  0.46161000  1.0
  N  N78  1  0.10476000  0.10476000  0.76101000  1.0
  N  N79  1  0.39524000  0.39524000  0.26101000  1.0
  N  N80  1  0.89524000  0.89524000  0.23899000  1.0
  N  N81  1  0.60476000  0.60476000  0.73899000  1.0
  O  O82  1  0.09957000  0.09957000  0.85148000  1.0
  O  O83  1  0.40043000  0.40043000  0.35147000  1.0
  O  O84  1  0.90044000  0.90043000  0.14853000  1.0
  O  O85  1  0.59956000  0.59957000  0.64852000  1.0
  O  O86  1  0.18371000  0.18371000  0.72244000  1.0
  O  O87  1  0.31629000  0.31629000  0.22244000  1.0
  O  O88  1  0.81629000  0.81629000  0.27756000  1.0
  O  O89  1  0.68371000  0.68371000  0.77756000  1.0
  O  O90  1  0.03384000  0.03385000  0.71019000  1.0
  O  O91  1  0.46615000  0.46615000  0.21019000  1.0
  O  O92  1  0.96615000  0.96615000  0.28981000  1.0
  O  O93  1  0.53385000  0.53385000  0.78981000  1.0
