# generated using pymatgen
data_Fe2H16C24N4O9
_symmetry_space_group_name_H-M   'P 1'
_cell_length_a   10.32810000
_cell_length_b   11.56000000
_cell_length_c   13.90400000
_cell_angle_alpha   105.04400000
_cell_angle_beta   100.58700000
_cell_angle_gamma   114.84800000
_symmetry_Int_Tables_number   1
_chemical_formula_structural   Fe2H16C24N4O9
_chemical_formula_sum   'Fe4 H32 C48 N8 O18'
_cell_volume   1371.12997843
_cell_formula_units_Z   2
loop_
 _symmetry_equiv_pos_site_id
 _symmetry_equiv_pos_as_xyz
  1  'x, y, z'
loop_
 _atom_site_type_symbol
 _atom_site_label
 _atom_site_symmetry_multiplicity
 _atom_site_fract_x
 _atom_site_fract_y
 _atom_site_fract_z
 _atom_site_occupancy
  Fe  Fe0  1  0.80762000  0.00175000  0.79064000  1.0
  Fe  Fe1  1  0.19239000  0.99825000  0.20935000  1.0
  Fe  Fe2  1  0.45821000  0.74325000  0.68809000  1.0
  Fe  Fe3  1  0.54179000  0.25675000  0.31191000  1.0
  H  H4  1  0.03262000  0.11206000  0.99497000  1.0
  H  H5  1  0.96738000  0.88793000  0.00503000  1.0
  H  H6  1  0.47362000  0.20970000  0.96976000  1.0
  H  H7  1  0.52638000  0.79030000  0.03023000  1.0
  H  H8  1  0.07231000  0.02738000  0.69841000  1.0
  H  H9  1  0.92769000  0.97262000  0.30158000  1.0
  H  H10  1  0.35122000  0.11331000  0.77416000  1.0
  H  H11  1  0.64878000  0.88668000  0.22584000  1.0
  H  H12  1  0.43654000  0.84826000  0.90547000  1.0
  H  H13  1  0.56345000  0.15172000  0.09454000  1.0
  H  H14  1  0.98442000  0.78047000  0.87296000  1.0
  H  H15  1  0.01557000  0.21953000  0.12704000  1.0
  H  H16  1  0.69929000  0.01846000  0.58111000  1.0
  H  H17  1  0.30072000  0.98154000  0.41890000  1.0
  H  H18  1  0.97908000  0.50429000  0.82231000  1.0
  H  H19  1  0.02090000  0.49571000  0.17769000  1.0
  H  H20  1  0.96637000  0.31331000  0.88193000  1.0
  H  H21  1  0.03362000  0.68671000  0.11807000  1.0
  H  H22  1  0.83834000  0.44197000  0.63151000  1.0
  H  H23  1  0.16165000  0.55802000  0.36848000  1.0
  H  H24  1  0.37937000  0.50747000  0.49582000  1.0
  H  H25  1  0.62063000  0.49254000  0.50420000  1.0
  H  H26  1  0.12679000  0.68065000  0.60503000  1.0
  H  H27  1  0.87322000  0.31935000  0.39497000  1.0
  H  H28  1  0.92657000  0.69535000  0.67799000  1.0
  H  H29  1  0.07344000  0.30465000  0.32201000  1.0
  H  H30  1  0.25921000  0.51934000  0.76472000  1.0
  H  H31  1  0.74077000  0.48066000  0.23528000  1.0
  H  H32  1  0.13464000  0.12477000  0.53365000  1.0
  H  H33  1  0.86537000  0.87524000  0.46636000  1.0
  H  H34  1  0.12655000  0.26281000  0.70436000  1.0
  H  H35  1  0.87344000  0.73719000  0.29565000  1.0
  C  C36  1  0.10792000  0.11824000  0.94922000  1.0
  C  C37  1  0.89208000  0.88175000  0.05077000  1.0
  C  C38  1  0.26166000  0.16974000  0.99905000  1.0
  C  C39  1  0.73835000  0.83026000  0.00095000  1.0
  C  C40  1  0.35331000  0.17348000  0.93603000  1.0
  C  C41  1  0.64669000  0.82651000  0.06396000  1.0
  C  C42  1  0.13106000  0.07197000  0.78335000  1.0
  C  C43  1  0.86895000  0.92803000  0.21665000  1.0
  C  C44  1  0.28548000  0.12038000  0.82629000  1.0
  C  C45  1  0.71453000  0.87963000  0.17371000  1.0
  C  C46  1  0.31335000  0.20622000  0.11665000  1.0
  C  C47  1  0.68665000  0.79378000  0.88335000  1.0
  C  C48  1  0.32175000  0.81297000  0.85754000  1.0
  C  C49  1  0.67824000  0.18702000  0.14246000  1.0
  C  C50  1  0.21517000  0.81711000  0.90536000  1.0
  C  C51  1  0.78483000  0.18289000  0.09464000  1.0
  C  C52  1  0.07083000  0.77574000  0.84015000  1.0
  C  C53  1  0.92918000  0.22426000  0.15985000  1.0
  C  C54  1  0.76020000  0.12693000  0.63222000  1.0
  C  C55  1  0.23981000  0.87307000  0.36778000  1.0
  C  C56  1  0.91539000  0.39770000  0.76657000  1.0
  C  C57  1  0.08460000  0.60230000  0.23343000  1.0
  C  C58  1  0.90990000  0.29302000  0.80025000  1.0
  C  C59  1  0.09009000  0.70699000  0.19975000  1.0
  C  C60  1  0.76028000  0.22569000  0.59193000  1.0
  C  C61  1  0.23972000  0.77430000  0.40806000  1.0
  C  C62  1  0.83822000  0.36347000  0.66110000  1.0
  C  C63  1  0.16177000  0.63652000  0.33889000  1.0
  C  C64  1  0.32247000  0.44952000  0.53976000  1.0
  C  C65  1  0.67754000  0.55049000  0.46025000  1.0
  C  C66  1  0.26088000  0.86062000  0.02425000  1.0
  C  C67  1  0.73911000  0.13938000  0.97575000  1.0
  C  C68  1  0.28269000  0.23638000  0.40545000  1.0
  C  C69  1  0.71732000  0.76362000  0.59456000  1.0
  C  C70  1  0.14860000  0.72135000  0.68978000  1.0
  C  C71  1  0.85140000  0.27865000  0.31022000  1.0
  C  C72  1  0.03793000  0.72816000  0.73087000  1.0
  C  C73  1  0.96207000  0.27184000  0.26913000  1.0
  C  C74  1  0.67998000  0.17981000  0.47529000  1.0
  C  C75  1  0.32003000  0.82018000  0.52471000  1.0
  C  C76  1  0.25905000  0.30656000  0.50262000  1.0
  C  C77  1  0.74096000  0.69345000  0.49739000  1.0
  C  C78  1  0.25340000  0.45553000  0.68923000  1.0
  C  C79  1  0.74659000  0.54447000  0.31078000  1.0
  C  C80  1  0.18479000  0.23643000  0.56108000  1.0
  C  C81  1  0.81521000  0.76357000  0.43892000  1.0
  C  C82  1  0.18145000  0.31263000  0.65554000  1.0
  C  C83  1  0.81855000  0.68738000  0.34447000  1.0
  N  N84  1  0.04346000  0.07359000  0.84440000  1.0
  N  N85  1  0.95655000  0.92641000  0.15559000  1.0
  N  N86  1  0.28909000  0.76415000  0.75245000  1.0
  N  N87  1  0.71091000  0.23584000  0.24755000  1.0
  N  N88  1  0.83290000  0.15982000  0.73401000  1.0
  N  N89  1  0.16711000  0.84019000  0.26600000  1.0
  N  N90  1  0.32169000  0.52295000  0.63172000  1.0
  N  N91  1  0.67831000  0.47705000  0.36829000  1.0
  O  O92  1  0.45484000  0.27555000  0.16837000  1.0
  O  O93  1  0.54515000  0.72445000  0.83163000  1.0
  O  O94  1  0.20849000  0.16010000  0.15559000  1.0
  O  O95  1  0.79150000  0.83989000  0.84441000  1.0
  O  O96  1  0.60635000  0.91733000  0.74153000  1.0
  O  O97  1  0.39365000  0.08267000  0.25846000  1.0
  O  O98  1  0.39574000  0.31121000  0.38469000  1.0
  O  O99  1  0.60428000  0.68880000  0.61532000  1.0
  O  O100  1  0.16616000  0.88558000  0.06431000  1.0
  O  O101  1  0.83383000  0.11441000  0.93569000  1.0
  O  O102  1  0.18817000  0.10851000  0.35370000  1.0
  O  O103  1  0.81183000  0.89150000  0.64630000  1.0
  O  O104  1  0.65132000  0.27117000  0.45204000  1.0
  O  O105  1  0.34869000  0.72882000  0.54795000  1.0
  O  O106  1  0.65354000  0.06763000  0.41336000  1.0
  O  O107  1  0.34646000  0.93235000  0.58664000  1.0
  O  O108  1  0.37766000  0.86634000  0.07324000  1.0
  O  O109  1  0.62235000  0.13367000  0.92676000  1.0
