# generated using pymatgen
data_Cu2H16C19(N2O)4
_symmetry_space_group_name_H-M   'P 1'
_cell_length_a   9.75411000
_cell_length_b   10.96390000
_cell_length_c   12.19530000
_cell_angle_alpha   66.73390000
_cell_angle_beta   78.54470000
_cell_angle_gamma   64.34100000
_symmetry_Int_Tables_number   1
_chemical_formula_structural   Cu2H16C19(N2O)4
_chemical_formula_sum   'Cu4 H32 C38 N16 O8'
_cell_volume   1079.39458525
_cell_formula_units_Z   2
loop_
 _symmetry_equiv_pos_site_id
 _symmetry_equiv_pos_as_xyz
  1  'x, y, z'
loop_
 _atom_site_type_symbol
 _atom_site_label
 _atom_site_symmetry_multiplicity
 _atom_site_fract_x
 _atom_site_fract_y
 _atom_site_fract_z
 _atom_site_occupancy
  Cu  Cu0  1  0.36085000  0.14233000  0.50349000  1.0
  Cu  Cu1  1  0.63915000  0.85767000  0.49651000  1.0
  Cu  Cu2  1  0.31742000  0.39109000  0.61007000  1.0
  Cu  Cu3  1  0.68258000  0.60891000  0.38993000  1.0
  H  H4  1  0.04669000  0.88888000  0.27347000  1.0
  H  H5  1  0.95331000  0.11112000  0.72653000  1.0
  H  H6  1  0.14925000  0.72162000  0.38166000  1.0
  H  H7  1  0.85075000  0.27838000  0.61835000  1.0
  H  H8  1  0.00897000  0.91252000  0.08133000  1.0
  H  H9  1  0.99103000  0.08748000  0.91867000  1.0
  H  H10  1  0.09012000  0.82012000  0.91204000  1.0
  H  H11  1  0.90988000  0.17988000  0.08796000  1.0
  H  H12  1  0.25639000  0.56044000  0.95017000  1.0
  H  H13  1  0.74361000  0.43956000  0.04983000  1.0
  H  H14  1  0.33728000  0.39653000  0.15685000  1.0
  H  H15  1  0.66272000  0.60348000  0.84315000  1.0
  H  H16  1  0.36410000  0.66098000  0.53814000  1.0
  H  H17  1  0.63590000  0.33902000  0.46186000  1.0
  H  H18  1  0.21997000  0.90570000  0.55411000  1.0
  H  H19  1  0.78003000  0.09430000  0.44587000  1.0
  H  H20  1  0.95986000  0.96096000  0.65439000  1.0
  H  H21  1  0.04014000  0.03905000  0.34560000  1.0
  H  H22  1  0.85581000  0.76873000  0.73542000  1.0
  H  H23  1  0.14419000  0.23127000  0.26458000  1.0
  H  H24  1  0.01365000  0.52894000  0.71080000  1.0
  H  H25  1  0.98635000  0.47106000  0.28920000  1.0
  H  H26  1  0.24159000  0.11185000  0.04925000  1.0
  H  H27  1  0.75841000  0.88815000  0.95075000  1.0
  H  H28  1  0.18842000  0.22676000  0.82941000  1.0
  H  H29  1  0.81158000  0.77324000  0.17059000  1.0
  H  H30  1  0.52383000  0.38704000  0.75614000  1.0
  H  H31  1  0.47617000  0.61296000  0.24386000  1.0
  H  H32  1  0.58657000  0.28421000  0.97235000  1.0
  H  H33  1  0.41343000  0.71579000  0.02765000  1.0
  H  H34  1  0.44346000  0.14145000  0.12124000  1.0
  H  H35  1  0.55654000  0.85855000  0.87876000  1.0
  C  C36  1  0.91934000  0.75783000  0.36848000  1.0
  C  C37  1  0.08067000  0.24216000  0.63151000  1.0
  C  C38  1  0.06819000  0.77365000  0.31017000  1.0
  C  C39  1  0.93181000  0.22635000  0.68983000  1.0
  C  C40  1  0.12953000  0.70934000  0.21360000  1.0
  C  C41  1  0.87047000  0.29066000  0.78640000  1.0
  C  C42  1  0.08271000  0.79919000  0.09675000  1.0
  C  C43  1  0.91729000  0.20081000  0.90325000  1.0
  C  C44  1  0.12605000  0.74752000  0.00233000  1.0
  C  C45  1  0.87395000  0.25248000  0.99767000  1.0
  C  C46  1  0.21890000  0.60187000  0.02351000  1.0
  C  C47  1  0.78110000  0.39813000  0.97649000  1.0
  C  C48  1  0.26510000  0.51033000  0.13896000  1.0
  C  C49  1  0.73490000  0.48966000  0.86104000  1.0
  C  C50  1  0.22172000  0.56197000  0.23465000  1.0
  C  C51  1  0.77828000  0.43803000  0.76535000  1.0
  C  C52  1  0.27234000  0.45323000  0.35713000  1.0
  C  C53  1  0.72766000  0.54677000  0.64288000  1.0
  C  C54  1  0.25123000  0.68897000  0.58146000  1.0
  C  C55  1  0.74877000  0.31103000  0.41853000  1.0
  C  C56  1  0.17091000  0.82480000  0.59077000  1.0
  C  C57  1  0.82909000  0.17520000  0.40922000  1.0
  C  C58  1  0.02709000  0.85497000  0.64720000  1.0
  C  C59  1  0.97291000  0.14504000  0.35279000  1.0
  C  C60  1  0.96866000  0.74831000  0.69276000  1.0
  C  C61  1  0.03134000  0.25169000  0.30724000  1.0
  C  C62  1  0.05506000  0.61500000  0.67969000  1.0
  C  C63  1  0.94494000  0.38500000  0.32031000  1.0
  C  C64  1  0.30551000  0.17283000  0.98686000  1.0
  C  C65  1  0.69449000  0.82717000  0.01315000  1.0
  C  C66  1  0.27639000  0.23463000  0.86566000  1.0
  C  C67  1  0.72361000  0.76537000  0.13434000  1.0
  C  C68  1  0.46363000  0.32608000  0.82434000  1.0
  C  C69  1  0.53637000  0.67392000  0.17566000  1.0
  C  C70  1  0.49834000  0.26811000  0.94435000  1.0
  C  C71  1  0.50166000  0.73189000  0.05565000  1.0
  C  C72  1  0.41836000  0.18966000  0.02679000  1.0
  C  C73  1  0.58164000  0.81034000  0.97321000  1.0
  N  N74  1  0.35460000  0.30937000  0.78621000  1.0
  N  N75  1  0.64540000  0.69063000  0.21380000  1.0
  N  N76  1  0.19337000  0.58670000  0.62450000  1.0
  N  N77  1  0.80662000  0.41330000  0.37550000  1.0
  N  N78  1  0.67570000  0.04204000  0.72790000  1.0
  N  N79  1  0.32430000  0.95795000  0.27210000  1.0
  N  N80  1  0.57944000  0.12799000  0.66131000  1.0
  N  N81  1  0.42056000  0.87201000  0.33869000  1.0
  N  N82  1  0.48297000  0.21482000  0.58894000  1.0
  N  N83  1  0.51703000  0.78518000  0.41107000  1.0
  N  N84  1  0.53486000  0.06704000  0.39428000  1.0
  N  N85  1  0.46514000  0.93296000  0.60572000  1.0
  N  N86  1  0.58112000  0.13416000  0.30072000  1.0
  N  N87  1  0.41888000  0.86584000  0.69928000  1.0
  N  N88  1  0.62469000  0.19897000  0.21070000  1.0
  N  N89  1  0.37531000  0.80103000  0.78930000  1.0
  O  O90  1  0.83283000  0.85554000  0.41314000  1.0
  O  O91  1  0.16717000  0.14446000  0.58686000  1.0
  O  O92  1  0.89239000  0.65580000  0.36850000  1.0
  O  O93  1  0.10762000  0.34420000  0.63150000  1.0
  O  O94  1  0.30838000  0.49148000  0.42969000  1.0
  O  O95  1  0.69162000  0.50852000  0.57031000  1.0
  O  O96  1  0.27533000  0.32926000  0.37552000  1.0
  O  O97  1  0.72467000  0.67074000  0.62448000  1.0
