# generated using pymatgen
data_Zn2H10C15S2(N3O4)2
_symmetry_space_group_name_H-M   'P 1'
_cell_length_a   17.26430000
_cell_length_b   20.27130000
_cell_length_c   20.37390000
_cell_angle_alpha   90.00010000
_cell_angle_beta   89.99990000
_cell_angle_gamma   90.00000000
_symmetry_Int_Tables_number   1
_chemical_formula_structural   Zn2H10C15S2(N3O4)2
_chemical_formula_sum   'Zn16 H80 C120 S16 N48 O64'
_cell_volume   7130.24980171
_cell_formula_units_Z   8
loop_
 _symmetry_equiv_pos_site_id
 _symmetry_equiv_pos_as_xyz
  1  'x, y, z'
loop_
 _atom_site_type_symbol
 _atom_site_label
 _atom_site_symmetry_multiplicity
 _atom_site_fract_x
 _atom_site_fract_y
 _atom_site_fract_z
 _atom_site_occupancy
  Zn  Zn0  1  0.33001000  0.23014000  0.52205000  1.0
  Zn  Zn1  1  0.83001000  0.26986000  0.47795000  1.0
  Zn  Zn2  1  0.66999000  0.76986000  0.02205000  1.0
  Zn  Zn3  1  0.16999000  0.73014000  0.97795000  1.0
  Zn  Zn4  1  0.66999000  0.76986000  0.47795000  1.0
  Zn  Zn5  1  0.16999000  0.73014000  0.52205000  1.0
  Zn  Zn6  1  0.33001000  0.23014000  0.97795000  1.0
  Zn  Zn7  1  0.83001000  0.26986000  0.02205000  1.0
  Zn  Zn8  1  0.17519000  0.27530000  0.47745000  1.0
  Zn  Zn9  1  0.67519000  0.22470000  0.52255000  1.0
  Zn  Zn10  1  0.82481000  0.72470000  0.97744000  1.0
  Zn  Zn11  1  0.32481000  0.77530000  0.02255000  1.0
  Zn  Zn12  1  0.82481000  0.72470000  0.52255000  1.0
  Zn  Zn13  1  0.32481000  0.77530000  0.47745000  1.0
  Zn  Zn14  1  0.17519000  0.27530000  0.02255000  1.0
  Zn  Zn15  1  0.67519000  0.22470000  0.97745000  1.0
  H  H16  1  0.44828000  0.23197000  0.31544000  1.0
  H  H17  1  0.94828000  0.26803000  0.68456000  1.0
  H  H18  1  0.55172000  0.76803000  0.81543000  1.0
  H  H19  1  0.05172000  0.73197000  0.18457000  1.0
  H  H20  1  0.55172000  0.76803000  0.68456000  1.0
  H  H21  1  0.05172000  0.73197000  0.31544000  1.0
  H  H22  1  0.44828000  0.23197000  0.18456000  1.0
  H  H23  1  0.94828000  0.26803000  0.81544000  1.0
  H  H24  1  0.07612000  0.33141000  0.68425000  1.0
  H  H25  1  0.57612000  0.16859000  0.31575000  1.0
  H  H26  1  0.92388000  0.66859000  0.18425000  1.0
  H  H27  1  0.42387000  0.83141000  0.81575000  1.0
  H  H28  1  0.92388000  0.66859000  0.31575000  1.0
  H  H29  1  0.42387000  0.83141000  0.68425000  1.0
  H  H30  1  0.07612000  0.33141000  0.81575000  1.0
  H  H31  1  0.57612000  0.16859000  0.18425000  1.0
  H  H32  1  0.05574000  0.07160000  0.53712000  1.0
  H  H33  1  0.55574000  0.42840000  0.46288000  1.0
  H  H34  1  0.94426000  0.92840000  0.03712000  1.0
  H  H35  1  0.44426000  0.57160000  0.96288000  1.0
  H  H36  1  0.94426000  0.92840000  0.46288000  1.0
  H  H37  1  0.44425000  0.57160000  0.53712000  1.0
  H  H38  1  0.05575000  0.07160000  0.96288000  1.0
  H  H39  1  0.55574000  0.42840000  0.03712000  1.0
  H  H40  1  0.05448000  0.94000000  0.54181000  1.0
  H  H41  1  0.55448000  0.56000000  0.45819000  1.0
  H  H42  1  0.94552000  0.06000000  0.04181000  1.0
  H  H43  1  0.44552000  0.44000000  0.95819000  1.0
  H  H44  1  0.94552000  0.06000000  0.45819000  1.0
  H  H45  1  0.44552000  0.44000000  0.54181000  1.0
  H  H46  1  0.05448000  0.94000000  0.95819000  1.0
  H  H47  1  0.55448000  0.56000000  0.04181000  1.0
  H  H48  1  0.95253000  0.23460000  0.54102000  1.0
  H  H49  1  0.45253000  0.26540000  0.45898000  1.0
  H  H50  1  0.04747000  0.76540000  0.04102000  1.0
  H  H51  1  0.54747000  0.73460000  0.95898000  1.0
  H  H52  1  0.04747000  0.76540000  0.45898000  1.0
  H  H53  1  0.54747000  0.73460000  0.54102000  1.0
  H  H54  1  0.95253000  0.23460000  0.95898000  1.0
  H  H55  1  0.45253000  0.26540000  0.04102000  1.0
  H  H56  1  0.05338000  0.22517000  0.53192000  1.0
  H  H57  1  0.55337000  0.27483000  0.46808000  1.0
  H  H58  1  0.94662000  0.77483000  0.03192000  1.0
  H  H59  1  0.44663000  0.72517000  0.96808000  1.0
  H  H60  1  0.94663000  0.77483000  0.46808000  1.0
  H  H61  1  0.44663000  0.72517000  0.53192000  1.0
  H  H62  1  0.05338000  0.22517000  0.96808000  1.0
  H  H63  1  0.55337000  0.27483000  0.03192000  1.0
  H  H64  1  0.87439000  0.39770000  0.32161000  1.0
  H  H65  1  0.37438000  0.10230000  0.67839000  1.0
  H  H66  1  0.12562000  0.60230000  0.82161000  1.0
  H  H67  1  0.62562000  0.89770000  0.17839000  1.0
  H  H68  1  0.12561000  0.60231000  0.67839000  1.0
  H  H69  1  0.62561000  0.89770000  0.32161000  1.0
  H  H70  1  0.87439000  0.39770000  0.17839000  1.0
  H  H71  1  0.37438000  0.10230000  0.82161000  1.0
  H  H72  1  0.81983000  0.33982000  0.36676000  1.0
  H  H73  1  0.31983000  0.16018000  0.63324000  1.0
  H  H74  1  0.18017000  0.66018000  0.86676000  1.0
  H  H75  1  0.68017000  0.83982000  0.13324000  1.0
  H  H76  1  0.18017000  0.66018000  0.63324000  1.0
  H  H77  1  0.68017000  0.83982000  0.36676000  1.0
  H  H78  1  0.81983000  0.33982000  0.13324000  1.0
  H  H79  1  0.31983000  0.16018000  0.86676000  1.0
  H  H80  1  0.12625000  0.42237000  0.34107000  1.0
  H  H81  1  0.62625000  0.07763000  0.65893000  1.0
  H  H82  1  0.87375000  0.57763000  0.84107000  1.0
  H  H83  1  0.37375000  0.92236000  0.15893000  1.0
  H  H84  1  0.87375000  0.57764000  0.65893000  1.0
  H  H85  1  0.37375000  0.92237000  0.34107000  1.0
  H  H86  1  0.12625000  0.42236000  0.15893000  1.0
  H  H87  1  0.62625000  0.07764000  0.84107000  1.0
  H  H88  1  0.18243000  0.38195000  0.40096000  1.0
  H  H89  1  0.68243000  0.11805000  0.59904000  1.0
  H  H90  1  0.81757000  0.61805000  0.90096000  1.0
  H  H91  1  0.31757000  0.88195000  0.09904000  1.0
  H  H92  1  0.81756000  0.61805000  0.59904000  1.0
  H  H93  1  0.31757000  0.88195000  0.40096000  1.0
  H  H94  1  0.18244000  0.38195000  0.09904000  1.0
  H  H95  1  0.68243000  0.11805000  0.90096000  1.0
  C  C96  1  0.06661000  0.35758000  0.39533000  1.0
  C  C97  1  0.56661000  0.14241000  0.60467000  1.0
  C  C98  1  0.93340000  0.64241000  0.89533000  1.0
  C  C99  1  0.43340000  0.85759000  0.10468000  1.0
  C  C100  1  0.93339000  0.64242000  0.60468000  1.0
  C  C101  1  0.43339000  0.85759000  0.39533000  1.0
  C  C102  1  0.06661000  0.35759000  0.10467000  1.0
  C  C103  1  0.56660000  0.14241000  0.89533000  1.0
  C  C104  1  0.93552000  0.35003000  0.39011000  1.0
  C  C105  1  0.43552000  0.14997000  0.60989000  1.0
  C  C106  1  0.06448000  0.64997000  0.89011000  1.0
  C  C107  1  0.56448000  0.85003000  0.10989000  1.0
  C  C108  1  0.06448000  0.64997000  0.60989000  1.0
  C  C109  1  0.56448000  0.85003000  0.39011000  1.0
  C  C110  1  0.93552000  0.35003000  0.10989000  1.0
  C  C111  1  0.43552000  0.14997000  0.89011000  1.0
  C  C112  1  0.00212000  0.28801000  0.46681000  1.0
  C  C113  1  0.50212000  0.21199000  0.53319000  1.0
  C  C114  1  0.99788000  0.71199000  0.96681000  1.0
  C  C115  1  0.49788000  0.78801000  0.03319000  1.0
  C  C116  1  0.99788000  0.71199000  0.53319000  1.0
  C  C117  1  0.49788000  0.78801000  0.46681000  1.0
  C  C118  1  0.00212000  0.28801000  0.03319000  1.0
  C  C119  1  0.50212000  0.21199000  0.96681000  1.0
  C  C120  1  0.29935000  0.24357000  0.38001000  1.0
  C  C121  1  0.79935000  0.25643000  0.61999000  1.0
  C  C122  1  0.70065000  0.75643000  0.88001000  1.0
  C  C123  1  0.20065000  0.74357000  0.11999000  1.0
  C  C124  1  0.70065000  0.75643000  0.61999000  1.0
  C  C125  1  0.20065000  0.74357000  0.38001000  1.0
  C  C126  1  0.29935000  0.24357000  0.11999000  1.0
  C  C127  1  0.79935000  0.25643000  0.88001000  1.0
  C  C128  1  0.32285000  0.24102000  0.31041000  1.0
  C  C129  1  0.82285000  0.25899000  0.68959000  1.0
  C  C130  1  0.67715000  0.75898000  0.81041000  1.0
  C  C131  1  0.17715000  0.74101000  0.18959000  1.0
  C  C132  1  0.67715000  0.75898000  0.68959000  1.0
  C  C133  1  0.17715000  0.74101000  0.31041000  1.0
  C  C134  1  0.32285000  0.24102000  0.18959000  1.0
  C  C135  1  0.82285000  0.25899000  0.81041000  1.0
  C  C136  1  0.39703000  0.23568000  0.28457000  1.0
  C  C137  1  0.89703000  0.26432000  0.71543000  1.0
  C  C138  1  0.60297000  0.76432000  0.78457000  1.0
  C  C139  1  0.10297000  0.73568000  0.21543000  1.0
  C  C140  1  0.60297000  0.76432000  0.71543000  1.0
  C  C141  1  0.10297000  0.73568000  0.28457000  1.0
  C  C142  1  0.39703000  0.23568000  0.21543000  1.0
  C  C143  1  0.89703000  0.26432000  0.78457000  1.0
  C  C144  1  0.20425000  0.26740000  0.61990000  1.0
  C  C145  1  0.70425000  0.23260000  0.38010000  1.0
  C  C146  1  0.79575000  0.73260000  0.11990000  1.0
  C  C147  1  0.29575000  0.76740000  0.88010000  1.0
  C  C148  1  0.79575000  0.73260000  0.38010000  1.0
  C  C149  1  0.29576000  0.76740000  0.61990000  1.0
  C  C150  1  0.20425000  0.26740000  0.88010000  1.0
  C  C151  1  0.70424000  0.23260000  0.11990000  1.0
  C  C152  1  0.18332000  0.27581000  0.68957000  1.0
  C  C153  1  0.68333000  0.22419000  0.31044000  1.0
  C  C154  1  0.81667000  0.72419000  0.18956000  1.0
  C  C155  1  0.31667000  0.77581000  0.81044000  1.0
  C  C156  1  0.81667000  0.72419000  0.31043000  1.0
  C  C157  1  0.31667000  0.77581000  0.68957000  1.0
  C  C158  1  0.18332000  0.27581000  0.81044000  1.0
  C  C159  1  0.68332000  0.22419000  0.18956000  1.0
  C  C160  1  0.11956000  0.30835000  0.71541000  1.0
  C  C161  1  0.61956000  0.19165000  0.28459000  1.0
  C  C162  1  0.88044000  0.69165000  0.21541000  1.0
  C  C163  1  0.38044000  0.80835000  0.78459000  1.0
  C  C164  1  0.88044000  0.69165000  0.28459000  1.0
  C  C165  1  0.38044000  0.80835000  0.71541000  1.0
  C  C166  1  0.11956000  0.30835000  0.78459000  1.0
  C  C167  1  0.61956000  0.19165000  0.21541000  1.0
  C  C168  1  0.20160000  0.13397000  0.50206000  1.0
  C  C169  1  0.70160000  0.36603000  0.49794000  1.0
  C  C170  1  0.79840000  0.86603000  0.00206000  1.0
  C  C171  1  0.29840000  0.63397000  0.99794000  1.0
  C  C172  1  0.79840000  0.86603000  0.49794000  1.0
  C  C173  1  0.29840000  0.63397000  0.50206000  1.0
  C  C174  1  0.20160000  0.13397000  0.99794000  1.0
  C  C175  1  0.70160000  0.36603000  0.00206000  1.0
  C  C176  1  0.17621000  0.06461000  0.50676000  1.0
  C  C177  1  0.67621000  0.43539000  0.49323000  1.0
  C  C178  1  0.82380000  0.93539000  0.00676000  1.0
  C  C179  1  0.32380000  0.56461000  0.99324000  1.0
  C  C180  1  0.82380000  0.93539000  0.49323000  1.0
  C  C181  1  0.32379000  0.56461000  0.50677000  1.0
  C  C182  1  0.17621000  0.06461000  0.99323000  1.0
  C  C183  1  0.67621000  0.43539000  0.00676000  1.0
  C  C184  1  0.10453000  0.03981000  0.52519000  1.0
  C  C185  1  0.60453000  0.46019000  0.47481000  1.0
  C  C186  1  0.89547000  0.96019000  0.02519000  1.0
  C  C187  1  0.39547000  0.53981000  0.97481000  1.0
  C  C188  1  0.89547000  0.96019000  0.47481000  1.0
  C  C189  1  0.39547000  0.53981000  0.52519000  1.0
  C  C190  1  0.10453000  0.03981000  0.97481000  1.0
  C  C191  1  0.60453000  0.46019000  0.02519000  1.0
  C  C192  1  0.10371000  0.97027000  0.52752000  1.0
  C  C193  1  0.60372000  0.52973000  0.47247000  1.0
  C  C194  1  0.89629000  0.02973000  0.02752000  1.0
  C  C195  1  0.39629000  0.47027000  0.97247000  1.0
  C  C196  1  0.89629000  0.02973000  0.47247000  1.0
  C  C197  1  0.39629000  0.47027000  0.52753000  1.0
  C  C198  1  0.10372000  0.97027000  0.97247000  1.0
  C  C199  1  0.60371000  0.52973000  0.02753000  1.0
  C  C200  1  0.17429000  0.94321000  0.50925000  1.0
  C  C201  1  0.67429000  0.55680000  0.49075000  1.0
  C  C202  1  0.82571000  0.05679000  0.00925000  1.0
  C  C203  1  0.32571000  0.44321000  0.99075000  1.0
  C  C204  1  0.82571000  0.05679000  0.49075000  1.0
  C  C205  1  0.32571000  0.44321000  0.50925000  1.0
  C  C206  1  0.17429000  0.94321000  0.99075000  1.0
  C  C207  1  0.67429000  0.55679000  0.00925000  1.0
  C  C208  1  0.19596000  0.87300000  0.50461000  1.0
  C  C209  1  0.69595000  0.62700000  0.49539000  1.0
  C  C210  1  0.80405000  0.12700000  0.00461000  1.0
  C  C211  1  0.30405000  0.37300000  0.99539000  1.0
  C  C212  1  0.80404000  0.12700000  0.49539000  1.0
  C  C213  1  0.30405000  0.37300000  0.50461000  1.0
  C  C214  1  0.19595000  0.87300000  0.99539000  1.0
  C  C215  1  0.69595000  0.62700000  0.00461000  1.0
  S  S216  1  0.24183000  0.00285000  0.49130000  1.0
  S  S217  1  0.74183000  0.49715000  0.50870000  1.0
  S  S218  1  0.75817000  0.99715000  0.99130000  1.0
  S  S219  1  0.25817000  0.50285000  0.00870000  1.0
  S  S220  1  0.75817000  0.99715000  0.50870000  1.0
  S  S221  1  0.25817000  0.50285000  0.49130000  1.0
  S  S222  1  0.24183000  0.00285000  0.00870000  1.0
  S  S223  1  0.74183000  0.49715000  0.99130000  1.0
  S  S224  1  0.24296000  0.24561000  0.75000000  1.0
  S  S225  1  0.74296000  0.25439000  0.25000000  1.0
  S  S226  1  0.75703000  0.75439000  0.25000000  1.0
  S  S227  1  0.25703000  0.74561000  0.75000000  1.0
  S  S228  1  0.25354000  0.24584000  0.25000000  1.0
  S  S229  1  0.75354000  0.25416000  0.75000000  1.0
  S  S230  1  0.74646000  0.75416000  0.75000000  1.0
  S  S231  1  0.24646000  0.74584000  0.25000000  1.0
  N  N232  1  0.07102000  0.31052000  0.44329000  1.0
  N  N233  1  0.57102000  0.18948000  0.55671000  1.0
  N  N234  1  0.92898000  0.68948000  0.94329000  1.0
  N  N235  1  0.42898000  0.81052000  0.05671000  1.0
  N  N236  1  0.92898000  0.68948000  0.55671000  1.0
  N  N237  1  0.42898000  0.81052000  0.44329000  1.0
  N  N238  1  0.07102000  0.31052000  0.05671000  1.0
  N  N239  1  0.57102000  0.18948000  0.94329000  1.0
  N  N240  1  0.00057000  0.37754000  0.36728000  1.0
  N  N241  1  0.50057000  0.12246000  0.63272000  1.0
  N  N242  1  0.99943000  0.62246000  0.86728000  1.0
  N  N243  1  0.49943000  0.87754000  0.13272000  1.0
  N  N244  1  0.99943000  0.62246000  0.63272000  1.0
  N  N245  1  0.49943000  0.87754000  0.36728000  1.0
  N  N246  1  0.00057000  0.37754000  0.13272000  1.0
  N  N247  1  0.50057000  0.12246000  0.86728000  1.0
  N  N248  1  0.93253000  0.30676000  0.44154000  1.0
  N  N249  1  0.43253000  0.19324000  0.55846000  1.0
  N  N250  1  0.06747000  0.69324000  0.94154000  1.0
  N  N251  1  0.56747000  0.80676000  0.05846000  1.0
  N  N252  1  0.06747000  0.69324000  0.55847000  1.0
  N  N253  1  0.56747000  0.80676000  0.44154000  1.0
  N  N254  1  0.93253000  0.30676000  0.05846000  1.0
  N  N255  1  0.43253000  0.19324000  0.94154000  1.0
  N  N256  1  0.00264000  0.24577000  0.51696000  1.0
  N  N257  1  0.50264000  0.25423000  0.48304000  1.0
  N  N258  1  0.99736000  0.75423000  0.01696000  1.0
  N  N259  1  0.49736000  0.74577000  0.98304000  1.0
  N  N260  1  0.99736000  0.75423000  0.48305000  1.0
  N  N261  1  0.49736000  0.74577000  0.51696000  1.0
  N  N262  1  0.00264000  0.24577000  0.98305000  1.0
  N  N263  1  0.50264000  0.25423000  0.01696000  1.0
  N  N264  1  0.86899000  0.36742000  0.36075000  1.0
  N  N265  1  0.36899000  0.13258000  0.63925000  1.0
  N  N266  1  0.13101000  0.63258000  0.86075000  1.0
  N  N267  1  0.63101000  0.86742000  0.13925000  1.0
  N  N268  1  0.13101000  0.63258000  0.63925000  1.0
  N  N269  1  0.63101000  0.86742000  0.36075000  1.0
  N  N270  1  0.86899000  0.36742000  0.13925000  1.0
  N  N271  1  0.36899000  0.13258000  0.86075000  1.0
  N  N272  1  0.13248000  0.38547000  0.37409000  1.0
  N  N273  1  0.63248000  0.11453000  0.62591000  1.0
  N  N274  1  0.86752000  0.61452000  0.87409000  1.0
  N  N275  1  0.36752000  0.88547000  0.12591000  1.0
  N  N276  1  0.86752000  0.61453000  0.62591000  1.0
  N  N277  1  0.36752000  0.88547000  0.37409000  1.0
  N  N278  1  0.13248000  0.38547000  0.12591000  1.0
  N  N279  1  0.63248000  0.11453000  0.87409000  1.0
  O  O280  1  0.22690000  0.24532000  0.39166000  1.0
  O  O281  1  0.72690000  0.25468000  0.60834000  1.0
  O  O282  1  0.77310000  0.75468000  0.89166000  1.0
  O  O283  1  0.27309000  0.74532000  0.10834000  1.0
  O  O284  1  0.77310000  0.75468000  0.60834000  1.0
  O  O285  1  0.27310000  0.74532000  0.39166000  1.0
  O  O286  1  0.22691000  0.24532000  0.10834000  1.0
  O  O287  1  0.72691000  0.25468000  0.89166000  1.0
  O  O288  1  0.35325000  0.24413000  0.42314000  1.0
  O  O289  1  0.85325000  0.25587000  0.57686000  1.0
  O  O290  1  0.64675000  0.75587000  0.92314000  1.0
  O  O291  1  0.14675000  0.74413000  0.07686000  1.0
  O  O292  1  0.64675000  0.75587000  0.57686000  1.0
  O  O293  1  0.14675000  0.74413000  0.42314000  1.0
  O  O294  1  0.35325000  0.24413000  0.07686000  1.0
  O  O295  1  0.85325000  0.25587000  0.92314000  1.0
  O  O296  1  0.16217000  0.29570000  0.57741000  1.0
  O  O297  1  0.66217000  0.20430000  0.42259000  1.0
  O  O298  1  0.83783000  0.70430000  0.07741000  1.0
  O  O299  1  0.33783000  0.79570000  0.92259000  1.0
  O  O300  1  0.83783000  0.70430000  0.42259000  1.0
  O  O301  1  0.33783000  0.79570000  0.57741000  1.0
  O  O302  1  0.16217000  0.29570000  0.92259000  1.0
  O  O303  1  0.66216000  0.20430000  0.07741000  1.0
  O  O304  1  0.26422000  0.23200000  0.60782000  1.0
  O  O305  1  0.76422000  0.26800000  0.39218000  1.0
  O  O306  1  0.73578000  0.76800000  0.10782000  1.0
  O  O307  1  0.23578000  0.73200000  0.89218000  1.0
  O  O308  1  0.73578000  0.76800000  0.39218000  1.0
  O  O309  1  0.23578000  0.73200000  0.60782000  1.0
  O  O310  1  0.26421000  0.23200000  0.89218000  1.0
  O  O311  1  0.76422000  0.26800000  0.10782000  1.0
  O  O312  1  0.14933000  0.17864000  0.50268000  1.0
  O  O313  1  0.64933000  0.32136000  0.49732000  1.0
  O  O314  1  0.85067000  0.82136000  0.00268000  1.0
  O  O315  1  0.35067000  0.67864000  0.99732000  1.0
  O  O316  1  0.85067000  0.82136000  0.49732000  1.0
  O  O317  1  0.35067000  0.67864000  0.50268000  1.0
  O  O318  1  0.14934000  0.17864000  0.99732000  1.0
  O  O319  1  0.64933000  0.32136000  0.00268000  1.0
  O  O320  1  0.27430000  0.14368000  0.49796000  1.0
  O  O321  1  0.77430000  0.35632000  0.50204000  1.0
  O  O322  1  0.72570000  0.85632000  0.99796000  1.0
  O  O323  1  0.22570000  0.64368000  0.00204000  1.0
  O  O324  1  0.72570000  0.85632000  0.50204000  1.0
  O  O325  1  0.22570000  0.64368000  0.49796000  1.0
  O  O326  1  0.27430000  0.14368000  0.00204000  1.0
  O  O327  1  0.77430000  0.35632000  0.99796000  1.0
  O  O328  1  0.25808000  0.86005000  0.47244000  1.0
  O  O329  1  0.75808000  0.63995000  0.52756000  1.0
  O  O330  1  0.74192000  0.13995000  0.97244000  1.0
  O  O331  1  0.24192000  0.36005000  0.02756000  1.0
  O  O332  1  0.74192000  0.13995000  0.52756000  1.0
  O  O333  1  0.24192000  0.36005000  0.47244000  1.0
  O  O334  1  0.25808000  0.86005000  0.02756000  1.0
  O  O335  1  0.75808000  0.63995000  0.97244000  1.0
  O  O336  1  0.15281000  0.83093000  0.53268000  1.0
  O  O337  1  0.65281000  0.66907000  0.46732000  1.0
  O  O338  1  0.84719000  0.16907000  0.03268000  1.0
  O  O339  1  0.34719000  0.33093000  0.96732000  1.0
  O  O340  1  0.84719000  0.16907000  0.46732000  1.0
  O  O341  1  0.34719000  0.33093000  0.53268000  1.0
  O  O342  1  0.15281000  0.83093000  0.96732000  1.0
  O  O343  1  0.65281000  0.66907000  0.03268000  1.0
