# generated using pymatgen
data_ZnH13C21N7O8
_symmetry_space_group_name_H-M   'P 1'
_cell_length_a   16.60140000
_cell_length_b   17.12880000
_cell_length_c   17.88360000
_cell_angle_alpha   88.79170000
_cell_angle_beta   89.91410000
_cell_angle_gamma   91.41470000
_symmetry_Int_Tables_number   1
_chemical_formula_structural   ZnH13C21N7O8
_chemical_formula_sum   'Zn2 H26 C42 N14 O16'
_cell_volume   5082.72641618
_cell_formula_units_Z   2
loop_
 _symmetry_equiv_pos_site_id
 _symmetry_equiv_pos_as_xyz
  1  'x, y, z'
loop_
 _atom_site_type_symbol
 _atom_site_label
 _atom_site_symmetry_multiplicity
 _atom_site_fract_x
 _atom_site_fract_y
 _atom_site_fract_z
 _atom_site_occupancy
  Zn  Zn0  1  0.41628000  0.50422000  0.49974000  1.0
  Zn  Zn1  1  0.58484000  0.49231000  0.50006000  1.0
  H  H2  1  0.36302000  0.10673000  0.56303000  1.0
  H  H3  1  0.63813000  0.89110000  0.44299000  1.0
  H  H4  1  0.35894000  0.25281000  0.55124000  1.0
  H  H5  1  0.64155000  0.74481000  0.45231000  1.0
  H  H6  1  0.37890000  0.47511000  0.26809000  1.0
  H  H7  1  0.62418000  0.53574000  0.72854000  1.0
  H  H8  1  0.62886000  0.54504000  0.25345000  1.0
  H  H9  1  0.37322000  0.47129000  0.74857000  1.0
  H  H10  1  0.61901000  0.54859000  0.11346000  1.0
  H  H11  1  0.38292000  0.48200000  0.88805000  1.0
  H  H12  1  0.29115000  0.45622000  0.59443000  1.0
  H  H13  1  0.71104000  0.54749000  0.40988000  1.0
  H  H14  1  0.13153000  0.57736000  0.39391000  1.0
  H  H15  1  0.86837000  0.42413000  0.61078000  1.0
  H  H16  1  0.39652000  0.75740000  0.64304000  1.0
  H  H17  1  0.40924000  0.67625000  0.59038000  1.0
  H  H18  1  0.60347000  0.23744000  0.35993000  1.0
  H  H19  1  0.59055000  0.31968000  0.41111000  1.0
  H  H20  1  0.40374000  0.95101000  0.57067000  1.0
  H  H21  1  0.35465000  0.86024000  0.59015000  1.0
  H  H22  1  0.64599000  0.13625000  0.41502000  1.0
  H  H23  1  0.59738000  0.04551000  0.43583000  1.0
  H  H24  1  0.07126000  0.43436000  0.62007000  1.0
  H  H25  1  0.16509000  0.41347000  0.65742000  1.0
  H  H26  1  0.93098000  0.57861000  0.39224000  1.0
  H  H27  1  0.83778000  0.59785000  0.35270000  1.0
  C  C28  1  0.49308000  0.49402000  0.64677000  1.0
  C  C29  1  0.50984000  0.50823000  0.35326000  1.0
  C  C30  1  0.46765000  0.34995000  0.48798000  1.0
  C  C31  1  0.53202000  0.64708000  0.51292000  1.0
  C  C32  1  0.46853000  0.26338000  0.48697000  1.0
  C  C33  1  0.53150000  0.73355000  0.51569000  1.0
  C  C34  1  0.53052000  0.22362000  0.45108000  1.0
  C  C35  1  0.46964000  0.77283000  0.55227000  1.0
  C  C36  1  0.53270000  0.14041000  0.45689000  1.0
  C  C37  1  0.46794000  0.85614000  0.54811000  1.0
  C  C38  1  0.47262000  0.09858000  0.49940000  1.0
  C  C39  1  0.52839000  0.89844000  0.50646000  1.0
  C  C40  1  0.40894000  0.14024000  0.53167000  1.0
  C  C41  1  0.59205000  0.85718000  0.47373000  1.0
  C  C42  1  0.40691000  0.22037000  0.52552000  1.0
  C  C43  1  0.59362000  0.77700000  0.47832000  1.0
  C  C44  1  0.42688000  0.49119000  0.15712000  1.0
  C  C45  1  0.57563000  0.53296000  0.84003000  1.0
  C  C46  1  0.43186000  0.49084000  0.23470000  1.0
  C  C47  1  0.57094000  0.52453000  0.76300000  1.0
  C  C48  1  0.50469000  0.51001000  0.26950000  1.0
  C  C49  1  0.49803000  0.50221000  0.73000000  1.0
  C  C50  1  0.57236000  0.53032000  0.22554000  1.0
  C  C51  1  0.42987000  0.48804000  0.77522000  1.0
  C  C52  1  0.56709000  0.53216000  0.14820000  1.0
  C  C53  1  0.43497000  0.49447000  0.85218000  1.0
  C  C54  1  0.49413000  0.51235000  0.11143000  1.0
  C  C55  1  0.50826000  0.51687000  0.88711000  1.0
  C  C56  1  0.49460000  0.51414000  0.03275000  1.0
  C  C57  1  0.50852000  0.51897000  0.96570000  1.0
  C  C58  1  0.16786000  0.47685000  0.55790000  1.0
  C  C59  1  0.83384000  0.52969000  0.44932000  1.0
  C  C60  1  0.25265000  0.48357000  0.55248000  1.0
  C  C61  1  0.74913000  0.51983000  0.45197000  1.0
  C  C62  1  0.24657000  0.55594000  0.44290000  1.0
  C  C63  1  0.75422000  0.44384000  0.55941000  1.0
  C  C64  1  0.16335000  0.55066000  0.44057000  1.0
  C  C65  1  0.83715000  0.45161000  0.56420000  1.0
  C  C66  1  0.12184000  0.51182000  0.49927000  1.0
  C  C67  1  0.87918000  0.49370000  0.50785000  1.0
  C  C68  1  0.03715000  0.50683000  0.50157000  1.0
  C  C69  1  0.96385000  0.50014000  0.50713000  1.0
  N  N70  1  0.47247000  0.01922000  0.51738000  1.0
  N  N71  1  0.52869000  0.97795000  0.48933000  1.0
  N  N72  1  0.29070000  0.52319000  0.49735000  1.0
  N  N73  1  0.71076000  0.47695000  0.50468000  1.0
  N  N74  1  0.40638000  0.73562000  0.59139000  1.0
  N  N75  1  0.59346000  0.26028000  0.41112000  1.0
  N  N76  1  0.28868000  0.60328000  0.38414000  1.0
  N  N77  1  0.71170000  0.39335000  0.61554000  1.0
  N  N78  1  0.40659000  0.89244000  0.58388000  1.0
  N  N79  1  0.59425000  0.10384000  0.42171000  1.0
  N  N80  1  0.34869000  0.46806000  0.12401000  1.0
  N  N81  1  0.65378000  0.55887000  0.87128000  1.0
  N  N82  1  0.13205000  0.43844000  0.61642000  1.0
  N  N83  1  0.87030000  0.57141000  0.39320000  1.0
  O  O84  1  0.42318000  0.48837000  0.61809000  1.0
  O  O85  1  0.57982000  0.50952000  0.38215000  1.0
  O  O86  1  0.56000000  0.49412000  0.61193000  1.0
  O  O87  1  0.44290000  0.50507000  0.38815000  1.0
  O  O88  1  0.40174000  0.38415000  0.50042000  1.0
  O  O89  1  0.59772000  0.61302000  0.49949000  1.0
  O  O90  1  0.53537000  0.38644000  0.47680000  1.0
  O  O91  1  0.46412000  0.61073000  0.52345000  1.0
  O  O92  1  0.25549000  0.60589000  0.32192000  1.0
  O  O93  1  0.35146000  0.63795000  0.40178000  1.0
  O  O94  1  0.74394000  0.38805000  0.67804000  1.0
  O  O95  1  0.64952000  0.35906000  0.59561000  1.0
  O  O96  1  0.34153000  0.47352000  0.05502000  1.0
  O  O97  1  0.29443000  0.44420000  0.16719000  1.0
  O  O98  1  0.65677000  0.57317000  0.93899000  1.0
  O  O99  1  0.71211000  0.56526000  0.82784000  1.0
