# generated using pymatgen
data_H20Pb3C16O9
_symmetry_space_group_name_H-M   'P 1'
_cell_length_a   9.52752000
_cell_length_b   10.94850000
_cell_length_c   11.09880000
_cell_angle_alpha   64.65900000
_cell_angle_beta   79.12280000
_cell_angle_gamma   84.64800000
_symmetry_Int_Tables_number   1
_chemical_formula_structural   H20Pb3C16O9
_chemical_formula_sum   'H40 Pb6 C32 O18'
_cell_volume   1027.43630480
_cell_formula_units_Z   2
loop_
 _symmetry_equiv_pos_site_id
 _symmetry_equiv_pos_as_xyz
  1  'x, y, z'
loop_
 _atom_site_type_symbol
 _atom_site_label
 _atom_site_symmetry_multiplicity
 _atom_site_fract_x
 _atom_site_fract_y
 _atom_site_fract_z
 _atom_site_occupancy
  H  H0  1  0.14418000  0.47769000  0.85445000  1.0
  H  H1  1  0.85584000  0.52221000  0.14552000  1.0
  H  H2  1  0.89562000  0.42178000  0.85607000  1.0
  H  H3  1  0.10440000  0.57817000  0.14393000  1.0
  H  H4  1  0.86024000  0.35815000  0.03315000  1.0
  H  H5  1  0.13977000  0.64184000  0.96683000  1.0
  H  H6  1  0.23316000  0.40386000  0.07497000  1.0
  H  H7  1  0.76687000  0.59611000  0.92496000  1.0
  H  H8  1  0.06006000  0.34814000  0.16324000  1.0
  H  H9  1  0.94001000  0.65180000  0.83674000  1.0
  H  H10  1  0.03788000  0.37325000  0.68559000  1.0
  H  H11  1  0.96222000  0.62685000  0.31439000  1.0
  H  H12  1  0.78760000  0.49149000  0.52914000  1.0
  H  H13  1  0.21252000  0.50860000  0.47080000  1.0
  H  H14  1  0.80053000  0.50027000  0.68165000  1.0
  H  H15  1  0.19953000  0.49983000  0.31831000  1.0
  H  H16  1  0.12317000  0.28331000  0.51626000  1.0
  H  H17  1  0.87693000  0.71676000  0.48370000  1.0
  H  H18  1  0.97756000  0.36230000  0.42946000  1.0
  H  H19  1  0.02252000  0.63779000  0.57052000  1.0
  H  H20  1  0.32471000  0.78838000  0.72621000  1.0
  H  H21  1  0.67525000  0.21154000  0.27385000  1.0
  H  H22  1  0.54941000  0.92373000  0.59729000  1.0
  H  H23  1  0.45057000  0.07622000  0.40275000  1.0
  H  H24  1  0.64810000  0.77131000  0.63396000  1.0
  H  H25  1  0.35185000  0.22861000  0.36600000  1.0
  H  H26  1  0.53694000  0.55009000  0.79470000  1.0
  H  H27  1  0.46311000  0.44987000  0.20531000  1.0
  H  H28  1  0.35448000  0.54039000  0.86898000  1.0
  H  H29  1  0.64558000  0.45951000  0.13106000  1.0
  H  H30  1  0.38942000  0.47057000  0.67714000  1.0
  H  H31  1  0.61064000  0.52938000  0.32286000  1.0
  H  H32  1  0.28014000  0.61627000  0.64404000  1.0
  H  H33  1  0.71987000  0.38363000  0.35600000  1.0
  H  H34  1  0.45259000  0.64872000  0.44000000  1.0
  H  H35  1  0.54741000  0.35125000  0.56002000  1.0
  H  H36  1  0.59883000  0.61002000  0.52977000  1.0
  H  H37  1  0.40120000  0.39007000  0.47021000  1.0
  H  H38  1  0.39166000  0.84989000  0.48307000  1.0
  H  H39  1  0.60816000  0.15002000  0.51708000  1.0
  Pb  Pb40  1  0.19135000  0.00947000  0.89218000  1.0
  Pb  Pb41  1  0.80869000  0.99069000  0.10768000  1.0
  Pb  Pb42  1  0.50594000  0.18745000  0.89426000  1.0
  Pb  Pb43  1  0.49409000  0.81257000  0.10584000  1.0
  Pb  Pb44  1  0.76729000  0.97571000  0.77623000  1.0
  Pb  Pb45  1  0.23273000  0.02423000  0.22382000  1.0
  C  C46  1  0.12154000  0.26531000  0.95537000  1.0
  C  C47  1  0.87835000  0.73464000  0.04466000  1.0
  C  C48  1  0.08262000  0.40529000  0.94868000  1.0
  C  C49  1  0.91737000  0.59467000  0.05132000  1.0
  C  C50  1  0.92247000  0.43403000  0.94218000  1.0
  C  C51  1  0.07753000  0.56592000  0.05781000  1.0
  C  C52  1  0.11889000  0.42379000  0.06902000  1.0
  C  C53  1  0.88112000  0.57620000  0.93094000  1.0
  C  C54  1  0.87991000  0.24189000  0.69772000  1.0
  C  C55  1  0.12017000  0.75813000  0.30231000  1.0
  C  C56  1  0.96176000  0.37262000  0.62248000  1.0
  C  C57  1  0.03832000  0.62742000  0.37753000  1.0
  C  C58  1  0.86429000  0.49819000  0.58879000  1.0
  C  C59  1  0.13579000  0.50187000  0.41120000  1.0
  C  C60  1  0.05085000  0.37177000  0.49106000  1.0
  C  C61  1  0.94925000  0.62831000  0.50894000  1.0
  C  C62  1  0.45892000  0.76496000  0.86593000  1.0
  C  C63  1  0.54108000  0.23508000  0.13408000  1.0
  C  C64  1  0.43202000  0.74543000  0.74507000  1.0
  C  C65  1  0.56796000  0.25451000  0.25499000  1.0
  C  C66  1  0.54146000  0.81693000  0.61819000  1.0
  C  C67  1  0.45852000  0.18303000  0.38181000  1.0
  C  C68  1  0.42990000  0.59429000  0.77610000  1.0
  C  C69  1  0.57009000  0.40566000  0.22393000  1.0
  C  C70  1  0.39032000  0.57817000  0.65635000  1.0
  C  C71  1  0.60969000  0.42177000  0.34368000  1.0
  C  C72  1  0.49086000  0.65539000  0.52424000  1.0
  C  C73  1  0.50913000  0.34461000  0.47575000  1.0
  C  C74  1  0.49928000  0.80509000  0.49750000  1.0
  C  C75  1  0.50062000  0.19489000  0.50253000  1.0
  C  C76  1  0.60018000  0.88056000  0.36685000  1.0
  C  C77  1  0.39964000  0.11948000  0.63312000  1.0
  O  O78  1  0.20141000  0.25420000  0.85426000  1.0
  O  O79  1  0.79840000  0.74575000  0.14573000  1.0
  O  O80  1  0.06967000  0.16257000  0.06210000  1.0
  O  O81  1  0.93024000  0.83742000  0.93795000  1.0
  O  O82  1  0.75500000  0.23620000  0.67404000  1.0
  O  O83  1  0.24509000  0.76382000  0.32600000  1.0
  O  O84  1  0.94000000  0.13613000  0.77844000  1.0
  O  O85  1  0.06008000  0.86388000  0.22159000  1.0
  O  O86  1  0.35049000  0.78114000  0.94617000  1.0
  O  O87  1  0.64953000  0.21895000  0.05381000  1.0
  O  O88  1  0.58664000  0.76236000  0.88664000  1.0
  O  O89  1  0.41336000  0.23774000  0.11331000  1.0
  O  O90  1  0.72961000  0.89531000  0.36844000  1.0
  O  O91  1  0.27026000  0.10456000  0.63141000  1.0
  O  O92  1  0.54976000  0.92723000  0.25466000  1.0
  O  O93  1  0.44990000  0.07299000  0.74534000  1.0
  O  O94  1  0.35124000  0.00746000  0.03989000  1.0
  O  O95  1  0.64884000  0.99257000  0.96014000  1.0
