# generated using pymatgen
data_FeH12(C3N)6
_symmetry_space_group_name_H-M   'P 1'
_cell_length_a   7.05077000
_cell_length_b   13.69350000
_cell_length_c   22.91938895
_cell_angle_alpha   87.73646452
_cell_angle_beta   81.17987785
_cell_angle_gamma   75.17010000
_symmetry_Int_Tables_number   1
_chemical_formula_structural   FeH12(C3N)6
_chemical_formula_sum   'Fe4 H48 C72 N24'
_cell_volume   2113.85367647
_cell_formula_units_Z   4
loop_
 _symmetry_equiv_pos_site_id
 _symmetry_equiv_pos_as_xyz
  1  'x, y, z'
loop_
 _atom_site_type_symbol
 _atom_site_label
 _atom_site_symmetry_multiplicity
 _atom_site_fract_x
 _atom_site_fract_y
 _atom_site_fract_z
 _atom_site_occupancy
  Fe  Fe0  1  0.12845000  0.75000000  0.24313000  1.0
  Fe  Fe1  1  0.62158000  0.75003000  0.25697000  1.0
  Fe  Fe2  1  0.87155000  0.25000000  0.75687000  1.0
  Fe  Fe3  1  0.37842000  0.24997000  0.74303000  1.0
  H  H4  1  0.67582000  0.00957000  0.08449000  1.0
  H  H5  1  0.70248000  0.87210000  0.14617000  1.0
  H  H6  1  0.11550000  0.86175000  0.11705000  1.0
  H  H7  1  0.24793000  0.90021000  0.00742000  1.0
  H  H8  1  0.97683000  0.15768000  0.25056000  1.0
  H  H9  1  0.06843000  0.98339000  0.22927000  1.0
  H  H10  1  0.74004000  0.49021000  0.08448000  1.0
  H  H11  1  0.65147000  0.62788000  0.14612000  1.0
  H  H12  1  0.26744000  0.63838000  0.11710000  1.0
  H  H13  1  0.24424000  0.60008000  0.00740000  1.0
  H  H14  1  0.27299000  0.34234000  0.25047000  1.0
  H  H15  1  0.20250000  0.51661000  0.22917000  1.0
  H  H16  1  0.81532000  0.00955000  0.41535000  1.0
  H  H17  1  0.92551000  0.87225000  0.35375000  1.0
  H  H18  1  0.52264000  0.86170000  0.38306000  1.0
  H  H19  1  0.35118000  0.90028000  0.49284000  1.0
  H  H20  1  0.36542000  0.15753000  0.24941000  1.0
  H  H21  1  0.44747000  0.98322000  0.27060000  1.0
  H  H22  1  0.26928000  0.49036000  0.41541000  1.0
  H  H23  1  0.22101000  0.62740000  0.35367000  1.0
  H  H24  1  0.59429000  0.63857000  0.38301000  1.0
  H  H25  1  0.65602000  0.59977000  0.49268000  1.0
  H  H26  1  0.88550000  0.34251000  0.24945000  1.0
  H  H27  1  0.78215000  0.51684000  0.27060000  1.0
  H  H28  1  0.32419000  0.99043000  0.91551000  1.0
  H  H29  1  0.29752000  0.12790000  0.85383000  1.0
  H  H30  1  0.88450000  0.13825000  0.88295000  1.0
  H  H31  1  0.75209000  0.09979000  0.99258000  1.0
  H  H32  1  0.02317000  0.84233000  0.74945000  1.0
  H  H33  1  0.93158000  0.01660000  0.77073000  1.0
  H  H34  1  0.25994000  0.50978000  0.91553000  1.0
  H  H35  1  0.34852000  0.37212000  0.85388000  1.0
  H  H36  1  0.73255000  0.36162000  0.88290000  1.0
  H  H37  1  0.75574000  0.39992000  0.99261000  1.0
  H  H38  1  0.72701000  0.65766000  0.74953000  1.0
  H  H39  1  0.79749000  0.48340000  0.77083000  1.0
  H  H40  1  0.18469000  0.99044000  0.58465000  1.0
  H  H41  1  0.07450000  0.12775000  0.64625000  1.0
  H  H42  1  0.47737000  0.13830000  0.61694000  1.0
  H  H43  1  0.64883000  0.09971000  0.50716000  1.0
  H  H44  1  0.63458000  0.84247000  0.75059000  1.0
  H  H45  1  0.55253000  0.01677000  0.72940000  1.0
  H  H46  1  0.73071000  0.50964000  0.58459000  1.0
  H  H47  1  0.77898000  0.37261000  0.64633000  1.0
  H  H48  1  0.40570000  0.36143000  0.61698000  1.0
  H  H49  1  0.34397000  0.40022000  0.50731000  1.0
  H  H50  1  0.11449000  0.65749000  0.75056000  1.0
  H  H51  1  0.21784000  0.48318000  0.72940000  1.0
  C  C52  1  0.60009000  0.00390000  0.04713000  1.0
  C  C53  1  0.45666000  0.94736000  0.05316000  1.0
  C  C54  1  0.42026000  0.89207000  0.10767000  1.0
  C  C55  1  0.55379000  0.86256000  0.14840000  1.0
  C  C56  1  0.25595000  0.85556000  0.13252000  1.0
  C  C57  1  0.35694000  0.94487000  0.00476000  1.0
  C  C58  1  0.82194000  0.19767000  0.25011000  1.0
  C  C59  1  0.92484000  0.96666000  0.23936000  1.0
  C  C60  1  0.85307000  0.49592000  0.04714000  1.0
  C  C61  1  0.99018000  0.55265000  0.05314000  1.0
  C  C62  1  0.97217000  0.60800000  0.10766000  1.0
  C  C63  1  0.79790000  0.63746000  0.14837000  1.0
  C  C64  1  0.11152000  0.64457000  0.13251000  1.0
  C  C65  1  0.13802000  0.55532000  0.00476000  1.0
  C  C66  1  0.42830000  0.30235000  0.25006000  1.0
  C  C67  1  0.33593000  0.53335000  0.23935000  1.0
  C  C68  1  0.89644000  0.00391000  0.45277000  1.0
  C  C69  1  0.09602000  0.94736000  0.44688000  1.0
  C  C70  1  0.18773000  0.89203000  0.39238000  1.0
  C  C71  1  0.08366000  0.86280000  0.35155000  1.0
  C  C72  1  0.38842000  0.85528000  0.36764000  1.0
  C  C73  1  0.19779000  0.94488000  0.49536000  1.0
  C  C74  1  0.48046000  0.19759000  0.24992000  1.0
  C  C75  1  0.60767000  0.96673000  0.26069000  1.0
  C  C76  1  0.15081000  0.49598000  0.45281000  1.0
  C  C77  1  0.95712000  0.55256000  0.44681000  1.0
  C  C78  1  0.92001000  0.60781000  0.39231000  1.0
  C  C79  1  0.06510000  0.63685000  0.35141000  1.0
  C  C80  1  0.74397000  0.64483000  0.36759000  1.0
  C  C81  1  0.80681000  0.55510000  0.49528000  1.0
  C  C82  1  0.76997000  0.30246000  0.24995000  1.0
  C  C83  1  0.63186000  0.53333000  0.26066000  1.0
  C  C84  1  0.39992000  0.99609000  0.95288000  1.0
  C  C85  1  0.54335000  0.05264000  0.94685000  1.0
  C  C86  1  0.57974000  0.10793000  0.89234000  1.0
  C  C87  1  0.44621000  0.13744000  0.85161000  1.0
  C  C88  1  0.74406000  0.14444000  0.86748000  1.0
  C  C89  1  0.64307000  0.05513000  0.99524000  1.0
  C  C90  1  0.17806000  0.80234000  0.74989000  1.0
  C  C91  1  0.07516000  0.03334000  0.76064000  1.0
  C  C92  1  0.14690000  0.50409000  0.95287000  1.0
  C  C93  1  0.00980000  0.44735000  0.94686000  1.0
  C  C94  1  0.02781000  0.39201000  0.89234000  1.0
  C  C95  1  0.20209000  0.36254000  0.85163000  1.0
  C  C96  1  0.88847000  0.35543000  0.86749000  1.0
  C  C97  1  0.86195000  0.44468000  0.99525000  1.0
  C  C98  1  0.57170000  0.69766000  0.74994000  1.0
  C  C99  1  0.66407000  0.46666000  0.76065000  1.0
  C  C100  1  0.10357000  0.99608000  0.54723000  1.0
  C  C101  1  0.90398000  0.05262000  0.55312000  1.0
  C  C102  1  0.81229000  0.10796000  0.60762000  1.0
  C  C103  1  0.91636000  0.13720000  0.64845000  1.0
  C  C104  1  0.61159000  0.14472000  0.63236000  1.0
  C  C105  1  0.80222000  0.05511000  0.50464000  1.0
  C  C106  1  0.51955000  0.80242000  0.75008000  1.0
  C  C107  1  0.39234000  0.03327000  0.73931000  1.0
  C  C108  1  0.84918000  0.50402000  0.54719000  1.0
  C  C109  1  0.04288000  0.44744000  0.55318000  1.0
  C  C110  1  0.07998000  0.39219000  0.60769000  1.0
  C  C111  1  0.93489000  0.36315000  0.64859000  1.0
  C  C112  1  0.25603000  0.35517000  0.63240000  1.0
  C  C113  1  0.19319000  0.44490000  0.50471000  1.0
  C  C114  1  0.23003000  0.69754000  0.75005000  1.0
  C  C115  1  0.36813000  0.46668000  0.73934000  1.0
  C  C116  1  0.67870000  0.14230000  0.25004000  1.0
  C  C117  1  0.73327000  0.03242000  0.25009000  1.0
  C  C118  1  0.57162000  0.35772000  0.25002000  1.0
  C  C119  1  0.51691000  0.46761000  0.25005000  1.0
  C  C120  1  0.32130000  0.85770000  0.74996000  1.0
  C  C121  1  0.26673000  0.96759000  0.74991000  1.0
  C  C122  1  0.42838000  0.64228000  0.74998000  1.0
  C  C123  1  0.48310000  0.53239000  0.74994000  1.0
  N  N124  1  0.47578000  0.81299000  0.19383000  1.0
  N  N125  1  0.29154000  0.80884000  0.18433000  1.0
  N  N126  1  0.91237000  0.87013000  0.24340000  1.0
  N  N127  1  0.83047000  0.68710000  0.19379000  1.0
  N  N128  1  0.02411000  0.69131000  0.18430000  1.0
  N  N129  1  0.34430000  0.62989000  0.24339000  1.0
  N  N130  1  0.21107000  0.81310000  0.30617000  1.0
  N  N131  1  0.39934000  0.80863000  0.31581000  1.0
  N  N132  1  0.71668000  0.87015000  0.25665000  1.0
  N  N133  1  0.98301000  0.68676000  0.30609000  1.0
  N  N134  1  0.78487000  0.69145000  0.31578000  1.0
  N  N135  1  0.52679000  0.62989000  0.25664000  1.0
  N  N136  1  0.52422000  0.18701000  0.80617000  1.0
  N  N137  1  0.70845000  0.19116000  0.81568000  1.0
  N  N138  1  0.08763000  0.12988000  0.75660000  1.0
  N  N139  1  0.16953000  0.31291000  0.80621000  1.0
  N  N140  1  0.97588000  0.30869000  0.81570000  1.0
  N  N141  1  0.65570000  0.37011000  0.75661000  1.0
  N  N142  1  0.78893000  0.18690000  0.69383000  1.0
  N  N143  1  0.60067000  0.19137000  0.68419000  1.0
  N  N144  1  0.28333000  0.12985000  0.74335000  1.0
  N  N145  1  0.01698000  0.31325000  0.69391000  1.0
  N  N146  1  0.21513000  0.30855000  0.68422000  1.0
  N  N147  1  0.47320000  0.37011000  0.74336000  1.0
