# generated using pymatgen
data_YH9C9NO11
_symmetry_space_group_name_H-M   'P 1'
_cell_length_a   7.39918000
_cell_length_b   9.21540000
_cell_length_c   11.34806761
_cell_angle_alpha   101.97695932
_cell_angle_beta   107.71017643
_cell_angle_gamma   98.92960000
_symmetry_Int_Tables_number   1
_chemical_formula_structural   YH9C9NO11
_chemical_formula_sum   'Y2 H18 C18 N2 O22'
_cell_volume   700.99281043
_cell_formula_units_Z   2
loop_
 _symmetry_equiv_pos_site_id
 _symmetry_equiv_pos_as_xyz
  1  'x, y, z'
loop_
 _atom_site_type_symbol
 _atom_site_label
 _atom_site_symmetry_multiplicity
 _atom_site_fract_x
 _atom_site_fract_y
 _atom_site_fract_z
 _atom_site_occupancy
  Y  Y0  1  0.16869000  0.55453000  0.28047000  1.0
  Y  Y1  1  0.83133000  0.44547000  0.71954000  1.0
  H  H2  1  0.85251000  0.50695000  0.40412000  1.0
  H  H3  1  0.14750000  0.49305000  0.59589000  1.0
  H  H4  1  0.78705000  0.55504000  0.27143000  1.0
  H  H5  1  0.21295000  0.44496000  0.72857000  1.0
  H  H6  1  0.37303000  0.85146000  0.50521000  1.0
  H  H7  1  0.62698000  0.14855000  0.49479000  1.0
  H  H8  1  0.34063000  0.89091000  0.37136000  1.0
  H  H9  1  0.65938000  0.10909000  0.62864000  1.0
  H  H10  1  0.44159000  0.60893000  0.12982000  1.0
  H  H11  1  0.55841000  0.39108000  0.87018000  1.0
  H  H12  1  0.22152000  0.61105000  0.04481000  1.0
  H  H13  1  0.77847000  0.38895000  0.95519000  1.0
  H  H14  1  0.70776000  0.15010000  0.88712000  1.0
  H  H15  1  0.29225000  0.84990000  0.11288000  1.0
  H  H16  1  0.52910000  0.68586000  0.90015000  1.0
  H  H17  1  0.47090000  0.31414000  0.09985000  1.0
  H  H18  1  0.99317000  0.01053000  0.22138000  1.0
  H  H19  1  0.00683000  0.98947000  0.77862000  1.0
  C  C20  1  0.97372000  0.25812000  0.13412000  1.0
  C  C21  1  0.02627000  0.74188000  0.86587000  1.0
  C  C22  1  0.85517000  0.09910000  0.06529000  1.0
  C  C23  1  0.14483000  0.90089000  0.93471000  1.0
  C  C24  1  0.72312000  0.06395000  0.93974000  1.0
  C  C25  1  0.27687000  0.93605000  0.06025000  1.0
  C  C26  1  0.61050000  0.91529000  0.88394000  1.0
  C  C27  1  0.38950000  0.08470000  0.11606000  1.0
  C  C28  1  0.62239000  0.80017000  0.94721000  1.0
  C  C29  1  0.37762000  0.19983000  0.05279000  1.0
  C  C30  1  0.76603000  0.83420000  0.06850000  1.0
  C  C31  1  0.23398000  0.16579000  0.93150000  1.0
  C  C32  1  0.88095000  0.98321000  0.12674000  1.0
  C  C33  1  0.11905000  0.01679000  0.87326000  1.0
  C  C34  1  0.80987000  0.71140000  0.13482000  1.0
  C  C35  1  0.19013000  0.28860000  0.86518000  1.0
  C  C36  1  0.43571000  0.50092000  0.54229000  1.0
  C  C37  1  0.56432000  0.49908000  0.45773000  1.0
  N  N38  1  0.47263000  0.87690000  0.75291000  1.0
  N  N39  1  0.52737000  0.12310000  0.24709000  1.0
  O  O40  1  0.93129000  0.36989000  0.08878000  1.0
  O  O41  1  0.06871000  0.63011000  0.91122000  1.0
  O  O42  1  0.11503000  0.28193000  0.23886000  1.0
  O  O43  1  0.88496000  0.71806000  0.76114000  1.0
  O  O44  1  0.51343000  0.94782000  0.67699000  1.0
  O  O45  1  0.48658000  0.05218000  0.32301000  1.0
  O  O46  1  0.32270000  0.77691000  0.72137000  1.0
  O  O47  1  0.67730000  0.22310000  0.27863000  1.0
  O  O48  1  0.67124000  0.61734000  0.14145000  1.0
  O  O49  1  0.32876000  0.38266000  0.85855000  1.0
  O  O50  1  0.99029000  0.71299000  0.18049000  1.0
  O  O51  1  0.00971000  0.28701000  0.81951000  1.0
  O  O52  1  0.26717000  0.52458000  0.49375000  1.0
  O  O53  1  0.73284000  0.47543000  0.50626000  1.0
  O  O54  1  0.90014000  0.53945000  0.33849000  1.0
  O  O55  1  0.09986000  0.46055000  0.66151000  1.0
  O  O56  1  0.32510000  0.80779000  0.41125000  1.0
  O  O57  1  0.67490000  0.19222000  0.58875000  1.0
  O  O58  1  0.30463000  0.60056000  0.12899000  1.0
  O  O59  1  0.69538000  0.39943000  0.87102000  1.0
  O  O60  1  0.50598000  0.47964000  0.65148000  1.0
  O  O61  1  0.49402000  0.52037000  0.34852000  1.0
