# generated using pymatgen
data_Cd3H46C52(N4O7)2
_symmetry_space_group_name_H-M   'P 1'
_cell_length_a   10.31170000
_cell_length_b   10.65890000
_cell_length_c   13.29080000
_cell_angle_alpha   98.68300000
_cell_angle_beta   90.00000000
_cell_angle_gamma   118.92900000
_symmetry_Int_Tables_number   1
_chemical_formula_structural   Cd3H46C52(N4O7)2
_chemical_formula_sum   'Cd3 H46 C52 N8 O14'
_cell_volume   1259.36621804
_cell_formula_units_Z   1
loop_
 _symmetry_equiv_pos_site_id
 _symmetry_equiv_pos_as_xyz
  1  'x, y, z'
loop_
 _atom_site_type_symbol
 _atom_site_label
 _atom_site_symmetry_multiplicity
 _atom_site_fract_x
 _atom_site_fract_y
 _atom_site_fract_z
 _atom_site_occupancy
  Cd  Cd0  1  0.50359000  0.00000000  0.50000000  1.0
  Cd  Cd1  1  0.76222000  0.06647000  0.29839000  1.0
  Cd  Cd2  1  0.69576000  0.93353000  0.70161000  1.0
  H  H3  1  0.04345000  0.43499000  0.40307000  1.0
  H  H4  1  0.60846000  0.56500000  0.59693000  1.0
  H  H5  1  0.62408000  0.72334000  0.92033000  1.0
  H  H6  1  0.90075000  0.27666000  0.07967000  1.0
  H  H7  1  0.23319000  0.06048000  0.29024000  1.0
  H  H8  1  0.17271000  0.93952000  0.70976000  1.0
  H  H9  1  0.25129000  0.45894000  0.24624000  1.0
  H  H10  1  0.79235000  0.54106000  0.75376000  1.0
  H  H11  1  0.65461000  0.43440000  0.26586000  1.0
  H  H12  1  0.22021000  0.56560000  0.73414000  1.0
  H  H13  1  0.56500000  0.63047000  0.16068000  1.0
  H  H14  1  0.93453000  0.36953000  0.83932000  1.0
  H  H15  1  0.49350000  0.68195000  0.27151000  1.0
  H  H16  1  0.81155000  0.31805000  0.72849000  1.0
  H  H17  1  0.64894000  0.60346000  0.41954000  1.0
  H  H18  1  0.04549000  0.39655000  0.58046000  1.0
  H  H19  1  0.91760000  0.70397000  0.41224000  1.0
  H  H20  1  0.21364000  0.29604000  0.58776000  1.0
  H  H21  1  0.89135000  0.81004000  0.51805000  1.0
  H  H22  1  0.08131000  0.18996000  0.48195000  1.0
  H  H23  1  0.94157000  0.87906000  0.40141000  1.0
  H  H24  1  0.06250000  0.12094000  0.59859000  1.0
  H  H25  1  0.28974000  0.63877000  0.53719000  1.0
  H  H26  1  0.65097000  0.36123000  0.46282000  1.0
  H  H27  1  0.22830000  0.84836000  0.31232000  1.0
  H  H28  1  0.37994000  0.15165000  0.68768000  1.0
  H  H29  1  0.89172000  0.56754000  0.26956000  1.0
  H  H30  1  0.32418000  0.43246000  0.73044000  1.0
  H  H31  1  0.95782000  0.44311000  0.22898000  1.0
  H  H32  1  0.51470000  0.55689000  0.77102000  1.0
  H  H33  1  0.18676000  0.53768000  0.11773000  1.0
  H  H34  1  0.64908000  0.46232000  0.88227000  1.0
  H  H35  1  0.21552000  0.84706000  0.93219000  1.0
  H  H36  1  0.36846000  0.15294000  0.06781000  1.0
  H  H37  1  0.02544000  0.87960000  0.02831000  1.0
  H  H38  1  0.14583000  0.12039000  0.97169000  1.0
  H  H39  1  0.92058000  0.74797000  0.17434000  1.0
  H  H40  1  0.17261000  0.25203000  0.82566000  1.0
  H  H41  1  0.31384000  0.56289000  0.95422000  1.0
  H  H42  1  0.75094000  0.43711000  0.04578000  1.0
  H  H43  1  0.34704000  0.70883000  0.88959000  1.0
  H  H44  1  0.63821000  0.29117000  0.11041000  1.0
  H  H45  1  0.42870000  0.86821000  0.15927000  1.0
  H  H46  1  0.56049000  0.13179000  0.84073000  1.0
  H  H47  1  0.83843000  0.90411000  0.07980000  1.0
  H  H48  1  0.93431000  0.09589000  0.92021000  1.0
  C  C49  1  0.11826000  0.55037000  0.40583000  1.0
  C  C50  1  0.56790000  0.44966000  0.59417000  1.0
  C  C51  1  0.61472000  0.77594000  0.99428000  1.0
  C  C52  1  0.83878000  0.22407000  0.00573000  1.0
  C  C53  1  0.53549000  0.15798000  0.28955000  1.0
  C  C54  1  0.37751000  0.84202000  0.71045000  1.0
  C  C55  1  0.06041000  0.18554000  0.26510000  1.0
  C  C56  1  0.87486000  0.81445000  0.73490000  1.0
  C  C57  1  0.45260000  0.23844000  0.27707000  1.0
  C  C58  1  0.21416000  0.76156000  0.72293000  1.0
  C  C59  1  0.29803000  0.17262000  0.27825000  1.0
  C  C60  1  0.12540000  0.82738000  0.72175000  1.0
  C  C61  1  0.22584000  0.25186000  0.26407000  1.0
  C  C62  1  0.97398000  0.74814000  0.73593000  1.0
  C  C63  1  0.30963000  0.39806000  0.25314000  1.0
  C  C64  1  0.91157000  0.60194000  0.74686000  1.0
  C  C65  1  0.46430000  0.46582000  0.25430000  1.0
  C  C66  1  0.99848000  0.53418000  0.74570000  1.0
  C  C67  1  0.53412000  0.38421000  0.26488000  1.0
  C  C68  1  0.14991000  0.61579000  0.73512000  1.0
  C  C69  1  0.55294000  0.62330000  0.24220000  1.0
  C  C70  1  0.92963000  0.37670000  0.75780000  1.0
  C  C71  1  0.71254000  0.71160000  0.39726000  1.0
  C  C72  1  0.00094000  0.28840000  0.60275000  1.0
  C  C73  1  0.64644000  0.80255000  0.45150000  1.0
  C  C74  1  0.84389000  0.19745000  0.54850000  1.0
  C  C75  1  0.87620000  0.78054000  0.43453000  1.0
  C  C76  1  0.09566000  0.21947000  0.56547000  1.0
  C  C77  1  0.23792000  0.65245000  0.47190000  1.0
  C  C78  1  0.58548000  0.34754000  0.52809000  1.0
  C  C79  1  0.21073000  0.76514000  0.35672000  1.0
  C  C80  1  0.44559000  0.23486000  0.64328000  1.0
  C  C81  1  0.98953000  0.55882000  0.24588000  1.0
  C  C82  1  0.43071000  0.44118000  0.75412000  1.0
  C  C83  1  0.04720000  0.63430000  0.15539000  1.0
  C  C84  1  0.41290000  0.36570000  0.84461000  1.0
  C  C85  1  0.15188000  0.61366000  0.09851000  1.0
  C  C86  1  0.53822000  0.38634000  0.90149000  1.0
  C  C87  1  0.21509000  0.69115000  0.01924000  1.0
  C  C88  1  0.52394000  0.30885000  0.98076000  1.0
  C  C89  1  0.16855000  0.78726000  0.99459000  1.0
  C  C90  1  0.38128000  0.21274000  0.00541000  1.0
  C  C91  1  0.06140000  0.80538000  0.04897000  1.0
  C  C92  1  0.25602000  0.19461000  0.95103000  1.0
  C  C93  1  0.00159000  0.73075000  0.12992000  1.0
  C  C94  1  0.27083000  0.26925000  0.87008000  1.0
  C  C95  1  0.33652000  0.67629000  0.96500000  1.0
  C  C96  1  0.66022000  0.32371000  0.03499000  1.0
  C  C97  1  0.51127000  0.85381000  0.11640000  1.0
  C  C98  1  0.65746000  0.14619000  0.88360000  1.0
  C  C99  1  0.72056000  0.86828000  0.07239000  1.0
  C  C100  1  0.85229000  0.13172000  0.92761000  1.0
  N  N101  1  0.29411000  0.78586000  0.44066000  1.0
  N  N102  1  0.50825000  0.21414000  0.55934000  1.0
  N  N103  1  0.65487000  0.91596000  0.14744000  1.0
  N  N104  1  0.73891000  0.08404000  0.85256000  1.0
  N  N105  1  0.10345000  0.62349000  0.33281000  1.0
  N  N106  1  0.47996000  0.37650000  0.66719000  1.0
  N  N107  1  0.48234000  0.76734000  0.02379000  1.0
  N  N108  1  0.71499000  0.23266000  0.97620000  1.0
  O  O109  1  0.66807000  0.21385000  0.26237000  1.0
  O  O110  1  0.45422000  0.78615000  0.73763000  1.0
  O  O111  1  0.47182000  0.03991000  0.32531000  1.0
  O  O112  1  0.43191000  0.96009000  0.67469000  1.0
  O  O113  1  0.98934000  0.06729000  0.30123000  1.0
  O  O114  1  0.92205000  0.93271000  0.69877000  1.0
  O  O115  1  0.99711000  0.25067000  0.23283000  1.0
  O  O116  1  0.74643000  0.74932000  0.76717000  1.0
  O  O117  1  0.70234000  0.69695000  0.28823000  1.0
  O  O118  1  0.00539000  0.30306000  0.71178000  1.0
  O  O119  1  0.63153000  0.89276000  0.40576000  1.0
  O  O120  1  0.73877000  0.10724000  0.59424000  1.0
  O  O121  1  0.60891000  0.78068000  0.54055000  1.0
  O  O122  1  0.82823000  0.21932000  0.45945000  1.0
