# generated using pymatgen
data_ZnH7C10N3O4
_symmetry_space_group_name_H-M   'P 1'
_cell_length_a   9.69565000
_cell_length_b   10.21970000
_cell_length_c   11.32790000
_cell_angle_alpha   82.33210000
_cell_angle_beta   89.99990000
_cell_angle_gamma   89.99990000
_symmetry_Int_Tables_number   1
_chemical_formula_structural   ZnH7C10N3O4
_chemical_formula_sum   'Zn4 H28 C40 N12 O16'
_cell_volume   1112.40671861
_cell_formula_units_Z   4
loop_
 _symmetry_equiv_pos_site_id
 _symmetry_equiv_pos_as_xyz
  1  'x, y, z'
loop_
 _atom_site_type_symbol
 _atom_site_label
 _atom_site_symmetry_multiplicity
 _atom_site_fract_x
 _atom_site_fract_y
 _atom_site_fract_z
 _atom_site_occupancy
  Zn  Zn0  1  0.41053000  0.89430000  0.39896000  1.0
  Zn  Zn1  1  0.91053000  0.60570000  0.60104000  1.0
  Zn  Zn2  1  0.58947000  0.10570000  0.60104000  1.0
  Zn  Zn3  1  0.08947000  0.39430000  0.39896000  1.0
  H  H4  1  0.14583000  0.97014000  0.01214000  1.0
  H  H5  1  0.64583000  0.52986000  0.98786000  1.0
  H  H6  1  0.85417000  0.02986000  0.98786000  1.0
  H  H7  1  0.35417000  0.47014000  0.01214000  1.0
  H  H8  1  0.64011000  0.67329000  0.42748000  1.0
  H  H9  1  0.14011000  0.82671000  0.57252000  1.0
  H  H10  1  0.35989000  0.32671000  0.57252000  1.0
  H  H11  1  0.85989000  0.17329000  0.42748000  1.0
  H  H12  1  0.54721000  0.77855000  0.82448000  1.0
  H  H13  1  0.04720000  0.72145000  0.17552000  1.0
  H  H14  1  0.45279000  0.22145000  0.17552000  1.0
  H  H15  1  0.95280000  0.27854000  0.82448000  1.0
  H  H16  1  0.85558000  0.90847000  0.64465000  1.0
  H  H17  1  0.35558000  0.59153000  0.35535000  1.0
  H  H18  1  0.14442000  0.09154000  0.35535000  1.0
  H  H19  1  0.64442000  0.40847000  0.64465000  1.0
  H  H20  1  0.34312000  0.85904000  0.70142000  1.0
  H  H21  1  0.84312000  0.64096000  0.29858000  1.0
  H  H22  1  0.65688000  0.14096000  0.29858000  1.0
  H  H23  1  0.15688000  0.35904000  0.70142000  1.0
  H  H24  1  0.54971000  0.79427000  0.04195000  1.0
  H  H25  1  0.04971000  0.70573000  0.95805000  1.0
  H  H26  1  0.45029000  0.20573000  0.95805000  1.0
  H  H27  1  0.95029000  0.29426000  0.04195000  1.0
  H  H28  1  0.91297000  0.02397000  0.80952000  1.0
  H  H29  1  0.41297000  0.47603000  0.19048000  1.0
  H  H30  1  0.08703000  0.97603000  0.19048000  1.0
  H  H31  1  0.58703000  0.52397000  0.80952000  1.0
  C  C32  1  0.10537000  0.96373000  0.78002000  1.0
  C  C33  1  0.60537000  0.53627000  0.21998000  1.0
  C  C34  1  0.89463000  0.03627000  0.21998000  1.0
  C  C35  1  0.39463000  0.46373000  0.78002000  1.0
  C  C36  1  0.23388000  0.92736000  0.97229000  1.0
  C  C37  1  0.73388000  0.57264000  0.02771000  1.0
  C  C38  1  0.76612000  0.07264000  0.02771000  1.0
  C  C39  1  0.26612000  0.42736000  0.97229000  1.0
  C  C40  1  0.23106000  0.91860000  0.85008000  1.0
  C  C41  1  0.73106000  0.58140000  0.14992000  1.0
  C  C42  1  0.76894000  0.08139000  0.14992000  1.0
  C  C43  1  0.26894000  0.41860000  0.85008000  1.0
  C  C44  1  0.34750000  0.88247000  0.04193000  1.0
  C  C45  1  0.84750000  0.61753000  0.95807000  1.0
  C  C46  1  0.65250000  0.11753000  0.95807000  1.0
  C  C47  1  0.15250000  0.38247000  0.04193000  1.0
  C  C48  1  0.66866000  0.75323000  0.47762000  1.0
  C  C49  1  0.16866000  0.74677000  0.52237000  1.0
  C  C50  1  0.33134000  0.24677000  0.52238000  1.0
  C  C51  1  0.83134000  0.25323000  0.47762000  1.0
  C  C52  1  0.34666000  0.89439000  0.17191000  1.0
  C  C53  1  0.84667000  0.60561000  0.82809000  1.0
  C  C54  1  0.65333000  0.10561000  0.82809000  1.0
  C  C55  1  0.15333000  0.39439000  0.17190000  1.0
  C  C56  1  0.45879000  0.82026000  0.86587000  1.0
  C  C57  1  0.95879000  0.67974000  0.13413000  1.0
  C  C58  1  0.54121000  0.17974000  0.13412000  1.0
  C  C59  1  0.04121000  0.32026000  0.86587000  1.0
  C  C60  1  0.77723000  0.87205000  0.58896000  1.0
  C  C61  1  0.27722000  0.62796000  0.41104000  1.0
  C  C62  1  0.22277000  0.12796000  0.41104000  1.0
  C  C63  1  0.72278000  0.37204000  0.58896000  1.0
  C  C64  1  0.34476000  0.86521000  0.79676000  1.0
  C  C65  1  0.84476000  0.63479000  0.20324000  1.0
  C  C66  1  0.65524000  0.13479000  0.20324000  1.0
  C  C67  1  0.15524000  0.36520000  0.79676000  1.0
  C  C68  1  0.46068000  0.82857000  0.98789000  1.0
  C  C69  1  0.96068000  0.67143000  0.01211000  1.0
  C  C70  1  0.53932000  0.17143000  0.01211000  1.0
  C  C71  1  0.03932000  0.32857000  0.98789000  1.0
  N  N72  1  0.59237000  0.86028000  0.48306000  1.0
  N  N73  1  0.09237000  0.63972000  0.51694000  1.0
  N  N74  1  0.40763000  0.13972000  0.51694000  1.0
  N  N75  1  0.90763000  0.36028000  0.48306000  1.0
  N  N76  1  0.66145000  0.93635000  0.55512000  1.0
  N  N77  1  0.16145000  0.56365000  0.44487000  1.0
  N  N78  1  0.33855000  0.06365000  0.44487000  1.0
  N  N79  1  0.83855000  0.43635000  0.55513000  1.0
  N  N80  1  0.78514000  0.75707000  0.54271000  1.0
  N  N81  1  0.28514000  0.74293000  0.45729000  1.0
  N  N82  1  0.21486000  0.24293000  0.45729000  1.0
  N  N83  1  0.71486000  0.25707000  0.54271000  1.0
  O  O84  1  0.45661000  0.86142000  0.23261000  1.0
  O  O85  1  0.95661000  0.63858000  0.76739000  1.0
  O  O86  1  0.54339000  0.13858000  0.76739000  1.0
  O  O87  1  0.04339000  0.36142000  0.23261000  1.0
  O  O88  1  0.24109000  0.93649000  0.22195000  1.0
  O  O89  1  0.74109000  0.56351000  0.77805000  1.0
  O  O90  1  0.75891000  0.06351000  0.77805000  1.0
  O  O91  1  0.25891000  0.43649000  0.22195000  1.0
  O  O92  1  0.09559000  0.97000000  0.67053000  1.0
  O  O93  1  0.59559000  0.53000000  0.32947000  1.0
  O  O94  1  0.90441000  0.03000000  0.32947000  1.0
  O  O95  1  0.40441000  0.47000000  0.67053000  1.0
  O  O96  1  0.00383000  0.99514000  0.85021000  1.0
  O  O97  1  0.50383000  0.50486000  0.14979000  1.0
  O  O98  1  0.99617000  0.00486000  0.14979000  1.0
  O  O99  1  0.49617000  0.49514000  0.85021000  1.0
