# generated using pymatgen
data_ZnH5C20Br3N(ClO2)2
_symmetry_space_group_name_H-M   'P 1'
_cell_length_a   10.96180000
_cell_length_b   14.80920000
_cell_length_c   16.20040000
_cell_angle_alpha   89.59480000
_cell_angle_beta   88.56540000
_cell_angle_gamma   89.61580000
_symmetry_Int_Tables_number   1
_chemical_formula_structural   ZnH5C20Br3N(ClO2)2
_chemical_formula_sum   'Zn2 H10 C40 Br6 N2 Cl4 O8'
_cell_volume   2628.95370650
_cell_formula_units_Z   2
loop_
 _symmetry_equiv_pos_site_id
 _symmetry_equiv_pos_as_xyz
  1  'x, y, z'
loop_
 _atom_site_type_symbol
 _atom_site_label
 _atom_site_symmetry_multiplicity
 _atom_site_fract_x
 _atom_site_fract_y
 _atom_site_fract_z
 _atom_site_occupancy
  Zn  Zn0  1  0.49744000  0.59456000  0.50315000  1.0
  Zn  Zn1  1  0.50256000  0.40545000  0.49687000  1.0
  H  H2  1  0.27129000  0.17314000  0.26363000  1.0
  H  H3  1  0.72871000  0.82686000  0.73635000  1.0
  H  H4  1  0.19212000  0.13359000  0.40493000  1.0
  H  H5  1  0.80789000  0.86641000  0.59506000  1.0
  H  H6  1  0.88650000  0.38127000  0.42824000  1.0
  H  H7  1  0.11351000  0.61872000  0.57175000  1.0
  H  H8  1  0.39768000  0.62414000  0.07826000  1.0
  H  H9  1  0.60227000  0.37584000  0.92176000  1.0
  H  H10  1  0.30925000  0.08720000  0.53358000  1.0
  H  H11  1  0.69078000  0.91282000  0.46640000  1.0
  C  C12  1  0.49322000  0.49378000  0.66137000  1.0
  C  C13  1  0.50680000  0.50625000  0.33865000  1.0
  C  C14  1  0.87227000  0.50006000  0.50233000  1.0
  C  C15  1  0.12773000  0.49993000  0.49767000  1.0
  C  C16  1  0.93491000  0.56845000  0.54338000  1.0
  C  C17  1  0.06509000  0.43154000  0.45662000  1.0
  C  C18  1  0.44240000  0.57000000  0.04367000  1.0
  C  C19  1  0.55755000  0.42998000  0.95635000  1.0
  C  C20  1  0.50746000  0.50325000  0.08744000  1.0
  C  C21  1  0.49250000  0.49672000  0.91258000  1.0
  C  C22  1  0.56506000  0.43325000  0.04157000  1.0
  C  C23  1  0.43488000  0.56673000  0.95845000  1.0
  C  C24  1  0.51124000  0.50696000  0.17430000  1.0
  C  C25  1  0.48874000  0.49303000  0.82572000  1.0
  C  C26  1  0.48941000  0.49074000  0.75059000  1.0
  C  C27  1  0.51060000  0.50928000  0.24944000  1.0
  C  C28  1  0.39030000  0.95447000  0.52006000  1.0
  C  C29  1  0.60974000  0.04554000  0.47993000  1.0
  C  C30  1  0.49923000  0.90630000  0.50143000  1.0
  C  C31  1  0.50081000  0.09372000  0.49856000  1.0
  C  C32  1  0.60834000  0.95168000  0.48113000  1.0
  C  C33  1  0.39170000  0.04833000  0.51886000  1.0
  C  C34  1  0.26402000  0.50241000  0.49878000  1.0
  C  C35  1  0.73599000  0.49758000  0.50121000  1.0
  C  C36  1  0.50037000  0.81054000  0.50329000  1.0
  C  C37  1  0.49965000  0.18947000  0.49670000  1.0
  C  C38  1  0.22453000  0.31372000  0.27479000  1.0
  C  C39  1  0.77547000  0.68628000  0.72520000  1.0
  C  C40  1  0.17292000  0.38116000  0.32568000  1.0
  C  C41  1  0.82708000  0.61884000  0.67431000  1.0
  C  C42  1  0.12748000  0.36046000  0.40592000  1.0
  C  C43  1  0.87252000  0.63953000  0.59407000  1.0
  C  C44  1  0.13665000  0.27041000  0.43248000  1.0
  C  C45  1  0.86336000  0.72958000  0.56751000  1.0
  C  C46  1  0.18789000  0.20305000  0.38263000  1.0
  C  C47  1  0.81211000  0.79694000  0.61736000  1.0
  C  C48  1  0.23178000  0.22489000  0.30374000  1.0
  C  C49  1  0.76822000  0.77510000  0.69624000  1.0
  C  C50  1  0.93775000  0.43290000  0.45984000  1.0
  C  C51  1  0.06225000  0.56709000  0.54015000  1.0
  Br  Br52  1  0.24426000  0.89251000  0.54455000  1.0
  Br  Br53  1  0.75578000  0.10751000  0.45545000  1.0
  Br  Br54  1  0.08176000  0.23686000  0.54106000  1.0
  Br  Br55  1  0.91829000  0.76313000  0.45893000  1.0
  Br  Br56  1  0.34535000  0.65775000  0.90311000  1.0
  Br  Br57  1  0.65459000  0.34222000  0.09691000  1.0
  N  N58  1  0.49689000  0.26772000  0.49509000  1.0
  N  N59  1  0.50311000  0.73229000  0.50490000  1.0
  Cl  Cl60  1  0.27705000  0.33807000  0.17631000  1.0
  Cl  Cl61  1  0.72294000  0.66193000  0.82368000  1.0
  Cl  Cl62  1  0.16444000  0.49058000  0.28995000  1.0
  Cl  Cl63  1  0.83554000  0.50942000  0.71004000  1.0
  O  O64  1  0.49215000  0.57248000  0.62921000  1.0
  O  O65  1  0.50779000  0.42756000  0.37082000  1.0
  O  O66  1  0.49776000  0.41844000  0.62396000  1.0
  O  O67  1  0.50231000  0.58160000  0.37605000  1.0
  O  O68  1  0.31288000  0.57973000  0.50427000  1.0
  O  O69  1  0.68713000  0.42026000  0.49570000  1.0
  O  O70  1  0.31913000  0.42664000  0.49513000  1.0
  O  O71  1  0.68086000  0.57335000  0.50491000  1.0
