# generated using pymatgen
data_ZnH3C19(NO2)2
_symmetry_space_group_name_H-M   'P 1'
_cell_length_a   17.04280000
_cell_length_b   17.04370000
_cell_length_c   17.04390000
_cell_angle_alpha   64.83280000
_cell_angle_beta   64.82940000
_cell_angle_gamma   64.82100000
_symmetry_Int_Tables_number   1
_chemical_formula_structural   ZnH3C19(NO2)2
_chemical_formula_sum   'Zn6 H18 C114 N12 O24'
_cell_volume   3870.34580428
_cell_formula_units_Z   6
loop_
 _symmetry_equiv_pos_site_id
 _symmetry_equiv_pos_as_xyz
  1  'x, y, z'
loop_
 _atom_site_type_symbol
 _atom_site_label
 _atom_site_symmetry_multiplicity
 _atom_site_fract_x
 _atom_site_fract_y
 _atom_site_fract_z
 _atom_site_occupancy
  Zn  Zn0  1  0.00421000  0.00421000  0.41872000  1.0
  Zn  Zn1  1  0.99582000  0.99579000  0.58126000  1.0
  Zn  Zn2  1  0.41865000  0.00424000  0.00422000  1.0
  Zn  Zn3  1  0.58135000  0.99574000  0.99579000  1.0
  Zn  Zn4  1  0.00422000  0.41870000  0.00421000  1.0
  Zn  Zn5  1  0.99576000  0.58130000  0.99578000  1.0
  H  H6  1  0.04024000  0.71983000  0.71988000  1.0
  H  H7  1  0.78315000  0.03213000  0.27681000  1.0
  H  H8  1  0.72318000  0.21669000  0.96823000  1.0
  H  H9  1  0.27680000  0.78331000  0.03176000  1.0
  H  H10  1  0.03180000  0.78326000  0.27687000  1.0
  H  H11  1  0.96820000  0.21675000  0.72313000  1.0
  H  H12  1  0.78333000  0.27683000  0.03179000  1.0
  H  H13  1  0.21667000  0.72316000  0.96821000  1.0
  H  H14  1  0.27688000  0.03146000  0.78338000  1.0
  H  H15  1  0.72313000  0.96854000  0.21662000  1.0
  H  H16  1  0.95977000  0.28018000  0.28010000  1.0
  H  H17  1  0.71988000  0.04027000  0.71980000  1.0
  H  H18  1  0.28014000  0.95971000  0.28019000  1.0
  H  H19  1  0.71982000  0.71986000  0.04027000  1.0
  H  H20  1  0.28017000  0.28013000  0.95972000  1.0
  H  H21  1  0.96821000  0.72315000  0.21674000  1.0
  H  H22  1  0.03179000  0.27686000  0.78326000  1.0
  H  H23  1  0.21686000  0.96788000  0.72319000  1.0
  C  C24  1  0.05079000  0.67526000  0.53775000  1.0
  C  C25  1  0.53771000  0.67523000  0.05083000  1.0
  C  C26  1  0.58666000  0.45301000  0.01309000  1.0
  C  C27  1  0.54695000  0.98704000  0.41331000  1.0
  C  C28  1  0.45306000  0.01296000  0.58669000  1.0
  C  C29  1  0.90300000  0.62058000  0.21846000  1.0
  C  C30  1  0.09700000  0.37942000  0.78154000  1.0
  C  C31  1  0.21870000  0.90270000  0.62056000  1.0
  C  C32  1  0.78131000  0.09731000  0.37944000  1.0
  C  C33  1  0.62061000  0.21833000  0.90315000  1.0
  C  C34  1  0.37938000  0.78167000  0.09685000  1.0
  C  C35  1  0.09689000  0.78163000  0.37942000  1.0
  C  C36  1  0.32488000  0.94910000  0.46224000  1.0
  C  C37  1  0.90313000  0.21837000  0.62057000  1.0
  C  C38  1  0.78181000  0.37941000  0.09670000  1.0
  C  C39  1  0.21816000  0.62058000  0.90333000  1.0
  C  C40  1  0.37934000  0.09646000  0.78193000  1.0
  C  C41  1  0.62068000  0.90354000  0.21807000  1.0
  C  C42  1  0.67514000  0.05091000  0.53776000  1.0
  C  C43  1  0.02558000  0.54066000  0.54065000  1.0
  C  C44  1  0.97442000  0.45936000  0.45935000  1.0
  C  C45  1  0.54061000  0.02561000  0.54068000  1.0
  C  C46  1  0.45940000  0.97439000  0.45933000  1.0
  C  C47  1  0.54062000  0.54064000  0.02560000  1.0
  C  C48  1  0.45935000  0.45935000  0.97441000  1.0
  C  C49  1  0.82509000  0.02968000  0.55951000  1.0
  C  C50  1  0.94922000  0.32475000  0.46224000  1.0
  C  C51  1  0.17494000  0.97032000  0.44047000  1.0
  C  C52  1  0.55956000  0.82509000  0.02964000  1.0
  C  C53  1  0.44042000  0.17489000  0.97037000  1.0
  C  C54  1  0.02961000  0.55957000  0.82510000  1.0
  C  C55  1  0.97037000  0.44044000  0.17490000  1.0
  C  C56  1  0.17489000  0.44036000  0.97039000  1.0
  C  C57  1  0.82509000  0.55962000  0.02961000  1.0
  C  C58  1  0.44034000  0.97044000  0.17487000  1.0
  C  C59  1  0.55967000  0.02955000  0.82514000  1.0
  C  C60  1  0.97042000  0.17492000  0.44036000  1.0
  C  C61  1  0.53771000  0.05075000  0.67533000  1.0
  C  C62  1  0.02959000  0.82509000  0.55962000  1.0
  C  C63  1  0.04332000  0.58425000  0.58421000  1.0
  C  C64  1  0.95666000  0.41577000  0.41579000  1.0
  C  C65  1  0.58415000  0.04339000  0.58427000  1.0
  C  C66  1  0.41587000  0.95662000  0.41573000  1.0
  C  C67  1  0.58421000  0.58421000  0.04335000  1.0
  C  C68  1  0.41577000  0.41578000  0.95665000  1.0
  C  C69  1  0.04839000  0.72398000  0.58970000  1.0
  C  C70  1  0.95163000  0.27602000  0.41029000  1.0
  C  C71  1  0.58970000  0.04834000  0.72403000  1.0
  C  C72  1  0.46231000  0.94925000  0.32468000  1.0
  C  C73  1  0.41033000  0.95166000  0.27596000  1.0
  C  C74  1  0.72399000  0.58966000  0.04842000  1.0
  C  C75  1  0.27600000  0.41031000  0.95159000  1.0
  C  C76  1  0.95160000  0.41034000  0.27601000  1.0
  C  C77  1  0.04839000  0.58969000  0.72399000  1.0
  C  C78  1  0.41035000  0.27602000  0.95157000  1.0
  C  C79  1  0.58964000  0.72397000  0.04845000  1.0
  C  C80  1  0.27605000  0.95154000  0.41036000  1.0
  C  C81  1  0.72397000  0.04846000  0.58965000  1.0
  C  C82  1  0.94270000  0.55747000  0.28899000  1.0
  C  C83  1  0.67526000  0.53773000  0.05080000  1.0
  C  C84  1  0.05730000  0.44253000  0.71102000  1.0
  C  C85  1  0.28915000  0.94251000  0.55746000  1.0
  C  C86  1  0.71087000  0.05749000  0.44253000  1.0
  C  C87  1  0.55749000  0.28894000  0.94273000  1.0
  C  C88  1  0.44250000  0.71105000  0.05728000  1.0
  C  C89  1  0.05726000  0.71106000  0.44254000  1.0
  C  C90  1  0.94275000  0.28894000  0.55745000  1.0
  C  C91  1  0.71111000  0.44252000  0.05723000  1.0
  C  C92  1  0.28887000  0.55746000  0.94279000  1.0
  C  C93  1  0.44252000  0.05707000  0.71118000  1.0
  C  C94  1  0.32473000  0.46225000  0.94920000  1.0
  C  C95  1  0.55750000  0.94293000  0.28882000  1.0
  C  C96  1  0.04693000  0.68017000  0.68019000  1.0
  C  C97  1  0.95307000  0.31985000  0.31980000  1.0
  C  C98  1  0.68018000  0.04695000  0.68015000  1.0
  C  C99  1  0.31984000  0.95304000  0.31985000  1.0
  C  C100  1  0.68014000  0.68015000  0.04698000  1.0
  C  C101  1  0.31984000  0.31982000  0.95302000  1.0
  C  C102  1  0.96956000  0.32765000  0.59676000  1.0
  C  C103  1  0.03045000  0.67236000  0.40323000  1.0
  C  C104  1  0.59676000  0.96975000  0.32756000  1.0
  C  C105  1  0.94919000  0.46225000  0.32478000  1.0
  C  C106  1  0.40326000  0.03025000  0.67245000  1.0
  C  C107  1  0.32758000  0.59679000  0.96956000  1.0
  C  C108  1  0.67239000  0.40320000  0.03045000  1.0
  C  C109  1  0.03047000  0.40322000  0.67234000  1.0
  C  C110  1  0.96951000  0.59680000  0.32766000  1.0
  C  C111  1  0.40318000  0.67238000  0.03046000  1.0
  C  C112  1  0.59680000  0.32762000  0.96954000  1.0
  C  C113  1  0.67222000  0.03068000  0.40319000  1.0
  C  C114  1  0.32780000  0.96931000  0.59682000  1.0
  C  C115  1  0.98291000  0.28140000  0.68482000  1.0
  C  C116  1  0.05080000  0.53776000  0.67523000  1.0
  C  C117  1  0.01708000  0.71862000  0.31517000  1.0
  C  C118  1  0.68477000  0.98326000  0.28127000  1.0
  C  C119  1  0.31525000  0.01675000  0.71874000  1.0
  C  C120  1  0.28133000  0.68486000  0.98293000  1.0
  C  C121  1  0.71866000  0.31514000  0.01707000  1.0
  C  C122  1  0.01709000  0.31518000  0.71861000  1.0
  C  C123  1  0.98290000  0.68484000  0.28139000  1.0
  C  C124  1  0.31513000  0.71865000  0.01707000  1.0
  C  C125  1  0.68486000  0.28135000  0.98294000  1.0
  C  C126  1  0.71851000  0.01741000  0.31510000  1.0
  C  C127  1  0.46227000  0.32476000  0.94918000  1.0
  C  C128  1  0.28150000  0.98260000  0.68491000  1.0
  C  C129  1  0.01306000  0.45304000  0.58664000  1.0
  C  C130  1  0.98693000  0.54698000  0.41336000  1.0
  C  C131  1  0.58658000  0.01316000  0.45302000  1.0
  C  C132  1  0.41344000  0.98684000  0.54698000  1.0
  C  C133  1  0.45299000  0.58666000  0.01307000  1.0
  C  C134  1  0.54699000  0.41334000  0.98694000  1.0
  C  C135  1  0.98695000  0.41336000  0.54696000  1.0
  C  C136  1  0.01305000  0.58666000  0.45303000  1.0
  C  C137  1  0.41332000  0.54698000  0.98693000  1.0
  N  N138  1  0.86549000  0.68279000  0.16866000  1.0
  N  N139  1  0.16815000  0.68284000  0.86613000  1.0
  N  N140  1  0.31704000  0.13359000  0.83198000  1.0
  N  N141  1  0.68297000  0.86641000  0.16801000  1.0
  N  N142  1  0.13450000  0.31721000  0.83134000  1.0
  N  N143  1  0.16892000  0.86508000  0.68264000  1.0
  N  N144  1  0.83107000  0.13494000  0.31735000  1.0
  N  N145  1  0.68286000  0.16842000  0.86582000  1.0
  N  N146  1  0.31712000  0.83157000  0.13419000  1.0
  N  N147  1  0.13427000  0.83153000  0.31723000  1.0
  N  N148  1  0.86574000  0.16847000  0.68276000  1.0
  N  N149  1  0.83182000  0.31716000  0.13392000  1.0
  O  O150  1  0.86953000  0.01483000  0.48302000  1.0
  O  O151  1  0.48319000  0.01470000  0.86962000  1.0
  O  O152  1  0.98531000  0.13045000  0.51684000  1.0
  O  O153  1  0.01466000  0.86957000  0.48318000  1.0
  O  O154  1  0.97466000  0.13973000  0.38518000  1.0
  O  O155  1  0.02539000  0.86026000  0.61480000  1.0
  O  O156  1  0.38515000  0.97465000  0.13973000  1.0
  O  O157  1  0.61490000  0.02529000  0.86029000  1.0
  O  O158  1  0.13974000  0.38518000  0.97461000  1.0
  O  O159  1  0.86025000  0.61481000  0.02539000  1.0
  O  O160  1  0.02531000  0.61478000  0.86030000  1.0
  O  O161  1  0.13049000  0.98522000  0.51696000  1.0
  O  O162  1  0.97467000  0.38526000  0.13970000  1.0
  O  O163  1  0.61478000  0.86025000  0.02537000  1.0
  O  O164  1  0.38521000  0.13973000  0.97466000  1.0
  O  O165  1  0.86031000  0.02537000  0.61470000  1.0
  O  O166  1  0.13973000  0.97457000  0.38532000  1.0
  O  O167  1  0.48310000  0.86957000  0.01474000  1.0
  O  O168  1  0.51692000  0.13041000  0.98524000  1.0
  O  O169  1  0.01479000  0.48308000  0.86954000  1.0
  O  O170  1  0.98521000  0.51695000  0.13044000  1.0
  O  O171  1  0.13039000  0.51683000  0.98533000  1.0
  O  O172  1  0.86959000  0.48318000  0.01466000  1.0
  O  O173  1  0.51682000  0.98532000  0.13037000  1.0
