# generated using pymatgen
data_CdH13C15N3O4
_symmetry_space_group_name_H-M   'P 1'
_cell_length_a   9.59972000
_cell_length_b   9.59965000
_cell_length_c   17.62370000
_cell_angle_alpha   94.59850000
_cell_angle_beta   94.59820000
_cell_angle_gamma   102.92800000
_symmetry_Int_Tables_number   1
_chemical_formula_structural   CdH13C15N3O4
_chemical_formula_sum   'Cd4 H52 C60 N12 O16'
_cell_volume   1569.76527854
_cell_formula_units_Z   4
loop_
 _symmetry_equiv_pos_site_id
 _symmetry_equiv_pos_as_xyz
  1  'x, y, z'
loop_
 _atom_site_type_symbol
 _atom_site_label
 _atom_site_symmetry_multiplicity
 _atom_site_fract_x
 _atom_site_fract_y
 _atom_site_fract_z
 _atom_site_occupancy
  Cd  Cd0  1  0.84636000  0.15364000  0.75000000  1.0
  Cd  Cd1  1  0.15364000  0.84635000  0.25000000  1.0
  Cd  Cd2  1  0.52141000  0.47859000  0.25000000  1.0
  Cd  Cd3  1  0.47859000  0.52141000  0.75000000  1.0
  H  H4  1  0.61129000  0.36559000  0.55146000  1.0
  H  H5  1  0.63439000  0.38870000  0.94854000  1.0
  H  H6  1  0.38871000  0.63440000  0.44854000  1.0
  H  H7  1  0.36560000  0.61130000  0.05146000  1.0
  H  H8  1  0.99386000  0.25139000  0.48199000  1.0
  H  H9  1  0.74863000  0.00614000  0.01801000  1.0
  H  H10  1  0.00614000  0.74861000  0.51801000  1.0
  H  H11  1  0.25138000  0.99387000  0.98199000  1.0
  H  H12  1  0.62367000  0.73117000  0.09452000  1.0
  H  H13  1  0.26883000  0.37633000  0.40549000  1.0
  H  H14  1  0.37633000  0.26883000  0.90549000  1.0
  H  H15  1  0.73116000  0.62366000  0.59451000  1.0
  H  H16  1  0.91200000  0.87891000  0.10785000  1.0
  H  H17  1  0.12110000  0.08800000  0.39215000  1.0
  H  H18  1  0.08800000  0.12110000  0.89215000  1.0
  H  H19  1  0.87890000  0.91199000  0.60785000  1.0
  H  H20  1  0.96531000  0.59013000  0.31803000  1.0
  H  H21  1  0.40988000  0.03468000  0.18197000  1.0
  H  H22  1  0.03469000  0.40987000  0.68197000  1.0
  H  H23  1  0.59012000  0.96532000  0.81803000  1.0
  H  H24  1  0.57884000  0.47097000  0.42885000  1.0
  H  H25  1  0.52901000  0.42115000  0.07115000  1.0
  H  H26  1  0.42116000  0.52902000  0.57115000  1.0
  H  H27  1  0.47099000  0.57885000  0.92885000  1.0
  H  H28  1  0.96276000  0.35872000  0.35901000  1.0
  H  H29  1  0.64130000  0.03725000  0.14099000  1.0
  H  H30  1  0.03724000  0.64128000  0.64099000  1.0
  H  H31  1  0.35871000  0.96277000  0.85901000  1.0
  H  H32  1  0.56785000  0.74054000  0.35366000  1.0
  H  H33  1  0.25946000  0.43214000  0.14634000  1.0
  H  H34  1  0.43215000  0.25946000  0.64634000  1.0
  H  H35  1  0.74053000  0.56785000  0.85366000  1.0
  H  H36  1  0.39596000  0.68794000  0.34106000  1.0
  H  H37  1  0.31206000  0.60404000  0.15894000  1.0
  H  H38  1  0.60404000  0.31206000  0.65894000  1.0
  H  H39  1  0.68793000  0.39596000  0.84106000  1.0
  H  H40  1  0.38165000  0.07069000  0.50416000  1.0
  H  H41  1  0.92929000  0.61835000  0.99583000  1.0
  H  H42  1  0.61836000  0.92931000  0.49584000  1.0
  H  H43  1  0.07070000  0.38164000  0.00417000  1.0
  H  H44  1  0.50634000  0.93162000  0.61359000  1.0
  H  H45  1  0.06836000  0.49366000  0.88641000  1.0
  H  H46  1  0.49366000  0.06836000  0.38641000  1.0
  H  H47  1  0.93163000  0.50633000  0.11359000  1.0
  H  H48  1  0.15317000  0.14291000  0.57130000  1.0
  H  H49  1  0.85709000  0.84684000  0.92868000  1.0
  H  H50  1  0.84684000  0.85710000  0.42870000  1.0
  H  H51  1  0.14290000  0.15315000  0.07131000  1.0
  H  H52  1  0.16776000  0.04462000  0.71301000  1.0
  H  H53  1  0.95541000  0.83224000  0.78698000  1.0
  H  H54  1  0.83223000  0.95539000  0.28699000  1.0
  H  H55  1  0.04459000  0.16775000  0.21302000  1.0
  C  C56  1  0.83245000  0.24458000  0.59958000  1.0
  C  C57  1  0.75542000  0.16756000  0.90042000  1.0
  C  C58  1  0.16756000  0.75542000  0.40042000  1.0
  C  C59  1  0.24458000  0.83244000  0.09958000  1.0
  C  C60  1  0.80725000  0.30429000  0.52544000  1.0
  C  C61  1  0.69572000  0.19275000  0.97456000  1.0
  C  C62  1  0.19276000  0.69571000  0.47456000  1.0
  C  C63  1  0.30429000  0.80725000  0.02544000  1.0
  C  C64  1  0.68919000  0.36495000  0.50991000  1.0
  C  C65  1  0.63505000  0.31080000  0.99009000  1.0
  C  C66  1  0.31081000  0.63505000  0.49009000  1.0
  C  C67  1  0.36496000  0.68920000  0.00991000  1.0
  C  C68  1  0.90437000  0.30160000  0.47014000  1.0
  C  C69  1  0.69841000  0.09564000  0.02986000  1.0
  C  C70  1  0.09564000  0.69840000  0.52986000  1.0
  C  C71  1  0.30160000  0.90437000  0.97014000  1.0
  C  C72  1  0.82707000  0.64952000  0.22857000  1.0
  C  C73  1  0.35049000  0.17293000  0.27143000  1.0
  C  C74  1  0.17293000  0.35048000  0.77143000  1.0
  C  C75  1  0.64951000  0.82707000  0.72857000  1.0
  C  C76  1  0.71231000  0.72292000  0.13498000  1.0
  C  C77  1  0.27708000  0.28768000  0.36503000  1.0
  C  C78  1  0.28768000  0.27708000  0.86503000  1.0
  C  C79  1  0.72291000  0.71231000  0.63497000  1.0
  C  C80  1  0.85626000  0.79751000  0.14118000  1.0
  C  C81  1  0.20249000  0.14374000  0.35882000  1.0
  C  C82  1  0.14374000  0.20249000  0.85883000  1.0
  C  C83  1  0.79751000  0.85626000  0.64118000  1.0
  C  C84  1  0.85409000  0.57372000  0.29297000  1.0
  C  C85  1  0.42628000  0.14590000  0.20703000  1.0
  C  C86  1  0.14591000  0.42628000  0.70703000  1.0
  C  C87  1  0.57371000  0.85410000  0.79297000  1.0
  C  C88  1  0.77067000  0.42583000  0.38766000  1.0
  C  C89  1  0.57418000  0.22933000  0.11234000  1.0
  C  C90  1  0.22933000  0.57417000  0.61234000  1.0
  C  C91  1  0.42582000  0.77068000  0.88766000  1.0
  C  C92  1  0.66988000  0.42324000  0.44141000  1.0
  C  C93  1  0.57675000  0.33011000  0.05859000  1.0
  C  C94  1  0.33012000  0.57675000  0.55860000  1.0
  C  C95  1  0.42325000  0.66989000  0.94141000  1.0
  C  C96  1  0.88738000  0.36205000  0.40191000  1.0
  C  C97  1  0.63797000  0.11263000  0.09809000  1.0
  C  C98  1  0.11263000  0.63796000  0.59809000  1.0
  C  C99  1  0.36204000  0.88738000  0.90191000  1.0
  C  C100  1  0.34964000  0.04897000  0.56046000  1.0
  C  C101  1  0.95102000  0.65036000  0.93953000  1.0
  C  C102  1  0.65036000  0.95103000  0.43954000  1.0
  C  C103  1  0.04898000  0.34963000  0.06047000  1.0
  C  C104  1  0.41454000  0.97980000  0.61265000  1.0
  C  C105  1  0.02020000  0.58546000  0.88734000  1.0
  C  C106  1  0.58546000  0.02019000  0.38735000  1.0
  C  C107  1  0.97980000  0.41453000  0.11266000  1.0
  C  C108  1  0.23144000  0.08813000  0.59511000  1.0
  C  C109  1  0.91187000  0.76857000  0.90488000  1.0
  C  C110  1  0.76857000  0.91188000  0.40489000  1.0
  C  C111  1  0.08812000  0.23142000  0.09512000  1.0
  C  C112  1  0.23322000  0.03980000  0.66600000  1.0
  C  C113  1  0.96022000  0.76679000  0.83399000  1.0
  C  C114  1  0.76678000  0.96021000  0.33400000  1.0
  C  C115  1  0.03978000  0.23320000  0.16601000  1.0
  N  N116  1  0.69519000  0.63074000  0.19010000  1.0
  N  N117  1  0.36926000  0.30481000  0.30990000  1.0
  N  N118  1  0.30481000  0.36926000  0.80991000  1.0
  N  N119  1  0.63073000  0.69519000  0.69009000  1.0
  N  N120  1  0.74806000  0.49426000  0.32204000  1.0
  N  N121  1  0.50574000  0.25194000  0.17797000  1.0
  N  N122  1  0.25194000  0.50574000  0.67797000  1.0
  N  N123  1  0.49425000  0.74806000  0.82203000  1.0
  N  N124  1  0.92787000  0.75054000  0.20051000  1.0
  N  N125  1  0.24946000  0.07213000  0.29949000  1.0
  N  N126  1  0.07213000  0.24946000  0.79949000  1.0
  N  N127  1  0.75054000  0.92787000  0.70051000  1.0
  O  O128  1  0.92844000  0.17528000  0.60885000  1.0
  O  O129  1  0.82471000  0.07156000  0.89115000  1.0
  O  O130  1  0.07156000  0.82472000  0.39115000  1.0
  O  O131  1  0.17529000  0.92844000  0.10885000  1.0
  O  O132  1  0.75703000  0.27118000  0.65506000  1.0
  O  O133  1  0.72882000  0.24298000  0.84494000  1.0
  O  O134  1  0.24297000  0.72882000  0.34494000  1.0
  O  O135  1  0.27118000  0.75702000  0.15506000  1.0
  O  O136  1  0.48896000  0.65616000  0.33935000  1.0
  O  O137  1  0.34384000  0.51103000  0.16064000  1.0
  O  O138  1  0.51104000  0.34384000  0.66065000  1.0
  O  O139  1  0.65616000  0.48896000  0.83935000  1.0
  O  O140  1  0.34465000  0.97323000  0.67776000  1.0
  O  O141  1  0.02678000  0.65535000  0.82223000  1.0
  O  O142  1  0.65535000  0.02677000  0.32224000  1.0
  O  O143  1  0.97322000  0.34464000  0.17776000  1.0
