# generated using pymatgen
data_AlH6C10NO5F
_symmetry_space_group_name_H-M   'P 1'
_cell_length_a   6.68186000
_cell_length_b   11.07320000
_cell_length_c   11.13606713
_cell_angle_alpha   88.02501095
_cell_angle_beta   72.58974610
_cell_angle_gamma   73.65740000
_symmetry_Int_Tables_number   1
_chemical_formula_structural   AlH6C10NO5F
_chemical_formula_sum   'Al2 H12 C20 N2 O10 F2'
_cell_volume   753.32587219
_cell_formula_units_Z   2
loop_
 _symmetry_equiv_pos_site_id
 _symmetry_equiv_pos_as_xyz
  1  'x, y, z'
loop_
 _atom_site_type_symbol
 _atom_site_label
 _atom_site_symmetry_multiplicity
 _atom_site_fract_x
 _atom_site_fract_y
 _atom_site_fract_z
 _atom_site_occupancy
  Al  Al0  1  0.99205000  0.50606000  0.50240000  1.0
  Al  Al1  1  0.49249000  0.50664000  0.50042000  1.0
  H  H2  1  0.63074000  0.58489000  0.64881000  1.0
  H  H3  1  0.34825000  0.44231000  0.35086000  1.0
  H  H4  1  0.18753000  0.13689000  0.56900000  1.0
  H  H5  1  0.79847000  0.87430000  0.43346000  1.0
  H  H6  1  0.50224000  0.33389000  0.76062000  1.0
  H  H7  1  0.24931000  0.32508000  0.22894000  1.0
  H  H8  1  0.62453000  0.58724000  0.12114000  1.0
  H  H9  1  0.74601000  0.58413000  0.88588000  1.0
  H  H10  1  0.45079000  0.80319000  0.54972000  1.0
  H  H11  1  0.45532000  0.95399000  0.58430000  1.0
  H  H12  1  0.54943000  0.21260000  0.44155000  1.0
  H  H13  1  0.56065000  0.06686000  0.38432000  1.0
  C  C14  1  0.13779000  0.49247000  0.72825000  1.0
  C  C15  1  0.13633000  0.73442000  0.49383000  1.0
  C  C16  1  0.85748000  0.49629000  0.27296000  1.0
  C  C17  1  0.84960000  0.27707000  0.50877000  1.0
  C  C18  1  0.07075000  0.87352000  0.49642000  1.0
  C  C19  1  0.91264000  0.13806000  0.50808000  1.0
  C  C20  1  0.18704000  0.94644000  0.53651000  1.0
  C  C21  1  0.79414000  0.06514000  0.47001000  1.0
  C  C22  1  0.10211000  0.07792000  0.54028000  1.0
  C  C23  1  0.88133000  0.93392000  0.46380000  1.0
  C  C24  1  0.07500000  0.47677000  0.86701000  1.0
  C  C25  1  0.22743000  0.40801000  0.92963000  1.0
  C  C26  1  0.85996000  0.53518000  0.93592000  1.0
  C  C27  1  0.44342000  0.33613000  0.86283000  1.0
  C  C28  1  0.58036000  0.26774000  0.92666000  1.0
  C  C29  1  0.93692000  0.47825000  0.13282000  1.0
  C  C30  1  0.79148000  0.53656000  0.06778000  1.0
  C  C31  1  0.15561000  0.40758000  0.06549000  1.0
  C  C32  1  0.30133000  0.33254000  0.12740000  1.0
  C  C33  1  0.50837000  0.26522000  0.05924000  1.0
  N  N34  1  0.36813000  0.89499000  0.57581000  1.0
  N  N35  1  0.59896000  0.11714000  0.44400000  1.0
  O  O36  1  0.98929000  0.50606000  0.67495000  1.0
  O  O37  1  0.32931000  0.67810000  0.49978000  1.0
  O  O38  1  0.65451000  0.51018000  0.32656000  1.0
  O  O39  1  0.99028000  0.33292000  0.51373000  1.0
  O  O40  1  0.99541000  0.49937000  0.32979000  1.0
  O  O41  1  0.65758000  0.33412000  0.50142000  1.0
  O  O42  1  0.33286000  0.49537000  0.67273000  1.0
  O  O43  1  0.99642000  0.67800000  0.48836000  1.0
  O  O44  1  0.68623000  0.56387000  0.55881000  1.0
  O  O45  1  0.29898000  0.44838000  0.44243000  1.0
  F  F46  1  0.78624000  0.19921000  0.86363000  1.0
  F  F47  1  0.64714000  0.19297000  0.11819000  1.0
