# generated using pymatgen
data_ZnPH5C5NO4
_symmetry_space_group_name_H-M   'P 1'
_cell_length_a   7.70571000
_cell_length_b   9.44905000
_cell_length_c   12.60466956
_cell_angle_alpha   68.00969433
_cell_angle_beta   88.80517956
_cell_angle_gamma   89.90450000
_symmetry_Int_Tables_number   1
_chemical_formula_structural   ZnPH5C5NO4
_chemical_formula_sum   'Zn4 P4 H20 C20 N4 O16'
_cell_volume   850.79287995
_cell_formula_units_Z   4
loop_
 _symmetry_equiv_pos_site_id
 _symmetry_equiv_pos_as_xyz
  1  'x, y, z'
loop_
 _atom_site_type_symbol
 _atom_site_label
 _atom_site_symmetry_multiplicity
 _atom_site_fract_x
 _atom_site_fract_y
 _atom_site_fract_z
 _atom_site_occupancy
  Zn  Zn0  1  0.95468000  0.26292000  0.57064000  1.0
  Zn  Zn1  1  0.54611000  0.83351000  0.42965000  1.0
  Zn  Zn2  1  0.04532000  0.73708000  0.42936000  1.0
  Zn  Zn3  1  0.45390000  0.16647000  0.57036000  1.0
  P  P4  1  0.75816000  0.12100000  0.42888000  1.0
  P  P5  1  0.74246000  0.55008000  0.57175000  1.0
  P  P6  1  0.24184000  0.87900000  0.57112000  1.0
  P  P7  1  0.25754000  0.44991000  0.42825000  1.0
  H  H8  1  0.96279000  0.29182000  0.35247000  1.0
  H  H9  1  0.09141000  0.41268000  0.72119000  1.0
  H  H10  1  0.22890000  0.33229000  0.91106000  1.0
  H  H11  1  0.16241000  0.86416000  0.93856000  1.0
  H  H12  1  0.03690000  0.96490000  0.74597000  1.0
  H  H13  1  0.53739000  0.64516000  0.64784000  1.0
  H  H14  1  0.40972000  0.13378000  0.27893000  1.0
  H  H15  1  0.27203000  0.24337000  0.08915000  1.0
  H  H16  1  0.33752000  0.80203000  0.06216000  1.0
  H  H17  1  0.46360000  0.71032000  0.25453000  1.0
  H  H18  1  0.03722000  0.70816000  0.64753000  1.0
  H  H19  1  0.90858000  0.58733000  0.27882000  1.0
  H  H20  1  0.77110000  0.66771000  0.08894000  1.0
  H  H21  1  0.83759000  0.13583000  0.06145000  1.0
  H  H22  1  0.96309000  0.03509000  0.25403000  1.0
  H  H23  1  0.46262000  0.35483000  0.35217000  1.0
  H  H24  1  0.59033000  0.86624000  0.72104000  1.0
  H  H25  1  0.72801000  0.75665000  0.91084000  1.0
  H  H26  1  0.66243000  0.19798000  0.93786000  1.0
  H  H27  1  0.53637000  0.28967000  0.74549000  1.0
  C  C28  1  0.11079000  0.29229000  0.77305000  1.0
  C  C29  1  0.18583000  0.24538000  0.87996000  1.0
  C  C30  1  0.20971000  0.08894000  0.94340000  1.0
  C  C31  1  0.15241000  0.98709000  0.89416000  1.0
  C  C32  1  0.07922000  0.04168000  0.78674000  1.0
  C  C33  1  0.39006000  0.06521000  0.22714000  1.0
  C  C34  1  0.31498000  0.12523000  0.12028000  1.0
  C  C35  1  0.29108000  0.03213000  0.05692000  1.0
  C  C36  1  0.34794000  0.88078000  0.10632000  1.0
  C  C37  1  0.42124000  0.82797000  0.21369000  1.0
  C  C38  1  0.88920000  0.70771000  0.22694000  1.0
  C  C39  1  0.81418000  0.75463000  0.12004000  1.0
  C  C40  1  0.79027000  0.91107000  0.05659000  1.0
  C  C41  1  0.84759000  0.01291000  0.10583000  1.0
  C  C42  1  0.92077000  0.95829000  0.21326000  1.0
  C  C43  1  0.60995000  0.93483000  0.77284000  1.0
  C  C44  1  0.68504000  0.87477000  0.87972000  1.0
  C  C45  1  0.70891000  0.96787000  0.94307000  1.0
  C  C46  1  0.65205000  0.11923000  0.89368000  1.0
  C  C47  1  0.57875000  0.17205000  0.78632000  1.0
  N  N48  1  0.05963000  0.19192000  0.72701000  1.0
  N  N49  1  0.44123000  0.91869000  0.27322000  1.0
  N  N50  1  0.94035000  0.80807000  0.27300000  1.0
  N  N51  1  0.55878000  0.08132000  0.72680000  1.0
  O  O52  1  0.84366000  0.09502000  0.54343000  1.0
  O  O53  1  0.07510000  0.37977000  0.42400000  1.0
  O  O54  1  0.74273000  0.97471000  0.40525000  1.0
  O  O55  1  0.87403000  0.23637000  0.32511000  1.0
  O  O56  1  0.65660000  0.63783000  0.45713000  1.0
  O  O57  1  0.42463000  0.80450000  0.57590000  1.0
  O  O58  1  0.75855000  0.38003000  0.59610000  1.0
  O  O59  1  0.62649000  0.56247000  0.67537000  1.0
  O  O60  1  0.15634000  0.90499000  0.45656000  1.0
  O  O61  1  0.92491000  0.62020000  0.57600000  1.0
  O  O62  1  0.25727000  0.02528000  0.59475000  1.0
  O  O63  1  0.12596000  0.76362000  0.67489000  1.0
  O  O64  1  0.34340000  0.36217000  0.54287000  1.0
  O  O65  1  0.57538000  0.19549000  0.42411000  1.0
  O  O66  1  0.24144000  0.61997000  0.40389000  1.0
  O  O67  1  0.37352000  0.43754000  0.32463000  1.0
