# generated using pymatgen
data_ZnH7C11N7O5
_symmetry_space_group_name_H-M   'P 1'
_cell_length_a   6.85767000
_cell_length_b   10.74520000
_cell_length_c   18.81730000
_cell_angle_alpha   100.27500000
_cell_angle_beta   89.99990000
_cell_angle_gamma   89.99980000
_symmetry_Int_Tables_number   1
_chemical_formula_structural   ZnH7C11N7O5
_chemical_formula_sum   'Zn4 H28 C44 N28 O20'
_cell_volume   1364.35424235
_cell_formula_units_Z   4
loop_
 _symmetry_equiv_pos_site_id
 _symmetry_equiv_pos_as_xyz
  1  'x, y, z'
loop_
 _atom_site_type_symbol
 _atom_site_label
 _atom_site_symmetry_multiplicity
 _atom_site_fract_x
 _atom_site_fract_y
 _atom_site_fract_z
 _atom_site_occupancy
  Zn  Zn0  1  0.02819000  0.42754000  0.16747000  1.0
  Zn  Zn1  1  0.52819000  0.07246000  0.33253000  1.0
  Zn  Zn2  1  0.97181000  0.57246000  0.83253000  1.0
  Zn  Zn3  1  0.47180000  0.92754000  0.66747000  1.0
  H  H4  1  0.38270000  0.80819000  0.81608000  1.0
  H  H5  1  0.88270000  0.69181000  0.68392000  1.0
  H  H6  1  0.61730000  0.19181000  0.18392000  1.0
  H  H7  1  0.11730000  0.30819000  0.31608000  1.0
  H  H8  1  0.23799000  0.16834000  0.99398000  1.0
  H  H9  1  0.73799000  0.33166000  0.50602000  1.0
  H  H10  1  0.76201000  0.83166000  0.00602000  1.0
  H  H11  1  0.26201000  0.66834000  0.49398000  1.0
  H  H12  1  0.15471000  0.92686000  0.15005000  1.0
  H  H13  1  0.65471000  0.57315000  0.34995000  1.0
  H  H14  1  0.84529000  0.07314000  0.84995000  1.0
  H  H15  1  0.34529000  0.42686000  0.65005000  1.0
  H  H16  1  0.36540000  0.18128000  0.77437000  1.0
  H  H17  1  0.86540000  0.31872000  0.72563000  1.0
  H  H18  1  0.63460000  0.81872000  0.22563000  1.0
  H  H19  1  0.13461000  0.68128000  0.27437000  1.0
  H  H20  1  0.98281000  0.72908000  0.13619000  1.0
  H  H21  1  0.48281000  0.77093000  0.36381000  1.0
  H  H22  1  0.01719000  0.27093000  0.86381000  1.0
  H  H23  1  0.51718000  0.22907000  0.63619000  1.0
  H  H24  1  0.33852000  0.42419000  0.04156000  1.0
  H  H25  1  0.83852000  0.07581000  0.45844000  1.0
  H  H26  1  0.66148000  0.57581000  0.95844000  1.0
  H  H27  1  0.16148000  0.92419000  0.54155000  1.0
  H  H28  1  0.30786000  0.76304000  0.93014000  1.0
  H  H29  1  0.80786000  0.73696000  0.56986000  1.0
  H  H30  1  0.69214000  0.23696000  0.06986000  1.0
  H  H31  1  0.19214000  0.26304000  0.43014000  1.0
  C  C32  1  0.36918000  0.91048000  0.82259000  1.0
  C  C33  1  0.86918000  0.58952000  0.67741000  1.0
  C  C34  1  0.63082000  0.08952000  0.17741000  1.0
  C  C35  1  0.13082000  0.41048000  0.32259000  1.0
  C  C36  1  0.13383000  0.17212000  0.13243000  1.0
  C  C37  1  0.63384000  0.32787000  0.36757000  1.0
  C  C38  1  0.86617000  0.82788000  0.86757000  1.0
  C  C39  1  0.36615000  0.67213000  0.63243000  1.0
  C  C40  1  0.23740000  0.07416000  0.00726000  1.0
  C  C41  1  0.73740000  0.42584000  0.49274000  1.0
  C  C42  1  0.76260000  0.92584000  0.99274000  1.0
  C  C43  1  0.26259000  0.57416000  0.50726000  1.0
  C  C44  1  0.19097000  0.05846000  0.07719000  1.0
  C  C45  1  0.69098000  0.44154000  0.42281000  1.0
  C  C46  1  0.80903000  0.94154000  0.92281000  1.0
  C  C47  1  0.30902000  0.55846000  0.57719000  1.0
  C  C48  1  0.23003000  0.83435000  0.04094000  1.0
  C  C49  1  0.73003000  0.66565000  0.45906000  1.0
  C  C50  1  0.76997000  0.16565000  0.95906000  1.0
  C  C51  1  0.26997000  0.33435000  0.54094000  1.0
  C  C52  1  0.18854000  0.93776000  0.09488000  1.0
  C  C53  1  0.68854000  0.56224000  0.40512000  1.0
  C  C54  1  0.81146000  0.06224000  0.90512000  1.0
  C  C55  1  0.31146000  0.43776000  0.59488000  1.0
  C  C56  1  0.27965000  0.96909000  0.95448000  1.0
  C  C57  1  0.77964000  0.53091000  0.54552000  1.0
  C  C58  1  0.72036000  0.03091000  0.04552000  1.0
  C  C59  1  0.22036000  0.46909000  0.45448000  1.0
  C  C60  1  0.35852000  0.10083000  0.80197000  1.0
  C  C61  1  0.85852000  0.39917000  0.69803000  1.0
  C  C62  1  0.64148000  0.89917000  0.19803000  1.0
  C  C63  1  0.14149000  0.60083000  0.30197000  1.0
  C  C64  1  0.09310000  0.67098000  0.10499000  1.0
  C  C65  1  0.59310000  0.82902000  0.39501000  1.0
  C  C66  1  0.90690000  0.32902000  0.89501000  1.0
  C  C67  1  0.40689000  0.17098000  0.60499000  1.0
  C  C68  1  0.27290000  0.51734000  0.05423000  1.0
  C  C69  1  0.77290000  0.98265000  0.44577000  1.0
  C  C70  1  0.72710000  0.48266000  0.94577000  1.0
  C  C71  1  0.22710000  0.01734000  0.55423000  1.0
  C  C72  1  0.27792000  0.84714000  0.97036000  1.0
  C  C73  1  0.77792000  0.65286000  0.52964000  1.0
  C  C74  1  0.72208000  0.15286000  0.02964000  1.0
  C  C75  1  0.22208000  0.34714000  0.47036000  1.0
  N  N76  1  0.12614000  0.54836000  0.10382000  1.0
  N  N77  1  0.62614000  0.95164000  0.39618000  1.0
  N  N78  1  0.87386000  0.45164000  0.89618000  1.0
  N  N79  1  0.37386000  0.04836000  0.60382000  1.0
  N  N80  1  0.39560000  0.97817000  0.77041000  1.0
  N  N81  1  0.89560000  0.52182000  0.72959000  1.0
  N  N82  1  0.60439000  0.02183000  0.22959000  1.0
  N  N83  1  0.10440000  0.47817000  0.27041000  1.0
  N  N84  1  0.31953000  0.99113000  0.88361000  1.0
  N  N85  1  0.81952000  0.50887000  0.61639000  1.0
  N  N86  1  0.68048000  0.00887000  0.11639000  1.0
  N  N87  1  0.18048000  0.49113000  0.38361000  1.0
  N  N88  1  0.21602000  0.71115000  0.05783000  1.0
  N  N89  1  0.71603000  0.78885000  0.44217000  1.0
  N  N90  1  0.78398000  0.28885000  0.94217000  1.0
  N  N91  1  0.28397000  0.21115000  0.55783000  1.0
  N  N92  1  0.33080000  0.61390000  0.02474000  1.0
  N  N93  1  0.83080000  0.88610000  0.47526000  1.0
  N  N94  1  0.66920000  0.38610000  0.97526000  1.0
  N  N95  1  0.16920000  0.11390000  0.52474000  1.0
  N  N96  1  0.31118000  0.11279000  0.87065000  1.0
  N  N97  1  0.81118000  0.38721000  0.62935000  1.0
  N  N98  1  0.68882000  0.88721000  0.12935000  1.0
  N  N99  1  0.18882000  0.61279000  0.37064000  1.0
  N  N100  1  0.65053000  0.51424000  0.18936000  1.0
  N  N101  1  0.15053000  0.98576000  0.31064000  1.0
  N  N102  1  0.34948000  0.48576000  0.81064000  1.0
  N  N103  1  0.84947000  0.01424000  0.68936000  1.0
  O  O104  1  0.75919000  0.60665000  0.21486000  1.0
  O  O105  1  0.25920000  0.89335000  0.28515000  1.0
  O  O106  1  0.24081000  0.39335000  0.78514000  1.0
  O  O107  1  0.74081000  0.10665000  0.71485000  1.0
  O  O108  1  0.73473000  0.40873000  0.15852000  1.0
  O  O109  1  0.23474000  0.09127000  0.34148000  1.0
  O  O110  1  0.26527000  0.59127000  0.84148000  1.0
  O  O111  1  0.76526000  0.90872000  0.65852000  1.0
  O  O112  1  0.09005000  0.16059000  0.19511000  1.0
  O  O113  1  0.59009000  0.33941000  0.30488000  1.0
  O  O114  1  0.90995000  0.83941000  0.80489000  1.0
  O  O115  1  0.40990000  0.66060000  0.69512000  1.0
  O  O116  1  0.47072000  0.51937000  0.19203000  1.0
  O  O117  1  0.97072000  0.98063000  0.30797000  1.0
  O  O118  1  0.52929000  0.48063000  0.80797000  1.0
  O  O119  1  0.02928000  0.01936000  0.69202000  1.0
  O  O120  1  0.13047000  0.27662000  0.10661000  1.0
  O  O121  1  0.63047000  0.22338000  0.39339000  1.0
  O  O122  1  0.86953000  0.72338000  0.89339000  1.0
  O  O123  1  0.36953000  0.77662000  0.60661000  1.0
