# generated using pymatgen
data_Zn4H11C21NO13
_symmetry_space_group_name_H-M   'P 1'
_cell_length_a   10.93710000
_cell_length_b   10.96670000
_cell_length_c   13.24270000
_cell_angle_alpha   102.59000000
_cell_angle_beta   101.02800000
_cell_angle_gamma   98.45540000
_symmetry_Int_Tables_number   1
_chemical_formula_structural   Zn4H11C21NO13
_chemical_formula_sum   'Zn4 H11 C21 N1 O13'
_cell_volume   1491.73755666
_cell_formula_units_Z   1
loop_
 _symmetry_equiv_pos_site_id
 _symmetry_equiv_pos_as_xyz
  1  'x, y, z'
loop_
 _atom_site_type_symbol
 _atom_site_label
 _atom_site_symmetry_multiplicity
 _atom_site_fract_x
 _atom_site_fract_y
 _atom_site_fract_z
 _atom_site_occupancy
  Zn  Zn0  1  0.42179000  0.61536000  0.59141000  1.0
  Zn  Zn1  1  0.61222000  0.42077000  0.59106000  1.0
  Zn  Zn2  1  0.60122000  0.59948000  0.42722000  1.0
  Zn  Zn3  1  0.36949000  0.36678000  0.39443000  1.0
  H  H4  1  0.57416000  0.57524000  0.10672000  1.0
  H  H5  1  0.60978000  0.04283000  0.59481000  1.0
  H  H6  1  0.04210000  0.61460000  0.59929000  1.0
  H  H7  1  0.60364000  0.24736000  0.96411000  1.0
  H  H8  1  0.52711000  0.02894000  0.84614000  1.0
  H  H9  1  0.34890000  0.98724000  0.68727000  1.0
  H  H10  1  0.24432000  0.16511000  0.64857000  1.0
  H  H11  1  0.32057000  0.38343000  0.76679000  1.0
  H  H12  1  0.40058000  0.31006000  0.05461000  1.0
  H  H13  1  0.96522000  0.38521000  0.40127000  1.0
  H  H14  1  0.38155000  0.96281000  0.39976000  1.0
  C  C15  1  0.83880000  0.53243000  0.52668000  1.0
  C  C16  1  0.47070000  0.16269000  0.47644000  1.0
  C  C17  1  0.16429000  0.47285000  0.47805000  1.0
  C  C18  1  0.46566000  0.43478000  0.21632000  1.0
  C  C19  1  0.54546000  0.54994000  0.78547000  1.0
  C  C20  1  0.54959000  0.56285000  0.90177000  1.0
  C  C21  1  0.51585000  0.46090000  0.94238000  1.0
  C  C22  1  0.52661000  0.83867000  0.52361000  1.0
  C  C23  1  0.45958000  0.40151000  0.10074000  1.0
  C  C24  1  0.52074000  0.48335000  0.05541000  1.0
  C  C25  1  0.02537000  0.46120000  0.46700000  1.0
  C  C26  1  0.45798000  0.02365000  0.46428000  1.0
  C  C27  1  0.46859000  0.33050000  0.87249000  1.0
  C  C28  1  0.52473000  0.22919000  0.89504000  1.0
  C  C29  1  0.48205000  0.10662000  0.82837000  1.0
  C  C30  1  0.38155000  0.08323000  0.73929000  1.0
  C  C31  1  0.32372000  0.18305000  0.71732000  1.0
  C  C32  1  0.36705000  0.30599000  0.78323000  1.0
  C  C33  1  0.58465000  0.69020000  0.96576000  1.0
  C  C34  1  0.97770000  0.54032000  0.53423000  1.0
  C  C35  1  0.53565000  0.97727000  0.53064000  1.0
  N  N36  1  0.61643000  0.79621000  0.01599000  1.0
  O  O37  1  0.50138000  0.50050000  0.50130000  1.0
  O  O38  1  0.56607000  0.23555000  0.54546000  1.0
  O  O39  1  0.58806000  0.78037000  0.46301000  1.0
  O  O40  1  0.78248000  0.58999000  0.46386000  1.0
  O  O41  1  0.38384000  0.19724000  0.41608000  1.0
  O  O42  1  0.19894000  0.39397000  0.40797000  1.0
  O  O43  1  0.54435000  0.53524000  0.27337000  1.0
  O  O44  1  0.60652000  0.47196000  0.74215000  1.0
  O  O45  1  0.48133000  0.62113000  0.74294000  1.0
  O  O46  1  0.39059000  0.35949000  0.24905000  1.0
  O  O47  1  0.79121000  0.47028000  0.58523000  1.0
  O  O48  1  0.45961000  0.79282000  0.58042000  1.0
  O  O49  1  0.23724000  0.55988000  0.55554000  1.0
