# generated using pymatgen
data_AlH15C27(N5O3)2
_symmetry_space_group_name_H-M   'P 1'
_cell_length_a   3.90475000
_cell_length_b   18.06550000
_cell_length_c   18.11340000
_cell_angle_alpha   60.43300000
_cell_angle_beta   89.20290000
_cell_angle_gamma   89.08330000
_symmetry_Int_Tables_number   1
_chemical_formula_structural   AlH15C27(N5O3)2
_chemical_formula_sum   'Al1 H15 C27 N10 O6'
_cell_volume   1111.18474197
_cell_formula_units_Z   1
loop_
 _symmetry_equiv_pos_site_id
 _symmetry_equiv_pos_as_xyz
  1  'x, y, z'
loop_
 _atom_site_type_symbol
 _atom_site_label
 _atom_site_symmetry_multiplicity
 _atom_site_fract_x
 _atom_site_fract_y
 _atom_site_fract_z
 _atom_site_occupancy
  Al  Al0  1  0.96343000  0.99977000  0.49949000  1.0
  H  H1  1  0.22260000  0.30554000  0.58964000  1.0
  H  H2  1  0.16771000  0.09349000  0.10868000  1.0
  H  H3  1  0.20969000  0.60987000  0.80253000  1.0
  H  H4  1  0.66985000  0.30755000  0.10059000  1.0
  H  H5  1  0.17422000  0.01957000  0.26782000  1.0
  H  H6  1  0.19737000  0.76928000  0.71490000  1.0
  H  H7  1  0.72639000  0.59744000  0.59763000  1.0
  H  H8  1  0.61924000  0.08746000  0.81242000  1.0
  H  H9  1  0.21194000  0.21928000  0.51533000  1.0
  H  H10  1  0.76926000  0.96336000  0.70742000  1.0
  H  H11  1  0.82655000  0.97012000  0.79762000  1.0
  H  H12  1  0.85987000  0.82482000  0.47358000  1.0
  H  H13  1  0.95960000  0.72601000  0.48605000  1.0
  H  H14  1  0.82615000  0.20176000  0.32669000  1.0
  H  H15  1  0.90894000  0.28902000  0.22907000  1.0
  C  C16  1  0.44962000  0.06380000  0.56874000  1.0
  C  C17  1  0.46014000  0.06844000  0.36728000  1.0
  C  C18  1  0.46939000  0.86711000  0.56415000  1.0
  C  C19  1  0.31122000  0.23965000  0.62058000  1.0
  C  C20  1  0.42234000  0.20035000  0.70538000  1.0
  C  C21  1  0.28363000  0.12241000  0.14247000  1.0
  C  C22  1  0.41933000  0.20497000  0.09634000  1.0
  C  C23  1  0.46821000  0.59537000  0.70383000  1.0
  C  C24  1  0.32513000  0.64280000  0.73953000  1.0
  C  C25  1  0.56719000  0.24360000  0.13816000  1.0
  C  C26  1  0.59908000  0.20034000  0.22713000  1.0
  C  C27  1  0.45065000  0.11804000  0.27389000  1.0
  C  C28  1  0.29005000  0.08184000  0.23014000  1.0
  C  C29  1  0.32069000  0.73060000  0.69112000  1.0
  C  C30  1  0.47813000  0.77333000  0.61047000  1.0
  C  C31  1  0.63994000  0.72536000  0.57626000  1.0
  C  C32  1  0.61753000  0.63606000  0.62331000  1.0
  C  C33  1  0.53852000  0.11613000  0.74645000  1.0
  C  C34  1  0.56368000  0.06931000  0.70340000  1.0
  C  C35  1  0.43972000  0.10822000  0.61862000  1.0
  C  C36  1  0.30897000  0.19200000  0.57977000  1.0
  C  C37  1  0.44257000  0.37765000  0.74572000  1.0
  C  C38  1  0.40159000  0.24429000  0.88012000  1.0
  C  C39  1  0.41819000  0.24827000  0.75171000  1.0
  C  C40  1  0.45613000  0.50168000  0.75104000  1.0
  C  C41  1  0.43009000  0.37947000  0.87967000  1.0
  C  C42  1  0.41002000  0.25130000  0.00284000  1.0
  N  N43  1  0.42490000  0.33384000  0.83516000  1.0
  N  N44  1  0.40023000  0.20213000  0.83705000  1.0
  N  N45  1  0.43544000  0.33362000  0.70453000  1.0
  N  N46  1  0.46649000  0.46222000  0.70439000  1.0
  N  N47  1  0.43569000  0.46430000  0.83619000  1.0
  N  N48  1  0.38464000  0.20382000  0.96470000  1.0
  N  N49  1  0.43122000  0.33675000  0.96424000  1.0
  N  N50  1  0.68377000  0.98663000  0.74534000  1.0
  N  N51  1  0.79374000  0.76288000  0.49760000  1.0
  N  N52  1  0.75056000  0.24033000  0.26577000  1.0
  O  O53  1  0.70287000  0.90703000  0.50781000  1.0
  O  O54  1  0.68959000  0.00855000  0.58384000  1.0
  O  O55  1  0.69534000  0.08411000  0.40669000  1.0
  O  O56  1  0.23039000  0.90542000  0.58161000  1.0
  O  O57  1  0.23300000  0.01131000  0.40584000  1.0
  O  O58  1  0.22104000  0.08223000  0.51218000  1.0
