# generated using pymatgen
data_ZnH19C17NO5
_symmetry_space_group_name_H-M   'P 1'
_cell_length_a   9.68490000
_cell_length_b   10.82650000
_cell_length_c   10.95750000
_cell_angle_alpha   92.32000000
_cell_angle_beta   90.85670000
_cell_angle_gamma   90.43870000
_symmetry_Int_Tables_number   1
_chemical_formula_structural   ZnH19C17NO5
_chemical_formula_sum   'Zn2 H38 C34 N2 O10'
_cell_volume   1147.82366515
_cell_formula_units_Z   2
loop_
 _symmetry_equiv_pos_site_id
 _symmetry_equiv_pos_as_xyz
  1  'x, y, z'
loop_
 _atom_site_type_symbol
 _atom_site_label
 _atom_site_symmetry_multiplicity
 _atom_site_fract_x
 _atom_site_fract_y
 _atom_site_fract_z
 _atom_site_occupancy
  Zn  Zn0  1  0.64317000  0.50175000  0.50339000  1.0
  Zn  Zn1  1  0.35725000  0.49622000  0.50055000  1.0
  H  H2  1  0.12711000  0.37058000  0.35537000  1.0
  H  H3  1  0.32094000  0.97654000  0.80947000  1.0
  H  H4  1  0.36217000  0.17329000  0.93684000  1.0
  H  H5  1  0.41651000  0.04142000  0.01718000  1.0
  H  H6  1  0.54048000  0.13776000  0.94860000  1.0
  H  H7  1  0.52703000  0.73669000  0.23750000  1.0
  H  H8  1  0.69264000  0.79984000  0.27542000  1.0
  H  H9  1  0.70590000  0.88689000  0.06522000  1.0
  H  H10  1  0.67641000  0.72348000  0.05489000  1.0
  H  H11  1  0.53798000  0.82640000  0.02954000  1.0
  H  H12  1  0.83183000  0.07007000  0.68375000  1.0
  H  H13  1  0.87329000  0.62801000  0.64932000  1.0
  H  H14  1  0.70297000  0.05027000  0.79354000  1.0
  H  H15  1  0.85382000  0.95794000  0.79608000  1.0
  H  H16  1  0.65795000  0.83124000  0.70569000  1.0
  H  H17  1  0.78358000  0.85302000  0.59527000  1.0
  H  H18  1  0.29082000  0.94454000  0.19221000  1.0
  H  H19  1  0.15643000  0.93947000  0.29996000  1.0
  H  H20  1  0.14797000  0.04609000  0.18140000  1.0
  H  H21  1  0.22414000  0.15814000  0.37732000  1.0
  H  H22  1  0.35429000  0.16087000  0.26783000  1.0
  H  H23  1  0.89008000  0.93250000  0.43052000  1.0
  H  H24  1  0.13833000  0.62591000  0.64795000  1.0
  H  H25  1  0.82700000  0.95653000  0.28035000  1.0
  H  H26  1  0.96200000  0.05065000  0.34376000  1.0
  H  H27  1  0.73564000  0.16315000  0.34522000  1.0
  H  H28  1  0.80690000  0.15223000  0.49225000  1.0
  H  H29  1  0.17830000  0.07476000  0.67826000  1.0
  H  H30  1  0.10739000  0.07498000  0.52886000  1.0
  H  H31  1  0.03481000  0.97738000  0.63713000  1.0
  H  H32  1  0.18250000  0.85443000  0.48898000  1.0
  H  H33  1  0.24584000  0.84770000  0.63923000  1.0
  H  H34  1  0.86202000  0.37336000  0.35619000  1.0
  H  H35  1  0.29648000  0.57110000  0.89324000  1.0
  H  H36  1  0.70744000  0.40579000  0.10772000  1.0
  H  H37  1  0.29396000  0.54452000  0.12061000  1.0
  H  H38  1  0.70952000  0.43179000  0.88036000  1.0
  H  H39  1  0.50016000  0.94226000  0.82016000  1.0
  C  C40  1  0.50073000  0.47442000  0.12660000  1.0
  C  C41  1  0.36847000  0.95766000  0.52507000  1.0
  C  C42  1  0.47296000  0.03971000  0.60719000  1.0
  C  C43  1  0.52137000  0.96125000  0.37476000  1.0
  C  C44  1  0.50088000  0.12460000  0.49772000  1.0
  C  C45  1  0.49384000  0.87430000  0.48613000  1.0
  C  C46  1  0.06901000  0.42756000  0.42056000  1.0
  C  C47  1  0.93144000  0.57140000  0.58384000  1.0
  C  C48  1  0.07526000  0.57001000  0.58332000  1.0
  C  C49  1  0.92519000  0.42907000  0.42091000  1.0
  C  C50  1  0.38583000  0.53524000  0.94144000  1.0
  C  C51  1  0.50417000  0.50533000  0.87495000  1.0
  C  C52  1  0.61807000  0.44191000  0.05969000  1.0
  C  C53  1  0.38399000  0.51980000  0.06667000  1.0
  C  C54  1  0.61977000  0.45713000  0.93437000  1.0
  C  C55  1  0.42494000  0.01823000  0.82044000  1.0
  C  C56  1  0.43651000  0.09715000  0.93762000  1.0
  C  C57  1  0.59918000  0.81266000  0.21905000  1.0
  C  C58  1  0.63213000  0.81273000  0.08436000  1.0
  C  C59  1  0.70650000  0.90274000  0.65113000  1.0
  C  C60  1  0.77761000  0.00061000  0.73587000  1.0
  C  C61  1  0.29651000  0.09840000  0.32613000  1.0
  C  C62  1  0.50667000  0.52209000  0.74031000  1.0
  C  C63  1  0.21840000  0.00150000  0.24543000  1.0
  C  C64  1  0.76055000  0.09647000  0.41575000  1.0
  C  C65  1  0.86513000  0.00346000  0.36499000  1.0
  C  C66  1  0.22983000  0.91136000  0.56422000  1.0
  C  C67  1  0.13230000  0.01535000  0.60463000  1.0
  C  C68  1  0.50155000  0.46804000  0.26260000  1.0
  C  C69  1  0.49452000  0.73696000  0.48172000  1.0
  C  C70  1  0.49784000  0.26123000  0.51314000  1.0
  C  C71  1  0.59899000  0.95513000  0.56723000  1.0
  C  C72  1  0.39736000  0.04472000  0.41510000  1.0
  C  C73  1  0.62630000  0.04264000  0.45714000  1.0
  N  N74  1  0.85786000  0.50105000  0.50250000  1.0
  N  N75  1  0.14260000  0.49807000  0.50173000  1.0
  O  O76  1  0.62471000  0.52557000  0.69070000  1.0
  O  O77  1  0.53471000  0.92886000  0.25163000  1.0
  O  O78  1  0.38476000  0.46641000  0.31451000  1.0
  O  O79  1  0.61948000  0.46861000  0.31609000  1.0
  O  O80  1  0.39025000  0.53065000  0.68536000  1.0
  O  O81  1  0.61259000  0.68501000  0.48510000  1.0
  O  O82  1  0.37919000  0.31153000  0.51791000  1.0
  O  O83  1  0.61357000  0.31810000  0.52144000  1.0
  O  O84  1  0.37824000  0.68095000  0.47547000  1.0
  O  O85  1  0.45124000  0.09741000  0.72057000  1.0
