# generated using pymatgen
data_GdPH3CO6
_symmetry_space_group_name_H-M   'P 1'
_cell_length_a   6.54107000
_cell_length_b   6.95459000
_cell_length_c   8.18563000
_cell_angle_alpha   114.39400000
_cell_angle_beta   98.74070000
_cell_angle_gamma   90.21070000
_symmetry_Int_Tables_number   1
_chemical_formula_structural   GdPH3CO6
_chemical_formula_sum   'Gd2 P2 H6 C2 O12'
_cell_volume   334.27282067
_cell_formula_units_Z   2
loop_
 _symmetry_equiv_pos_site_id
 _symmetry_equiv_pos_as_xyz
  1  'x, y, z'
loop_
 _atom_site_type_symbol
 _atom_site_label
 _atom_site_symmetry_multiplicity
 _atom_site_fract_x
 _atom_site_fract_y
 _atom_site_fract_z
 _atom_site_occupancy
  Gd  Gd0  1  0.12064000  0.21798000  0.93443000  1.0
  Gd  Gd1  1  0.87935000  0.78203000  0.06557000  1.0
  P  P2  1  0.67030000  0.25311000  0.01063000  1.0
  P  P3  1  0.32969000  0.74688000  0.98936000  1.0
  H  H4  1  0.64918000  0.33706000  0.19576000  1.0
  H  H5  1  0.35081000  0.66294000  0.80424000  1.0
  H  H6  1  0.10763000  0.28809000  0.30534000  1.0
  H  H7  1  0.89237000  0.71192000  0.69466000  1.0
  H  H8  1  0.11568000  0.51546000  0.30677000  1.0
  H  H9  1  0.88432000  0.48453000  0.69323000  1.0
  C  C10  1  0.99318000  0.10996000  0.49919000  1.0
  C  C11  1  0.00683000  0.89006000  0.50082000  1.0
  O  O12  1  0.80494000  0.06071000  0.97258000  1.0
  O  O13  1  0.19506000  0.93929000  0.02743000  1.0
  O  O14  1  0.45445000  0.20007000  0.89728000  1.0
  O  O15  1  0.54556000  0.79993000  0.10271000  1.0
  O  O16  1  0.80572000  0.41575000  0.98128000  1.0
  O  O17  1  0.19428000  0.58425000  0.01872000  1.0
  O  O18  1  0.02191000  0.26676000  0.65287000  1.0
  O  O19  1  0.97811000  0.73323000  0.34714000  1.0
  O  O20  1  0.04468000  0.88524000  0.65514000  1.0
  O  O21  1  0.95530000  0.11476000  0.34486000  1.0
  O  O22  1  0.17656000  0.37622000  0.25734000  1.0
  O  O23  1  0.82343000  0.62379000  0.74267000  1.0
