# generated using pymatgen
data_TbH18(C2O)7
_symmetry_space_group_name_H-M   'P 1'
_cell_length_a   12.89060000
_cell_length_b   14.12050000
_cell_length_c   18.85180000
_cell_angle_alpha   90.00000000
_cell_angle_beta   90.00010000
_cell_angle_gamma   89.99990000
_symmetry_Int_Tables_number   1
_chemical_formula_structural   TbH18(C2O)7
_chemical_formula_sum   'Tb8 H144 C112 O56'
_cell_volume   3431.43701019
_cell_formula_units_Z   8
loop_
 _symmetry_equiv_pos_site_id
 _symmetry_equiv_pos_as_xyz
  1  'x, y, z'
loop_
 _atom_site_type_symbol
 _atom_site_label
 _atom_site_symmetry_multiplicity
 _atom_site_fract_x
 _atom_site_fract_y
 _atom_site_fract_z
 _atom_site_occupancy
  Tb  Tb0  1  0.71650000  0.00418000  0.88971000  1.0
  Tb  Tb1  1  0.78350000  0.99582000  0.38971000  1.0
  Tb  Tb2  1  0.28350000  0.50418000  0.61029000  1.0
  Tb  Tb3  1  0.21650000  0.49582000  0.11029000  1.0
  Tb  Tb4  1  0.77253000  0.02135000  0.67274000  1.0
  Tb  Tb5  1  0.72747000  0.97865000  0.17274000  1.0
  Tb  Tb6  1  0.22747000  0.52135000  0.82726000  1.0
  Tb  Tb7  1  0.27253000  0.47865000  0.32726000  1.0
  H  H8  1  0.99248000  0.06916000  0.88192000  1.0
  H  H9  1  0.50752000  0.93084000  0.38192000  1.0
  H  H10  1  0.00752000  0.56916000  0.61808000  1.0
  H  H11  1  0.49248000  0.43084000  0.11808000  1.0
  H  H12  1  0.15233000  0.01370000  0.84334000  1.0
  H  H13  1  0.34767000  0.98630000  0.34334000  1.0
  H  H14  1  0.84767000  0.51370000  0.65666000  1.0
  H  H15  1  0.65233000  0.48630000  0.15666000  1.0
  H  H16  1  0.12403000  0.03946000  0.75365000  1.0
  H  H17  1  0.37597000  0.96054000  0.25365000  1.0
  H  H18  1  0.87597000  0.53946000  0.74635000  1.0
  H  H19  1  0.62403000  0.46054000  0.24635000  1.0
  H  H20  1  0.19828000  0.19107000  0.75930000  1.0
  H  H21  1  0.30172000  0.80893000  0.25930000  1.0
  H  H22  1  0.80172000  0.69107000  0.74070000  1.0
  H  H23  1  0.69828000  0.30893000  0.24070000  1.0
  H  H24  1  0.26660000  0.14767000  0.83349000  1.0
  H  H25  1  0.23340000  0.85233000  0.33349000  1.0
  H  H26  1  0.73340000  0.64767000  0.66651000  1.0
  H  H27  1  0.76660000  0.35233000  0.16651000  1.0
  H  H28  1  0.22255000  0.21641000  0.95411000  1.0
  H  H29  1  0.27745000  0.78359000  0.45411000  1.0
  H  H30  1  0.77745000  0.71641000  0.54589000  1.0
  H  H31  1  0.72255000  0.28359000  0.04589000  1.0
  H  H32  1  0.13156000  0.12282000  0.94530000  1.0
  H  H33  1  0.36844000  0.87718000  0.44530000  1.0
  H  H34  1  0.86844000  0.62282000  0.55470000  1.0
  H  H35  1  0.63156000  0.37718000  0.05470000  1.0
  H  H36  1  0.08900000  0.23568000  0.97360000  1.0
  H  H37  1  0.41100000  0.76432000  0.47360000  1.0
  H  H38  1  0.91100000  0.73568000  0.52640000  1.0
  H  H39  1  0.58900000  0.26432000  0.02640000  1.0
  H  H40  1  0.99085000  0.33221000  0.76808000  1.0
  H  H41  1  0.50915000  0.66779000  0.26808000  1.0
  H  H42  1  0.00915000  0.83221000  0.73192000  1.0
  H  H43  1  0.49085000  0.16779000  0.23192000  1.0
  H  H44  1  0.90919000  0.23614000  0.74498000  1.0
  H  H45  1  0.59081000  0.76386000  0.24498000  1.0
  H  H46  1  0.09081000  0.73614000  0.75502000  1.0
  H  H47  1  0.40919000  0.26386000  0.25501000  1.0
  H  H48  1  0.04164000  0.23280000  0.72151000  1.0
  H  H49  1  0.45836000  0.76720000  0.22151000  1.0
  H  H50  1  0.95836000  0.73280000  0.77849000  1.0
  H  H51  1  0.54164000  0.26720000  0.27849000  1.0
  H  H52  1  0.93705000  0.31775000  0.89897000  1.0
  H  H53  1  0.56295000  0.68225000  0.39897000  1.0
  H  H54  1  0.06295000  0.81775000  0.60103000  1.0
  H  H55  1  0.43705000  0.18226000  0.10103000  1.0
  H  H56  1  0.93326000  0.20332000  0.93932000  1.0
  H  H57  1  0.56674000  0.79668000  0.43933000  1.0
  H  H58  1  0.06674000  0.70332000  0.56068000  1.0
  H  H59  1  0.43326000  0.29668000  0.06067000  1.0
  H  H60  1  0.85009000  0.22950000  0.86791000  1.0
  H  H61  1  0.64991000  0.77050000  0.36791000  1.0
  H  H62  1  0.14991000  0.72950000  0.63209000  1.0
  H  H63  1  0.35009000  0.27050000  0.13209000  1.0
  H  H64  1  0.39461000  0.90069000  0.84690000  1.0
  H  H65  1  0.10539000  0.09931000  0.34690000  1.0
  H  H66  1  0.60539000  0.40069000  0.65310000  1.0
  H  H67  1  0.89461000  0.59931000  0.15310000  1.0
  H  H68  1  0.33265000  0.00005000  0.81057000  1.0
  H  H69  1  0.16735000  0.99995000  0.31057000  1.0
  H  H70  1  0.66735000  0.50005000  0.68943000  1.0
  H  H71  1  0.83265000  0.49995000  0.18943000  1.0
  H  H72  1  0.21037000  0.90269000  0.74736000  1.0
  H  H73  1  0.28963000  0.09731000  0.24736000  1.0
  H  H74  1  0.78963000  0.40269000  0.75264000  1.0
  H  H75  1  0.71037000  0.59731000  0.25264000  1.0
  H  H76  1  0.24539000  0.81727000  0.81146000  1.0
  H  H77  1  0.25461000  0.18273000  0.31146000  1.0
  H  H78  1  0.75461000  0.31727000  0.68854000  1.0
  H  H79  1  0.74539000  0.68273000  0.18854000  1.0
  H  H80  1  0.29472000  0.82292000  0.65846000  1.0
  H  H81  1  0.20528000  0.17708000  0.15846000  1.0
  H  H82  1  0.70528000  0.32292000  0.84154000  1.0
  H  H83  1  0.79472000  0.67707000  0.34154000  1.0
  H  H84  1  0.40547000  0.07593000  0.70688000  1.0
  H  H85  1  0.09453000  0.92407000  0.20688000  1.0
  H  H86  1  0.59453000  0.57593000  0.79312000  1.0
  H  H87  1  0.90547000  0.42407000  0.29312000  1.0
  H  H88  1  0.34175000  0.98676000  0.65717000  1.0
  H  H89  1  0.15825000  0.01324000  0.15717000  1.0
  H  H90  1  0.65825000  0.48676000  0.84283000  1.0
  H  H91  1  0.84175000  0.51324000  0.34284000  1.0
  H  H92  1  0.47575000  0.01159000  0.64193000  1.0
  H  H93  1  0.02425000  0.98841000  0.14193000  1.0
  H  H94  1  0.52425000  0.51159000  0.85807000  1.0
  H  H95  1  0.97575000  0.48841000  0.35807000  1.0
  H  H96  1  0.50166000  0.68883000  0.73789000  1.0
  H  H97  1  0.99834000  0.31117000  0.23789000  1.0
  H  H98  1  0.49834000  0.18883000  0.76211000  1.0
  H  H99  1  0.00166000  0.81117000  0.26211000  1.0
  H  H100  1  0.48147000  0.76439000  0.81159000  1.0
  H  H101  1  0.01853000  0.23561000  0.31159000  1.0
  H  H102  1  0.51853000  0.26439000  0.68841000  1.0
  H  H103  1  0.98147000  0.73561000  0.18841000  1.0
  H  H104  1  0.59112000  0.78097000  0.75545000  1.0
  H  H105  1  0.90888000  0.21903000  0.25545000  1.0
  H  H106  1  0.40889000  0.28097000  0.74455000  1.0
  H  H107  1  0.09111000  0.71903000  0.24455000  1.0
  H  H108  1  0.49611000  0.74646000  0.61808000  1.0
  H  H109  1  0.00389000  0.25355000  0.11808000  1.0
  H  H110  1  0.50389000  0.24646000  0.88192000  1.0
  H  H111  1  0.99611000  0.75354000  0.38192000  1.0
  H  H112  1  0.56922000  0.85144000  0.63144000  1.0
  H  H113  1  0.93078000  0.14856000  0.13144000  1.0
  H  H114  1  0.43078000  0.35144000  0.86856000  1.0
  H  H115  1  0.06922000  0.64856000  0.36856000  1.0
  H  H116  1  0.44293000  0.85835000  0.59408000  1.0
  H  H117  1  0.05707000  0.14165000  0.09408000  1.0
  H  H118  1  0.55707000  0.35835000  0.90592000  1.0
  H  H119  1  0.94293000  0.64165000  0.40592000  1.0
  H  H120  1  0.53162000  0.81037000  0.90985000  1.0
  H  H121  1  0.96838000  0.18963000  0.40985000  1.0
  H  H122  1  0.46838000  0.31037000  0.59015000  1.0
  H  H123  1  0.03162000  0.68963000  0.09015000  1.0
  H  H124  1  0.41892000  0.66789000  0.88799000  1.0
  H  H125  1  0.08108000  0.33211000  0.38799000  1.0
  H  H126  1  0.58108000  0.16789000  0.61201000  1.0
  H  H127  1  0.91892000  0.83211000  0.11201000  1.0
  H  H128  1  0.47604000  0.57402000  0.10125000  1.0
  H  H129  1  0.02396000  0.42598000  0.60125000  1.0
  H  H130  1  0.52396000  0.07402000  0.39875000  1.0
  H  H131  1  0.97604000  0.92598000  0.89875000  1.0
  H  H132  1  0.58942000  0.71498000  0.12227000  1.0
  H  H133  1  0.91058000  0.28502000  0.62227000  1.0
  H  H134  1  0.41058000  0.21498000  0.37773000  1.0
  H  H135  1  0.08942000  0.78502000  0.87773000  1.0
  H  H136  1  0.73045000  0.79784000  0.86455000  1.0
  H  H137  1  0.76955000  0.20216000  0.36454000  1.0
  H  H138  1  0.26956000  0.29784000  0.63545000  1.0
  H  H139  1  0.23045000  0.70216000  0.13546000  1.0
  H  H140  1  0.78344000  0.84167000  0.79477000  1.0
  H  H141  1  0.71656000  0.15833000  0.29477000  1.0
  H  H142  1  0.21656000  0.34167000  0.70523000  1.0
  H  H143  1  0.28344000  0.65833000  0.20523000  1.0
  H  H144  1  0.61904000  0.10647000  0.01832000  1.0
  H  H145  1  0.88096000  0.89353000  0.51832000  1.0
  H  H146  1  0.38096000  0.60648000  0.48168000  1.0
  H  H147  1  0.11904000  0.39353000  0.98168000  1.0
  H  H148  1  0.60908000  0.15881000  0.94237000  1.0
  H  H149  1  0.89092000  0.84119000  0.44237000  1.0
  H  H150  1  0.39092000  0.65881000  0.55763000  1.0
  H  H151  1  0.10908000  0.34119000  0.05763000  1.0
  C  C152  1  0.01137000  0.09618000  0.82890000  1.0
  C  C153  1  0.48863000  0.90382000  0.32889000  1.0
  C  C154  1  0.98863000  0.59618000  0.67110000  1.0
  C  C155  1  0.51137000  0.40382000  0.17110000  1.0
  C  C156  1  0.12305000  0.06880000  0.80747000  1.0
  C  C157  1  0.37695000  0.93120000  0.30747000  1.0
  C  C158  1  0.87695000  0.56880000  0.69253000  1.0
  C  C159  1  0.62305000  0.43120000  0.19253000  1.0
  C  C160  1  0.18841000  0.15983000  0.81208000  1.0
  C  C161  1  0.31159000  0.84017000  0.31207000  1.0
  C  C162  1  0.81159000  0.65983000  0.68792000  1.0
  C  C163  1  0.68841000  0.34017000  0.18792000  1.0
  C  C164  1  0.12549000  0.22691000  0.85987000  1.0
  C  C165  1  0.37451000  0.77309000  0.35987000  1.0
  C  C166  1  0.87451000  0.72691000  0.64013000  1.0
  C  C167  1  0.62549000  0.27309000  0.14013000  1.0
  C  C168  1  0.00940000  0.20752000  0.83505000  1.0
  C  C169  1  0.49060000  0.79248000  0.33505000  1.0
  C  C170  1  0.99060000  0.70752000  0.66495000  1.0
  C  C171  1  0.50940000  0.29248000  0.16495000  1.0
  C  C172  1  0.93050000  0.05568000  0.77920000  1.0
  C  C173  1  0.56950000  0.94432000  0.27920000  1.0
  C  C174  1  0.06950000  0.55568000  0.72080000  1.0
  C  C175  1  0.43050000  0.44432000  0.22080000  1.0
  C  C176  1  0.15419000  0.33070000  0.84913000  1.0
  C  C177  1  0.34581000  0.66930000  0.34913000  1.0
  C  C178  1  0.84581000  0.83070000  0.65087000  1.0
  C  C179  1  0.65419000  0.16930000  0.15087000  1.0
  C  C180  1  0.14280000  0.19928000  0.93794000  1.0
  C  C181  1  0.35720000  0.80072000  0.43794000  1.0
  C  C182  1  0.85720000  0.69928000  0.56206000  1.0
  C  C183  1  0.64280000  0.30072000  0.06206000  1.0
  C  C184  1  0.98742000  0.25472000  0.76318000  1.0
  C  C185  1  0.51258000  0.74528000  0.26318000  1.0
  C  C186  1  0.01258000  0.75472000  0.73682000  1.0
  C  C187  1  0.48742000  0.24528000  0.23681000  1.0
  C  C188  1  0.92843000  0.24148000  0.88876000  1.0
  C  C189  1  0.57157000  0.75852000  0.38876000  1.0
  C  C190  1  0.07157000  0.74148000  0.61124000  1.0
  C  C191  1  0.42843000  0.25853000  0.11124000  1.0
  C  C192  1  0.44469000  0.93287000  0.73983000  1.0
  C  C193  1  0.05531000  0.06714000  0.23983000  1.0
  C  C194  1  0.55531000  0.43286000  0.76017000  1.0
  C  C195  1  0.94469000  0.56713000  0.26017000  1.0
  C  C196  1  0.36100000  0.92875000  0.79783000  1.0
  C  C197  1  0.13900000  0.07125000  0.29783000  1.0
  C  C198  1  0.63900000  0.42875000  0.70217000  1.0
  C  C199  1  0.86100000  0.57125000  0.20217000  1.0
  C  C200  1  0.27606000  0.86301000  0.76938000  1.0
  C  C201  1  0.22394000  0.13699000  0.26938000  1.0
  C  C202  1  0.72394000  0.36301000  0.73062000  1.0
  C  C203  1  0.77606000  0.63699000  0.23062000  1.0
  C  C204  1  0.32672000  0.80325000  0.71050000  1.0
  C  C205  1  0.17328000  0.19675000  0.21050000  1.0
  C  C206  1  0.67328000  0.30325000  0.78950000  1.0
  C  C207  1  0.82672000  0.69675000  0.28950000  1.0
  C  C208  1  0.44578000  0.82867000  0.70856000  1.0
  C  C209  1  0.05422000  0.17133000  0.20856000  1.0
  C  C210  1  0.55422000  0.32867000  0.79144000  1.0
  C  C211  1  0.94578000  0.67133000  0.29144000  1.0
  C  C212  1  0.55079000  0.95729000  0.77113000  1.0
  C  C213  1  0.94921000  0.04271000  0.27113000  1.0
  C  C214  1  0.44921000  0.45729000  0.72887000  1.0
  C  C215  1  0.05079000  0.54271000  0.22887000  1.0
  C  C216  1  0.30976000  0.69729000  0.71731000  1.0
  C  C217  1  0.19024000  0.30271000  0.21731000  1.0
  C  C218  1  0.69024000  0.19729000  0.78269000  1.0
  C  C219  1  0.80976000  0.80271000  0.28269000  1.0
  C  C220  1  0.41555000  0.00580000  0.68268000  1.0
  C  C221  1  0.08445000  0.99421000  0.18268000  1.0
  C  C222  1  0.58445000  0.50580000  0.81732000  1.0
  C  C223  1  0.91555000  0.49420000  0.31732000  1.0
  C  C224  1  0.50840000  0.76218000  0.75665000  1.0
  C  C225  1  0.99160000  0.23783000  0.25665000  1.0
  C  C226  1  0.49160000  0.26217000  0.74335000  1.0
  C  C227  1  0.00840000  0.73782000  0.24335000  1.0
  C  C228  1  0.49073000  0.82140000  0.63355000  1.0
  C  C229  1  0.00927000  0.17860000  0.13355000  1.0
  C  C230  1  0.50927000  0.32140000  0.86645000  1.0
  C  C231  1  0.99073000  0.67860000  0.36645000  1.0
  C  C232  1  0.56903000  0.76925000  0.01657000  1.0
  C  C233  1  0.93098000  0.23075000  0.51657000  1.0
  C  C234  1  0.43097000  0.26925000  0.48343000  1.0
  C  C235  1  0.06902000  0.73075000  0.98343000  1.0
  C  C236  1  0.52049000  0.75659000  0.95069000  1.0
  C  C237  1  0.97951000  0.24341000  0.45069000  1.0
  C  C238  1  0.47951000  0.25659000  0.54931000  1.0
  C  C239  1  0.02049000  0.74341000  0.04931000  1.0
  C  C240  1  0.45777000  0.67796000  0.93880000  1.0
  C  C241  1  0.04223000  0.32204000  0.43880000  1.0
  C  C242  1  0.54223000  0.17796000  0.56120000  1.0
  C  C243  1  0.95777000  0.82204000  0.06120000  1.0
  C  C244  1  0.44288000  0.61087000  0.99274000  1.0
  C  C245  1  0.05712000  0.38913000  0.49274000  1.0
  C  C246  1  0.55712000  0.11087000  0.50727000  1.0
  C  C247  1  0.94288000  0.88913000  0.00726000  1.0
  C  C248  1  0.49011000  0.62482000  0.05900000  1.0
  C  C249  1  0.00989000  0.37518000  0.55900000  1.0
  C  C250  1  0.50989000  0.12482000  0.44100000  1.0
  C  C251  1  0.99011000  0.87518000  0.94100000  1.0
  C  C252  1  0.55274000  0.70334000  0.07097000  1.0
  C  C253  1  0.94726000  0.29666000  0.57097000  1.0
  C  C254  1  0.44726000  0.20334000  0.42903000  1.0
  C  C255  1  0.05274000  0.79666000  0.92903000  1.0
  C  C256  1  0.63748000  0.85343000  0.02877000  1.0
  C  C257  1  0.86252000  0.14657000  0.52877000  1.0
  C  C258  1  0.36252000  0.35343000  0.47123000  1.0
  C  C259  1  0.13748000  0.64657000  0.97123000  1.0
  C  C260  1  0.37503000  0.52627000  0.98024000  1.0
  C  C261  1  0.12497000  0.47373000  0.48024000  1.0
  C  C262  1  0.62497000  0.02627000  0.51976000  1.0
  C  C263  1  0.87503000  0.97373000  0.01976000  1.0
  O  O264  1  0.84089000  0.03093000  0.80415000  1.0
  O  O265  1  0.65911000  0.96907000  0.30415000  1.0
  O  O266  1  0.15911000  0.53093000  0.69585000  1.0
  O  O267  1  0.34089000  0.46907000  0.19585000  1.0
  O  O268  1  0.94798000  0.04681000  0.71353000  1.0
  O  O269  1  0.55202000  0.95319000  0.21353000  1.0
  O  O270  1  0.05202000  0.54681000  0.78647000  1.0
  O  O271  1  0.44798000  0.45319000  0.28647000  1.0
  O  O272  1  0.13618000  0.39289000  0.89684000  1.0
  O  O273  1  0.36382000  0.60711000  0.39685000  1.0
  O  O274  1  0.86382000  0.89289000  0.60316000  1.0
  O  O275  1  0.63618000  0.10711000  0.10316000  1.0
  O  O276  1  0.19763000  0.35854000  0.79151000  1.0
  O  O277  1  0.30237000  0.64146000  0.29151000  1.0
  O  O278  1  0.80237000  0.85854000  0.70849000  1.0
  O  O279  1  0.69763000  0.14146000  0.20849000  1.0
  O  O280  1  0.62579000  0.97499000  0.72934000  1.0
  O  O281  1  0.87421000  0.02501000  0.22934000  1.0
  O  O282  1  0.37420000  0.47499000  0.77065000  1.0
  O  O283  1  0.12579000  0.52501000  0.27066000  1.0
  O  O284  1  0.56167000  0.95721000  0.83828000  1.0
  O  O285  1  0.93833000  0.04279000  0.33828000  1.0
  O  O286  1  0.43833000  0.45720000  0.66172000  1.0
  O  O287  1  0.06167000  0.54279000  0.16172000  1.0
  O  O288  1  0.32596000  0.64842000  0.66123000  1.0
  O  O289  1  0.17404000  0.35158000  0.16122000  1.0
  O  O290  1  0.67404000  0.14842000  0.83878000  1.0
  O  O291  1  0.82596000  0.85157000  0.33878000  1.0
  O  O292  1  0.28214000  0.66291000  0.77662000  1.0
  O  O293  1  0.21786000  0.33709000  0.27662000  1.0
  O  O294  1  0.71786000  0.16291000  0.72338000  1.0
  O  O295  1  0.78214000  0.83709000  0.22338000  1.0
  O  O296  1  0.65913000  0.87488000  0.09231000  1.0
  O  O297  1  0.84087000  0.12512000  0.59231000  1.0
  O  O298  1  0.34087000  0.37488000  0.40769000  1.0
  O  O299  1  0.15913000  0.62512000  0.90769000  1.0
  O  O300  1  0.67047000  0.89772000  0.97443000  1.0
  O  O301  1  0.82953000  0.10228000  0.47443000  1.0
  O  O302  1  0.32953000  0.39772000  0.52557000  1.0
  O  O303  1  0.17047000  0.60228000  0.02557000  1.0
  O  O304  1  0.35196000  0.47426000  0.03359000  1.0
  O  O305  1  0.14803000  0.52573000  0.53359000  1.0
  O  O306  1  0.64804000  0.97426000  0.46641000  1.0
  O  O307  1  0.85196000  0.02574000  0.96641000  1.0
  O  O308  1  0.34405000  0.50972000  0.91766000  1.0
  O  O309  1  0.15595000  0.49028000  0.41766000  1.0
  O  O310  1  0.65595000  0.00972000  0.58234000  1.0
  O  O311  1  0.84405000  0.99028000  0.08234000  1.0
  O  O312  1  0.77059000  0.85093000  0.84664000  1.0
  O  O313  1  0.72941000  0.14907000  0.34664000  1.0
  O  O314  1  0.22941000  0.35093000  0.65336000  1.0
  O  O315  1  0.27059000  0.64907000  0.15336000  1.0
  O  O316  1  0.61227000  0.09721000  0.96562000  1.0
  O  O317  1  0.88773000  0.90279000  0.46562000  1.0
  O  O318  1  0.38773000  0.59721000  0.53438000  1.0
  O  O319  1  0.11227000  0.40279000  0.03438000  1.0
