# generated using pymatgen
data_CuH9C9BrN5
_symmetry_space_group_name_H-M   'P 1'
_cell_length_a   7.38258000
_cell_length_b   7.67561000
_cell_length_c   9.92588000
_cell_angle_alpha   80.70160000
_cell_angle_beta   75.73570000
_cell_angle_gamma   84.88060000
_symmetry_Int_Tables_number   1
_chemical_formula_structural   CuH9C9BrN5
_chemical_formula_sum   'Cu2 H18 C18 Br2 N10'
_cell_volume   537.23575352
_cell_formula_units_Z   2
loop_
 _symmetry_equiv_pos_site_id
 _symmetry_equiv_pos_as_xyz
  1  'x, y, z'
loop_
 _atom_site_type_symbol
 _atom_site_label
 _atom_site_symmetry_multiplicity
 _atom_site_fract_x
 _atom_site_fract_y
 _atom_site_fract_z
 _atom_site_occupancy
  Cu  Cu0  1  0.16758000  0.33312000  0.38503000  1.0
  Cu  Cu1  1  0.83241000  0.66689000  0.61497000  1.0
  H  H2  1  0.53815000  0.48076000  0.29849000  1.0
  H  H3  1  0.46186000  0.51924000  0.70150000  1.0
  H  H4  1  0.70406000  0.70395000  0.10621000  1.0
  H  H5  1  0.29595000  0.29605000  0.89379000  1.0
  H  H6  1  0.53522000  0.86192000  0.92912000  1.0
  H  H7  1  0.46479000  0.13808000  0.07088000  1.0
  H  H8  1  0.06116000  0.54780000  0.14110000  1.0
  H  H9  1  0.93884000  0.45220000  0.85890000  1.0
  H  H10  1  0.12085000  0.26101000  0.69628000  1.0
  H  H11  1  0.87914000  0.73899000  0.30372000  1.0
  H  H12  1  0.92751000  0.16628000  0.66349000  1.0
  H  H13  1  0.07249000  0.83372000  0.33651000  1.0
  H  H14  1  0.15550000  0.00049000  0.48153000  1.0
  H  H15  1  0.84450000  0.99951000  0.51847000  1.0
  H  H16  1  0.46415000  0.12553000  0.37661000  1.0
  H  H17  1  0.53584000  0.87447000  0.62339000  1.0
  H  H18  1  0.42832000  0.26558000  0.51755000  1.0
  H  H19  1  0.57167000  0.73442000  0.48245000  1.0
  C  C20  1  0.46847000  0.55047000  0.21896000  1.0
  C  C21  1  0.53153000  0.44953000  0.78104000  1.0
  C  C22  1  0.55991000  0.67599000  0.11276000  1.0
  C  C23  1  0.44010000  0.32401000  0.88723000  1.0
  C  C24  1  0.46660000  0.76285000  0.01331000  1.0
  C  C25  1  0.53339000  0.23715000  0.98669000  1.0
  C  C26  1  0.20211000  0.58880000  0.13084000  1.0
  C  C27  1  0.79788000  0.41120000  0.86916000  1.0
  C  C28  1  0.28267000  0.72002000  0.02291000  1.0
  C  C29  1  0.71733000  0.27999000  0.97709000  1.0
  C  C30  1  0.17279000  0.81323000  0.92734000  1.0
  C  C31  1  0.82721000  0.18677000  0.07267000  1.0
  C  C32  1  0.07613000  0.14452000  0.66416000  1.0
  C  C33  1  0.92386000  0.85548000  0.33584000  1.0
  C  C34  1  0.19336000  0.11239000  0.52244000  1.0
  C  C35  1  0.80664000  0.88761000  0.47756000  1.0
  C  C36  1  0.36758000  0.18168000  0.46289000  1.0
  C  C37  1  0.63242000  0.81832000  0.53711000  1.0
  Br  Br38  1  0.83800000  0.38333000  0.40990000  1.0
  Br  Br39  1  0.16200000  0.61667000  0.59009000  1.0
  N  N40  1  0.29214000  0.50700000  0.22781000  1.0
  N  N41  1  0.70787000  0.49300000  0.77219000  1.0
  N  N42  1  0.08452000  0.99455000  0.77460000  1.0
  N  N43  1  0.91547000  0.00545000  0.22540000  1.0
  N  N44  1  0.23602000  0.94378000  0.82292000  1.0
  N  N45  1  0.76398000  0.05622000  0.17708000  1.0
  N  N46  1  0.93434000  0.90355000  0.84217000  1.0
  N  N47  1  0.06566000  0.09644000  0.15783000  1.0
  N  N48  1  0.98868000  0.78776000  0.93965000  1.0
  N  N49  1  0.01132000  0.21224000  0.06035000  1.0
