# generated using pymatgen
data_LaH13(C3O2)4
_symmetry_space_group_name_H-M   'P 1'
_cell_length_a   8.62948000
_cell_length_b   9.28852000
_cell_length_c   9.66143000
_cell_angle_alpha   111.47100000
_cell_angle_beta   96.17980000
_cell_angle_gamma   94.87180000
_symmetry_Int_Tables_number   1
_chemical_formula_structural   LaH13(C3O2)4
_chemical_formula_sum   'La2 H26 C24 O16'
_cell_volume   709.98431022
_cell_formula_units_Z   2
loop_
 _symmetry_equiv_pos_site_id
 _symmetry_equiv_pos_as_xyz
  1  'x, y, z'
loop_
 _atom_site_type_symbol
 _atom_site_label
 _atom_site_symmetry_multiplicity
 _atom_site_fract_x
 _atom_site_fract_y
 _atom_site_fract_z
 _atom_site_occupancy
  La  La0  1  0.46814000  0.74548000  0.02760000  1.0
  La  La1  1  0.53187000  0.25452000  0.97240000  1.0
  H  H2  1  0.30615000  0.04520000  0.17349000  1.0
  H  H3  1  0.69385000  0.95480000  0.82651000  1.0
  H  H4  1  0.36822000  0.99059000  0.30361000  1.0
  H  H5  1  0.63178000  0.00941000  0.69639000  1.0
  H  H6  1  0.45773000  0.61221000  0.27581000  1.0
  H  H7  1  0.54227000  0.38778000  0.72418000  1.0
  H  H8  1  0.31594000  0.70677000  0.29398000  1.0
  H  H9  1  0.68406000  0.29322000  0.70602000  1.0
  H  H10  1  0.11074000  0.43864000  0.17366000  1.0
  H  H11  1  0.88927000  0.56136000  0.82634000  1.0
  H  H12  1  0.26135000  0.60151000  0.65059000  1.0
  H  H13  1  0.73864000  0.39849000  0.34941000  1.0
  H  H14  1  0.95439000  0.85303000  0.47057000  1.0
  H  H15  1  0.04561000  0.14697000  0.52942000  1.0
  H  H16  1  0.87518000  0.77507000  0.21170000  1.0
  H  H17  1  0.12482000  0.22493000  0.78830000  1.0
  H  H18  1  0.00108000  0.66678000  0.09091000  1.0
  H  H19  1  0.99892000  0.33322000  0.90909000  1.0
  H  H20  1  0.21361000  0.26788000  0.37969000  1.0
  H  H21  1  0.78638000  0.73212000  0.62031000  1.0
  H  H22  1  0.38229000  0.40158000  0.48735000  1.0
  H  H23  1  0.61771000  0.59842000  0.51266000  1.0
  H  H24  1  0.02290000  0.93785000  0.73560000  1.0
  H  H25  1  0.97710000  0.06215000  0.26440000  1.0
  H  H26  1  0.06723000  0.78925000  0.80512000  1.0
  H  H27  1  0.93276000  0.21075000  0.19488000  1.0
  C  C28  1  0.02314000  0.64826000  0.30727000  1.0
  C  C29  1  0.97686000  0.35174000  0.69273000  1.0
  C  C30  1  0.11171000  0.52425000  0.28683000  1.0
  C  C31  1  0.88829000  0.47576000  0.71317000  1.0
  C  C32  1  0.19809000  0.50717000  0.41005000  1.0
  C  C33  1  0.80191000  0.49284000  0.58995000  1.0
  C  C34  1  0.19484000  0.61497000  0.55476000  1.0
  C  C35  1  0.80516000  0.38504000  0.44524000  1.0
  C  C36  1  0.10749000  0.73989000  0.57800000  1.0
  C  C37  1  0.89251000  0.26011000  0.42200000  1.0
  C  C38  1  0.02331000  0.75618000  0.45365000  1.0
  C  C39  1  0.97669000  0.24382000  0.54635000  1.0
  C  C40  1  0.92598000  0.66532000  0.17618000  1.0
  C  C41  1  0.07402000  0.33468000  0.82382000  1.0
  C  C42  1  0.79341000  0.53213000  0.09600000  1.0
  C  C43  1  0.20660000  0.46787000  0.90400000  1.0
  C  C44  1  0.29165000  0.37166000  0.38850000  1.0
  C  C45  1  0.70835000  0.62834000  0.61150000  1.0
  C  C46  1  0.37017000  0.33299000  0.24912000  1.0
  C  C47  1  0.62983000  0.66701000  0.75088000  1.0
  C  C48  1  0.10460000  0.85370000  0.73634000  1.0
  C  C49  1  0.89540000  0.14630000  0.26366000  1.0
  C  C50  1  0.26829000  0.94181000  0.80759000  1.0
  C  C51  1  0.73171000  0.05819000  0.19241000  1.0
  O  O52  1  0.65734000  0.56338000  0.05593000  1.0
  O  O53  1  0.34266000  0.43662000  0.94407000  1.0
  O  O54  1  0.81619000  0.39145000  0.06652000  1.0
  O  O55  1  0.18381000  0.60855000  0.93348000  1.0
  O  O56  1  0.32139000  0.20678000  0.13544000  1.0
  O  O57  1  0.67861000  0.79321000  0.86456000  1.0
  O  O58  1  0.48459000  0.42843000  0.24554000  1.0
  O  O59  1  0.51542000  0.57157000  0.75446000  1.0
  O  O60  1  0.31078000  0.06583000  0.78674000  1.0
  O  O61  1  0.68922000  0.93417000  0.21327000  1.0
  O  O62  1  0.35799000  0.88644000  0.88355000  1.0
  O  O63  1  0.64200000  0.11356000  0.11645000  1.0
  O  O64  1  0.31309000  0.95137000  0.20093000  1.0
  O  O65  1  0.68691000  0.04863000  0.79907000  1.0
  O  O66  1  0.42524000  0.71317000  0.27551000  1.0
  O  O67  1  0.57476000  0.28682000  0.72449000  1.0
