# generated using pymatgen
data_CdH26C26(N2O3)2
_symmetry_space_group_name_H-M   'P 1'
_cell_length_a   8.38170000
_cell_length_b   10.52970000
_cell_length_c   14.62300000
_cell_angle_alpha   100.49000000
_cell_angle_beta   100.97900000
_cell_angle_gamma   95.41270000
_symmetry_Int_Tables_number   1
_chemical_formula_structural   CdH26C26(N2O3)2
_chemical_formula_sum   'Cd2 H52 C52 N8 O12'
_cell_volume   1234.60752816
_cell_formula_units_Z   2
loop_
 _symmetry_equiv_pos_site_id
 _symmetry_equiv_pos_as_xyz
  1  'x, y, z'
loop_
 _atom_site_type_symbol
 _atom_site_label
 _atom_site_symmetry_multiplicity
 _atom_site_fract_x
 _atom_site_fract_y
 _atom_site_fract_z
 _atom_site_occupancy
  Cd  Cd0  1  0.66381000  0.89534000  0.54513000  1.0
  Cd  Cd1  1  0.33619000  0.10467000  0.45487000  1.0
  H  H2  1  0.33530000  0.65772000  0.76636000  1.0
  H  H3  1  0.66471000  0.34229000  0.23365000  1.0
  H  H4  1  0.96126000  0.12363000  0.30846000  1.0
  H  H5  1  0.03874000  0.87637000  0.69154000  1.0
  H  H6  1  0.78326000  0.08836000  0.74689000  1.0
  H  H7  1  0.21675000  0.91164000  0.25311000  1.0
  H  H8  1  0.76919000  0.09552000  0.91982000  1.0
  H  H9  1  0.23082000  0.90448000  0.08018000  1.0
  H  H10  1  0.58934000  0.92323000  0.95942000  1.0
  H  H11  1  0.41067000  0.07677000  0.04058000  1.0
  H  H12  1  0.45092000  0.75204000  0.65796000  1.0
  H  H13  1  0.54908000  0.24796000  0.34204000  1.0
  H  H14  1  0.33121000  0.47455000  0.85580000  1.0
  H  H15  1  0.66877000  0.52545000  0.14420000  1.0
  H  H16  1  0.16159000  0.55922000  0.85750000  1.0
  H  H17  1  0.83840000  0.44080000  0.14250000  1.0
  H  H18  1  0.39468000  0.51273000  0.03408000  1.0
  H  H19  1  0.60531000  0.48727000  0.96591000  1.0
  H  H20  1  0.22729000  0.60029000  0.03807000  1.0
  H  H21  1  0.77271000  0.39971000  0.96193000  1.0
  H  H22  1  0.03628000  0.39919000  0.94567000  1.0
  H  H23  1  0.96371000  0.60082000  0.05433000  1.0
  H  H24  1  0.20566000  0.31242000  0.94195000  1.0
  H  H25  1  0.79433000  0.68759000  0.05804000  1.0
  H  H26  1  0.11233000  0.44292000  0.12617000  1.0
  H  H27  1  0.88766000  0.55708000  0.87382000  1.0
  H  H28  1  0.27436000  0.34941000  0.11869000  1.0
  H  H29  1  0.72564000  0.65059000  0.88131000  1.0
  H  H30  1  0.91177000  0.24654000  0.03330000  1.0
  H  H31  1  0.08823000  0.75345000  0.96670000  1.0
  H  H32  1  0.07473000  0.15326000  0.02966000  1.0
  H  H33  1  0.92528000  0.84674000  0.97034000  1.0
  H  H34  1  0.14155000  0.19500000  0.20919000  1.0
  H  H35  1  0.85846000  0.80500000  0.79080000  1.0
  H  H36  1  0.98381000  0.29130000  0.21344000  1.0
  H  H37  1  0.01619000  0.70869000  0.78656000  1.0
  H  H38  1  0.67527000  0.86187000  0.12218000  1.0
  H  H39  1  0.32473000  0.13813000  0.87782000  1.0
  H  H40  1  0.49347000  0.69945000  0.17145000  1.0
  H  H41  1  0.50653000  0.30055000  0.82855000  1.0
  H  H42  1  0.49866000  0.71437000  0.34722000  1.0
  H  H43  1  0.50134000  0.28563000  0.65278000  1.0
  H  H44  1  0.85513000  0.03751000  0.41950000  1.0
  H  H45  1  0.14488000  0.96249000  0.58050000  1.0
  H  H46  1  0.12914000  0.65808000  0.63623000  1.0
  H  H47  1  0.87086000  0.34192000  0.36376000  1.0
  H  H48  1  0.25846000  0.45949000  0.66995000  1.0
  H  H49  1  0.74153000  0.54052000  0.33005000  1.0
  H  H50  1  0.08123000  0.24727000  0.64260000  1.0
  H  H51  1  0.91876000  0.75273000  0.35741000  1.0
  H  H52  1  0.65823000  0.42374000  0.53980000  1.0
  H  H53  1  0.34177000  0.57626000  0.46020000  1.0
  C  C54  1  0.70468000  0.01602000  0.76861000  1.0
  C  C55  1  0.29532000  0.98398000  0.23139000  1.0
  C  C56  1  0.69628000  0.01910000  0.86299000  1.0
  C  C57  1  0.30372000  0.98090000  0.13701000  1.0
  C  C58  1  0.59533000  0.92253000  0.88598000  1.0
  C  C59  1  0.40467000  0.07747000  0.11402000  1.0
  C  C60  1  0.50466000  0.82289000  0.81216000  1.0
  C  C61  1  0.49535000  0.17710000  0.18784000  1.0
  C  C62  1  0.51833000  0.82681000  0.71852000  1.0
  C  C63  1  0.48167000  0.17319000  0.28148000  1.0
  C  C64  1  0.39452000  0.68003000  0.91085000  1.0
  C  C65  1  0.60548000  0.31997000  0.08915000  1.0
  C  C66  1  0.28364000  0.55316000  0.89940000  1.0
  C  C67  1  0.71635000  0.44685000  0.10060000  1.0
  C  C68  1  0.27125000  0.51950000  0.99474000  1.0
  C  C69  1  0.72874000  0.48050000  0.00526000  1.0
  C  C70  1  0.16040000  0.39273000  0.98489000  1.0
  C  C71  1  0.83959000  0.60727000  0.01510000  1.0
  C  C72  1  0.15076000  0.36015000  0.08116000  1.0
  C  C73  1  0.84924000  0.63986000  0.91884000  1.0
  C  C74  1  0.03432000  0.23644000  0.07245000  1.0
  C  C75  1  0.96569000  0.76356000  0.92755000  1.0
  C  C76  1  0.02105000  0.20768000  0.16896000  1.0
  C  C77  1  0.97896000  0.79232000  0.83104000  1.0
  C  C78  1  0.90042000  0.08783000  0.16214000  1.0
  C  C79  1  0.09959000  0.91216000  0.83786000  1.0
  C  C80  1  0.78148000  0.96296000  0.26696000  1.0
  C  C81  1  0.21853000  0.03704000  0.73304000  1.0
  C  C82  1  0.67809000  0.86494000  0.19697000  1.0
  C  C83  1  0.32192000  0.13506000  0.80303000  1.0
  C  C84  1  0.57638000  0.77415000  0.22548000  1.0
  C  C85  1  0.42362000  0.22585000  0.77452000  1.0
  C  C86  1  0.57729000  0.78208000  0.32146000  1.0
  C  C87  1  0.42271000  0.21792000  0.67855000  1.0
  C  C88  1  0.77626000  0.96386000  0.36264000  1.0
  C  C89  1  0.22375000  0.03614000  0.63736000  1.0
  C  C90  1  0.80969000  0.67251000  0.57248000  1.0
  C  C91  1  0.19030000  0.32749000  0.42752000  1.0
  C  C92  1  0.88572000  0.55407000  0.59156000  1.0
  C  C93  1  0.11427000  0.44593000  0.40844000  1.0
  C  C94  1  0.05512000  0.56379000  0.62688000  1.0
  C  C95  1  0.94487000  0.43621000  0.37312000  1.0
  C  C96  1  0.12600000  0.45402000  0.64551000  1.0
  C  C97  1  0.87399000  0.54598000  0.35449000  1.0
  C  C98  1  0.02836000  0.33392000  0.62857000  1.0
  C  C99  1  0.97163000  0.66608000  0.37144000  1.0
  C  C100  1  0.86019000  0.32165000  0.58896000  1.0
  C  C101  1  0.13980000  0.67835000  0.41104000  1.0
  C  C102  1  0.78889000  0.43220000  0.57110000  1.0
  C  C103  1  0.21111000  0.56780000  0.42889000  1.0
  C  C104  1  0.76029000  0.18841000  0.56121000  1.0
  C  C105  1  0.23971000  0.81158000  0.43879000  1.0
  N  N106  1  0.61550000  0.92115000  0.69786000  1.0
  N  N107  1  0.38451000  0.07885000  0.30214000  1.0
  N  N108  1  0.40273000  0.71823000  0.82629000  1.0
  N  N109  1  0.59728000  0.28177000  0.17371000  1.0
  N  N110  1  0.88654000  0.06150000  0.24914000  1.0
  N  N111  1  0.11347000  0.93850000  0.75087000  1.0
  N  N112  1  0.67609000  0.87680000  0.38832000  1.0
  N  N113  1  0.32391000  0.12321000  0.61168000  1.0
  O  O114  1  0.47234000  0.74207000  0.98895000  1.0
  O  O115  1  0.52766000  0.25793000  0.01105000  1.0
  O  O116  1  0.82121000  0.02202000  0.08524000  1.0
  O  O117  1  0.17881000  0.97797000  0.91477000  1.0
  O  O118  1  0.90176000  0.78329000  0.59315000  1.0
  O  O119  1  0.09824000  0.21671000  0.40685000  1.0
  O  O120  1  0.65749000  0.66089000  0.53700000  1.0
  O  O121  1  0.34251000  0.33911000  0.46299000  1.0
  O  O122  1  0.62221000  0.17468000  0.50459000  1.0
  O  O123  1  0.37778000  0.82531000  0.49541000  1.0
  O  O124  1  0.82450000  0.09638000  0.59467000  1.0
  O  O125  1  0.17550000  0.90362000  0.40533000  1.0
