# generated using pymatgen
data_CuH11C8BrN
_symmetry_space_group_name_H-M   'P 1'
_cell_length_a   3.94828000
_cell_length_b   14.24140000
_cell_length_c   15.69870000
_cell_angle_alpha   89.99950000
_cell_angle_beta   90.00100000
_cell_angle_gamma   89.99960000
_symmetry_Int_Tables_number   1
_chemical_formula_structural   CuH11C8BrN
_chemical_formula_sum   'Cu4 H44 C32 Br4 N4'
_cell_volume   882.72274830
_cell_formula_units_Z   4
loop_
 _symmetry_equiv_pos_site_id
 _symmetry_equiv_pos_as_xyz
  1  'x, y, z'
loop_
 _atom_site_type_symbol
 _atom_site_label
 _atom_site_symmetry_multiplicity
 _atom_site_fract_x
 _atom_site_fract_y
 _atom_site_fract_z
 _atom_site_occupancy
  Cu  Cu0  1  0.23554000  0.55576000  0.98108000  1.0
  Cu  Cu1  1  0.23570000  0.05575000  0.51893000  1.0
  Cu  Cu2  1  0.76436000  0.55576000  0.48108000  1.0
  Cu  Cu3  1  0.76443000  0.05576000  0.01892000  1.0
  H  H4  1  0.16399000  0.46620000  0.12420000  1.0
  H  H5  1  0.16407000  0.96619000  0.37579000  1.0
  H  H6  1  0.83595000  0.46619000  0.62420000  1.0
  H  H7  1  0.83601000  0.96619000  0.87580000  1.0
  H  H8  1  0.38405000  0.45784000  0.22395000  1.0
  H  H9  1  0.38412000  0.95783000  0.27604000  1.0
  H  H10  1  0.61588000  0.45783000  0.72395000  1.0
  H  H11  1  0.61596000  0.95784000  0.77605000  1.0
  H  H12  1  0.59441000  0.43133000  0.12627000  1.0
  H  H13  1  0.59450000  0.93132000  0.37372000  1.0
  H  H14  1  0.40552000  0.43133000  0.62627000  1.0
  H  H15  1  0.40556000  0.93133000  0.87373000  1.0
  H  H16  1  0.75903000  0.58331000  0.27074000  1.0
  H  H17  1  0.75905000  0.08332000  0.22925000  1.0
  H  H18  1  0.24093000  0.58330000  0.77074000  1.0
  H  H19  1  0.24101000  0.08331000  0.72925000  1.0
  H  H20  1  0.11615000  0.71353000  0.31511000  1.0
  H  H21  1  0.11615000  0.21354000  0.18488000  1.0
  H  H22  1  0.88384000  0.71352000  0.81513000  1.0
  H  H23  1  0.88386000  0.21353000  0.68487000  1.0
  H  H24  1  0.82668000  0.80891000  0.31051000  1.0
  H  H25  1  0.82667000  0.30891000  0.18949000  1.0
  H  H26  1  0.17327000  0.80890000  0.81053000  1.0
  H  H27  1  0.17333000  0.30891000  0.68948000  1.0
  H  H28  1  0.19022000  0.81026000  0.24481000  1.0
  H  H29  1  0.19021000  0.31027000  0.25519000  1.0
  H  H30  1  0.80974000  0.81025000  0.74483000  1.0
  H  H31  1  0.80980000  0.31026000  0.75518000  1.0
  H  H32  1  0.78699000  0.83430000  0.11743000  1.0
  H  H33  1  0.78697000  0.33431000  0.38256000  1.0
  H  H34  1  0.21300000  0.83430000  0.61745000  1.0
  H  H35  1  0.21303000  0.33431000  0.88256000  1.0
  H  H36  1  0.55276000  0.72560000  0.92934000  1.0
  H  H37  1  0.55278000  0.22559000  0.57065000  1.0
  H  H38  1  0.44719000  0.72562000  0.42936000  1.0
  H  H39  1  0.44725000  0.22560000  0.07065000  1.0
  H  H40  1  0.15681000  0.75671000  0.97407000  1.0
  H  H41  1  0.15682000  0.25669000  0.52593000  1.0
  H  H42  1  0.84315000  0.75671000  0.47408000  1.0
  H  H43  1  0.84320000  0.25670000  0.02593000  1.0
  H  H44  1  0.50614000  0.83540000  0.98413000  1.0
  H  H45  1  0.50615000  0.33540000  0.51587000  1.0
  H  H46  1  0.49382000  0.83541000  0.48415000  1.0
  H  H47  1  0.49389000  0.33540000  0.01587000  1.0
  C  C48  1  0.51426000  0.57805000  0.14858000  1.0
  C  C49  1  0.51430000  0.07803000  0.35142000  1.0
  C  C50  1  0.48570000  0.57803000  0.64858000  1.0
  C  C51  1  0.48577000  0.07804000  0.85142000  1.0
  C  C52  1  0.40728000  0.47777000  0.15669000  1.0
  C  C53  1  0.40735000  0.97776000  0.34330000  1.0
  C  C54  1  0.59266000  0.47776000  0.65669000  1.0
  C  C55  1  0.59272000  0.97777000  0.84330000  1.0
  C  C56  1  0.69698000  0.62233000  0.21303000  1.0
  C  C57  1  0.69701000  0.12234000  0.28696000  1.0
  C  C58  1  0.30299000  0.62233000  0.71304000  1.0
  C  C59  1  0.30304000  0.12233000  0.78697000  1.0
  C  C60  1  0.80138000  0.71542000  0.20361000  1.0
  C  C61  1  0.80137000  0.21541000  0.29639000  1.0
  C  C62  1  0.19860000  0.71541000  0.70362000  1.0
  C  C63  1  0.19866000  0.21542000  0.79638000  1.0
  C  C64  1  0.99593000  0.76440000  0.27227000  1.0
  C  C65  1  0.99594000  0.26440000  0.22772000  1.0
  C  C66  1  0.00404000  0.76438000  0.77229000  1.0
  C  C67  1  0.00408000  0.26439000  0.72772000  1.0
  C  C68  1  0.71235000  0.76148000  0.12813000  1.0
  C  C69  1  0.71237000  0.26148000  0.37187000  1.0
  C  C70  1  0.28762000  0.76148000  0.62815000  1.0
  C  C71  1  0.28766000  0.26148000  0.87187000  1.0
  C  C72  1  0.52932000  0.71456000  0.06545000  1.0
  C  C73  1  0.52933000  0.21454000  0.43455000  1.0
  C  C74  1  0.47065000  0.71455000  0.56546000  1.0
  C  C75  1  0.47068000  0.21455000  0.93454000  1.0
  C  C76  1  0.43218000  0.76123000  0.98371000  1.0
  C  C77  1  0.43219000  0.26122000  0.51628000  1.0
  C  C78  1  0.56778000  0.76123000  0.48373000  1.0
  C  C79  1  0.56784000  0.26122000  0.01629000  1.0
  Br  Br80  1  0.78164000  0.50136000  0.90372000  1.0
  Br  Br81  1  0.78180000  0.00138000  0.59631000  1.0
  Br  Br82  1  0.21827000  0.50138000  0.40371000  1.0
  Br  Br83  1  0.21833000  0.00137000  0.09629000  1.0
  N  N84  1  0.43304000  0.62350000  0.07543000  1.0
  N  N85  1  0.43313000  0.12349000  0.42457000  1.0
  N  N86  1  0.56688000  0.62349000  0.57543000  1.0
  N  N87  1  0.56694000  0.12349000  0.92457000  1.0
