# generated using pymatgen
data_CuH19C18N3O4
_symmetry_space_group_name_H-M   'P 1'
_cell_length_a   8.49528000
_cell_length_b   8.76339000
_cell_length_c   12.32240000
_cell_angle_alpha   99.29280000
_cell_angle_beta   95.00080000
_cell_angle_gamma   106.29500000
_symmetry_Int_Tables_number   1
_chemical_formula_structural   CuH19C18N3O4
_chemical_formula_sum   'Cu2 H38 C36 N6 O8'
_cell_volume   860.42378406
_cell_formula_units_Z   2
loop_
 _symmetry_equiv_pos_site_id
 _symmetry_equiv_pos_as_xyz
  1  'x, y, z'
loop_
 _atom_site_type_symbol
 _atom_site_label
 _atom_site_symmetry_multiplicity
 _atom_site_fract_x
 _atom_site_fract_y
 _atom_site_fract_z
 _atom_site_occupancy
  Cu  Cu0  1  0.50435000  0.97334000  0.10155000  1.0
  Cu  Cu1  1  0.49564000  0.02664000  0.89846000  1.0
  H  H2  1  0.25806000  0.83592000  0.60444000  1.0
  H  H3  1  0.74195000  0.16410000  0.39557000  1.0
  H  H4  1  0.11428000  0.19789000  0.43458000  1.0
  H  H5  1  0.88572000  0.80214000  0.56541000  1.0
  H  H6  1  0.96445000  0.40066000  0.10920000  1.0
  H  H7  1  0.03554000  0.59933000  0.89079000  1.0
  H  H8  1  0.14336000  0.38058000  0.76926000  1.0
  H  H9  1  0.85668000  0.61941000  0.23074000  1.0
  H  H10  1  0.24192000  0.66594000  0.74149000  1.0
  H  H11  1  0.75809000  0.33406000  0.25851000  1.0
  H  H12  1  0.32943000  0.08514000  0.29237000  1.0
  H  H13  1  0.67060000  0.91488000  0.70764000  1.0
  H  H14  1  0.46048000  0.50452000  0.11864000  1.0
  H  H15  1  0.53951000  0.49547000  0.88136000  1.0
  H  H16  1  0.21093000  0.98674000  0.45666000  1.0
  H  H17  1  0.78909000  0.01329000  0.54335000  1.0
  H  H18  1  0.02891000  0.23804000  0.24330000  1.0
  H  H19  1  0.97108000  0.76194000  0.75669000  1.0
  H  H20  1  0.11160000  0.12751000  0.14253000  1.0
  H  H21  1  0.88838000  0.87248000  0.85746000  1.0
  H  H22  1  0.48815000  0.64049000  0.42098000  1.0
  H  H23  1  0.51184000  0.35952000  0.57903000  1.0
  H  H24  1  0.98895000  0.32666000  0.90983000  1.0
  H  H25  1  0.01104000  0.67334000  0.09016000  1.0
  H  H26  1  0.08699000  0.18238000  0.93801000  1.0
  H  H27  1  0.91299000  0.81761000  0.06198000  1.0
  H  H28  1  0.33943000  0.35615000  0.26337000  1.0
  H  H29  1  0.66056000  0.64383000  0.73662000  1.0
  H  H30  1  0.23764000  0.49619000  0.22823000  1.0
  H  H31  1  0.76236000  0.50379000  0.77177000  1.0
  H  H32  1  0.59276000  0.75308000  0.25977000  1.0
  H  H33  1  0.40724000  0.24692000  0.74024000  1.0
  H  H34  1  0.20520000  0.47181000  0.39167000  1.0
  H  H35  1  0.79479000  0.52821000  0.60834000  1.0
  H  H36  1  0.21931000  0.54966000  0.03162000  1.0
  H  H37  1  0.78067000  0.45033000  0.96838000  1.0
  H  H38  1  0.29968000  0.43985000  0.92881000  1.0
  H  H39  1  0.70031000  0.56015000  0.07119000  1.0
  C  C40  1  0.14518000  0.30382000  0.50204000  1.0
  C  C41  1  0.85484000  0.69619000  0.49795000  1.0
  C  C42  1  0.33754000  0.80323000  0.45184000  1.0
  C  C43  1  0.66247000  0.19679000  0.54818000  1.0
  C  C44  1  0.98323000  0.28217000  0.07724000  1.0
  C  C45  1  0.01675000  0.71781000  0.92275000  1.0
  C  C46  1  0.16003000  0.40496000  0.68616000  1.0
  C  C47  1  0.84000000  0.59503000  0.31384000  1.0
  C  C48  1  0.21447000  0.56455000  0.67142000  1.0
  C  C49  1  0.78555000  0.43545000  0.32858000  1.0
  C  C50  1  0.80720000  0.16615000  0.05096000  1.0
  C  C51  1  0.19279000  0.83384000  0.94903000  1.0
  C  C52  1  0.23399000  0.59353000  0.56364000  1.0
  C  C53  1  0.76602000  0.40648000  0.43636000  1.0
  C  C54  1  0.36097000  0.98674000  0.32419000  1.0
  C  C55  1  0.63905000  0.01328000  0.67582000  1.0
  C  C56  1  0.34842000  0.39898000  0.09537000  1.0
  C  C57  1  0.65156000  0.60100000  0.90463000  1.0
  C  C58  1  0.29574000  0.93236000  0.41515000  1.0
  C  C59  1  0.70428000  0.06767000  0.58487000  1.0
  C  C60  1  0.09235000  0.24637000  0.16954000  1.0
  C  C61  1  0.90764000  0.75361000  0.83044000  1.0
  C  C62  1  0.41147000  0.25438000  0.05737000  1.0
  C  C63  1  0.58852000  0.74561000  0.94263000  1.0
  C  C64  1  0.44619000  0.73679000  0.39432000  1.0
  C  C65  1  0.55381000  0.26322000  0.60569000  1.0
  C  C66  1  0.06952000  0.29930000  0.97375000  1.0
  C  C67  1  0.93047000  0.70070000  0.02625000  1.0
  C  C68  1  0.25903000  0.37947000  0.19734000  1.0
  C  C69  1  0.74095000  0.62051000  0.80266000  1.0
  C  C70  1  0.50616000  0.80057000  0.30466000  1.0
  C  C71  1  0.49384000  0.19943000  0.69535000  1.0
  C  C72  1  0.19803000  0.45770000  0.47720000  1.0
  C  C73  1  0.80197000  0.54231000  0.52280000  1.0
  C  C74  1  0.23692000  0.43079000  0.00266000  1.0
  C  C75  1  0.76308000  0.56920000  0.99733000  1.0
  N  N76  1  0.46481000  0.92299000  0.26852000  1.0
  N  N77  1  0.53520000  0.07703000  0.73149000  1.0
  N  N78  1  0.27748000  0.75071000  0.54510000  1.0
  N  N79  1  0.72253000  0.24931000  0.45491000  1.0
  N  N80  1  0.12546000  0.27354000  0.60430000  1.0
  N  N81  1  0.87457000  0.72647000  0.39570000  1.0
  O  O82  1  0.44488000  0.17898000  0.13217000  1.0
  O  O83  1  0.55514000  0.82102000  0.86783000  1.0
  O  O84  1  0.42793000  0.22206000  0.95527000  1.0
  O  O85  1  0.57202000  0.77791000  0.04473000  1.0
  O  O86  1  0.73423000  0.14839000  0.95307000  1.0
  O  O87  1  0.26576000  0.85164000  0.04693000  1.0
  O  O88  1  0.74507000  0.10286000  0.12970000  1.0
  O  O89  1  0.25492000  0.89710000  0.87029000  1.0
