# generated using pymatgen
data_AgH14C15S(NO)3
_symmetry_space_group_name_H-M   'P 1'
_cell_length_a   6.73964000
_cell_length_b   9.04817000
_cell_length_c   24.24320000
_cell_angle_alpha   88.99620000
_cell_angle_beta   89.99920000
_cell_angle_gamma   89.99950000
_symmetry_Int_Tables_number   1
_chemical_formula_structural   AgH14C15S(NO)3
_chemical_formula_sum   'Ag4 H56 C60 S4 N12 O12'
_cell_volume   1478.15760177
_cell_formula_units_Z   4
loop_
 _symmetry_equiv_pos_site_id
 _symmetry_equiv_pos_as_xyz
  1  'x, y, z'
loop_
 _atom_site_type_symbol
 _atom_site_label
 _atom_site_symmetry_multiplicity
 _atom_site_fract_x
 _atom_site_fract_y
 _atom_site_fract_z
 _atom_site_occupancy
  Ag  Ag0  1  0.89803000  0.93878000  0.66185000  1.0
  Ag  Ag1  1  0.39802000  0.06122000  0.83815000  1.0
  Ag  Ag2  1  0.10199000  0.06123000  0.33816000  1.0
  Ag  Ag3  1  0.60198000  0.93878000  0.16184000  1.0
  H  H4  1  0.22970000  0.26075000  0.90726000  1.0
  H  H5  1  0.72972000  0.73925000  0.59274000  1.0
  H  H6  1  0.77029000  0.73923000  0.09274000  1.0
  H  H7  1  0.27028000  0.26076000  0.40726000  1.0
  H  H8  1  0.44932000  0.47825000  0.90657000  1.0
  H  H9  1  0.94936000  0.52175000  0.59342000  1.0
  H  H10  1  0.55067000  0.52174000  0.09343000  1.0
  H  H11  1  0.05065000  0.47826000  0.40658000  1.0
  H  H12  1  0.34788000  0.70919000  0.85531000  1.0
  H  H13  1  0.84789000  0.29081000  0.64468000  1.0
  H  H14  1  0.65213000  0.29079000  0.14470000  1.0
  H  H15  1  0.15212000  0.70921000  0.35531000  1.0
  H  H16  1  0.10894000  0.84791000  0.80158000  1.0
  H  H17  1  0.60896000  0.15209000  0.69842000  1.0
  H  H18  1  0.89108000  0.15208000  0.19842000  1.0
  H  H19  1  0.39106000  0.84791000  0.30158000  1.0
  H  H20  1  0.55680000  0.64683000  0.75429000  1.0
  H  H21  1  0.05682000  0.35318000  0.74571000  1.0
  H  H22  1  0.44321000  0.35319000  0.24571000  1.0
  H  H23  1  0.94320000  0.64681000  0.25429000  1.0
  H  H24  1  0.65050000  0.41532000  0.80145000  1.0
  H  H25  1  0.15052000  0.58469000  0.69855000  1.0
  H  H26  1  0.34949000  0.58469000  0.19855000  1.0
  H  H27  1  0.84948000  0.41530000  0.30145000  1.0
  H  H28  1  0.22983000  0.14871000  0.61425000  1.0
  H  H29  1  0.72979000  0.85127000  0.88575000  1.0
  H  H30  1  0.77019000  0.85131000  0.38575000  1.0
  H  H31  1  0.27018000  0.14872000  0.11426000  1.0
  H  H32  1  0.73149000  0.18671000  0.47018000  1.0
  H  H33  1  0.23144000  0.81331000  0.02983000  1.0
  H  H34  1  0.26853000  0.81330000  0.52983000  1.0
  H  H35  1  0.76851000  0.18669000  0.97017000  1.0
  H  H36  1  0.68185000  0.01684000  0.55322000  1.0
  H  H37  1  0.18180000  0.98317000  0.94678000  1.0
  H  H38  1  0.31818000  0.98316000  0.44679000  1.0
  H  H39  1  0.81816000  0.01683000  0.05321000  1.0
  H  H40  1  0.35704000  0.38312000  0.49368000  1.0
  H  H41  1  0.85700000  0.61687000  0.00633000  1.0
  H  H42  1  0.64295000  0.61689000  0.50632000  1.0
  H  H43  1  0.14294000  0.38311000  0.99367000  1.0
  H  H44  1  0.42963000  0.33172000  0.56261000  1.0
  H  H45  1  0.92959000  0.66827000  0.93739000  1.0
  H  H46  1  0.57037000  0.66830000  0.43739000  1.0
  H  H47  1  0.07037000  0.33171000  0.06261000  1.0
  H  H48  1  0.25887000  0.47836000  0.55048000  1.0
  H  H49  1  0.75885000  0.52164000  0.94952000  1.0
  H  H50  1  0.74113000  0.52166000  0.44952000  1.0
  H  H51  1  0.24112000  0.47834000  0.05048000  1.0
  H  H52  1  0.62104000  0.88417000  0.73360000  1.0
  H  H53  1  0.12105000  0.11584000  0.76640000  1.0
  H  H54  1  0.37897000  0.11583000  0.26640000  1.0
  H  H55  1  0.87896000  0.88416000  0.23360000  1.0
  H  H56  1  0.79774000  0.98594000  0.76522000  1.0
  H  H57  1  0.29775000  0.01406000  0.73478000  1.0
  H  H58  1  0.20228000  0.01406000  0.23478000  1.0
  H  H59  1  0.70227000  0.98593000  0.26522000  1.0
  C  C60  1  0.00386000  0.36461000  0.85773000  1.0
  C  C61  1  0.50388000  0.63540000  0.64227000  1.0
  C  C62  1  0.99613000  0.63539000  0.14227000  1.0
  C  C63  1  0.49613000  0.36461000  0.35773000  1.0
  C  C64  1  0.18325000  0.36100000  0.88529000  1.0
  C  C65  1  0.68328000  0.63900000  0.61471000  1.0
  C  C66  1  0.81673000  0.63899000  0.11472000  1.0
  C  C67  1  0.31673000  0.36100000  0.38529000  1.0
  C  C68  1  0.30813000  0.48628000  0.88500000  1.0
  C  C69  1  0.80816000  0.51372000  0.61500000  1.0
  C  C70  1  0.69186000  0.51370000  0.11500000  1.0
  C  C71  1  0.19185000  0.48630000  0.38500000  1.0
  C  C72  1  0.25092000  0.61312000  0.85726000  1.0
  C  C73  1  0.75093000  0.38688000  0.64274000  1.0
  C  C74  1  0.74909000  0.38686000  0.14274000  1.0
  C  C75  1  0.24907000  0.61313000  0.35726000  1.0
  C  C76  1  0.06542000  0.62225000  0.82968000  1.0
  C  C77  1  0.56544000  0.37775000  0.67033000  1.0
  C  C78  1  0.93459000  0.37774000  0.17033000  1.0
  C  C79  1  0.43457000  0.62225000  0.32967000  1.0
  C  C80  1  0.00808000  0.75354000  0.80130000  1.0
  C  C81  1  0.50809000  0.24646000  0.69870000  1.0
  C  C82  1  0.99194000  0.24646000  0.19871000  1.0
  C  C83  1  0.49193000  0.75354000  0.30130000  1.0
  C  C84  1  0.82936000  0.76108000  0.77347000  1.0
  C  C85  1  0.32937000  0.23892000  0.72653000  1.0
  C  C86  1  0.17066000  0.23893000  0.22654000  1.0
  C  C87  1  0.67065000  0.76107000  0.27346000  1.0
  C  C88  1  0.70037000  0.63763000  0.77464000  1.0
  C  C89  1  0.20040000  0.36238000  0.72537000  1.0
  C  C90  1  0.29964000  0.36238000  0.22537000  1.0
  C  C91  1  0.79962000  0.63761000  0.27463000  1.0
  C  C92  1  0.75278000  0.50821000  0.80152000  1.0
  C  C93  1  0.25281000  0.49180000  0.69848000  1.0
  C  C94  1  0.24722000  0.49180000  0.19848000  1.0
  C  C95  1  0.74721000  0.50820000  0.30152000  1.0
  C  C96  1  0.93656000  0.49558000  0.82973000  1.0
  C  C97  1  0.43659000  0.50443000  0.67027000  1.0
  C  C98  1  0.06344000  0.50443000  0.17027000  1.0
  C  C99  1  0.56343000  0.49557000  0.32973000  1.0
  C  C100  1  0.11510000  0.16070000  0.58280000  1.0
  C  C101  1  0.61505000  0.83928000  0.91720000  1.0
  C  C102  1  0.88492000  0.83932000  0.41720000  1.0
  C  C103  1  0.38491000  0.16070000  0.08280000  1.0
  C  C104  1  0.13510000  0.26362000  0.53913000  1.0
  C  C105  1  0.63506000  0.73638000  0.96087000  1.0
  C  C106  1  0.86491000  0.73640000  0.46087000  1.0
  C  C107  1  0.36490000  0.26360000  0.03913000  1.0
  C  C108  1  0.84002000  0.18243000  0.50353000  1.0
  C  C109  1  0.33998000  0.81759000  0.99647000  1.0
  C  C110  1  0.15999000  0.81758000  0.49648000  1.0
  C  C111  1  0.65998000  0.18240000  0.00352000  1.0
  C  C112  1  0.81383000  0.08548000  0.54823000  1.0
  C  C113  1  0.31380000  0.91453000  0.95178000  1.0
  C  C114  1  0.18618000  0.91453000  0.45178000  1.0
  C  C115  1  0.68616000  0.08547000  0.04822000  1.0
  C  C116  1  0.30628000  0.36879000  0.53640000  1.0
  C  C117  1  0.80624000  0.63121000  0.96361000  1.0
  C  C118  1  0.69372000  0.63123000  0.46361000  1.0
  C  C119  1  0.19371000  0.36877000  0.03639000  1.0
  S  S120  1  0.86393000  0.19763000  0.85487000  1.0
  S  S121  1  0.36393000  0.80237000  0.64513000  1.0
  S  S122  1  0.13607000  0.80237000  0.14513000  1.0
  S  S123  1  0.63607000  0.19763000  0.35487000  1.0
  N  N124  1  0.76991000  0.89072000  0.74336000  1.0
  N  N125  1  0.26992000  0.10928000  0.75664000  1.0
  N  N126  1  0.23010000  0.10928000  0.25664000  1.0
  N  N127  1  0.73009000  0.89071000  0.24336000  1.0
  N  N128  1  0.95330000  0.07457000  0.58789000  1.0
  N  N129  1  0.45326000  0.92542000  0.91211000  1.0
  N  N130  1  0.04672000  0.92543000  0.41211000  1.0
  N  N131  1  0.54672000  0.07458000  0.08789000  1.0
  N  N132  1  0.99687000  0.27269000  0.49913000  1.0
  N  N133  1  0.49683000  0.72731000  0.00088000  1.0
  N  N134  1  0.00313000  0.72732000  0.50088000  1.0
  N  N135  1  0.50312000  0.27267000  0.99912000  1.0
  O  O136  1  0.66195000  0.23395000  0.87314000  1.0
  O  O137  1  0.16196000  0.76604000  0.62685000  1.0
  O  O138  1  0.33805000  0.76605000  0.12685000  1.0
  O  O139  1  0.83804000  0.23396000  0.37315000  1.0
  O  O140  1  0.86727000  0.15658000  0.79562000  1.0
  O  O141  1  0.36726000  0.84342000  0.70438000  1.0
  O  O142  1  0.13273000  0.84342000  0.20438000  1.0
  O  O143  1  0.63274000  0.15657000  0.29562000  1.0
  O  O144  1  0.96526000  0.08827000  0.89020000  1.0
  O  O145  1  0.46527000  0.91173000  0.60979000  1.0
  O  O146  1  0.03472000  0.91172000  0.10979000  1.0
  O  O147  1  0.53474000  0.08828000  0.39021000  1.0
