# generated using pymatgen
data_CuH12C12S2(NO3)2
_symmetry_space_group_name_H-M   'P 1'
_cell_length_a   4.96468000
_cell_length_b   7.73288000
_cell_length_c   9.56360000
_cell_angle_alpha   93.15540000
_cell_angle_beta   104.83000000
_cell_angle_gamma   99.13650000
_symmetry_Int_Tables_number   1
_chemical_formula_structural   CuH12C12S2(NO3)2
_chemical_formula_sum   'Cu1 H12 C12 S2 N2 O6'
_cell_volume   348.65999013
_cell_formula_units_Z   1
loop_
 _symmetry_equiv_pos_site_id
 _symmetry_equiv_pos_as_xyz
  1  'x, y, z'
loop_
 _atom_site_type_symbol
 _atom_site_label
 _atom_site_symmetry_multiplicity
 _atom_site_fract_x
 _atom_site_fract_y
 _atom_site_fract_z
 _atom_site_occupancy
  Cu  Cu0  1  0.00000000  0.00000000  0.00000000  1.0
  H  H1  1  0.18660000  0.44883000  0.61555000  1.0
  H  H2  1  0.81339000  0.55117000  0.38445000  1.0
  H  H3  1  0.88210000  0.37097000  0.78004000  1.0
  H  H4  1  0.11789000  0.62903000  0.21997000  1.0
  H  H5  1  0.79309000  0.61601000  0.93999000  1.0
  H  H6  1  0.20691000  0.38400000  0.06001000  1.0
  H  H7  1  0.61524000  0.87653000  0.61773000  1.0
  H  H8  1  0.38476000  0.12346000  0.38227000  1.0
  H  H9  1  0.29248000  0.83505000  0.47991000  1.0
  H  H10  1  0.70753000  0.16495000  0.52009000  1.0
  H  H11  1  0.48413000  0.66166000  0.52450000  1.0
  H  H12  1  0.51587000  0.33834000  0.47550000  1.0
  C  C13  1  0.20468000  0.85254000  0.77473000  1.0
  C  C14  1  0.79532000  0.14746000  0.22527000  1.0
  C  C15  1  0.25933000  0.72892000  0.67734000  1.0
  C  C16  1  0.74066000  0.27108000  0.32266000  1.0
  C  C17  1  0.14287000  0.55298000  0.68349000  1.0
  C  C18  1  0.85712000  0.44702000  0.31651000  1.0
  C  C19  1  0.97353000  0.50786000  0.77629000  1.0
  C  C20  1  0.02647000  0.49214000  0.22371000  1.0
  C  C21  1  0.92414000  0.64074000  0.86531000  1.0
  C  C22  1  0.07586000  0.35926000  0.13469000  1.0
  C  C23  1  0.42405000  0.77820000  0.57014000  1.0
  C  C24  1  0.57595000  0.22180000  0.42986000  1.0
  S  S25  1  0.34438000  0.08410000  0.78858000  1.0
  S  S26  1  0.65562000  0.91590000  0.21142000  1.0
  N  N27  1  0.04231000  0.80964000  0.86493000  1.0
  N  N28  1  0.95770000  0.19036000  0.13507000  1.0
  O  O29  1  0.29116000  0.15207000  0.92758000  1.0
  O  O30  1  0.70884000  0.84793000  0.07242000  1.0
  O  O31  1  0.64874000  0.10344000  0.80422000  1.0
  O  O32  1  0.35126000  0.89656000  0.19578000  1.0
  O  O33  1  0.18608000  0.15116000  0.66008000  1.0
  O  O34  1  0.81392000  0.84884000  0.33992000  1.0
