# generated using pymatgen
data_Hf3H13C13NO16
_symmetry_space_group_name_H-M   'P 1'
_cell_length_a   11.93030000
_cell_length_b   13.72951410
_cell_length_c   23.15730000
_cell_angle_alpha   85.04051422
_cell_angle_beta   75.09850000
_cell_angle_gamma   64.28580484
_symmetry_Int_Tables_number   1
_chemical_formula_structural   Hf3H13C13NO16
_chemical_formula_sum   'Hf12 H52 C52 N4 O64'
_cell_volume   3301.16181781
_cell_formula_units_Z   4
loop_
 _symmetry_equiv_pos_site_id
 _symmetry_equiv_pos_as_xyz
  1  'x, y, z'
loop_
 _atom_site_type_symbol
 _atom_site_label
 _atom_site_symmetry_multiplicity
 _atom_site_fract_x
 _atom_site_fract_y
 _atom_site_fract_z
 _atom_site_occupancy
  Hf  Hf0  1  0.34023000  0.38523000  0.44428000  1.0
  Hf  Hf1  1  0.89488000  0.65202000  0.48609000  1.0
  Hf  Hf2  1  0.06523000  0.41676000  0.55689000  1.0
  Hf  Hf3  1  0.16822000  0.62245000  0.37350000  1.0
  Hf  Hf4  1  0.06871000  0.40847000  0.40084000  1.0
  Hf  Hf5  1  0.16609000  0.62984000  0.52689000  1.0
  Hf  Hf6  1  0.17697000  0.16883000  0.98702000  1.0
  Hf  Hf7  1  0.03982000  0.90184000  0.94545000  1.0
  Hf  Hf8  1  0.04633000  0.13685000  0.87439000  1.0
  Hf  Hf9  1  0.17105000  0.93182000  0.05804000  1.0
  Hf  Hf10  1  0.88527000  0.14555000  0.03045000  1.0
  Hf  Hf11  1  0.32970000  0.92392000  0.90466000  1.0
  H  H12  1  0.32454000  0.21189000  0.75725000  1.0
  H  H13  1  0.48740000  0.17520000  0.82872000  1.0
  H  H14  1  0.29903000  0.41169000  0.32779000  1.0
  H  H15  1  0.85357000  0.45919000  0.49864000  1.0
  H  H16  1  0.01344000  0.79192000  0.45622000  1.0
  H  H17  1  0.29095000  0.42572000  0.57098000  1.0
  H  H18  1  0.09240000  0.20238000  0.43269000  1.0
  H  H19  1  0.01025000  0.45001000  0.67413000  1.0
  H  H20  1  0.05834000  0.66936000  0.64848000  1.0
  H  H21  1  0.02045000  0.45292000  0.29363000  1.0
  H  H22  1  0.24049000  0.58801000  0.25342000  1.0
  H  H23  1  0.30492000  0.73609000  0.35251000  1.0
  H  H24  1  0.16720000  0.83501000  0.50182000  1.0
  H  H25  1  0.86343000  0.38373000  0.39190000  1.0
  H  H26  1  0.64345000  0.67299000  0.49744000  1.0
  H  H27  1  0.53824000  0.35469000  0.49971000  1.0
  H  H28  1  0.35028000  0.57311000  0.58496000  1.0
  H  H29  1  0.12424000  0.50392000  0.28921000  1.0
  H  H30  1  0.68233000  0.73918000  0.44232000  1.0
  H  H31  1  0.04928000  0.23242000  0.57724000  1.0
  H  H32  1  0.01547000  0.27282000  0.49560000  1.0
  H  H33  1  0.22476000  0.76234000  0.43701000  1.0
  H  H34  1  0.10669000  0.53804000  0.63875000  1.0
  H  H35  1  0.43577000  0.48693000  0.50829000  1.0
  H  H36  1  0.90913000  0.86133000  0.16970000  1.0
  H  H37  1  0.75475000  0.92677000  0.09171000  1.0
  H  H38  1  0.94757000  0.69197000  0.26210000  1.0
  H  H39  1  0.77934000  0.62729000  0.33960000  1.0
  H  H40  1  0.04583000  0.14270000  0.10355000  1.0
  H  H41  1  0.81871000  0.09447000  0.93270000  1.0
  H  H42  1  0.26819000  0.76202000  0.97546000  1.0
  H  H43  1  0.29480000  0.12802000  0.86037000  1.0
  H  H44  1  0.73503000  0.35136000  0.99828000  1.0
  H  H45  1  0.14212000  0.10384000  0.75713000  1.0
  H  H46  1  0.38253000  0.88401000  0.78315000  1.0
  H  H47  1  0.77426000  0.10123000  0.13772000  1.0
  H  H48  1  0.08911000  0.96660000  0.17810000  1.0
  H  H49  1  0.40007000  0.81840000  0.07915000  1.0
  H  H50  1  0.51026000  0.71897000  0.92998000  1.0
  H  H51  1  0.64643000  0.17010000  0.03933000  1.0
  H  H52  1  0.82072000  0.88104000  0.93386000  1.0
  H  H53  1  0.40003000  0.19921000  0.93153000  1.0
  H  H54  1  0.51507000  0.98051000  0.84637000  1.0
  H  H55  1  0.92442000  0.05058000  0.14223000  1.0
  H  H56  1  0.86992000  0.81501000  0.98916000  1.0
  H  H57  1  0.86629000  0.32078000  0.85366000  1.0
  H  H58  1  0.79149000  0.28070000  0.93543000  1.0
  H  H59  1  0.43060000  0.79185000  0.99475000  1.0
  H  H60  1  0.29068000  0.01542000  0.79271000  1.0
  H  H61  1  0.43804000  0.06701000  0.92299000  1.0
  H  H62  1  0.30152000  0.34156000  0.67360000  1.0
  H  H63  1  0.49889000  0.37886000  0.60241000  1.0
  C  C64  1  0.49915000  0.10993000  0.69182000  1.0
  C  C65  1  0.42740000  0.16300000  0.74665000  1.0
  C  C66  1  0.51120000  0.14231000  0.78404000  1.0
  C  C67  1  0.63492000  0.07371000  0.75312000  1.0
  C  C68  1  0.34600000  0.20713000  0.36080000  1.0
  C  C69  1  0.48072000  0.48046000  0.33325000  1.0
  C  C70  1  0.35180000  0.22094000  0.55139000  1.0
  C  C71  1  0.75712000  0.56594000  0.60610000  1.0
  C  C72  1  0.88254000  0.82433000  0.57614000  1.0
  C  C73  1  0.87849000  0.81048000  0.37485000  1.0
  C  C74  1  0.72845000  0.94088000  0.23747000  1.0
  C  C75  1  0.80542000  0.90524000  0.18019000  1.0
  C  C76  1  0.72586000  0.93811000  0.13990000  1.0
  C  C77  1  0.59923000  0.99427000  0.17212000  1.0
  C  C78  1  0.91445000  0.61267000  0.19400000  1.0
  C  C79  1  0.89816000  0.64826000  0.25137000  1.0
  C  C80  1  0.81055000  0.61576000  0.29142000  1.0
  C  C81  1  0.77236000  0.55977000  0.25898000  1.0
  C  C82  1  0.92119000  0.34710000  0.07027000  1.0
  C  C83  1  0.30210000  0.07384000  0.09797000  1.0
  C  C84  1  0.13143000  0.33287000  0.87974000  1.0
  C  C85  1  0.93673000  0.98752000  0.82523000  1.0
  C  C86  1  0.28920000  0.72948000  0.85547000  1.0
  C  C87  1  0.07072000  0.74356000  0.05671000  1.0
  C  C88  1  0.30798000  0.44386000  0.73918000  1.0
  C  C89  1  0.34452000  0.39077000  0.68429000  1.0
  C  C90  1  0.44484000  0.41182000  0.64705000  1.0
  C  C91  1  0.46859000  0.48067000  0.67810000  1.0
  C  C92  1  0.87134000  0.43587000  0.11233000  1.0
  C  C93  1  0.84754000  0.49416000  0.15472000  1.0
  C  C94  1  0.33756000  0.63972000  0.81433000  1.0
  C  C95  1  0.36485000  0.57276000  0.77589000  1.0
  C  C96  1  0.23228000  0.42971000  0.79303000  1.0
  C  C97  1  0.17462000  0.40053000  0.83750000  1.0
  C  C98  1  0.03000000  0.67255000  0.09615000  1.0
  C  C99  1  0.97814000  0.63696000  0.13972000  1.0
  C  C100  1  0.84259000  0.00014000  0.79263000  1.0
  C  C101  1  0.74904000  0.03064000  0.77188000  1.0
  C  C102  1  0.80025000  0.91442000  0.61708000  1.0
  C  C103  1  0.72176000  0.98147000  0.65537000  1.0
  C  C104  1  0.64274000  0.55372000  0.63875000  1.0
  C  C105  1  0.55842000  0.52380000  0.65951000  1.0
  C  C106  1  0.68332000  0.51634000  0.27944000  1.0
  C  C107  1  0.59845000  0.48795000  0.30214000  1.0
  C  C108  1  0.50410000  0.05999000  0.27637000  1.0
  C  C109  1  0.42714000  0.11857000  0.31860000  1.0
  C  C110  1  0.48754000  0.03775000  0.15139000  1.0
  C  C111  1  0.39684000  0.06612000  0.12878000  1.0
  C  C112  1  0.80596000  0.88109000  0.33537000  1.0
  C  C113  1  0.76186000  0.91660000  0.29185000  1.0
  C  C114  1  0.46320000  0.12389000  0.63796000  1.0
  C  C115  1  0.42064000  0.15316000  0.59353000  1.0
  N  N116  1  0.62785000  0.05327000  0.69617000  1.0
  N  N117  1  0.60003000  0.99718000  0.23255000  1.0
  N  N118  1  0.83705000  0.55669000  0.19865000  1.0
  N  N119  1  0.38392000  0.50096000  0.73497000  1.0
  O  O120  1  0.48432000  0.41538000  0.47976000  1.0
  O  O121  1  0.40243000  0.23745000  0.39042000  1.0
  O  O122  1  0.41510000  0.24647000  0.50383000  1.0
  O  O123  1  0.37906000  0.55984000  0.32517000  1.0
  O  O124  1  0.23053000  0.25615000  0.56885000  1.0
  O  O125  1  0.48749000  0.40005000  0.36624000  1.0
  O  O126  1  0.22579000  0.24983000  0.36347000  1.0
  O  O127  1  0.16857000  0.37764000  0.46882000  1.0
  O  O128  1  0.24663000  0.43945000  0.36754000  1.0
  O  O129  1  0.24097000  0.44913000  0.54121000  1.0
  O  O130  1  0.25656000  0.55170000  0.44551000  1.0
  O  O131  1  0.22178000  0.74935000  0.37911000  1.0
  O  O132  1  0.02170000  0.27021000  0.44981000  1.0
  O  O133  1  0.01732000  0.57457000  0.40829000  1.0
  O  O134  1  0.92568000  0.47798000  0.49039000  1.0
  O  O135  1  0.01882000  0.58022000  0.53778000  1.0
  O  O136  1  0.04337000  0.71450000  0.46098000  1.0
  O  O137  1  0.99839000  0.29848000  0.55956000  1.0
  O  O138  1  0.86146000  0.49727000  0.61668000  1.0
  O  O139  1  0.74294000  0.63926000  0.56707000  1.0
  O  O140  1  0.34910000  0.58491000  0.54305000  1.0
  O  O141  1  0.82706000  0.79580000  0.54530000  1.0
  O  O142  1  0.08503000  0.44173000  0.64212000  1.0
  O  O143  1  0.13113000  0.60517000  0.62835000  1.0
  O  O144  1  0.22076000  0.76231000  0.48498000  1.0
  O  O145  1  0.00243000  0.78072000  0.57510000  1.0
  O  O146  1  0.70907000  0.66832000  0.46098000  1.0
  O  O147  1  0.16782000  0.59635000  0.28655000  1.0
  O  O148  1  0.81798000  0.79011000  0.42580000  1.0
  O  O149  1  0.99897000  0.77009000  0.35432000  1.0
  O  O150  1  0.10326000  0.43845000  0.30101000  1.0
  O  O151  1  0.91560000  0.42132000  0.37365000  1.0
  O  O152  1  0.38666000  0.13857000  0.95148000  1.0
  O  O153  1  0.03755000  0.31679000  0.04076000  1.0
  O  O154  1  0.17280000  0.30747000  0.92729000  1.0
  O  O155  1  0.27143000  0.99457000  0.10622000  1.0
  O  O156  1  0.06258000  0.29768000  0.86242000  1.0
  O  O157  1  0.26125000  0.15427000  0.06502000  1.0
  O  O158  1  0.84639000  0.30429000  0.06761000  1.0
  O  O159  1  0.02237000  0.17625000  0.96246000  1.0
  O  O160  1  0.06082000  0.11483000  0.06383000  1.0
  O  O161  1  0.23848000  0.10464000  0.89016000  1.0
  O  O162  1  0.26067000  0.00240000  0.98596000  1.0
  O  O163  1  0.35687000  0.80494000  0.05255000  1.0
  O  O164  1  0.74934000  0.28342000  0.98122000  1.0
  O  O165  1  0.00723000  0.97951000  0.02319000  1.0
  O  O166  1  0.90136000  0.07573000  0.94094000  1.0
  O  O167  1  0.14388000  0.97344000  0.89369000  1.0
  O  O168  1  0.22564000  0.83942000  0.97061000  1.0
  O  O169  1  0.86397000  0.25475000  0.87151000  1.0
  O  O170  1  0.98366000  0.05577000  0.81453000  1.0
  O  O171  1  0.95629000  0.91439000  0.86437000  1.0
  O  O172  1  0.48399000  0.96887000  0.88832000  1.0
  O  O173  1  0.17449000  0.75796000  0.88639000  1.0
  O  O174  1  0.17651000  0.11195000  0.78926000  1.0
  O  O175  1  0.37155000  0.94815000  0.80317000  1.0
  O  O176  1  0.47461000  0.79172000  0.94673000  1.0
  O  O177  1  0.36471000  0.77283000  0.85663000  1.0
  O  O178  1  0.84511000  0.88573000  0.97037000  1.0
  O  O179  1  0.05786000  0.95817000  0.14498000  1.0
  O  O180  1  0.04025000  0.76412000  0.00588000  1.0
  O  O181  1  0.13026000  0.78411000  0.07723000  1.0
  O  O182  1  0.84986000  0.11587000  0.13034000  1.0
  O  O183  1  0.71786000  0.13271000  0.05764000  1.0
