# generated using pymatgen
data_CdH14C19N10
_symmetry_space_group_name_H-M   'P 1'
_cell_length_a   7.79435000
_cell_length_b   9.12775000
_cell_length_c   15.23870000
_cell_angle_alpha   102.78480000
_cell_angle_beta   90.10590000
_cell_angle_gamma   113.30130000
_symmetry_Int_Tables_number   1
_chemical_formula_structural   CdH14C19N10
_chemical_formula_sum   'Cd2 H28 C38 N20'
_cell_volume   966.19548543
_cell_formula_units_Z   2
loop_
 _symmetry_equiv_pos_site_id
 _symmetry_equiv_pos_as_xyz
  1  'x, y, z'
loop_
 _atom_site_type_symbol
 _atom_site_label
 _atom_site_symmetry_multiplicity
 _atom_site_fract_x
 _atom_site_fract_y
 _atom_site_fract_z
 _atom_site_occupancy
  Cd  Cd0  1  0.30348000  0.33791000  0.70354000  1.0
  Cd  Cd1  1  0.69653000  0.66209000  0.29646000  1.0
  H  H2  1  0.86161000  0.98772000  0.92238000  1.0
  H  H3  1  0.13839000  0.01228000  0.07762000  1.0
  H  H4  1  0.92057000  0.38393000  0.83361000  1.0
  H  H5  1  0.07943000  0.61608000  0.16639000  1.0
  H  H6  1  0.05261000  0.53897000  0.93038000  1.0
  H  H7  1  0.94739000  0.46104000  0.06962000  1.0
  H  H8  1  0.98194000  0.28071000  0.96694000  1.0
  H  H9  1  0.01806000  0.71929000  0.03306000  1.0
  H  H10  1  0.22406000  0.36374000  0.95303000  1.0
  H  H11  1  0.77594000  0.63626000  0.04697000  1.0
  H  H12  1  0.19783000  0.93370000  0.61362000  1.0
  H  H13  1  0.80217000  0.06629000  0.38638000  1.0
  H  H14  1  0.05653000  0.62793000  0.58601000  1.0
  H  H15  1  0.94347000  0.37207000  0.41400000  1.0
  H  H16  1  0.85395000  0.48961000  0.69412000  1.0
  H  H17  1  0.14605000  0.51039000  0.30589000  1.0
  H  H18  1  0.78423000  0.64826000  0.83220000  1.0
  H  H19  1  0.21577000  0.35174000  0.16780000  1.0
  H  H20  1  0.24998000  0.74747000  0.87676000  1.0
  H  H21  1  0.75002000  0.25253000  0.12323000  1.0
  H  H22  1  0.46618000  0.97659000  0.82468000  1.0
  H  H23  1  0.53382000  0.02341000  0.17532000  1.0
  H  H24  1  0.67628000  0.08672000  0.70869000  1.0
  H  H25  1  0.32372000  0.91328000  0.29131000  1.0
  H  H26  1  0.73073000  0.88417000  0.58141000  1.0
  H  H27  1  0.26927000  0.11583000  0.41859000  1.0
  H  H28  1  0.57951000  0.58549000  0.57899000  1.0
  H  H29  1  0.42049000  0.41451000  0.42101000  1.0
  C  C30  1  0.05657000  0.43936000  0.87545000  1.0
  C  C31  1  0.94343000  0.56064000  0.12455000  1.0
  C  C32  1  0.08266000  0.30986000  0.91645000  1.0
  C  C33  1  0.91734000  0.69014000  0.08355000  1.0
  C  C34  1  0.05379000  0.15183000  0.85142000  1.0
  C  C35  1  0.94621000  0.84817000  0.14858000  1.0
  C  C36  1  0.95672000  0.88193000  0.80131000  1.0
  C  C37  1  0.04328000  0.11807000  0.19869000  1.0
  C  C38  1  0.07163000  0.96311000  0.73988000  1.0
  C  C39  1  0.92837000  0.03689000  0.26012000  1.0
  C  C40  1  0.10839000  0.87289000  0.66094000  1.0
  C  C41  1  0.89161000  0.12711000  0.33906000  1.0
  C  C42  1  0.02867000  0.70218000  0.64611000  1.0
  C  C43  1  0.97133000  0.29781000  0.35389000  1.0
  C  C44  1  0.91474000  0.62323000  0.70773000  1.0
  C  C45  1  0.08526000  0.37677000  0.29227000  1.0
  C  C46  1  0.87621000  0.71133000  0.78646000  1.0
  C  C47  1  0.12379000  0.28867000  0.21354000  1.0
  C  C48  1  0.28080000  0.65852000  0.82493000  1.0
  C  C49  1  0.71920000  0.34148000  0.17507000  1.0
  C  C50  1  0.41371000  0.72594000  0.76124000  1.0
  C  C51  1  0.58629000  0.27407000  0.23876000  1.0
  C  C52  1  0.49559000  0.89518000  0.76889000  1.0
  C  C53  1  0.50442000  0.10482000  0.23111000  1.0
  C  C54  1  0.61176000  0.95508000  0.70416000  1.0
  C  C55  1  0.38825000  0.04492000  0.29584000  1.0
  C  C56  1  0.64263000  0.84418000  0.63408000  1.0
  C  C57  1  0.35738000  0.15582000  0.36592000  1.0
  C  C58  1  0.55695000  0.67646000  0.63188000  1.0
  C  C59  1  0.44305000  0.32354000  0.36812000  1.0
  C  C60  1  0.55812000  0.32229000  0.87671000  1.0
  C  C61  1  0.44186000  0.67770000  0.12329000  1.0
  C  C62  1  0.43186000  0.16374000  0.97652000  1.0
  C  C63  1  0.56812000  0.83625000  0.02348000  1.0
  C  C64  1  0.88974000  0.23135000  0.57354000  1.0
  C  C65  1  0.11027000  0.76865000  0.42647000  1.0
  C  C66  1  0.59022000  0.22438000  0.57036000  1.0
  C  C67  1  0.40979000  0.77563000  0.42964000  1.0
  N  N68  1  0.20125000  0.50356000  0.81788000  1.0
  N  N69  1  0.79875000  0.49644000  0.18212000  1.0
  N  N70  1  0.13031000  0.13187000  0.77343000  1.0
  N  N71  1  0.86969000  0.86813000  0.22657000  1.0
  N  N72  1  0.94802000  0.00501000  0.86994000  1.0
  N  N73  1  0.05198000  0.99499000  0.13006000  1.0
  N  N74  1  0.44549000  0.61873000  0.69378000  1.0
  N  N75  1  0.55452000  0.38127000  0.30622000  1.0
  N  N76  1  0.56352000  0.37011000  0.81021000  1.0
  N  N77  1  0.43647000  0.62988000  0.18979000  1.0
  N  N78  1  0.56950000  0.27930000  0.95139000  1.0
  N  N79  1  0.43049000  0.72069000  0.04861000  1.0
  N  N80  1  0.31542000  0.06030000  0.00425000  1.0
  N  N81  1  0.68456000  0.93969000  0.99575000  1.0
  N  N82  1  0.04807000  0.26886000  0.59836000  1.0
  N  N83  1  0.95194000  0.73114000  0.40164000  1.0
  N  N84  1  0.71887000  0.17906000  0.53815000  1.0
  N  N85  1  0.28115000  0.82095000  0.46184000  1.0
  N  N86  1  0.46129000  0.25616000  0.59208000  1.0
  N  N87  1  0.53872000  0.74385000  0.40791000  1.0
