# generated using pymatgen
data_CoH8(C5N7)2
_symmetry_space_group_name_H-M   'P 1'
_cell_length_a   8.08537000
_cell_length_b   8.14586000
_cell_length_c   11.79490000
_cell_angle_alpha   91.60880000
_cell_angle_beta   109.42200000
_cell_angle_gamma   99.36520000
_symmetry_Int_Tables_number   1
_chemical_formula_structural   CoH8(C5N7)2
_chemical_formula_sum   'Co2 H16 C20 N28'
_cell_volume   720.04304746
_cell_formula_units_Z   2
loop_
 _symmetry_equiv_pos_site_id
 _symmetry_equiv_pos_as_xyz
  1  'x, y, z'
loop_
 _atom_site_type_symbol
 _atom_site_label
 _atom_site_symmetry_multiplicity
 _atom_site_fract_x
 _atom_site_fract_y
 _atom_site_fract_z
 _atom_site_occupancy
  Co  Co0  1  0.00819000  0.19790000  0.98098000  1.0
  Co  Co1  1  0.99181000  0.80211000  0.01902000  1.0
  H  H2  1  0.17324000  0.27109000  0.24612000  1.0
  H  H3  1  0.82676000  0.72891000  0.75388000  1.0
  H  H4  1  0.07730000  0.37616000  0.40934000  1.0
  H  H5  1  0.92270000  0.62383000  0.59066000  1.0
  H  H6  1  0.54334000  0.31669000  0.14875000  1.0
  H  H7  1  0.45666000  0.68332000  0.85125000  1.0
  H  H8  1  0.66126000  0.20767000  0.99744000  1.0
  H  H9  1  0.33874000  0.79236000  0.00255000  1.0
  H  H10  1  0.84063000  0.16206000  0.71605000  1.0
  H  H11  1  0.15936000  0.83794000  0.28395000  1.0
  H  H12  1  0.94116000  0.14671000  0.54067000  1.0
  H  H13  1  0.05884000  0.85327000  0.45933000  1.0
  H  H14  1  0.48095000  0.19763000  0.79149000  1.0
  H  H15  1  0.51905000  0.80237000  0.20851000  1.0
  H  H16  1  0.35473000  0.20397000  0.95781000  1.0
  H  H17  1  0.64527000  0.79605000  0.04218000  1.0
  C  C18  1  0.03460000  0.28092000  0.22800000  1.0
  C  C19  1  0.96539000  0.71908000  0.77199000  1.0
  C  C20  1  0.98120000  0.34001000  0.31901000  1.0
  C  C21  1  0.01880000  0.66000000  0.68099000  1.0
  C  C22  1  0.80280000  0.35562000  0.29214000  1.0
  C  C23  1  0.19720000  0.64438000  0.70786000  1.0
  C  C24  1  0.68371000  0.30689000  0.17440000  1.0
  C  C25  1  0.31630000  0.69312000  0.82560000  1.0
  C  C26  1  0.74845000  0.24725000  0.08966000  1.0
  C  C27  1  0.25155000  0.75277000  0.91034000  1.0
  C  C28  1  0.98069000  0.16535000  0.72980000  1.0
  C  C29  1  0.01931000  0.83465000  0.27020000  1.0
  C  C30  1  0.03771000  0.15859000  0.63160000  1.0
  C  C31  1  0.96229000  0.84141000  0.36840000  1.0
  C  C32  1  0.21990000  0.16879000  0.65142000  1.0
  C  C33  1  0.78010000  0.83120000  0.34858000  1.0
  C  C34  1  0.33775000  0.18704000  0.77112000  1.0
  C  C35  1  0.66225000  0.81296000  0.22887000  1.0
  C  C36  1  0.26859000  0.19083000  0.86388000  1.0
  C  C37  1  0.73141000  0.80918000  0.13611000  1.0
  N  N38  1  0.82989000  0.99015000  0.92471000  1.0
  N  N39  1  0.17011000  0.00986000  0.07529000  1.0
  N  N40  1  0.70943000  0.95889000  0.82918000  1.0
  N  N41  1  0.29058000  0.04111000  0.17082000  1.0
  N  N42  1  0.59024000  0.92174000  0.73811000  1.0
  N  N43  1  0.40976000  0.07825000  0.26189000  1.0
  N  N44  1  0.20452000  0.38687000  0.04881000  1.0
  N  N45  1  0.79549000  0.61313000  0.95119000  1.0
  N  N46  1  0.18954000  0.51747000  0.08983000  1.0
  N  N47  1  0.81047000  0.48253000  0.91017000  1.0
  N  N48  1  0.18057000  0.64862000  0.13035000  1.0
  N  N49  1  0.81943000  0.35138000  0.86964000  1.0
  N  N50  1  0.92224000  0.23791000  0.11334000  1.0
  N  N51  1  0.07776000  0.76211000  0.88666000  1.0
  N  N52  1  0.75466000  0.41943000  0.38600000  1.0
  N  N53  1  0.24534000  0.58056000  0.61401000  1.0
  N  N54  1  0.59835000  0.43418000  0.36653000  1.0
  N  N55  1  0.40165000  0.56581000  0.63348000  1.0
  N  N56  1  0.46037000  0.45677000  0.36282000  1.0
  N  N57  1  0.53963000  0.54322000  0.63719000  1.0
  N  N58  1  0.09278000  0.18001000  0.84527000  1.0
  N  N59  1  0.90723000  0.82000000  0.15473000  1.0
  N  N60  1  0.27092000  0.16183000  0.54908000  1.0
  N  N61  1  0.72907000  0.83815000  0.45092000  1.0
  N  N62  1  0.42979000  0.17328000  0.55930000  1.0
  N  N63  1  0.57021000  0.82670000  0.44070000  1.0
  N  N64  1  0.56848000  0.18349000  0.55168000  1.0
  N  N65  1  0.43151000  0.81649000  0.44832000  1.0
