# generated using pymatgen
data_Zn3H26C40(NO8)2
_symmetry_space_group_name_H-M   'P 1'
_cell_length_a   8.94052000
_cell_length_b   10.12140000
_cell_length_c   10.98960000
_cell_angle_alpha   79.48600000
_cell_angle_beta   89.03000000
_cell_angle_gamma   74.11300000
_symmetry_Int_Tables_number   1
_chemical_formula_structural   Zn3H26C40(NO8)2
_chemical_formula_sum   'Zn3 H26 C40 N2 O16'
_cell_volume   939.83815210
_cell_formula_units_Z   1
loop_
 _symmetry_equiv_pos_site_id
 _symmetry_equiv_pos_as_xyz
  1  'x, y, z'
loop_
 _atom_site_type_symbol
 _atom_site_label
 _atom_site_symmetry_multiplicity
 _atom_site_fract_x
 _atom_site_fract_y
 _atom_site_fract_z
 _atom_site_occupancy
  Zn  Zn0  1  0.50871000  0.95298000  0.93828000  1.0
  Zn  Zn1  1  0.39672000  0.75552000  0.76883000  1.0
  Zn  Zn2  1  0.71259000  0.77231000  0.41886000  1.0
  H  H3  1  0.13070000  0.42025000  0.69325000  1.0
  H  H4  1  0.30517000  0.37117000  0.87628000  1.0
  H  H5  1  0.97039000  0.67697000  0.03914000  1.0
  H  H6  1  0.30308000  0.83333000  0.25865000  1.0
  H  H7  1  0.17957000  0.74180000  0.44984000  1.0
  H  H8  1  0.08628000  0.52984000  0.45622000  1.0
  H  H9  1  0.11962000  0.41145000  0.27307000  1.0
  H  H10  1  0.22953000  0.02284000  0.31569000  1.0
  H  H11  1  0.88110000  0.31577000  0.48121000  1.0
  H  H12  1  0.04797000  0.25575000  0.67108000  1.0
  H  H13  1  0.09616000  0.29420000  0.08499000  1.0
  H  H14  1  0.12892000  0.18911000  0.89491000  1.0
  H  H15  1  0.02626000  0.98258000  0.88763000  1.0
  H  H16  1  0.90193000  0.88400000  0.07238000  1.0
  H  H17  1  0.48121000  0.00411000  0.19017000  1.0
  H  H18  1  0.53178000  0.17046000  0.30901000  1.0
  H  H19  1  0.63854000  0.40598000  0.96262000  1.0
  H  H20  1  0.58971000  0.22442000  0.85907000  1.0
  H  H21  1  0.78505000  0.68139000  0.18459000  1.0
  H  H22  1  0.75083000  0.50104000  0.06940000  1.0
  H  H23  1  0.49576000  0.35581000  0.37996000  1.0
  H  H24  1  0.55079000  0.53667000  0.48364000  1.0
  H  H25  1  0.08692000  0.73512000  0.72180000  1.0
  H  H26  1  0.10722000  0.86925000  0.63423000  1.0
  H  H27  1  0.58069000  0.52915000  0.70461000  1.0
  H  H28  1  0.41137000  0.51053000  0.68754000  1.0
  C  C29  1  0.74095000  0.73678000  0.86631000  1.0
  C  C30  1  0.83625000  0.59528000  0.65253000  1.0
  C  C31  1  0.90139000  0.64214000  0.86312000  1.0
  C  C32  1  0.94348000  0.56935000  0.76451000  1.0
  C  C33  1  0.09171000  0.47475000  0.76976000  1.0
  C  C34  1  0.19225000  0.44751000  0.87214000  1.0
  C  C35  1  0.14751000  0.51903000  0.96994000  1.0
  C  C36  1  0.00407000  0.61865000  0.96446000  1.0
  C  C37  1  0.22213000  0.56013000  0.16434000  1.0
  C  C38  1  0.27298000  0.68110000  0.15741000  1.0
  C  C39  1  0.25883000  0.74259000  0.26318000  1.0
  C  C40  1  0.19231000  0.69015000  0.37003000  1.0
  C  C41  1  0.14028000  0.57137000  0.37383000  1.0
  C  C42  1  0.15677000  0.50568000  0.27140000  1.0
  C  C43  1  0.34176000  0.74662000  0.04462000  1.0
  C  C44  1  0.33362000  0.08860000  0.71578000  1.0
  C  C45  1  0.42803000  0.91582000  0.50552000  1.0
  C  C46  1  0.23248000  0.10127000  0.60454000  1.0
  C  C47  1  0.28073000  0.03162000  0.50465000  1.0
  C  C48  1  0.18905000  0.07188000  0.39485000  1.0
  C  C49  1  0.04690000  0.17381000  0.38630000  1.0
  C  C50  1  0.99399000  0.23850000  0.48712000  1.0
  C  C51  1  0.08812000  0.20343000  0.59351000  1.0
  C  C52  1  0.98547000  0.14621000  0.18327000  1.0
  C  C53  1  0.05590000  0.20299000  0.08039000  1.0
  C  C54  1  0.07281000  0.14389000  0.97411000  1.0
  C  C55  1  0.01649000  0.02890000  0.97051000  1.0
  C  C56  1  0.94826000  0.97221000  0.07454000  1.0
  C  C57  1  0.93345000  0.02688000  0.18410000  1.0
  C  C58  1  0.86303000  0.95710000  0.29449000  1.0
  C  C59  1  0.51566000  0.09491000  0.14319000  1.0
  C  C60  1  0.54320000  0.19090000  0.20914000  1.0
  C  C61  1  0.59020000  0.30594000  0.14713000  1.0
  C  C62  1  0.60793000  0.31740000  0.01862000  1.0
  C  C63  1  0.57955000  0.21694000  0.95882000  1.0
  C  C64  1  0.72335000  0.60536000  0.22383000  1.0
  C  C65  1  0.70118000  0.50557000  0.16011000  1.0
  C  C66  1  0.61844000  0.41155000  0.21373000  1.0
  C  C67  1  0.56303000  0.42341000  0.33273000  1.0
  C  C68  1  0.59079000  0.52537000  0.39114000  1.0
  N  N69  1  0.53311000  0.10731000  0.01988000  1.0
  N  N70  1  0.66976000  0.61548000  0.33809000  1.0
  O  O71  1  0.72560000  0.84659000  0.91345000  1.0
  O  O72  1  0.63224000  0.69701000  0.82677000  1.0
  O  O73  1  0.83893000  0.70570000  0.57367000  1.0
  O  O74  1  0.76088000  0.50995000  0.64123000  1.0
  O  O75  1  0.24906000  0.48167000  0.07052000  1.0
  O  O76  1  0.31878000  0.71406000  0.94178000  1.0
  O  O77  1  0.41723000  0.83262000  0.06275000  1.0
  O  O78  1  0.37841000  0.96644000  0.78979000  1.0
  O  O79  1  0.36746000  0.19348000  0.73721000  1.0
  O  O80  1  0.46606000  0.81259000  0.59414000  1.0
  O  O81  1  0.50928000  0.92349000  0.40885000  1.0
  O  O82  1  0.95676000  0.22129000  0.27973000  1.0
  O  O83  1  0.85332000  0.99754000  0.39565000  1.0
  O  O84  1  0.81492000  0.85225000  0.27409000  1.0
  O  O85  1  0.16437000  0.78219000  0.68688000  1.0
  O  O86  1  0.47511000  0.54177000  0.74082000  1.0
