# generated using pymatgen
data_Zn2H15C28S3N2O17F3
_symmetry_space_group_name_H-M   'P 1'
_cell_length_a   9.71366000
_cell_length_b   10.98780000
_cell_length_c   10.99840000
_cell_angle_alpha   89.12470000
_cell_angle_beta   89.37790000
_cell_angle_gamma   85.65540000
_symmetry_Int_Tables_number   1
_chemical_formula_structural   Zn2H15C28S3N2O17F3
_chemical_formula_sum   'Zn2 H15 C28 S3 N2 O17 F3'
_cell_volume   1170.31335723
_cell_formula_units_Z   1
loop_
 _symmetry_equiv_pos_site_id
 _symmetry_equiv_pos_as_xyz
  1  'x, y, z'
loop_
 _atom_site_type_symbol
 _atom_site_label
 _atom_site_symmetry_multiplicity
 _atom_site_fract_x
 _atom_site_fract_y
 _atom_site_fract_z
 _atom_site_occupancy
  Zn  Zn0  1  0.64063000  0.49147000  0.49367000  1.0
  Zn  Zn1  1  0.34937000  0.49888000  0.49622000  1.0
  H  H2  1  0.83128000  0.44483000  0.11647000  1.0
  H  H3  1  0.79084000  0.61483000  0.89366000  1.0
  H  H4  1  0.13926000  0.35162000  0.36867000  1.0
  H  H5  1  0.88128000  0.36048000  0.35602000  1.0
  H  H6  1  0.85342000  0.77532000  0.58169000  1.0
  H  H7  1  0.82994000  0.67146000  0.70582000  1.0
  H  H8  1  0.11224000  0.75581000  0.61661000  1.0
  H  H9  1  0.08925000  0.64204000  0.73246000  1.0
  H  H10  1  0.79414000  0.88929000  0.15131000  1.0
  H  H11  1  0.73503000  0.20031000  0.38965000  1.0
  H  H12  1  0.28254000  0.45120000  0.87880000  1.0
  H  H13  1  0.77395000  0.60260000  0.12004000  1.0
  H  H14  1  0.87776000  0.26857000  0.99155000  1.0
  H  H15  1  0.07284000  0.96970000  0.15614000  1.0
  H  H16  1  0.31543000  0.95698000  0.80546000  1.0
  C  C17  1  0.49447000  0.50874000  0.72821000  1.0
  C  C18  1  0.56958000  0.93393000  0.39326000  1.0
  C  C19  1  0.47740000  0.87053000  0.46862000  1.0
  C  C20  1  0.41334000  0.93373000  0.56343000  1.0
  C  C21  1  0.43293000  0.05655000  0.58940000  1.0
  C  C22  1  0.52170000  0.11946000  0.51674000  1.0
  C  C23  1  0.61658000  0.49673000  0.93255000  1.0
  C  C24  1  0.49791000  0.49005000  0.86294000  1.0
  C  C25  1  0.37797000  0.46243000  0.92718000  1.0
  C  C26  1  0.37858000  0.44756000  0.05323000  1.0
  C  C27  1  0.49485000  0.46280000  0.12591000  1.0
  C  C28  1  0.47114000  0.73348000  0.46586000  1.0
  C  C29  1  0.61308000  0.48563000  0.05899000  1.0
  C  C30  1  0.76106000  0.51590000  0.07468000  1.0
  C  C31  1  0.76720000  0.52547000  0.93126000  1.0
  C  C32  1  0.05732000  0.57630000  0.54973000  1.0
  C  C33  1  0.07495000  0.41858000  0.41996000  1.0
  C  C34  1  0.93150000  0.42368000  0.41288000  1.0
  C  C35  1  0.91420000  0.58347000  0.53964000  1.0
  C  C36  1  0.89297000  0.68938000  0.62537000  1.0
  C  C37  1  0.05606000  0.67635000  0.64229000  1.0
  C  C38  1  0.49304000  0.46557000  0.26128000  1.0
  C  C39  1  0.52205000  0.25723000  0.52174000  1.0
  C  C40  1  0.63724000  0.88234000  0.28859000  1.0
  C  C41  1  0.74374000  0.93438000  0.22903000  1.0
  C  C42  1  0.78220000  0.04764000  0.27065000  1.0
  C  C43  1  0.70836000  0.11103000  0.36034000  1.0
  C  C44  1  0.59953000  0.05625000  0.42225000  1.0
  S  S45  1  0.89970000  0.42011000  0.86605000  1.0
  S  S46  1  0.93034000  0.11476000  0.21295000  1.0
  S  S47  1  0.34372000  0.12774000  0.71729000  1.0
  N  N48  1  0.14066000  0.49529000  0.49142000  1.0
  N  N49  1  0.84764000  0.50635000  0.47474000  1.0
  O  O50  1  0.60963000  0.52148000  0.67532000  1.0
  O  O51  1  0.37721000  0.51089000  0.67685000  1.0
  O  O52  1  0.58942000  0.67590000  0.46594000  1.0
  O  O53  1  0.35453000  0.68995000  0.47047000  1.0
  O  O54  1  0.61008000  0.45148000  0.31375000  1.0
  O  O55  1  0.37689000  0.48633000  0.31376000  1.0
  O  O56  1  0.63548000  0.30499000  0.53379000  1.0
  O  O57  1  0.40368000  0.31053000  0.50385000  1.0
  O  O58  1  0.89407000  0.42292000  0.73561000  1.0
  O  O59  1  0.02644000  0.44456000  0.92567000  1.0
  O  O60  1  0.85324000  0.28975000  0.90575000  1.0
  O  O61  1  0.88648000  0.22207000  0.14194000  1.0
  O  O62  1  0.02760000  0.12553000  0.30917000  1.0
  O  O63  1  0.99407000  0.01549000  0.11755000  1.0
  O  O64  1  0.41828000  0.22685000  0.75678000  1.0
  O  O65  1  0.19874000  0.13936000  0.69152000  1.0
  O  O66  1  0.37244000  0.02465000  0.82223000  1.0
  F  F67  1  0.32956000  0.87292000  0.64020000  1.0
  F  F68  1  0.59410000  0.77811000  0.24238000  1.0
  F  F69  1  0.25973000  0.41608000  0.10694000  1.0
