# generated using pymatgen
data_CuH2(C2N)3
_symmetry_space_group_name_H-M   'P 1'
_cell_length_a   28.12720000
_cell_length_b   28.40270000
_cell_length_c   28.52350000
_cell_angle_alpha   89.83220000
_cell_angle_beta   89.96190000
_cell_angle_gamma   89.86990000
_symmetry_Int_Tables_number   1
_chemical_formula_structural   CuH2(C2N)3
_chemical_formula_sum   'Cu12 H24 C72 N36'
_cell_volume   22786.93254068
_cell_formula_units_Z   12
loop_
 _symmetry_equiv_pos_site_id
 _symmetry_equiv_pos_as_xyz
  1  'x, y, z'
loop_
 _atom_site_type_symbol
 _atom_site_label
 _atom_site_symmetry_multiplicity
 _atom_site_fract_x
 _atom_site_fract_y
 _atom_site_fract_z
 _atom_site_occupancy
  Cu  Cu0  1  0.87104000  0.91542000  0.82978000  1.0
  Cu  Cu1  1  0.82552000  0.86941000  0.92084000  1.0
  Cu  Cu2  1  0.91825000  0.82412000  0.87436000  1.0
  Cu  Cu3  1  0.13436000  0.59032000  0.32314000  1.0
  Cu  Cu4  1  0.17913000  0.63564000  0.41416000  1.0
  Cu  Cu5  1  0.08047000  0.67413000  0.37405000  1.0
  Cu  Cu6  1  0.37036000  0.08241000  0.67266000  1.0
  Cu  Cu7  1  0.32456000  0.12868000  0.58190000  1.0
  Cu  Cu8  1  0.41727000  0.17359000  0.62770000  1.0
  Cu  Cu9  1  0.62732000  0.41472000  0.17238000  1.0
  Cu  Cu10  1  0.67322000  0.36878000  0.08152000  1.0
  Cu  Cu11  1  0.58050000  0.32370000  0.12797000  1.0
  H  H12  1  0.79999000  0.00102000  0.81299000  1.0
  H  H13  1  0.73914000  0.94015000  0.93896000  1.0
  H  H14  1  0.00439000  0.80778000  0.80328000  1.0
  H  H15  1  0.94131000  0.93415000  0.74435000  1.0
  H  H16  1  0.80947000  0.79871000  0.00593000  1.0
  H  H17  1  0.93685000  0.73883000  0.94433000  1.0
  H  H18  1  0.20401000  0.50332000  0.30785000  1.0
  H  H19  1  0.26389000  0.56339000  0.43426000  1.0
  H  H20  1  0.98896000  0.68392000  0.30834000  1.0
  H  H21  1  0.06737000  0.57513000  0.23491000  1.0
  H  H22  1  0.19724000  0.70920000  0.49599000  1.0
  H  H23  1  0.05758000  0.75378000  0.44910000  1.0
  H  H24  1  0.29980000  0.99672000  0.68941000  1.0
  H  H25  1  0.23852000  0.05812000  0.56382000  1.0
  H  H26  1  0.50350000  0.18972000  0.69837000  1.0
  H  H27  1  0.44080000  0.06361000  0.75778000  1.0
  H  H28  1  0.30792000  0.19918000  0.49675000  1.0
  H  H29  1  0.43547000  0.25891000  0.55746000  1.0
  H  H30  1  0.69800000  0.50015000  0.18903000  1.0
  H  H31  1  0.75979000  0.43913000  0.06380000  1.0
  H  H32  1  0.49437000  0.30718000  0.19901000  1.0
  H  H33  1  0.55668000  0.43356000  0.25745000  1.0
  H  H34  1  0.68888000  0.29875000  0.99600000  1.0
  H  H35  1  0.56147000  0.23926000  0.05769000  1.0
  C  C36  1  0.34438000  0.41048000  0.37644000  1.0
  C  C37  1  0.40863000  0.37427000  0.34453000  1.0
  C  C38  1  0.37424000  0.34429000  0.41004000  1.0
  C  C39  1  0.65379000  0.08878000  0.87677000  1.0
  C  C40  1  0.62214000  0.15428000  0.90989000  1.0
  C  C41  1  0.58870000  0.12333000  0.84457000  1.0
  C  C42  1  0.84431000  0.58773000  0.12580000  1.0
  C  C43  1  0.87572000  0.65293000  0.09175000  1.0
  C  C44  1  0.90937000  0.62238000  0.15743000  1.0
  C  C45  1  0.15429000  0.90903000  0.62526000  1.0
  C  C46  1  0.08918000  0.87433000  0.65695000  1.0
  C  C47  1  0.12306000  0.84386000  0.59153000  1.0
  C  C48  1  0.79116000  0.97998000  0.84355000  1.0
  C  C49  1  0.75402000  0.98618000  0.87611000  1.0
  C  C50  1  0.76016000  0.94895000  0.90830000  1.0
  C  C51  1  0.98282000  0.83837000  0.79494000  1.0
  C  C52  1  0.98831000  0.87125000  0.75828000  1.0
  C  C53  1  0.95066000  0.90333000  0.76491000  1.0
  C  C54  1  0.84031000  0.79008000  0.98476000  1.0
  C  C55  1  0.87344000  0.75327000  0.99058000  1.0
  C  C56  1  0.90576000  0.75957000  0.95337000  1.0
  C  C57  1  0.21287000  0.52442000  0.33824000  1.0
  C  C58  1  0.24876000  0.51714000  0.37191000  1.0
  C  C59  1  0.24336000  0.55504000  0.40322000  1.0
  C  C60  1  0.01429000  0.65772000  0.29639000  1.0
  C  C61  1  0.01228000  0.62865000  0.25652000  1.0
  C  C62  1  0.05440000  0.60185000  0.25883000  1.0
  C  C63  1  0.16351000  0.71422000  0.47826000  1.0
  C  C64  1  0.12682000  0.74650000  0.48829000  1.0
  C  C65  1  0.09174000  0.73683000  0.45445000  1.0
  C  C66  1  0.29082000  0.01793000  0.65897000  1.0
  C  C67  1  0.25373000  0.01183000  0.62642000  1.0
  C  C68  1  0.25958000  0.04922000  0.59442000  1.0
  C  C69  1  0.48202000  0.15920000  0.70687000  1.0
  C  C70  1  0.48763000  0.12640000  0.74359000  1.0
  C  C71  1  0.45005000  0.09439000  0.73715000  1.0
  C  C72  1  0.33885000  0.20776000  0.51772000  1.0
  C  C73  1  0.37186000  0.24448000  0.51165000  1.0
  C  C74  1  0.40439000  0.23822000  0.54868000  1.0
  C  C75  1  0.70708000  0.47906000  0.15867000  1.0
  C  C76  1  0.74447000  0.48516000  0.12635000  1.0
  C  C77  1  0.73858000  0.44798000  0.09430000  1.0
  C  C78  1  0.51578000  0.33775000  0.20729000  1.0
  C  C79  1  0.51000000  0.37062000  0.24374000  1.0
  C  C80  1  0.54753000  0.40271000  0.23706000  1.0
  C  C81  1  0.65808000  0.29016000  0.01724000  1.0
  C  C82  1  0.62475000  0.25373000  0.01131000  1.0
  C  C83  1  0.59261000  0.25984000  0.04868000  1.0
  C  C84  1  0.68889000  0.05248000  0.87650000  1.0
  C  C85  1  0.71903000  0.02160000  0.87638000  1.0
  C  C86  1  0.31044000  0.44782000  0.37556000  1.0
  C  C87  1  0.28199000  0.48018000  0.37388000  1.0
  C  C88  1  0.18913000  0.94537000  0.62580000  1.0
  C  C89  1  0.21904000  0.97632000  0.62601000  1.0
  C  C90  1  0.80942000  0.55137000  0.12633000  1.0
  C  C91  1  0.77938000  0.52052000  0.12624000  1.0
  C  C92  1  0.05346000  0.87282000  0.69242000  1.0
  C  C93  1  0.02327000  0.87200000  0.72306000  1.0
  C  C94  1  0.44444000  0.37232000  0.30920000  1.0
  C  C95  1  0.47484000  0.37142000  0.27876000  1.0
  C  C96  1  0.94531000  0.62416000  0.19266000  1.0
  C  C97  1  0.97639000  0.62647000  0.22229000  1.0
  C  C98  1  0.55302000  0.12462000  0.80912000  1.0
  C  C99  1  0.52268000  0.12559000  0.77867000  1.0
  C  C100  1  0.87474000  0.68799000  0.05588000  1.0
  C  C101  1  0.87413000  0.71829000  0.02556000  1.0
  C  C102  1  0.37286000  0.30938000  0.44602000  1.0
  C  C103  1  0.37235000  0.27928000  0.47653000  1.0
  C  C104  1  0.62288000  0.18930000  0.94559000  1.0
  C  C105  1  0.62375000  0.21920000  0.97611000  1.0
  C  C106  1  0.12410000  0.80937000  0.55539000  1.0
  C  C107  1  0.12541000  0.78028000  0.52411000  1.0
  N  N108  1  0.37734000  0.41027000  0.34202000  1.0
  N  N109  1  0.40895000  0.34020000  0.37760000  1.0
  N  N110  1  0.34091000  0.37853000  0.41140000  1.0
  N  N111  1  0.65634000  0.12090000  0.91146000  1.0
  N  N112  1  0.58734000  0.15738000  0.87746000  1.0
  N  N113  1  0.62092000  0.08810000  0.84232000  1.0
  N  N114  1  0.84164000  0.61958000  0.09067000  1.0
  N  N115  1  0.91066000  0.65608000  0.12399000  1.0
  N  N116  1  0.87713000  0.58737000  0.16033000  1.0
  N  N117  1  0.12120000  0.90955000  0.65954000  1.0
  N  N118  1  0.08805000  0.84057000  0.62377000  1.0
  N  N119  1  0.15727000  0.87710000  0.59045000  1.0
  N  N120  1  0.79794000  0.92277000  0.89562000  1.0
  N  N121  1  0.81726000  0.94212000  0.85569000  1.0
  N  N122  1  0.92488000  0.89029000  0.80249000  1.0
  N  N123  1  0.94492000  0.85024000  0.82122000  1.0
  N  N124  1  0.89263000  0.79711000  0.92755000  1.0
  N  N125  1  0.85225000  0.81613000  0.94711000  1.0
  N  N126  1  0.20709000  0.58256000  0.38905000  1.0
  N  N127  1  0.18808000  0.56347000  0.34899000  1.0
  N  N128  1  0.07927000  0.61412000  0.29716000  1.0
  N  N129  1  0.05444000  0.64862000  0.32045000  1.0
  N  N130  1  0.10662000  0.70162000  0.42659000  1.0
  N  N131  1  0.15090000  0.68740000  0.44155000  1.0
  N  N132  1  0.29718000  0.07540000  0.60719000  1.0
  N  N133  1  0.31664000  0.05590000  0.64698000  1.0
  N  N134  1  0.42421000  0.10741000  0.69962000  1.0
  N  N135  1  0.44412000  0.14736000  0.68073000  1.0
  N  N136  1  0.39146000  0.20074000  0.57465000  1.0
  N  N137  1  0.35105000  0.18177000  0.55536000  1.0
  N  N138  1  0.70073000  0.42193000  0.10683000  1.0
  N  N139  1  0.68110000  0.44131000  0.14653000  1.0
  N  N140  1  0.57351000  0.38966000  0.19966000  1.0
  N  N141  1  0.55372000  0.34961000  0.18108000  1.0
  N  N142  1  0.60601000  0.29695000  0.07469000  1.0
  N  N143  1  0.64640000  0.31586000  0.05511000  1.0
