# generated using pymatgen
data_CoH24C36(NO)4
_symmetry_space_group_name_H-M   'P 1'
_cell_length_a   10.76870000
_cell_length_b   13.31410000
_cell_length_c   15.14740000
_cell_angle_alpha   65.09490000
_cell_angle_beta   85.56830000
_cell_angle_gamma   73.44660000
_symmetry_Int_Tables_number   1
_chemical_formula_structural   CoH24C36(NO)4
_chemical_formula_sum   'Co2 H48 C72 N8 O8'
_cell_volume   1885.88765778
_cell_formula_units_Z   2
loop_
 _symmetry_equiv_pos_site_id
 _symmetry_equiv_pos_as_xyz
  1  'x, y, z'
loop_
 _atom_site_type_symbol
 _atom_site_label
 _atom_site_symmetry_multiplicity
 _atom_site_fract_x
 _atom_site_fract_y
 _atom_site_fract_z
 _atom_site_occupancy
  Co  Co0  1  0.87074000  0.98583000  0.41270000  1.0
  Co  Co1  1  0.12926000  0.01417000  0.58730000  1.0
  H  H2  1  0.76780000  0.24450000  0.31155000  1.0
  H  H3  1  0.23221000  0.75549000  0.68846000  1.0
  H  H4  1  0.84347000  0.41393000  0.20092000  1.0
  H  H5  1  0.15653000  0.58607000  0.79909000  1.0
  H  H6  1  0.21083000  0.17670000  0.19730000  1.0
  H  H7  1  0.78918000  0.82331000  0.80271000  1.0
  H  H8  1  0.11941000  0.01610000  0.30773000  1.0
  H  H9  1  0.88059000  0.98390000  0.69227000  1.0
  H  H10  1  0.00691000  0.49224000  0.09714000  1.0
  H  H11  1  0.99309000  0.50776000  0.90286000  1.0
  H  H12  1  0.13760000  0.60661000  0.08480000  1.0
  H  H13  1  0.86240000  0.39340000  0.91520000  1.0
  H  H14  1  0.23440000  0.76181000  0.97480000  1.0
  H  H15  1  0.76560000  0.23820000  0.02519000  1.0
  H  H16  1  0.39280000  0.72839000  0.85514000  1.0
  H  H17  1  0.60720000  0.27160000  0.14486000  1.0
  H  H18  1  0.57158000  0.41336000  0.76529000  1.0
  H  H19  1  0.42842000  0.58663000  0.23472000  1.0
  H  H20  1  0.48276000  0.25492000  0.88022000  1.0
  H  H21  1  0.51725000  0.74507000  0.11980000  1.0
  H  H22  1  0.33029000  0.28662000  0.00400000  1.0
  H  H23  1  0.66971000  0.71338000  0.99601000  1.0
  H  H24  1  0.70971000  0.51573000  0.76851000  1.0
  H  H25  1  0.29030000  0.48426000  0.23149000  1.0
  H  H26  1  0.52505000  0.83857000  0.64746000  1.0
  H  H27  1  0.47495000  0.16142000  0.35254000  1.0
  H  H28  1  0.62438000  0.97926000  0.51521000  1.0
  H  H29  1  0.37561000  0.02074000  0.48479000  1.0
  H  H30  1  0.95352000  0.72345000  0.52257000  1.0
  H  H31  1  0.04647000  0.27654000  0.47742000  1.0
  H  H32  1  0.87123000  0.57088000  0.65594000  1.0
  H  H33  1  0.12876000  0.42912000  0.34405000  1.0
  H  H34  1  0.48026000  0.08542000  0.22799000  1.0
  H  H35  1  0.51974000  0.91459000  0.77201000  1.0
  H  H36  1  0.36331000  0.08248000  0.09632000  1.0
  H  H37  1  0.63668000  0.91754000  0.90367000  1.0
  H  H38  1  0.72653000  0.91494000  0.00985000  1.0
  H  H39  1  0.27346000  0.08505000  0.99015000  1.0
  H  H40  1  0.84003000  0.91483000  0.14508000  1.0
  H  H41  1  0.15996000  0.08516000  0.85493000  1.0
  H  H42  1  0.56921000  0.60401000  0.57010000  1.0
  H  H43  1  0.43079000  0.39599000  0.42989000  1.0
  H  H44  1  0.40300000  0.77800000  0.56115000  1.0
  H  H45  1  0.59700000  0.22201000  0.43885000  1.0
  H  H46  1  0.13825000  0.71083000  0.40895000  1.0
  H  H47  1  0.86176000  0.28918000  0.59105000  1.0
  H  H48  1  0.30273000  0.53417000  0.41866000  1.0
  H  H49  1  0.69726000  0.46583000  0.58134000  1.0
  C  C50  1  0.86603000  0.23304000  0.28591000  1.0
  C  C51  1  0.13398000  0.76696000  0.71409000  1.0
  C  C52  1  0.90876000  0.32711000  0.22405000  1.0
  C  C53  1  0.09125000  0.67289000  0.77596000  1.0
  C  C54  1  0.03432000  0.30909000  0.19000000  1.0
  C  C55  1  0.96568000  0.69092000  0.81001000  1.0
  C  C56  1  0.11234000  0.19451000  0.22153000  1.0
  C  C57  1  0.88767000  0.80549000  0.77848000  1.0
  C  C58  1  0.06228000  0.10571000  0.28311000  1.0
  C  C59  1  0.93772000  0.89429000  0.71690000  1.0
  C  C60  1  0.07893000  0.40658000  0.12193000  1.0
  C  C61  1  0.92107000  0.59343000  0.87808000  1.0
  C  C62  1  0.24051000  0.48388000  0.02832000  1.0
  C  C63  1  0.75949000  0.51612000  0.97168000  1.0
  C  C64  1  0.20595000  0.59142000  0.03166000  1.0
  C  C65  1  0.79406000  0.40857000  0.96835000  1.0
  C  C66  1  0.26163000  0.67885000  0.97011000  1.0
  C  C67  1  0.73837000  0.32115000  0.02990000  1.0
  C  C68  1  0.35065000  0.66057000  0.90387000  1.0
  C  C69  1  0.64934000  0.33943000  0.09613000  1.0
  C  C70  1  0.38727000  0.55306000  0.89730000  1.0
  C  C71  1  0.61273000  0.44694000  0.10270000  1.0
  C  C72  1  0.47730000  0.53222000  0.82783000  1.0
  C  C73  1  0.52270000  0.46778000  0.17217000  1.0
  C  C74  1  0.50853000  0.42623000  0.82180000  1.0
  C  C75  1  0.49147000  0.57376000  0.17821000  1.0
  C  C76  1  0.45604000  0.33762000  0.88538000  1.0
  C  C77  1  0.54397000  0.66237000  0.11463000  1.0
  C  C78  1  0.37073000  0.35485000  0.95395000  1.0
  C  C79  1  0.62926000  0.64515000  0.04605000  1.0
  C  C80  1  0.33394000  0.46220000  0.96078000  1.0
  C  C81  1  0.66606000  0.53780000  0.03922000  1.0
  C  C82  1  0.64097000  0.60299000  0.73705000  1.0
  C  C83  1  0.35903000  0.39701000  0.26295000  1.0
  C  C84  1  0.69060000  0.69225000  0.66198000  1.0
  C  C85  1  0.30940000  0.30774000  0.33802000  1.0
  C  C86  1  0.62014000  0.80947000  0.62149000  1.0
  C  C87  1  0.37986000  0.19052000  0.37850000  1.0
  C  C88  1  0.67425000  0.88747000  0.54824000  1.0
  C  C89  1  0.32575000  0.11253000  0.45176000  1.0
  C  C90  1  0.85898000  0.74435000  0.55203000  1.0
  C  C91  1  0.14102000  0.25565000  0.44797000  1.0
  C  C92  1  0.81267000  0.66066000  0.62612000  1.0
  C  C93  1  0.18733000  0.33933000  0.37387000  1.0
  C  C94  1  0.66798000  0.00068000  0.19476000  1.0
  C  C95  1  0.33201000  0.99932000  0.80524000  1.0
  C  C96  1  0.53329000  0.04789000  0.17979000  1.0
  C  C97  1  0.46671000  0.95213000  0.82020000  1.0
  C  C98  1  0.46827000  0.04631000  0.10479000  1.0
  C  C99  1  0.53173000  0.95370000  0.89520000  1.0
  C  C100  1  0.53469000  0.99975000  0.04055000  1.0
  C  C101  1  0.46530000  0.00026000  0.95945000  1.0
  C  C102  1  0.67027000  0.95264000  0.05683000  1.0
  C  C103  1  0.32973000  0.04736000  0.94317000  1.0
  C  C104  1  0.73541000  0.95247000  0.13255000  1.0
  C  C105  1  0.26458000  0.04752000  0.86745000  1.0
  C  C106  1  0.45024000  0.55310000  0.49623000  1.0
  C  C107  1  0.54976000  0.44690000  0.50377000  1.0
  C  C108  1  0.47527000  0.62506000  0.53496000  1.0
  C  C109  1  0.52473000  0.37495000  0.46503000  1.0
  C  C110  1  0.38230000  0.72410000  0.52973000  1.0
  C  C111  1  0.61770000  0.27590000  0.47027000  1.0
  C  C112  1  0.25974000  0.75522000  0.48512000  1.0
  C  C113  1  0.74026000  0.24479000  0.51488000  1.0
  C  C114  1  0.23311000  0.68554000  0.44495000  1.0
  C  C115  1  0.76689000  0.31446000  0.55505000  1.0
  C  C116  1  0.32685000  0.58651000  0.45031000  1.0
  C  C117  1  0.67315000  0.41349000  0.54969000  1.0
  C  C118  1  0.73991000  0.99945000  0.27544000  1.0
  C  C119  1  0.26010000  0.00055000  0.72455000  1.0
  C  C120  1  0.15983000  0.86015000  0.48198000  1.0
  C  C121  1  0.84017000  0.13985000  0.51801000  1.0
  N  N122  1  0.94116000  0.12340000  0.31599000  1.0
  N  N123  1  0.05884000  0.87660000  0.68401000  1.0
  N  N124  1  0.19443000  0.39186000  0.09072000  1.0
  N  N125  1  0.80557000  0.60814000  0.90929000  1.0
  N  N126  1  0.52386000  0.62314000  0.76408000  1.0
  N  N127  1  0.47613000  0.37686000  0.23592000  1.0
  N  N128  1  0.79157000  0.85648000  0.51340000  1.0
  N  N129  1  0.20843000  0.14351000  0.48660000  1.0
  O  O130  1  0.68342000  0.05460000  0.32586000  1.0
  O  O131  1  0.31658000  0.94541000  0.67413000  1.0
  O  O132  1  0.85952000  0.94207000  0.29405000  1.0
  O  O133  1  0.14049000  0.05794000  0.70595000  1.0
  O  O134  1  0.04456000  0.87493000  0.45523000  1.0
  O  O135  1  0.95544000  0.12507000  0.54478000  1.0
  O  O136  1  0.19682000  0.92870000  0.50587000  1.0
  O  O137  1  0.80318000  0.07131000  0.49412000  1.0
