# generated using pymatgen
data_CuH12C10N2O5
_symmetry_space_group_name_H-M   'P 1'
_cell_length_a   8.00160000
_cell_length_b   8.09151000
_cell_length_c   9.64818000
_cell_angle_alpha   66.81700000
_cell_angle_beta   89.99970000
_cell_angle_gamma   89.99970000
_symmetry_Int_Tables_number   1
_chemical_formula_structural   CuH12C10N2O5
_chemical_formula_sum   'Cu2 H24 C20 N4 O10'
_cell_volume   574.23079579
_cell_formula_units_Z   2
loop_
 _symmetry_equiv_pos_site_id
 _symmetry_equiv_pos_as_xyz
  1  'x, y, z'
loop_
 _atom_site_type_symbol
 _atom_site_label
 _atom_site_symmetry_multiplicity
 _atom_site_fract_x
 _atom_site_fract_y
 _atom_site_fract_z
 _atom_site_occupancy
  Cu  Cu0  1  0.02190000  0.60143000  0.92186000  1.0
  Cu  Cu1  1  0.52189000  0.39857000  0.07814000  1.0
  H  H2  1  0.32926000  0.86513000  0.89584000  1.0
  H  H3  1  0.82927000  0.13487000  0.10416000  1.0
  H  H4  1  0.23260000  0.96274000  0.01494000  1.0
  H  H5  1  0.73260000  0.03727000  0.98506000  1.0
  H  H6  1  0.00938000  0.17372000  0.56679000  1.0
  H  H7  1  0.50938000  0.82628000  0.43321000  1.0
  H  H8  1  0.85677000  0.10919000  0.46459000  1.0
  H  H9  1  0.35678000  0.89080000  0.53542000  1.0
  H  H10  1  0.06943000  0.10771000  0.41932000  1.0
  H  H11  1  0.56943000  0.89229000  0.58068000  1.0
  H  H12  1  0.77290000  0.33050000  0.65883000  1.0
  H  H13  1  0.27289000  0.66950000  0.34118000  1.0
  H  H14  1  0.96544000  0.99169000  0.88260000  1.0
  H  H15  1  0.46544000  0.00832000  0.11739000  1.0
  H  H16  1  0.12650000  0.09509000  0.74808000  1.0
  H  H17  1  0.62650000  0.90492000  0.25192000  1.0
  H  H18  1  0.77254000  0.42889000  0.37999000  1.0
  H  H19  1  0.27254000  0.57110000  0.62001000  1.0
  H  H20  1  0.88984000  0.72815000  0.21763000  1.0
  H  H21  1  0.38985000  0.27185000  0.78236000  1.0
  H  H22  1  0.98520000  0.93348000  0.33254000  1.0
  H  H23  1  0.48521000  0.06652000  0.66746000  1.0
  H  H24  1  0.24525000  0.62511000  0.10664000  1.0
  H  H25  1  0.74525000  0.37489000  0.89336000  1.0
  C  C26  1  0.88378000  0.57383000  0.65654000  1.0
  C  C27  1  0.38377000  0.42617000  0.34346000  1.0
  C  C28  1  0.93911000  0.75142000  0.56336000  1.0
  C  C29  1  0.43910000  0.24857000  0.43664000  1.0
  C  C30  1  0.82135000  0.46230000  0.58646000  1.0
  C  C31  1  0.32134000  0.53769000  0.41355000  1.0
  C  C32  1  0.99035000  0.88558000  0.62198000  1.0
  C  C33  1  0.49035000  0.11442000  0.37802000  1.0
  C  C34  1  0.07930000  0.96643000  0.82985000  1.0
  C  C35  1  0.57929000  0.03357000  0.17015000  1.0
  C  C36  1  0.82058000  0.51795000  0.43105000  1.0
  C  C37  1  0.32057000  0.48205000  0.56895000  1.0
  C  C38  1  0.88332000  0.68760000  0.33916000  1.0
  C  C39  1  0.38332000  0.31240000  0.66085000  1.0
  C  C40  1  0.93784000  0.80184000  0.40529000  1.0
  C  C41  1  0.43784000  0.19816000  0.59471000  1.0
  C  C42  1  0.21185000  0.88092000  0.94861000  1.0
  C  C43  1  0.71185000  0.11909000  0.05139000  1.0
  C  C44  1  0.98250000  0.07981000  0.51401000  1.0
  C  C45  1  0.48250000  0.92019000  0.48599000  1.0
  N  N46  1  0.03607000  0.83867000  0.76209000  1.0
  N  N47  1  0.53607000  0.16133000  0.23791000  1.0
  N  N48  1  0.14939000  0.26797000  0.07837000  1.0
  N  N49  1  0.64939000  0.73203000  0.92163000  1.0
  O  O50  1  0.88301000  0.50812000  0.80663000  1.0
  O  O51  1  0.38301000  0.49188000  0.19337000  1.0
  O  O52  1  0.02370000  0.36088000  0.09510000  1.0
  O  O53  1  0.52370000  0.63912000  0.90490000  1.0
  O  O54  1  0.14958000  0.70623000  0.04653000  1.0
  O  O55  1  0.64959000  0.29378000  0.95347000  1.0
  O  O56  1  0.24769000  0.34164000  0.96913000  1.0
  O  O57  1  0.74769000  0.65836000  0.03087000  1.0
  O  O58  1  0.16778000  0.11032000  0.17167000  1.0
  O  O59  1  0.66779000  0.88968000  0.82833000  1.0
