# generated using pymatgen
data_SrH18(CO)10
_symmetry_space_group_name_H-M   'P 1'
_cell_length_a   6.93047000
_cell_length_b   10.24560000
_cell_length_c   11.44160000
_cell_angle_alpha   105.19800000
_cell_angle_beta   100.46100000
_cell_angle_gamma   96.81280000
_symmetry_Int_Tables_number   1
_chemical_formula_structural   SrH18(CO)10
_chemical_formula_sum   'Sr2 H36 C20 O20'
_cell_volume   759.06656383
_cell_formula_units_Z   2
loop_
 _symmetry_equiv_pos_site_id
 _symmetry_equiv_pos_as_xyz
  1  'x, y, z'
loop_
 _atom_site_type_symbol
 _atom_site_label
 _atom_site_symmetry_multiplicity
 _atom_site_fract_x
 _atom_site_fract_y
 _atom_site_fract_z
 _atom_site_occupancy
  Sr  Sr0  1  0.22724000  0.53505000  0.40368000  1.0
  Sr  Sr1  1  0.77275000  0.46495000  0.59632000  1.0
  H  H2  1  0.11035000  0.31477000  0.74262000  1.0
  H  H3  1  0.88964000  0.68523000  0.25738000  1.0
  H  H4  1  0.21963000  0.18790000  0.65320000  1.0
  H  H5  1  0.78037000  0.81209000  0.34680000  1.0
  H  H6  1  0.45912000  0.44381000  0.85700000  1.0
  H  H7  1  0.54087000  0.55618000  0.14300000  1.0
  H  H8  1  0.55872000  0.31539000  0.76270000  1.0
  H  H9  1  0.44128000  0.68461000  0.23730000  1.0
  H  H10  1  0.30984000  0.26896000  0.94974000  1.0
  H  H11  1  0.69016000  0.73104000  0.05026000  1.0
  H  H12  1  0.39176000  0.13804000  0.84758000  1.0
  H  H13  1  0.60824000  0.86196000  0.15242000  1.0
  H  H14  1  0.75642000  0.22453000  0.13319000  1.0
  H  H15  1  0.24358000  0.77548000  0.86681000  1.0
  H  H16  1  0.32542000  0.86180000  0.58728000  1.0
  H  H17  1  0.67458000  0.13820000  0.41271000  1.0
  H  H18  1  0.02470000  0.00698000  0.37982000  1.0
  H  H19  1  0.97530000  0.99302000  0.62018000  1.0
  H  H20  1  0.25984000  0.11282000  0.43311000  1.0
  H  H21  1  0.74016000  0.88719000  0.56689000  1.0
  H  H22  1  0.15884000  0.87718000  0.18997000  1.0
  H  H23  1  0.84115000  0.12283000  0.81003000  1.0
  H  H24  1  0.35797000  0.01732000  0.23732000  1.0
  H  H25  1  0.64203000  0.98268000  0.76268000  1.0
  H  H26  1  0.91197000  0.02081000  0.15298000  1.0
  H  H27  1  0.08803000  0.97920000  0.84702000  1.0
  H  H28  1  0.10817000  0.06037000  0.08122000  1.0
  H  H29  1  0.89183000  0.93964000  0.91878000  1.0
  H  H30  1  0.98897000  0.44636000  0.11619000  1.0
  H  H31  1  0.01103000  0.55364000  0.88381000  1.0
  H  H32  1  0.15760000  0.56573000  0.12022000  1.0
  H  H33  1  0.84240000  0.43427000  0.87978000  1.0
  H  H34  1  0.25601000  0.72269000  0.67928000  1.0
  H  H35  1  0.74399000  0.27731000  0.32072000  1.0
  H  H36  1  0.49066000  0.73161000  0.67163000  1.0
  H  H37  1  0.50935000  0.26839000  0.32836000  1.0
  C  C38  1  0.24888000  0.37561000  0.60838000  1.0
  C  C39  1  0.75111000  0.62438000  0.39162000  1.0
  C  C40  1  0.24306000  0.29798000  0.70467000  1.0
  C  C41  1  0.75693000  0.70202000  0.29533000  1.0
  C  C42  1  0.43257000  0.33384000  0.80628000  1.0
  C  C43  1  0.56743000  0.66616000  0.19372000  1.0
  C  C44  1  0.42694000  0.24890000  0.89707000  1.0
  C  C45  1  0.57306000  0.75110000  0.10293000  1.0
  C  C46  1  0.62156000  0.27294000  0.99014000  1.0
  C  C47  1  0.37844000  0.72705000  0.00985000  1.0
  C  C48  1  0.25355000  0.90374000  0.43203000  1.0
  C  C49  1  0.74646000  0.09628000  0.56798000  1.0
  C  C50  1  0.18273000  0.01049000  0.37418000  1.0
  C  C51  1  0.81727000  0.98951000  0.62582000  1.0
  C  C52  1  0.20150000  0.98732000  0.23967000  1.0
  C  C53  1  0.79849000  0.01268000  0.76033000  1.0
  C  C54  1  0.07023000  0.06667000  0.17167000  1.0
  C  C55  1  0.92977000  0.93333000  0.82833000  1.0
  C  C56  1  0.09547000  0.21833000  0.23958000  1.0
  C  C57  1  0.90452000  0.78167000  0.76042000  1.0
  O  O58  1  0.08392000  0.38931000  0.54574000  1.0
  O  O59  1  0.91608000  0.61070000  0.45427000  1.0
  O  O60  1  0.41463000  0.42322000  0.58989000  1.0
  O  O61  1  0.58538000  0.57677000  0.41011000  1.0
  O  O62  1  0.77168000  0.35394000  0.99227000  1.0
  O  O63  1  0.22833000  0.64605000  0.00773000  1.0
  O  O64  1  0.61967000  0.19985000  0.06976000  1.0
  O  O65  1  0.38033000  0.80015000  0.93024000  1.0
  O  O66  1  0.26558000  0.78717000  0.37152000  1.0
  O  O67  1  0.73443000  0.21283000  0.62848000  1.0
  O  O68  1  0.29447000  0.94495000  0.55603000  1.0
  O  O69  1  0.70553000  0.05504000  0.44397000  1.0
  O  O70  1  0.93966000  0.27583000  0.23935000  1.0
  O  O71  1  0.06035000  0.72417000  0.76066000  1.0
  O  O72  1  0.26773000  0.28586000  0.29382000  1.0
  O  O73  1  0.73227000  0.71415000  0.70618000  1.0
  O  O74  1  0.10172000  0.51509000  0.17222000  1.0
  O  O75  1  0.89827000  0.48492000  0.82778000  1.0
  O  O76  1  0.35249000  0.73199000  0.62674000  1.0
  O  O77  1  0.64751000  0.26800000  0.37326000  1.0
