# generated using pymatgen
data_CdH9C17(NO)4
_symmetry_space_group_name_H-M   'P 1'
_cell_length_a   10.37930000
_cell_length_b   12.52670000
_cell_length_c   13.47740000
_cell_angle_alpha   111.03500000
_cell_angle_beta   90.00000000
_cell_angle_gamma   90.00000000
_symmetry_Int_Tables_number   1
_chemical_formula_structural   CdH9C17(NO)4
_chemical_formula_sum   'Cd4 H36 C68 N16 O16'
_cell_volume   1635.53810564
_cell_formula_units_Z   4
loop_
 _symmetry_equiv_pos_site_id
 _symmetry_equiv_pos_as_xyz
  1  'x, y, z'
loop_
 _atom_site_type_symbol
 _atom_site_label
 _atom_site_symmetry_multiplicity
 _atom_site_fract_x
 _atom_site_fract_y
 _atom_site_fract_z
 _atom_site_occupancy
  Cd  Cd0  1  0.72458000  0.56946000  0.82554000  1.0
  Cd  Cd1  1  0.22458000  0.43054000  0.67446000  1.0
  Cd  Cd2  1  0.27542000  0.43054000  0.17446000  1.0
  Cd  Cd3  1  0.77542000  0.56946000  0.32554000  1.0
  H  H4  1  0.50750000  0.59341000  0.43295000  1.0
  H  H5  1  0.00750000  0.40659000  0.06705000  1.0
  H  H6  1  0.49250000  0.40659000  0.56705000  1.0
  H  H7  1  0.99250000  0.59341000  0.93295000  1.0
  H  H8  1  0.70254000  0.80957000  0.03347000  1.0
  H  H9  1  0.20254000  0.19043000  0.46653000  1.0
  H  H10  1  0.29746000  0.19043000  0.96653000  1.0
  H  H11  1  0.79746000  0.80957000  0.53347000  1.0
  H  H12  1  0.83785000  0.97961000  0.11770000  1.0
  H  H13  1  0.33785000  0.02039000  0.38230000  1.0
  H  H14  1  0.16215000  0.02038000  0.88230000  1.0
  H  H15  1  0.66215000  0.97961000  0.61770000  1.0
  H  H16  1  0.32706000  0.73036000  0.46385000  1.0
  H  H17  1  0.82706000  0.26965000  0.03615000  1.0
  H  H18  1  0.67294000  0.26964000  0.53615000  1.0
  H  H19  1  0.17294000  0.73036000  0.96385000  1.0
  H  H20  1  0.90199000  0.72355000  0.74841000  1.0
  H  H21  1  0.40199000  0.27645000  0.75159000  1.0
  H  H22  1  0.09801000  0.27645000  0.25158000  1.0
  H  H23  1  0.59801000  0.72355000  0.24842000  1.0
  H  H24  1  0.62322000  0.75443000  0.76122000  1.0
  H  H25  1  0.12322000  0.24557000  0.73878000  1.0
  H  H26  1  0.37678000  0.24557000  0.23878000  1.0
  H  H27  1  0.87678000  0.75443000  0.26122000  1.0
  H  H28  1  0.04329000  0.89004000  0.81751000  1.0
  H  H29  1  0.54329000  0.10996000  0.68248000  1.0
  H  H30  1  0.95671000  0.10996000  0.18249000  1.0
  H  H31  1  0.45671000  0.89004000  0.31751000  1.0
  H  H32  1  0.44270000  0.88922000  0.79265000  1.0
  H  H33  1  0.94270000  0.11078000  0.70735000  1.0
  H  H34  1  0.55730000  0.11078000  0.20735000  1.0
  H  H35  1  0.05730000  0.88922000  0.29265000  1.0
  H  H36  1  0.99602000  0.32489000  0.49360000  1.0
  H  H37  1  0.49602000  0.67511000  0.00640000  1.0
  H  H38  1  0.00398000  0.67511000  0.50640000  1.0
  H  H39  1  0.50397000  0.32489000  0.99360000  1.0
  C  C40  1  0.92244000  0.42468000  0.65932000  1.0
  C  C41  1  0.42244000  0.57532000  0.84067000  1.0
  C  C42  1  0.07756000  0.57532000  0.34067000  1.0
  C  C43  1  0.57756000  0.42468000  0.15932000  1.0
  C  C44  1  0.68513000  0.58279000  0.57555000  1.0
  C  C45  1  0.18513000  0.41720000  0.92445000  1.0
  C  C46  1  0.31487000  0.41720000  0.42445000  1.0
  C  C47  1  0.81487000  0.58279000  0.07555000  1.0
  C  C48  1  0.83217000  0.46939000  0.59867000  1.0
  C  C49  1  0.33217000  0.53061000  0.90133000  1.0
  C  C50  1  0.16783000  0.53061000  0.40133000  1.0
  C  C51  1  0.66783000  0.46939000  0.09867000  1.0
  C  C52  1  0.83179000  0.45915000  0.49151000  1.0
  C  C53  1  0.33179000  0.54085000  0.00849000  1.0
  C  C54  1  0.16821000  0.54085000  0.50849000  1.0
  C  C55  1  0.66821000  0.45915000  0.99151000  1.0
  C  C56  1  0.57802000  0.66379000  0.59508000  1.0
  C  C57  1  0.07802000  0.33621000  0.90492000  1.0
  C  C58  1  0.42198000  0.33621000  0.40492000  1.0
  C  C59  1  0.92198000  0.66379000  0.09508000  1.0
  C  C60  1  0.49363000  0.65850000  0.51158000  1.0
  C  C61  1  0.99363000  0.34150000  0.98842000  1.0
  C  C62  1  0.50637000  0.34150000  0.48842000  1.0
  C  C63  1  0.00637000  0.65850000  0.01158000  1.0
  C  C64  1  0.77938000  0.83095000  0.98856000  1.0
  C  C65  1  0.27938000  0.16905000  0.51144000  1.0
  C  C66  1  0.22062000  0.16905000  0.01144000  1.0
  C  C67  1  0.72062000  0.83095000  0.48856000  1.0
  C  C68  1  0.95613000  0.95097000  0.97608000  1.0
  C  C69  1  0.45613000  0.04903000  0.52392000  1.0
  C  C70  1  0.04387000  0.04903000  0.02392000  1.0
  C  C71  1  0.54387000  0.95097000  0.47608000  1.0
  C  C72  1  0.85566000  0.92698000  0.03496000  1.0
  C  C73  1  0.35566000  0.07302000  0.46504000  1.0
  C  C74  1  0.14434000  0.07302000  0.96504000  1.0
  C  C75  1  0.64434000  0.92698000  0.53496000  1.0
  C  C76  1  0.39147000  0.73461000  0.52890000  1.0
  C  C77  1  0.89147000  0.26539000  0.97110000  1.0
  C  C78  1  0.60853000  0.26539000  0.47110000  1.0
  C  C79  1  0.10853000  0.73461000  0.02890000  1.0
  C  C80  1  0.88991000  0.78289000  0.82972000  1.0
  C  C81  1  0.38991000  0.21710000  0.67028000  1.0
  C  C82  1  0.11009000  0.21710000  0.17028000  1.0
  C  C83  1  0.61009000  0.78289000  0.32972000  1.0
  C  C84  1  0.55794000  0.74747000  0.69612000  1.0
  C  C85  1  0.05793000  0.25253000  0.80388000  1.0
  C  C86  1  0.44207000  0.25253000  0.30388000  1.0
  C  C87  1  0.94206000  0.74747000  0.19612000  1.0
  C  C88  1  0.97013000  0.87724000  0.87005000  1.0
  C  C89  1  0.47013000  0.12276000  0.62995000  1.0
  C  C90  1  0.02987000  0.12276000  0.12995000  1.0
  C  C91  1  0.52987000  0.87724000  0.37005000  1.0
  C  C92  1  0.37115000  0.81723000  0.63093000  1.0
  C  C93  1  0.87116000  0.18277000  0.86908000  1.0
  C  C94  1  0.62885000  0.18277000  0.36907000  1.0
  C  C95  1  0.12884000  0.81723000  0.13092000  1.0
  C  C96  1  0.45585000  0.82356000  0.71436000  1.0
  C  C97  1  0.95584000  0.17644000  0.78564000  1.0
  C  C98  1  0.54416000  0.17644000  0.28564000  1.0
  C  C99  1  0.04416000  0.82356000  0.21436000  1.0
  C  C100  1  0.26551000  0.89476000  0.65120000  1.0
  C  C101  1  0.76552000  0.10524000  0.84880000  1.0
  C  C102  1  0.73449000  0.10524000  0.34880000  1.0
  C  C103  1  0.23448000  0.89476000  0.15120000  1.0
  C  C104  1  0.90339000  0.38467000  0.39810000  1.0
  C  C105  1  0.40339000  0.61534000  0.10190000  1.0
  C  C106  1  0.09661000  0.61534000  0.60190000  1.0
  C  C107  1  0.59661000  0.38467000  0.89810000  1.0
  N  N108  1  0.73915000  0.54682000  0.65006000  1.0
  N  N109  1  0.23915000  0.45318000  0.84994000  1.0
  N  N110  1  0.26085000  0.45317000  0.34994000  1.0
  N  N111  1  0.76085000  0.54682000  0.15006000  1.0
  N  N112  1  0.79716000  0.75854000  0.88798000  1.0
  N  N113  1  0.29716000  0.24146000  0.61203000  1.0
  N  N114  1  0.20284000  0.24146000  0.11202000  1.0
  N  N115  1  0.70284000  0.75854000  0.38798000  1.0
  N  N116  1  0.74063000  0.53213000  0.47903000  1.0
  N  N117  1  0.24063000  0.46787000  0.02097000  1.0
  N  N118  1  0.25937000  0.46787000  0.52097000  1.0
  N  N119  1  0.75937000  0.53213000  0.97903000  1.0
  N  N120  1  0.17900000  0.95887000  0.67047000  1.0
  N  N121  1  0.67900000  0.04113000  0.82953000  1.0
  N  N122  1  0.82100000  0.04113000  0.32953000  1.0
  N  N123  1  0.32101000  0.95887000  0.17047000  1.0
  O  O124  1  0.91308000  0.45831000  0.75872000  1.0
  O  O125  1  0.41308000  0.54169000  0.74128000  1.0
  O  O126  1  0.08692000  0.54169000  0.24128000  1.0
  O  O127  1  0.58692000  0.45831000  0.25872000  1.0
  O  O128  1  0.01305000  0.35641000  0.60584000  1.0
  O  O129  1  0.51305000  0.64359000  0.89416000  1.0
  O  O130  1  0.98695000  0.64359000  0.39416000  1.0
  O  O131  1  0.48695000  0.35641000  0.10584000  1.0
  O  O132  1  0.98436000  0.30942000  0.41108000  1.0
  O  O133  1  0.48436000  0.69058000  0.08892000  1.0
  O  O134  1  0.01564000  0.69058000  0.58892000  1.0
  O  O135  1  0.51564000  0.30942000  0.91108000  1.0
  O  O136  1  0.88654000  0.39090000  0.30859000  1.0
  O  O137  1  0.38654000  0.60910000  0.19141000  1.0
  O  O138  1  0.11346000  0.60910000  0.69141000  1.0
  O  O139  1  0.61346000  0.39090000  0.80859000  1.0
