# generated using pymatgen
data_AlH17C18(NO3)3
_symmetry_space_group_name_H-M   'P 1'
_cell_length_a   6.74457000
_cell_length_b   18.99200000
_cell_length_c   20.42230000
_cell_angle_alpha   99.56270000
_cell_angle_beta   90.17160000
_cell_angle_gamma   93.68450000
_symmetry_Int_Tables_number   1
_chemical_formula_structural   AlH17C18(NO3)3
_chemical_formula_sum   'Al4 H68 C72 N12 O36'
_cell_volume   2574.02052100
_cell_formula_units_Z   4
loop_
 _symmetry_equiv_pos_site_id
 _symmetry_equiv_pos_as_xyz
  1  'x, y, z'
loop_
 _atom_site_type_symbol
 _atom_site_label
 _atom_site_symmetry_multiplicity
 _atom_site_fract_x
 _atom_site_fract_y
 _atom_site_fract_z
 _atom_site_occupancy
  Al  Al0  1  0.71390000  0.75356000  0.74893000  1.0
  Al  Al1  1  0.26278000  0.25447000  0.24665000  1.0
  Al  Al2  1  0.21290000  0.75158000  0.74626000  1.0
  Al  Al3  1  0.76143000  0.24938000  0.23926000  1.0
  H  H4  1  0.77721000  0.46910000  0.91560000  1.0
  H  H5  1  0.27451000  0.53031000  0.06600000  1.0
  H  H6  1  0.28091000  0.02562000  0.56835000  1.0
  H  H7  1  0.79805000  0.00994000  0.44285000  1.0
  H  H8  1  0.19608000  0.69313000  0.93651000  1.0
  H  H9  1  0.75519000  0.34125000  0.07912000  1.0
  H  H10  1  0.70650000  0.82753000  0.56490000  1.0
  H  H11  1  0.20119000  0.11532000  0.37865000  1.0
  H  H12  1  0.63662000  0.49955000  0.81688000  1.0
  H  H13  1  0.39704000  0.55920000  0.88058000  1.0
  H  H14  1  0.42952000  0.61550000  0.81786000  1.0
  H  H15  1  0.55632000  0.63829000  0.89370000  1.0
  H  H16  1  0.38851000  0.51679000  0.16152000  1.0
  H  H17  1  0.63640000  0.44749000  0.16851000  1.0
  H  H18  1  0.47707000  0.36884000  0.14797000  1.0
  H  H19  1  0.48936000  0.41341000  0.23016000  1.0
  H  H20  1  0.18532000  0.01359000  0.66651000  1.0
  H  H21  1  0.96028000  0.93271000  0.59170000  1.0
  H  H22  1  0.88926000  0.94270000  0.67720000  1.0
  H  H23  1  0.00954000  0.86566000  0.64141000  1.0
  H  H24  1  0.96786000  0.07990000  0.39834000  1.0
  H  H25  1  0.92125000  0.19804000  0.45648000  1.0
  H  H26  1  0.81860000  0.21965000  0.38312000  1.0
  H  H27  1  0.07112000  0.20313000  0.38434000  1.0
  H  H28  1  0.31132000  0.67707000  0.03038000  1.0
  H  H29  1  0.25211000  0.67865000  0.14242000  1.0
  H  H30  1  0.07203000  0.60546000  0.12423000  1.0
  H  H31  1  0.01685000  0.69078000  0.10655000  1.0
  H  H32  1  0.59977000  0.47147000  0.99006000  1.0
  H  H33  1  0.38967000  0.37088000  0.96263000  1.0
  H  H34  1  0.44604000  0.36237000  0.04569000  1.0
  H  H35  1  0.58000000  0.31485000  0.97841000  1.0
  H  H36  1  0.82261000  0.84275000  0.47030000  1.0
  H  H37  1  0.80349000  0.83977000  0.35970000  1.0
  H  H38  1  0.66209000  0.91592000  0.36719000  1.0
  H  H39  1  0.54629000  0.83225000  0.38011000  1.0
  H  H40  1  0.10075000  0.98788000  0.48405000  1.0
  H  H41  1  0.91102000  0.08156000  0.53810000  1.0
  H  H42  1  0.06969000  0.14485000  0.50500000  1.0
  H  H43  1  0.16074000  0.10246000  0.56816000  1.0
  H  H44  1  0.90704000  0.77124000  0.95346000  1.0
  H  H45  1  0.34206000  0.22984000  0.04488000  1.0
  H  H46  1  0.41365000  0.75896000  0.54023000  1.0
  H  H47  1  0.41281000  0.23627000  0.43754000  1.0
  H  H48  1  0.18720000  0.95362000  0.73634000  1.0
  H  H49  1  0.90799000  0.07427000  0.29141000  1.0
  H  H50  1  0.26996000  0.53290000  0.76566000  1.0
  H  H51  1  0.91030000  0.47051000  0.25362000  1.0
  H  H52  1  0.72757000  0.89896000  0.14118000  1.0
  H  H53  1  0.82786000  0.77659000  0.08569000  1.0
  H  H54  1  0.00121000  0.82834000  0.14429000  1.0
  H  H55  1  0.03648000  0.82563000  0.05794000  1.0
  H  H56  1  0.45949000  0.04868000  0.90708000  1.0
  H  H57  1  0.65617000  0.10563000  0.00312000  1.0
  H  H58  1  0.63442000  0.01010000  0.99646000  1.0
  H  H59  1  0.48955000  0.06466000  0.05483000  1.0
  H  H60  1  0.61192000  0.61576000  0.36402000  1.0
  H  H61  1  0.76628000  0.71556000  0.44451000  1.0
  H  H62  1  0.92498000  0.64341000  0.42191000  1.0
  H  H63  1  0.79834000  0.65267000  0.49847000  1.0
  H  H64  1  0.59806000  0.39990000  0.64636000  1.0
  H  H65  1  0.68674000  0.29595000  0.54737000  1.0
  H  H66  1  0.87947000  0.34944000  0.59551000  1.0
  H  H67  1  0.80940000  0.36981000  0.51740000  1.0
  H  H68  1  0.46562000  0.78715000  0.83140000  1.0
  H  H69  1  0.48744000  0.21674000  0.16001000  1.0
  H  H70  1  0.95060000  0.71232000  0.66536000  1.0
  H  H71  1  0.00598000  0.30123000  0.32027000  1.0
  C  C72  1  0.44509000  0.64766000  0.66132000  1.0
  C  C73  1  0.53597000  0.35315000  0.33284000  1.0
  C  C74  1  0.97802000  0.85123000  0.83898000  1.0
  C  C75  1  0.00390000  0.14572000  0.16401000  1.0
  C  C76  1  0.47226000  0.83788000  0.67031000  1.0
  C  C77  1  0.50620000  0.16438000  0.31872000  1.0
  C  C78  1  0.96327000  0.67026000  0.82529000  1.0
  C  C79  1  0.02582000  0.33757000  0.16666000  1.0
  C  C80  1  0.86215000  0.52047000  0.92332000  1.0
  C  C81  1  0.15529000  0.48965000  0.06982000  1.0
  C  C82  1  0.36696000  0.97891000  0.56388000  1.0
  C  C83  1  0.66254000  0.03317000  0.43023000  1.0
  C  C84  1  0.83514000  0.56513000  0.87676000  1.0
  C  C85  1  0.18032000  0.44525000  0.11757000  1.0
  C  C86  1  0.34947000  0.94006000  0.61566000  1.0
  C  C87  1  0.68183000  0.08650000  0.39059000  1.0
  C  C88  1  0.96391000  0.62682000  0.87995000  1.0
  C  C89  1  0.03255000  0.38869000  0.11863000  1.0
  C  C90  1  0.47627000  0.88430000  0.61697000  1.0
  C  C91  1  0.50975000  0.11507000  0.36914000  1.0
  C  C92  1  0.09462000  0.64536000  0.93415000  1.0
  C  C93  1  0.86822000  0.38373000  0.07537000  1.0
  C  C94  1  0.60651000  0.87025000  0.56375000  1.0
  C  C95  1  0.33128000  0.09383000  0.39664000  1.0
  C  C96  1  0.09934000  0.60610000  0.98673000  1.0
  C  C97  1  0.83512000  0.43224000  0.03262000  1.0
  C  C98  1  0.61183000  0.90572000  0.50815000  1.0
  C  C99  1  0.31365000  0.04736000  0.44299000  1.0
  C  C100  1  0.98493000  0.53872000  0.98029000  1.0
  C  C101  1  0.98945000  0.48722000  0.02787000  1.0
  C  C102  1  0.48767000  0.96384000  0.50836000  1.0
  C  C103  1  0.48467000  0.01286000  0.45878000  1.0
  C  C104  1  0.01382000  0.90752000  0.90026000  1.0
  C  C105  1  0.01199000  0.07697000  0.11674000  1.0
  C  C106  1  0.45264000  0.58208000  0.60717000  1.0
  C  C107  1  0.56090000  0.41586000  0.38933000  1.0
  C  C108  1  0.89639000  0.95133000  0.08359000  1.0
  C  C109  1  0.23348000  0.00878000  0.95323000  1.0
  C  C110  1  0.57972000  0.54583000  0.42591000  1.0
  C  C111  1  0.54216000  0.45699000  0.57633000  1.0
  C  C112  1  0.91748000  0.01293000  0.13268000  1.0
  C  C113  1  0.17030000  0.96036000  0.89661000  1.0
  C  C114  1  0.61229000  0.48646000  0.37653000  1.0
  C  C115  1  0.47822000  0.51388000  0.62473000  1.0
  C  C116  1  0.11399000  0.07665000  0.05804000  1.0
  C  C117  1  0.92041000  0.90159000  0.96037000  1.0
  C  C118  1  0.51967000  0.40565000  0.45392000  1.0
  C  C119  1  0.46991000  0.59245000  0.54142000  1.0
  C  C120  1  0.11191000  0.01211000  0.01097000  1.0
  C  C121  1  0.97551000  0.95343000  0.01816000  1.0
  C  C122  1  0.53220000  0.46524000  0.50733000  1.0
  C  C123  1  0.52320000  0.53490000  0.49166000  1.0
  C  C124  1  0.50434000  0.59257000  0.85621000  1.0
  C  C125  1  0.49194000  0.42175000  0.17845000  1.0
  C  C126  1  0.00213000  0.92307000  0.64144000  1.0
  C  C127  1  0.92493000  0.18703000  0.40189000  1.0
  C  C128  1  0.13574000  0.65354000  0.10680000  1.0
  C  C129  1  0.51174000  0.36543000  0.99667000  1.0
  C  C130  1  0.68441000  0.86723000  0.38778000  1.0
  C  C131  1  0.06404000  0.09379000  0.52323000  1.0
  C  C132  1  0.73782000  0.85087000  0.95967000  1.0
  C  C133  1  0.16962000  0.14687000  0.03472000  1.0
  C  C134  1  0.38746000  0.65746000  0.52231000  1.0
  C  C135  1  0.41706000  0.33703000  0.46612000  1.0
  C  C136  1  0.25642000  0.96972000  0.83147000  1.0
  C  C137  1  0.85633000  0.01153000  0.20255000  1.0
  C  C138  1  0.42545000  0.49827000  0.69072000  1.0
  C  C139  1  0.71047000  0.50153000  0.31474000  1.0
  C  C140  1  0.92290000  0.82638000  0.09636000  1.0
  C  C141  1  0.55297000  0.05905000  0.00515000  1.0
  C  C142  1  0.78540000  0.65888000  0.44633000  1.0
  C  C143  1  0.75247000  0.35084000  0.56199000  1.0
  N  N144  1  0.67659000  0.55271000  0.83014000  1.0
  N  N145  1  0.33365000  0.46637000  0.16427000  1.0
  N  N146  1  0.19783000  0.95968000  0.66305000  1.0
  N  N147  1  0.87581000  0.11026000  0.37605000  1.0
  N  N148  1  0.22567000  0.63460000  0.04152000  1.0
  N  N149  1  0.65688000  0.42495000  0.99650000  1.0
  N  N150  1  0.74662000  0.88337000  0.45795000  1.0
  N  N151  1  0.12184000  0.03702000  0.47026000  1.0
  N  N152  1  0.80354000  0.88832000  0.09751000  1.0
  N  N153  1  0.39804000  0.05536000  0.95355000  1.0
  N  N154  1  0.61251000  0.61549000  0.41409000  1.0
  N  N155  1  0.61152000  0.39862000  0.59603000  1.0
  O  O156  1  0.30171000  0.82375000  0.69354000  1.0
  O  O157  1  0.66882000  0.17678000  0.29019000  1.0
  O  O158  1  0.80050000  0.69430000  0.81045000  1.0
  O  O159  1  0.18897000  0.31786000  0.18688000  1.0
  O  O160  1  0.61422000  0.66841000  0.68790000  1.0
  O  O161  1  0.35912000  0.33554000  0.31134000  1.0
  O  O162  1  0.13406000  0.82000000  0.81896000  1.0
  O  O163  1  0.83596000  0.17214000  0.17448000  1.0
  O  O164  1  0.63622000  0.81486000  0.68548000  1.0
  O  O165  1  0.34168000  0.19128000  0.30892000  1.0
  O  O166  1  0.13116000  0.67986000  0.79827000  1.0
  O  O167  1  0.85232000  0.31644000  0.18399000  1.0
  O  O168  1  0.80504000  0.83593000  0.81390000  1.0
  O  O169  1  0.17052000  0.17337000  0.18723000  1.0
  O  O170  1  0.28419000  0.67801000  0.67394000  1.0
  O  O171  1  0.69072000  0.32333000  0.31153000  1.0
  O  O172  1  0.46477000  0.75848000  0.78722000  1.0
  O  O173  1  0.50710000  0.24769000  0.20298000  1.0
  O  O174  1  0.95970000  0.74759000  0.70578000  1.0
  O  O175  1  0.01100000  0.26060000  0.28455000  1.0
  O  O176  1  0.56902000  0.87007000  0.96007000  1.0
  O  O177  1  0.76539000  0.77952000  0.95403000  1.0
  O  O178  1  0.06208000  0.17060000  0.99660000  1.0
  O  O179  1  0.33583000  0.18480000  0.06269000  1.0
  O  O180  1  0.23455000  0.65649000  0.48984000  1.0
  O  O181  1  0.48846000  0.71924000  0.55030000  1.0
  O  O182  1  0.26797000  0.33287000  0.49959000  1.0
  O  O183  1  0.50195000  0.27838000  0.43383000  1.0
  O  O184  1  0.42750000  0.99445000  0.82340000  1.0
  O  O185  1  0.12229000  0.95260000  0.78301000  1.0
  O  O186  1  0.72930000  0.96856000  0.21990000  1.0
  O  O187  1  0.96220000  0.06152000  0.24479000  1.0
  O  O188  1  0.48071000  0.44772000  0.71619000  1.0
  O  O189  1  0.29163000  0.54260000  0.72050000  1.0
  O  O190  1  0.67712000  0.55224000  0.28646000  1.0
  O  O191  1  0.85429000  0.45683000  0.29440000  1.0
