# generated using pymatgen
data_NiH11C12(NO)3
_symmetry_space_group_name_H-M   'P 1'
_cell_length_a   8.38142000
_cell_length_b   8.99657000
_cell_length_c   8.63459000
_cell_angle_alpha   77.16900000
_cell_angle_beta   72.40210000
_cell_angle_gamma   75.67450000
_symmetry_Int_Tables_number   1
_chemical_formula_structural   NiH11C12(NO)3
_chemical_formula_sum   'Ni2 H22 C24 N6 O6'
_cell_volume   593.62183563
_cell_formula_units_Z   2
loop_
 _symmetry_equiv_pos_site_id
 _symmetry_equiv_pos_as_xyz
  1  'x, y, z'
loop_
 _atom_site_type_symbol
 _atom_site_label
 _atom_site_symmetry_multiplicity
 _atom_site_fract_x
 _atom_site_fract_y
 _atom_site_fract_z
 _atom_site_occupancy
  Ni  Ni0  1  0.83246000  0.98939000  0.10365000  1.0
  Ni  Ni1  1  0.16754000  0.01061000  0.89635000  1.0
  H  H2  1  0.30691000  0.06619000  0.27284000  1.0
  H  H3  1  0.69309000  0.93381000  0.72716000  1.0
  H  H4  1  0.03006000  0.40183000  0.36506000  1.0
  H  H5  1  0.96994000  0.59817000  0.63494000  1.0
  H  H6  1  0.89324000  0.16432000  0.29597000  1.0
  H  H7  1  0.10677000  0.83568000  0.70402000  1.0
  H  H8  1  0.72438000  0.34327000  0.49538000  1.0
  H  H9  1  0.27562000  0.65673000  0.50462000  1.0
  H  H10  1  0.40057000  0.38552000  0.56743000  1.0
  H  H11  1  0.59944000  0.61447000  0.43257000  1.0
  H  H12  1  0.26789000  0.23369000  0.44984000  1.0
  H  H13  1  0.73211000  0.76631000  0.55016000  1.0
  H  H14  1  0.25565000  0.85730000  0.21047000  1.0
  H  H15  1  0.74435000  0.14270000  0.78954000  1.0
  H  H16  1  0.36959000  0.60129000  0.12084000  1.0
  H  H17  1  0.63041000  0.39871000  0.87916000  1.0
  H  H18  1  0.69585000  0.50809000  0.03641000  1.0
  H  H19  1  0.30416000  0.49191000  0.96358000  1.0
  H  H20  1  0.87647000  0.68121000  0.04039000  1.0
  H  H21  1  0.12354000  0.31879000  0.95960000  1.0
  H  H22  1  0.05385000  0.78583000  0.02833000  1.0
  H  H23  1  0.94615000  0.21417000  0.97168000  1.0
  C  C24  1  0.01418000  0.50564000  0.41840000  1.0
  C  C25  1  0.98581000  0.49436000  0.58160000  1.0
  C  C26  1  0.75465000  0.18666000  0.33175000  1.0
  C  C27  1  0.24535000  0.81334000  0.66824000  1.0
  C  C28  1  0.65886000  0.28721000  0.44033000  1.0
  C  C29  1  0.34115000  0.71279000  0.55967000  1.0
  C  C30  1  0.48053000  0.30914000  0.48000000  1.0
  C  C31  1  0.51948000  0.69086000  0.52000000  1.0
  C  C32  1  0.40599000  0.22706000  0.41262000  1.0
  C  C33  1  0.59401000  0.77294000  0.58738000  1.0
  C  C34  1  0.51148000  0.12685000  0.30226000  1.0
  C  C35  1  0.48852000  0.87315000  0.69774000  1.0
  C  C36  1  0.50636000  0.90530000  0.17633000  1.0
  C  C37  1  0.49364000  0.09470000  0.82368000  1.0
  C  C38  1  0.39332000  0.81591000  0.16971000  1.0
  C  C39  1  0.60668000  0.18409000  0.83030000  1.0
  C  C40  1  0.45819000  0.67150000  0.12102000  1.0
  C  C41  1  0.54181000  0.32850000  0.87898000  1.0
  C  C42  1  0.63510000  0.62011000  0.07592000  1.0
  C  C43  1  0.36490000  0.37989000  0.92408000  1.0
  C  C44  1  0.73891000  0.71714000  0.07746000  1.0
  C  C45  1  0.26109000  0.28286000  0.92254000  1.0
  C  C46  1  0.03096000  0.65418000  0.30085000  1.0
  C  C47  1  0.96904000  0.34582000  0.69915000  1.0
  N  N48  1  0.68334000  0.11016000  0.25868000  1.0
  N  N49  1  0.31665000  0.88984000  0.74132000  1.0
  N  N50  1  0.43651000  0.04278000  0.23846000  1.0
  N  N51  1  0.56349000  0.95721000  0.76154000  1.0
  N  N52  1  0.67810000  0.85938000  0.12600000  1.0
  N  N53  1  0.32190000  0.14062000  0.87400000  1.0
  O  O54  1  0.98782000  0.78182000  0.35445000  1.0
  O  O55  1  0.01218000  0.21819000  0.64554000  1.0
  O  O56  1  0.00668000  0.88236000  0.95111000  1.0
  O  O57  1  0.99331000  0.11764000  0.04889000  1.0
  O  O58  1  0.09249000  0.63675000  0.14809000  1.0
  O  O59  1  0.90751000  0.36325000  0.85190000  1.0
