# generated using pymatgen
data_CdH8C14S2N6O
_symmetry_space_group_name_H-M   'P 1'
_cell_length_a   7.75339000
_cell_length_b   9.83742000
_cell_length_c   25.16760000
_cell_angle_alpha   89.99970000
_cell_angle_beta   89.34740000
_cell_angle_gamma   89.99920000
_symmetry_Int_Tables_number   1
_chemical_formula_structural   CdH8C14S2N6O
_chemical_formula_sum   'Cd4 H32 C56 S8 N24 O4'
_cell_volume   1919.49274319
_cell_formula_units_Z   4
loop_
 _symmetry_equiv_pos_site_id
 _symmetry_equiv_pos_as_xyz
  1  'x, y, z'
loop_
 _atom_site_type_symbol
 _atom_site_label
 _atom_site_symmetry_multiplicity
 _atom_site_fract_x
 _atom_site_fract_y
 _atom_site_fract_z
 _atom_site_occupancy
  Cd  Cd0  1  0.26691000  0.25352000  0.76084000  1.0
  Cd  Cd1  1  0.26689000  0.24648000  0.26084000  1.0
  Cd  Cd2  1  0.73309000  0.74649000  0.23916000  1.0
  Cd  Cd3  1  0.73310000  0.75351000  0.73916000  1.0
  H  H4  1  0.32728000  0.51861000  0.69173000  1.0
  H  H5  1  0.32727000  0.98138000  0.19174000  1.0
  H  H6  1  0.67274000  0.48139000  0.30827000  1.0
  H  H7  1  0.67273000  0.01861000  0.80826000  1.0
  H  H8  1  0.47657000  0.60636000  0.60964000  1.0
  H  H9  1  0.47657000  0.89363000  0.10964000  1.0
  H  H10  1  0.52344000  0.39364000  0.39036000  1.0
  H  H11  1  0.52343000  0.10636000  0.89036000  1.0
  H  H12  1  0.69025000  0.20406000  0.58747000  1.0
  H  H13  1  0.69021000  0.29594000  0.08747000  1.0
  H  H14  1  0.30975000  0.79595000  0.41253000  1.0
  H  H15  1  0.30977000  0.70406000  0.91253000  1.0
  H  H16  1  0.53041000  0.13291000  0.66959000  1.0
  H  H17  1  0.53038000  0.36709000  0.16959000  1.0
  H  H18  1  0.46960000  0.86709000  0.33041000  1.0
  H  H19  1  0.46960000  0.63291000  0.83041000  1.0
  H  H20  1  0.94306000  0.60545000  0.38862000  1.0
  H  H21  1  0.94304000  0.89455000  0.88862000  1.0
  H  H22  1  0.05695000  0.39455000  0.61138000  1.0
  H  H23  1  0.05697000  0.10545000  0.11138000  1.0
  H  H24  1  0.11693000  0.51420000  0.31187000  1.0
  H  H25  1  0.11693000  0.98579000  0.81188000  1.0
  H  H26  1  0.88306000  0.48579000  0.68813000  1.0
  H  H27  1  0.88308000  0.01421000  0.18813000  1.0
  H  H28  1  0.09461000  0.12183000  0.37114000  1.0
  H  H29  1  0.09461000  0.37816000  0.87114000  1.0
  H  H30  1  0.90539000  0.87816000  0.62885000  1.0
  H  H31  1  0.90539000  0.62185000  0.12886000  1.0
  H  H32  1  0.92392000  0.19597000  0.45125000  1.0
  H  H33  1  0.92390000  0.30403000  0.95125000  1.0
  H  H34  1  0.07608000  0.80402000  0.54875000  1.0
  H  H35  1  0.07610000  0.69598000  0.04875000  1.0
  C  C36  1  0.40704000  0.45226000  0.66692000  1.0
  C  C37  1  0.40703000  0.04773000  0.16692000  1.0
  C  C38  1  0.59297000  0.54774000  0.33308000  1.0
  C  C39  1  0.59296000  0.95227000  0.83308000  1.0
  C  C40  1  0.49040000  0.50069000  0.62176000  1.0
  C  C41  1  0.49039000  0.99930000  0.12176000  1.0
  C  C42  1  0.50961000  0.49931000  0.37824000  1.0
  C  C43  1  0.50961000  0.00070000  0.87824000  1.0
  C  C44  1  0.59197000  0.41099000  0.59152000  1.0
  C  C45  1  0.59195000  0.08901000  0.09152000  1.0
  C  C46  1  0.40804000  0.58901000  0.40848000  1.0
  C  C47  1  0.40805000  0.91099000  0.90848000  1.0
  C  C48  1  0.60921000  0.27646000  0.60884000  1.0
  C  C49  1  0.60918000  0.22353000  0.10884000  1.0
  C  C50  1  0.39079000  0.72354000  0.39116000  1.0
  C  C51  1  0.39081000  0.77647000  0.89116000  1.0
  C  C52  1  0.52059000  0.23655000  0.65463000  1.0
  C  C53  1  0.52057000  0.26344000  0.15463000  1.0
  C  C54  1  0.47942000  0.76345000  0.34537000  1.0
  C  C55  1  0.47942000  0.73655000  0.84537000  1.0
  C  C56  1  0.67457000  0.46143000  0.54353000  1.0
  C  C57  1  0.67455000  0.03856000  0.04353000  1.0
  C  C58  1  0.32544000  0.53857000  0.45647000  1.0
  C  C59  1  0.32545000  0.96144000  0.95647000  1.0
  C  C60  1  0.81987000  0.45999000  0.47059000  1.0
  C  C61  1  0.81985000  0.04001000  0.97059000  1.0
  C  C62  1  0.18014000  0.54001000  0.52941000  1.0
  C  C63  1  0.18015000  0.95999000  0.02941000  1.0
  C  C64  1  0.91954000  0.40728000  0.42603000  1.0
  C  C65  1  0.91952000  0.09272000  0.92603000  1.0
  C  C66  1  0.08046000  0.59272000  0.57397000  1.0
  C  C67  1  0.08048000  0.90729000  0.07397000  1.0
  C  C68  1  0.97429000  0.49764000  0.38613000  1.0
  C  C69  1  0.97428000  0.00237000  0.88613000  1.0
  C  C70  1  0.02571000  0.50236000  0.61387000  1.0
  C  C71  1  0.02573000  0.99764000  0.11387000  1.0
  C  C72  1  0.07000000  0.44736000  0.34349000  1.0
  C  C73  1  0.07000000  0.05263000  0.84349000  1.0
  C  C74  1  0.92999000  0.55263000  0.65651000  1.0
  C  C75  1  0.93000000  0.94738000  0.15651000  1.0
  C  C76  1  0.05872000  0.22808000  0.37688000  1.0
  C  C77  1  0.05872000  0.27192000  0.87688000  1.0
  C  C78  1  0.94127000  0.77192000  0.62312000  1.0
  C  C79  1  0.94128000  0.72809000  0.12312000  1.0
  C  C80  1  0.96303000  0.26945000  0.42111000  1.0
  C  C81  1  0.96301000  0.23055000  0.92111000  1.0
  C  C82  1  0.03697000  0.73055000  0.57889000  1.0
  C  C83  1  0.03699000  0.76945000  0.07889000  1.0
  C  C84  1  0.89682000  0.07380000  0.71417000  1.0
  C  C85  1  0.89681000  0.42621000  0.21417000  1.0
  C  C86  1  0.10316000  0.92619000  0.28583000  1.0
  C  C87  1  0.10319000  0.57382000  0.78583000  1.0
  C  C88  1  0.62365000  0.43859000  0.78238000  1.0
  C  C89  1  0.62364000  0.06141000  0.28238000  1.0
  C  C90  1  0.37635000  0.56140000  0.21762000  1.0
  C  C91  1  0.37635000  0.93858000  0.71762000  1.0
  S  S92  1  0.98281000  0.21513000  0.69363000  1.0
  S  S93  1  0.98280000  0.28488000  0.19362000  1.0
  S  S94  1  0.01719000  0.78487000  0.30638000  1.0
  S  S95  1  0.01721000  0.71514000  0.80637000  1.0
  S  S96  1  0.55874000  0.31284000  0.81960000  1.0
  S  S97  1  0.55873000  0.18715000  0.31960000  1.0
  S  S98  1  0.44125000  0.68715000  0.18040000  1.0
  S  S99  1  0.44125000  0.81283000  0.68040000  1.0
  N  N100  1  0.41967000  0.32189000  0.68271000  1.0
  N  N101  1  0.41966000  0.17810000  0.18271000  1.0
  N  N102  1  0.58033000  0.67811000  0.31729000  1.0
  N  N103  1  0.58033000  0.82190000  0.81729000  1.0
  N  N104  1  0.67370000  0.58651000  0.52521000  1.0
  N  N105  1  0.67370000  0.91349000  0.02521000  1.0
  N  N106  1  0.32630000  0.41349000  0.47479000  1.0
  N  N107  1  0.32631000  0.08651000  0.97479000  1.0
  N  N108  1  0.76800000  0.58568000  0.47831000  1.0
  N  N109  1  0.76799000  0.91431000  0.97832000  1.0
  N  N110  1  0.23201000  0.41431000  0.52169000  1.0
  N  N111  1  0.23202000  0.08569000  0.02168000  1.0
  N  N112  1  0.11176000  0.31508000  0.33886000  1.0
  N  N113  1  0.11177000  0.18491000  0.83886000  1.0
  N  N114  1  0.88823000  0.68491000  0.66114000  1.0
  N  N115  1  0.88824000  0.81510000  0.16114000  1.0
  N  N116  1  0.83047000  0.97187000  0.72890000  1.0
  N  N117  1  0.83047000  0.52813000  0.22890000  1.0
  N  N118  1  0.16950000  0.02812000  0.27110000  1.0
  N  N119  1  0.16953000  0.47189000  0.77110000  1.0
  N  N120  1  0.66910000  0.52971000  0.75488000  1.0
  N  N121  1  0.66909000  0.97029000  0.25487000  1.0
  N  N122  1  0.33090000  0.47028000  0.24513000  1.0
  N  N123  1  0.33090000  0.02970000  0.74512000  1.0
  O  O124  1  0.76543000  0.37530000  0.51075000  1.0
  O  O125  1  0.76540000  0.12470000  0.01075000  1.0
  O  O126  1  0.23458000  0.62470000  0.48925000  1.0
  O  O127  1  0.23460000  0.87530000  0.98925000  1.0
