# generated using pymatgen
data_ZnNiH12(C3N2)4
_symmetry_space_group_name_H-M   'P 1'
_cell_length_a   6.99177000
_cell_length_b   7.28436000
_cell_length_c   8.97291600
_cell_angle_alpha   113.93023388
_cell_angle_beta   112.05685252
_cell_angle_gamma   90.05570000
_symmetry_Int_Tables_number   1
_chemical_formula_structural   ZnNiH12(C3N2)4
_chemical_formula_sum   'Zn1 Ni1 H12 C12 N8'
_cell_volume   380.74957452
_cell_formula_units_Z   1
loop_
 _symmetry_equiv_pos_site_id
 _symmetry_equiv_pos_as_xyz
  1  'x, y, z'
loop_
 _atom_site_type_symbol
 _atom_site_label
 _atom_site_symmetry_multiplicity
 _atom_site_fract_x
 _atom_site_fract_y
 _atom_site_fract_z
 _atom_site_occupancy
  Zn  Zn0  1  1.00000000  0.49998000  1.00000000  1.0
  Ni  Ni1  1  0.50000000  0.99999000  1.00000000  1.0
  H  H2  1  0.52868000  0.60746000  0.21720000  1.0
  H  H3  1  0.47131000  0.39251000  0.78280000  1.0
  H  H4  1  0.44550000  0.85121000  0.70022000  1.0
  H  H5  1  0.55449000  0.14885000  0.29978000  1.0
  H  H6  1  0.05380000  0.70539000  0.40826000  1.0
  H  H7  1  0.94619000  0.29464000  0.59173000  1.0
  H  H8  1  0.81080000  0.86660000  0.73517000  1.0
  H  H9  1  0.18919000  0.13340000  0.26483000  1.0
  H  H10  1  0.84804000  0.90563000  0.56426000  1.0
  H  H11  1  0.15257000  0.34250000  0.43660000  1.0
  H  H12  1  0.15195000  0.09440000  0.43576000  1.0
  H  H13  1  0.84744000  0.65752000  0.56340000  1.0
  C  C14  1  0.44969000  0.65287000  0.30678000  1.0
  C  C15  1  0.55030000  0.34712000  0.69322000  1.0
  C  C16  1  0.40186000  0.77913000  0.55689000  1.0
  C  C17  1  0.59813000  0.22090000  0.44310000  1.0
  C  C18  1  0.21062000  0.70711000  0.41256000  1.0
  C  C19  1  0.78939000  0.29291000  0.58744000  1.0
  C  C20  1  0.77835000  0.79599000  0.59289000  1.0
  C  C21  1  0.22164000  0.20402000  0.40711000  1.0
  C  C22  1  0.70368000  0.84904000  0.05109000  1.0
  C  C23  1  0.29835000  0.79497000  0.94773000  1.0
  C  C24  1  0.29631000  0.15093000  0.94889000  1.0
  C  C25  1  0.70167000  0.20499000  0.05227000  1.0
  N  N26  1  0.24294000  0.62897000  0.25779000  1.0
  N  N27  1  0.75706000  0.37102000  0.74221000  1.0
  N  N28  1  0.55179000  0.74384000  0.48802000  1.0
  N  N29  1  0.44820000  0.25618000  0.51198000  1.0
  N  N30  1  0.83255000  0.74978000  0.07821000  1.0
  N  N31  1  0.17059000  0.66702000  0.92010000  1.0
  N  N32  1  0.16747000  0.25020000  0.92180000  1.0
  N  N33  1  0.82941000  0.33296000  0.07989000  1.0
