# generated using pymatgen
data_ZnH12C6N2O9
_symmetry_space_group_name_H-M   'P 1'
_cell_length_a   4.99033000
_cell_length_b   4.99019000
_cell_length_c   24.00310000
_cell_angle_alpha   85.85880000
_cell_angle_beta   85.85690000
_cell_angle_gamma   81.04440000
_symmetry_Int_Tables_number   1
_chemical_formula_structural   ZnH12C6N2O9
_chemical_formula_sum   'Zn2 H24 C12 N4 O18'
_cell_volume   587.78327124
_cell_formula_units_Z   2
loop_
 _symmetry_equiv_pos_site_id
 _symmetry_equiv_pos_as_xyz
  1  'x, y, z'
loop_
 _atom_site_type_symbol
 _atom_site_label
 _atom_site_symmetry_multiplicity
 _atom_site_fract_x
 _atom_site_fract_y
 _atom_site_fract_z
 _atom_site_occupancy
  Zn  Zn0  1  0.89108000  0.10893000  0.25000000  1.0
  Zn  Zn1  1  0.10893000  0.89108000  0.75000000  1.0
  H  H2  1  0.05207000  0.79107000  0.07877000  1.0
  H  H3  1  0.20896000  0.94793000  0.42123000  1.0
  H  H4  1  0.94792000  0.20893000  0.92123000  1.0
  H  H5  1  0.79105000  0.05208000  0.57877000  1.0
  H  H6  1  0.88925000  0.51732000  0.10832000  1.0
  H  H7  1  0.48266000  0.11079000  0.39168000  1.0
  H  H8  1  0.11075000  0.48266000  0.89169000  1.0
  H  H9  1  0.51733000  0.88922000  0.60832000  1.0
  H  H10  1  0.27990000  0.26098000  0.17436000  1.0
  H  H11  1  0.73904000  0.72011000  0.32564000  1.0
  H  H12  1  0.72010000  0.73904000  0.82564000  1.0
  H  H13  1  0.26097000  0.27990000  0.67437000  1.0
  H  H14  1  0.07626000  0.55054000  0.19042000  1.0
  H  H15  1  0.44949000  0.92375000  0.30958000  1.0
  H  H16  1  0.92375000  0.44946000  0.80958000  1.0
  H  H17  1  0.55053000  0.07626000  0.69042000  1.0
  H  H18  1  0.60034000  0.59995000  0.03895000  1.0
  H  H19  1  0.40003000  0.39966000  0.46105000  1.0
  H  H20  1  0.39965000  0.40004000  0.96105000  1.0
  H  H21  1  0.59997000  0.60034000  0.53894000  1.0
  H  H22  1  0.40693000  0.40112000  0.23589000  1.0
  H  H23  1  0.59888000  0.59307000  0.26412000  1.0
  H  H24  1  0.59307000  0.59889000  0.76412000  1.0
  H  H25  1  0.40112000  0.40694000  0.73588000  1.0
  C  C26  1  0.75873000  0.90005000  0.14581000  1.0
  C  C27  1  0.09997000  0.24129000  0.35419000  1.0
  C  C28  1  0.24127000  0.09994000  0.85419000  1.0
  C  C29  1  0.90004000  0.75873000  0.64582000  1.0
  C  C30  1  0.85481000  0.73425000  0.09488000  1.0
  C  C31  1  0.26576000  0.14516000  0.40512000  1.0
  C  C32  1  0.14517000  0.26572000  0.90513000  1.0
  C  C33  1  0.73424000  0.85483000  0.59488000  1.0
  C  C34  1  0.60307000  0.00606000  0.02203000  1.0
  C  C35  1  0.99395000  0.39692000  0.47797000  1.0
  C  C36  1  0.39691000  0.99393000  0.97798000  1.0
  C  C37  1  0.00606000  0.60307000  0.52202000  1.0
  N  N38  1  0.66477000  0.76982000  0.05170000  1.0
  N  N39  1  0.23018000  0.33523000  0.44830000  1.0
  N  N40  1  0.33521000  0.23015000  0.94830000  1.0
  N  N41  1  0.76982000  0.66479000  0.55170000  1.0
  O  O42  1  0.15266000  0.35751000  0.20301000  1.0
  O  O43  1  0.64250000  0.84733000  0.29699000  1.0
  O  O44  1  0.84734000  0.64250000  0.79699000  1.0
  O  O45  1  0.35750000  0.15268000  0.70301000  1.0
  O  O46  1  0.58870000  0.41128000  0.25001000  1.0
  O  O47  1  0.41129000  0.58871000  0.75000000  1.0
  O  O48  1  0.93246000  0.86248000  0.18500000  1.0
  O  O49  1  0.13752000  0.06759000  0.31500000  1.0
  O  O50  1  0.06755000  0.13752000  0.81500000  1.0
  O  O51  1  0.86247000  0.93245000  0.68500000  1.0
  O  O52  1  0.53843000  0.05382000  0.14739000  1.0
  O  O53  1  0.94619000  0.46158000  0.35262000  1.0
  O  O54  1  0.46157000  0.94618000  0.85261000  1.0
  O  O55  1  0.05382000  0.53841000  0.64739000  1.0
  O  O56  1  0.69888000  0.21759000  0.02806000  1.0
  O  O57  1  0.78243000  0.30109000  0.47193000  1.0
  O  O58  1  0.30109000  0.78239000  0.97193000  1.0
  O  O59  1  0.21757000  0.69892000  0.52807000  1.0
