# generated using pymatgen
data_H3PbC8NO6
_symmetry_space_group_name_H-M   'P 1'
_cell_length_a   8.18958000
_cell_length_b   10.01460000
_cell_length_c   10.43050000
_cell_angle_alpha   90.00040000
_cell_angle_beta   90.00010000
_cell_angle_gamma   92.30710000
_symmetry_Int_Tables_number   1
_chemical_formula_structural   H3PbC8NO6
_chemical_formula_sum   'H12 Pb4 C32 N4 O24'
_cell_volume   854.76786990
_cell_formula_units_Z   4
loop_
 _symmetry_equiv_pos_site_id
 _symmetry_equiv_pos_as_xyz
  1  'x, y, z'
loop_
 _atom_site_type_symbol
 _atom_site_label
 _atom_site_symmetry_multiplicity
 _atom_site_fract_x
 _atom_site_fract_y
 _atom_site_fract_z
 _atom_site_occupancy
  H  H0  1  0.95379000  0.43853000  0.77256000  1.0
  H  H1  1  0.54620000  0.56147000  0.27256000  1.0
  H  H2  1  0.04621000  0.56147000  0.22744000  1.0
  H  H3  1  0.45379000  0.43853000  0.72744000  1.0
  H  H4  1  0.30633000  0.65309000  0.00904000  1.0
  H  H5  1  0.19367000  0.34691000  0.50903000  1.0
  H  H6  1  0.69367000  0.34691000  0.99096000  1.0
  H  H7  1  0.80633000  0.65309000  0.49096000  1.0
  H  H8  1  0.41058000  0.43740000  0.08521000  1.0
  H  H9  1  0.08942000  0.56260000  0.58521000  1.0
  H  H10  1  0.58942000  0.56260000  0.91478000  1.0
  H  H11  1  0.91058000  0.43740000  0.41479000  1.0
  Pb  Pb12  1  0.59445000  0.08367000  0.19123000  1.0
  Pb  Pb13  1  0.90555000  0.91633000  0.69123000  1.0
  Pb  Pb14  1  0.40555000  0.91633000  0.80877000  1.0
  Pb  Pb15  1  0.09446000  0.08368000  0.30877000  1.0
  C  C16  1  0.24620000  0.31563000  0.97095000  1.0
  C  C17  1  0.25381000  0.68437000  0.47095000  1.0
  C  C18  1  0.75381000  0.68436000  0.02905000  1.0
  C  C19  1  0.74619000  0.31564000  0.52905000  1.0
  C  C20  1  0.11277000  0.31986000  0.88685000  1.0
  C  C21  1  0.38722000  0.68014000  0.38685000  1.0
  C  C22  1  0.88723000  0.68014000  0.11315000  1.0
  C  C23  1  0.61277000  0.31986000  0.61315000  1.0
  C  C24  1  0.05485000  0.43988000  0.84023000  1.0
  C  C25  1  0.44515000  0.56012000  0.34023000  1.0
  C  C26  1  0.94515000  0.56012000  0.15977000  1.0
  C  C27  1  0.55485000  0.43988000  0.65977000  1.0
  C  C28  1  0.12787000  0.56053000  0.88095000  1.0
  C  C29  1  0.37213000  0.43947000  0.38095000  1.0
  C  C30  1  0.87213000  0.43947000  0.11905000  1.0
  C  C31  1  0.62787000  0.56053000  0.61905000  1.0
  C  C32  1  0.25293000  0.55897000  0.97286000  1.0
  C  C33  1  0.24707000  0.44103000  0.47286000  1.0
  C  C34  1  0.74706000  0.44103000  0.02714000  1.0
  C  C35  1  0.75293000  0.55897000  0.52714000  1.0
  C  C36  1  0.31134000  0.43847000  0.01584000  1.0
  C  C37  1  0.18866000  0.56153000  0.51584000  1.0
  C  C38  1  0.68866000  0.56153000  0.98415000  1.0
  C  C39  1  0.81134000  0.43847000  0.48416000  1.0
  C  C40  1  0.33009000  0.19222000  0.01593000  1.0
  C  C41  1  0.16991000  0.80777000  0.51594000  1.0
  C  C42  1  0.66992000  0.80778000  0.98407000  1.0
  C  C43  1  0.83009000  0.19223000  0.48406000  1.0
  C  C44  1  0.07149000  0.68984000  0.82849000  1.0
  C  C45  1  0.42851000  0.31016000  0.32848000  1.0
  C  C46  1  0.92851000  0.31016000  0.17151000  1.0
  C  C47  1  0.57149000  0.68984000  0.67151000  1.0
  N  N48  1  0.02690000  0.19751000  0.84677000  1.0
  N  N49  1  0.47310000  0.80249000  0.34678000  1.0
  N  N50  1  0.97311000  0.80249000  0.15322000  1.0
  N  N51  1  0.52690000  0.19751000  0.65323000  1.0
  O  O52  1  0.10099000  0.09064000  0.85196000  1.0
  O  O53  1  0.39902000  0.90937000  0.35196000  1.0
  O  O54  1  0.89901000  0.90936000  0.14804000  1.0
  O  O55  1  0.60098000  0.09063000  0.64804000  1.0
  O  O56  1  0.88349000  0.20308000  0.81014000  1.0
  O  O57  1  0.61651000  0.79692000  0.31015000  1.0
  O  O58  1  0.11651000  0.79692000  0.18986000  1.0
  O  O59  1  0.38349000  0.20308000  0.68986000  1.0
  O  O60  1  0.46884000  0.17462000  0.96564000  1.0
  O  O61  1  0.03116000  0.82538000  0.46565000  1.0
  O  O62  1  0.53116000  0.82538000  0.03436000  1.0
  O  O63  1  0.96884000  0.17462000  0.53435000  1.0
  O  O64  1  0.27043000  0.12065000  0.10640000  1.0
  O  O65  1  0.22957000  0.87935000  0.60641000  1.0
  O  O66  1  0.72957000  0.87935000  0.89360000  1.0
  O  O67  1  0.77042000  0.12065000  0.39359000  1.0
  O  O68  1  0.13188000  0.79983000  0.87254000  1.0
  O  O69  1  0.36812000  0.20017000  0.37254000  1.0
  O  O70  1  0.86812000  0.20017000  0.12746000  1.0
  O  O71  1  0.63188000  0.79983000  0.62746000  1.0
  O  O72  1  0.96214000  0.68370000  0.74094000  1.0
  O  O73  1  0.53786000  0.31629000  0.24094000  1.0
  O  O74  1  0.03786000  0.31630000  0.25906000  1.0
  O  O75  1  0.46214000  0.68371000  0.75906000  1.0
