# generated using pymatgen
data_CdH6C7(N3O)2
_symmetry_space_group_name_H-M   'P 1'
_cell_length_a   6.77439000
_cell_length_b   9.85552000
_cell_length_c   13.23050000
_cell_angle_alpha   89.99980000
_cell_angle_beta   89.99970000
_cell_angle_gamma   89.99930000
_symmetry_Int_Tables_number   1
_chemical_formula_structural   CdH6C7(N3O)2
_chemical_formula_sum   'Cd4 H24 C28 N24 O8'
_cell_volume   883.33613352
_cell_formula_units_Z   4
loop_
 _symmetry_equiv_pos_site_id
 _symmetry_equiv_pos_as_xyz
  1  'x, y, z'
loop_
 _atom_site_type_symbol
 _atom_site_label
 _atom_site_symmetry_multiplicity
 _atom_site_fract_x
 _atom_site_fract_y
 _atom_site_fract_z
 _atom_site_occupancy
  Cd  Cd0  1  0.74999000  0.86845000  0.50000000  1.0
  Cd  Cd1  1  0.25000000  0.13156000  0.00000000  1.0
  Cd  Cd2  1  0.25001000  0.13156000  0.50000000  1.0
  Cd  Cd3  1  0.75000000  0.86844000  0.00000000  1.0
  H  H4  1  0.43066000  0.87584000  0.68446000  1.0
  H  H5  1  0.56934000  0.12416000  0.18446000  1.0
  H  H6  1  0.06935000  0.87585000  0.31555000  1.0
  H  H7  1  0.93065000  0.12415000  0.81555000  1.0
  H  H8  1  0.56934000  0.12416000  0.31554000  1.0
  H  H9  1  0.43066000  0.87584000  0.81554000  1.0
  H  H10  1  0.93065000  0.12415000  0.68445000  1.0
  H  H11  1  0.06935000  0.87585000  0.18445000  1.0
  H  H12  1  0.87223000  0.34801000  0.65052000  1.0
  H  H13  1  0.12777000  0.65199000  0.15051000  1.0
  H  H14  1  0.62778000  0.34801000  0.34949000  1.0
  H  H15  1  0.37222000  0.65199000  0.84949000  1.0
  H  H16  1  0.12777000  0.65199000  0.34948000  1.0
  H  H17  1  0.87223000  0.34801000  0.84949000  1.0
  H  H18  1  0.37222000  0.65199000  0.65051000  1.0
  H  H19  1  0.62778000  0.34801000  0.15052000  1.0
  H  H20  1  0.86470000  0.60250000  0.64465000  1.0
  H  H21  1  0.13530000  0.39750000  0.14465000  1.0
  H  H22  1  0.63530000  0.60249000  0.35535000  1.0
  H  H23  1  0.36470000  0.39750000  0.85535000  1.0
  H  H24  1  0.13530000  0.39750000  0.35535000  1.0
  H  H25  1  0.86470000  0.60250000  0.85535000  1.0
  H  H26  1  0.36469000  0.39751000  0.64464000  1.0
  H  H27  1  0.63530000  0.60249000  0.14465000  1.0
  C  C28  1  0.75004000  0.17630000  0.50001000  1.0
  C  C29  1  0.24997000  0.82370000  0.00000000  1.0
  C  C30  1  0.24997000  0.82370000  0.49999000  1.0
  C  C31  1  0.75002000  0.17630000  0.00000000  1.0
  C  C32  1  0.75001000  0.32847000  0.50000000  1.0
  C  C33  1  0.25000000  0.67153000  0.00000000  1.0
  C  C34  1  0.24999000  0.67153000  0.50000000  1.0
  C  C35  1  0.75000000  0.32847000  0.00000000  1.0
  C  C36  1  0.81753000  0.40110000  0.58390000  1.0
  C  C37  1  0.18247000  0.59890000  0.08390000  1.0
  C  C38  1  0.68248000  0.40110000  0.41610000  1.0
  C  C39  1  0.31753000  0.59890000  0.91610000  1.0
  C  C40  1  0.18247000  0.59890000  0.41610000  1.0
  C  C41  1  0.81754000  0.40109000  0.91610000  1.0
  C  C42  1  0.31752000  0.59890000  0.58390000  1.0
  C  C43  1  0.68248000  0.40109000  0.08390000  1.0
  C  C44  1  0.81331000  0.54211000  0.58086000  1.0
  C  C45  1  0.18670000  0.45789000  0.08085000  1.0
  C  C46  1  0.68670000  0.54211000  0.41915000  1.0
  C  C47  1  0.31330000  0.45789000  0.91915000  1.0
  C  C48  1  0.18669000  0.45789000  0.41914000  1.0
  C  C49  1  0.81331000  0.54211000  0.91915000  1.0
  C  C50  1  0.31330000  0.45789000  0.58085000  1.0
  C  C51  1  0.68670000  0.54211000  0.08085000  1.0
  C  C52  1  0.69825000  0.85108000  0.75000000  1.0
  C  C53  1  0.30175000  0.14892000  0.25000000  1.0
  C  C54  1  0.80178000  0.85108000  0.25000000  1.0
  C  C55  1  0.19822000  0.14892000  0.75000000  1.0
  N  N56  1  0.75000000  0.61245000  0.50000000  1.0
  N  N57  1  0.25000000  0.38755000  0.00000000  1.0
  N  N58  1  0.25000000  0.38755000  0.50000000  1.0
  N  N59  1  0.75000000  0.61244000  0.00000000  1.0
  N  N60  1  0.49817000  0.84683000  0.74999000  1.0
  N  N61  1  0.50183000  0.15317000  0.25000000  1.0
  N  N62  1  0.00181000  0.84683000  0.25000000  1.0
  N  N63  1  0.99819000  0.15317000  0.75000000  1.0
  N  N64  1  0.81425000  0.84755000  0.66696000  1.0
  N  N65  1  0.18575000  0.15246000  0.16696000  1.0
  N  N66  1  0.68575000  0.84755000  0.33304000  1.0
  N  N67  1  0.31425000  0.15245000  0.83304000  1.0
  N  N68  1  0.18575000  0.15245000  0.33304000  1.0
  N  N69  1  0.81425000  0.84755000  0.83304000  1.0
  N  N70  1  0.31425000  0.15245000  0.66696000  1.0
  N  N71  1  0.68575000  0.84755000  0.16696000  1.0
  N  N72  1  0.00439000  0.83815000  0.70095000  1.0
  N  N73  1  0.99561000  0.16185000  0.20096000  1.0
  N  N74  1  0.49561000  0.83815000  0.29904000  1.0
  N  N75  1  0.50439000  0.16185000  0.79904000  1.0
  N  N76  1  0.99561000  0.16185000  0.29905000  1.0
  N  N77  1  0.00439000  0.83815000  0.79904000  1.0
  N  N78  1  0.50439000  0.16185000  0.70096000  1.0
  N  N79  1  0.49561000  0.83815000  0.20096000  1.0
  O  O80  1  0.89589000  0.11378000  0.53874000  1.0
  O  O81  1  0.10411000  0.88622000  0.03873000  1.0
  O  O82  1  0.60411000  0.11377000  0.46126000  1.0
  O  O83  1  0.39589000  0.88623000  0.96126000  1.0
  O  O84  1  0.10411000  0.88622000  0.46126000  1.0
  O  O85  1  0.89588000  0.11378000  0.96127000  1.0
  O  O86  1  0.39589000  0.88623000  0.53873000  1.0
  O  O87  1  0.60410000  0.11377000  0.03874000  1.0
