# generated using pymatgen
data_AgH6C8N3O2
_symmetry_space_group_name_H-M   'P 1'
_cell_length_a   4.40218000
_cell_length_b   13.92490000
_cell_length_c   14.61180000
_cell_angle_alpha   70.55400000
_cell_angle_beta   89.99990000
_cell_angle_gamma   89.99960000
_symmetry_Int_Tables_number   1
_chemical_formula_structural   AgH6C8N3O2
_chemical_formula_sum   'Ag4 H24 C32 N12 O8'
_cell_volume   844.60739669
_cell_formula_units_Z   4
loop_
 _symmetry_equiv_pos_site_id
 _symmetry_equiv_pos_as_xyz
  1  'x, y, z'
loop_
 _atom_site_type_symbol
 _atom_site_label
 _atom_site_symmetry_multiplicity
 _atom_site_fract_x
 _atom_site_fract_y
 _atom_site_fract_z
 _atom_site_occupancy
  Ag  Ag0  1  0.30354000  0.78370000  0.34622000  1.0
  Ag  Ag1  1  0.80353000  0.71630000  0.15378000  1.0
  Ag  Ag2  1  0.69647000  0.21630000  0.65378000  1.0
  Ag  Ag3  1  0.19647000  0.28370000  0.84622000  1.0
  H  H4  1  0.95057000  0.92725000  0.45534000  1.0
  H  H5  1  0.45056000  0.57275000  0.04466000  1.0
  H  H6  1  0.04944000  0.07275000  0.54466000  1.0
  H  H7  1  0.54944000  0.42725000  0.95534000  1.0
  H  H8  1  0.63392000  0.96735000  0.58225000  1.0
  H  H9  1  0.13392000  0.53265000  0.91775000  1.0
  H  H10  1  0.36608000  0.03265000  0.41775000  1.0
  H  H11  1  0.86609000  0.46735000  0.08225000  1.0
  H  H12  1  0.34386000  0.83518000  0.70215000  1.0
  H  H13  1  0.84387000  0.66482000  0.79784000  1.0
  H  H14  1  0.65614000  0.16482000  0.29784000  1.0
  H  H15  1  0.15614000  0.33518000  0.20215000  1.0
  H  H16  1  0.35031000  0.65332000  0.70686000  1.0
  H  H17  1  0.85031000  0.84668000  0.79314000  1.0
  H  H18  1  0.64970000  0.34668000  0.29314000  1.0
  H  H19  1  0.14969000  0.15332000  0.20686000  1.0
  H  H20  1  0.42163000  0.49989000  0.65100000  1.0
  H  H21  1  0.92163000  0.00011000  0.84899000  1.0
  H  H22  1  0.57837000  0.50011000  0.34899000  1.0
  H  H23  1  0.07836000  0.99989000  0.15101000  1.0
  H  H24  1  0.66001000  0.45425000  0.57463000  1.0
  H  H25  1  0.16001000  0.04575000  0.92537000  1.0
  H  H26  1  0.34000000  0.54575000  0.42537000  1.0
  H  H27  1  0.83998000  0.95425000  0.07463000  1.0
  C  C28  1  0.83645000  0.76659000  0.51554000  1.0
  C  C29  1  0.33645000  0.73341000  0.98446000  1.0
  C  C30  1  0.16355000  0.23341000  0.48446000  1.0
  C  C31  1  0.66355000  0.26659000  0.01554000  1.0
  C  C32  1  0.82485000  0.86877000  0.51081000  1.0
  C  C33  1  0.32485000  0.63122000  0.98919000  1.0
  C  C34  1  0.17516000  0.13123000  0.48919000  1.0
  C  C35  1  0.67516000  0.36878000  0.01081000  1.0
  C  C36  1  0.64817000  0.89002000  0.58022000  1.0
  C  C37  1  0.14817000  0.60998000  0.91978000  1.0
  C  C38  1  0.35183000  0.10998000  0.41978000  1.0
  C  C39  1  0.85183000  0.39001000  0.08022000  1.0
  C  C40  1  0.47988000  0.81328000  0.65013000  1.0
  C  C41  1  0.97988000  0.68672000  0.84987000  1.0
  C  C42  1  0.52012000  0.18672000  0.34987000  1.0
  C  C43  1  0.02013000  0.31328000  0.15013000  1.0
  C  C44  1  0.48423000  0.71224000  0.65454000  1.0
  C  C45  1  0.98423000  0.78776000  0.84546000  1.0
  C  C46  1  0.51578000  0.28776000  0.34546000  1.0
  C  C47  1  0.01577000  0.21224000  0.15454000  1.0
  C  C48  1  0.67091000  0.69042000  0.58629000  1.0
  C  C49  1  0.17091000  0.80957000  0.91371000  1.0
  C  C50  1  0.32909000  0.30958000  0.41371000  1.0
  C  C51  1  0.82909000  0.19042000  0.08629000  1.0
  C  C52  1  0.65361000  0.49886000  0.62367000  1.0
  C  C53  1  0.15362000  0.00114000  0.87633000  1.0
  C  C54  1  0.34639000  0.50114000  0.37633000  1.0
  C  C55  1  0.84637000  0.99886000  0.12367000  1.0
  C  C56  1  0.86480000  0.44915000  0.71026000  1.0
  C  C57  1  0.36481000  0.05085000  0.78974000  1.0
  C  C58  1  0.13520000  0.55085000  0.28974000  1.0
  C  C59  1  0.63518000  0.94915000  0.21027000  1.0
  N  N60  1  0.99490000  0.71900000  0.46158000  1.0
  N  N61  1  0.49490000  0.78099000  0.03842000  1.0
  N  N62  1  0.00510000  0.28100000  0.53842000  1.0
  N  N63  1  0.50510000  0.21900000  0.96158000  1.0
  N  N64  1  0.93765000  0.62064000  0.49437000  1.0
  N  N65  1  0.43764000  0.87936000  0.00563000  1.0
  N  N66  1  0.06236000  0.37936000  0.50563000  1.0
  N  N67  1  0.56235000  0.12064000  0.99437000  1.0
  N  N68  1  0.74105000  0.60238000  0.56881000  1.0
  N  N69  1  0.24105000  0.89762000  0.93119000  1.0
  N  N70  1  0.25895000  0.39762000  0.43119000  1.0
  N  N71  1  0.75894000  0.10238000  0.06881000  1.0
  O  O72  1  0.83876000  0.35128000  0.74489000  1.0
  O  O73  1  0.33876000  0.14873000  0.75511000  1.0
  O  O74  1  0.16124000  0.64873000  0.25511000  1.0
  O  O75  1  0.66123000  0.85128000  0.24490000  1.0
  O  O76  1  0.04010000  0.50237000  0.74053000  1.0
  O  O77  1  0.54010000  0.99763000  0.75947000  1.0
  O  O78  1  0.95991000  0.49763000  0.25947000  1.0
  O  O79  1  0.45989000  0.00238000  0.24053000  1.0
