# generated using pymatgen
data_ZnH8C19(NO3)2
_symmetry_space_group_name_H-M   'P 1'
_cell_length_a   5.59763000
_cell_length_b   14.68780000
_cell_length_c   27.71250000
_cell_angle_alpha   90.00010000
_cell_angle_beta   90.00010000
_cell_angle_gamma   79.82900000
_symmetry_Int_Tables_number   1
_chemical_formula_structural   ZnH8C19(NO3)2
_chemical_formula_sum   'Zn4 H32 C76 N8 O24'
_cell_volume   2242.62965776
_cell_formula_units_Z   4
loop_
 _symmetry_equiv_pos_site_id
 _symmetry_equiv_pos_as_xyz
  1  'x, y, z'
loop_
 _atom_site_type_symbol
 _atom_site_label
 _atom_site_symmetry_multiplicity
 _atom_site_fract_x
 _atom_site_fract_y
 _atom_site_fract_z
 _atom_site_occupancy
  Zn  Zn0  1  0.03904000  0.59004000  0.02331000  1.0
  Zn  Zn1  1  0.46094000  0.90997000  0.52331000  1.0
  Zn  Zn2  1  0.96095000  0.40996000  0.97669000  1.0
  Zn  Zn3  1  0.53905000  0.09003000  0.47669000  1.0
  H  H4  1  0.78197000  0.75932000  0.57233000  1.0
  H  H5  1  0.80910000  0.69193000  0.65628000  1.0
  H  H6  1  0.06358000  0.82425000  0.67765000  1.0
  H  H7  1  0.06383000  0.88373000  0.59266000  1.0
  H  H8  1  0.06632000  0.53165000  0.77046000  1.0
  H  H9  1  0.06858000  0.47868000  0.85648000  1.0
  H  H10  1  0.88060000  0.75399000  0.91111000  1.0
  H  H11  1  0.85037000  0.81444000  0.82586000  1.0
  H  H12  1  0.71803000  0.74068000  0.07233000  1.0
  H  H13  1  0.69091000  0.80807000  0.15628000  1.0
  H  H14  1  0.43642000  0.67576000  0.17765000  1.0
  H  H15  1  0.43617000  0.61627000  0.09266000  1.0
  H  H16  1  0.43368000  0.96835000  0.27047000  1.0
  H  H17  1  0.43142000  0.02133000  0.35648000  1.0
  H  H18  1  0.61941000  0.74601000  0.41111000  1.0
  H  H19  1  0.64962000  0.68556000  0.32586000  1.0
  H  H20  1  0.21803000  0.24068000  0.42767000  1.0
  H  H21  1  0.19091000  0.30807000  0.34372000  1.0
  H  H22  1  0.93642000  0.17575000  0.32235000  1.0
  H  H23  1  0.93617000  0.11627000  0.40734000  1.0
  H  H24  1  0.93368000  0.46835000  0.22954000  1.0
  H  H25  1  0.93142000  0.52132000  0.14352000  1.0
  H  H26  1  0.11941000  0.24601000  0.08889000  1.0
  H  H27  1  0.14963000  0.18556000  0.17414000  1.0
  H  H28  1  0.28197000  0.25932000  0.92767000  1.0
  H  H29  1  0.30910000  0.19193000  0.84372000  1.0
  H  H30  1  0.56358000  0.32424000  0.82235000  1.0
  H  H31  1  0.56382000  0.38373000  0.90734000  1.0
  H  H32  1  0.56632000  0.03165000  0.72953000  1.0
  H  H33  1  0.56858000  0.97867000  0.64352000  1.0
  H  H34  1  0.38059000  0.25399000  0.58889000  1.0
  H  H35  1  0.35037000  0.31444000  0.67414000  1.0
  C  C36  1  0.62688000  0.77064000  0.59675000  1.0
  C  C37  1  0.64166000  0.73394000  0.64310000  1.0
  C  C38  1  0.43784000  0.75483000  0.67270000  1.0
  C  C39  1  0.22504000  0.80806000  0.65508000  1.0
  C  C40  1  0.22500000  0.84123000  0.60812000  1.0
  C  C41  1  0.29360000  0.65924000  0.73392000  1.0
  C  C42  1  0.30863000  0.62628000  0.78418000  1.0
  C  C43  1  0.45810000  0.66145000  0.81840000  1.0
  C  C44  1  0.60083000  0.72776000  0.80412000  1.0
  C  C45  1  0.60180000  0.75938000  0.75368000  1.0
  C  C46  1  0.17551000  0.55916000  0.79753000  1.0
  C  C47  1  0.17983000  0.52884000  0.84546000  1.0
  C  C48  1  0.31655000  0.56435000  0.88038000  1.0
  C  C49  1  0.46746000  0.62910000  0.86731000  1.0
  C  C50  1  0.63032000  0.66211000  0.89989000  1.0
  C  C51  1  0.75821000  0.73028000  0.88526000  1.0
  C  C52  1  0.74386000  0.76322000  0.83769000  1.0
  C  C53  1  0.27054000  0.53770000  0.93154000  1.0
  C  C54  1  0.71179000  0.61460000  0.94677000  1.0
  C  C55  1  0.87312000  0.72936000  0.09675000  1.0
  C  C56  1  0.85834000  0.76606000  0.14310000  1.0
  C  C57  1  0.06217000  0.74517000  0.17270000  1.0
  C  C58  1  0.27496000  0.69194000  0.15508000  1.0
  C  C59  1  0.27500000  0.65877000  0.10812000  1.0
  C  C60  1  0.20640000  0.84076000  0.23392000  1.0
  C  C61  1  0.19138000  0.87372000  0.28418000  1.0
  C  C62  1  0.04190000  0.83855000  0.31840000  1.0
  C  C63  1  0.89918000  0.77224000  0.30412000  1.0
  C  C64  1  0.89821000  0.74063000  0.25368000  1.0
  C  C65  1  0.32450000  0.94084000  0.29754000  1.0
  C  C66  1  0.32017000  0.97116000  0.34546000  1.0
  C  C67  1  0.18344000  0.93565000  0.38038000  1.0
  C  C68  1  0.03254000  0.87090000  0.36731000  1.0
  C  C69  1  0.86968000  0.83789000  0.39989000  1.0
  C  C70  1  0.74179000  0.76972000  0.38526000  1.0
  C  C71  1  0.75614000  0.73678000  0.33769000  1.0
  C  C72  1  0.22945000  0.96230000  0.43154000  1.0
  C  C73  1  0.78819000  0.88540000  0.44677000  1.0
  C  C74  1  0.37312000  0.22936000  0.40325000  1.0
  C  C75  1  0.35835000  0.26606000  0.35690000  1.0
  C  C76  1  0.56217000  0.24517000  0.32730000  1.0
  C  C77  1  0.77497000  0.19194000  0.34492000  1.0
  C  C78  1  0.77500000  0.15877000  0.39188000  1.0
  C  C79  1  0.70640000  0.34076000  0.26608000  1.0
  C  C80  1  0.69137000  0.37372000  0.21582000  1.0
  C  C81  1  0.54190000  0.33855000  0.18160000  1.0
  C  C82  1  0.39917000  0.27224000  0.19588000  1.0
  C  C83  1  0.39820000  0.24062000  0.24632000  1.0
  C  C84  1  0.82449000  0.44084000  0.20247000  1.0
  C  C85  1  0.82017000  0.47116000  0.15454000  1.0
  C  C86  1  0.68345000  0.43565000  0.11962000  1.0
  C  C87  1  0.53254000  0.37090000  0.13269000  1.0
  C  C88  1  0.36968000  0.33790000  0.10011000  1.0
  C  C89  1  0.24179000  0.26972000  0.11474000  1.0
  C  C90  1  0.25614000  0.23678000  0.16231000  1.0
  C  C91  1  0.72946000  0.46230000  0.06846000  1.0
  C  C92  1  0.28821000  0.38540000  0.05323000  1.0
  C  C93  1  0.12688000  0.27064000  0.90325000  1.0
  C  C94  1  0.14166000  0.23394000  0.85690000  1.0
  C  C95  1  0.93783000  0.25483000  0.82730000  1.0
  C  C96  1  0.72503000  0.30806000  0.84492000  1.0
  C  C97  1  0.72500000  0.34123000  0.89188000  1.0
  C  C98  1  0.79360000  0.15924000  0.76608000  1.0
  C  C99  1  0.80862000  0.12628000  0.71582000  1.0
  C  C100  1  0.95810000  0.16145000  0.68160000  1.0
  C  C101  1  0.10083000  0.22776000  0.69588000  1.0
  C  C102  1  0.10179000  0.25937000  0.74632000  1.0
  C  C103  1  0.67551000  0.05916000  0.70246000  1.0
  C  C104  1  0.67983000  0.02884000  0.65454000  1.0
  C  C105  1  0.81656000  0.06435000  0.61962000  1.0
  C  C106  1  0.96746000  0.12910000  0.63269000  1.0
  C  C107  1  0.13032000  0.16210000  0.60011000  1.0
  C  C108  1  0.25821000  0.23028000  0.61474000  1.0
  C  C109  1  0.24386000  0.26322000  0.66231000  1.0
  C  C110  1  0.77055000  0.03770000  0.56846000  1.0
  C  C111  1  0.21180000  0.11460000  0.55323000  1.0
  N  N112  1  0.42359000  0.82409000  0.57973000  1.0
  N  N113  1  0.44679000  0.72254000  0.72159000  1.0
  N  N114  1  0.07641000  0.67591000  0.07973000  1.0
  N  N115  1  0.05322000  0.77746000  0.22159000  1.0
  N  N116  1  0.57641000  0.17591000  0.42027000  1.0
  N  N117  1  0.55322000  0.27746000  0.27841000  1.0
  N  N118  1  0.92359000  0.32409000  0.92027000  1.0
  N  N119  1  0.94678000  0.22254000  0.77841000  1.0
  O  O120  1  0.23914000  0.60218000  0.96294000  1.0
  O  O121  1  0.24465000  0.45477000  0.93824000  1.0
  O  O122  1  0.76204000  0.66371000  0.98156000  1.0
  O  O123  1  0.75167000  0.52627000  0.94452000  1.0
  O  O124  1  0.72483000  0.81558000  0.73904000  1.0
  O  O125  1  0.16087000  0.63348000  0.70319000  1.0
  O  O126  1  0.26084000  0.89782000  0.46294000  1.0
  O  O127  1  0.25534000  0.04523000  0.43824000  1.0
  O  O128  1  0.73792000  0.83629000  0.48156000  1.0
  O  O129  1  0.74832000  0.97373000  0.44452000  1.0
  O  O130  1  0.77517000  0.68442000  0.23904000  1.0
  O  O131  1  0.33913000  0.86652000  0.20319000  1.0
  O  O132  1  0.76086000  0.39782000  0.03706000  1.0
  O  O133  1  0.75535000  0.54523000  0.06176000  1.0
  O  O134  1  0.23797000  0.33630000  0.01844000  1.0
  O  O135  1  0.24833000  0.47373000  0.05548000  1.0
  O  O136  1  0.27518000  0.18442000  0.26096000  1.0
  O  O137  1  0.83913000  0.36652000  0.29681000  1.0
  O  O138  1  0.73915000  0.10218000  0.53706000  1.0
  O  O139  1  0.74466000  0.95476000  0.56176000  1.0
  O  O140  1  0.26204000  0.16371000  0.51844000  1.0
  O  O141  1  0.25167000  0.02627000  0.55548000  1.0
  O  O142  1  0.22483000  0.31558000  0.76096000  1.0
  O  O143  1  0.66087000  0.13348000  0.79681000  1.0
