# generated using pymatgen
data_CaH6C9O7
_symmetry_space_group_name_H-M   'P 1'
_cell_length_a   7.01986000
_cell_length_b   8.34068000
_cell_length_c   9.91372000
_cell_angle_alpha   98.24140000
_cell_angle_beta   103.33300000
_cell_angle_gamma   108.74000000
_symmetry_Int_Tables_number   1
_chemical_formula_structural   CaH6C9O7
_chemical_formula_sum   'Ca2 H12 C18 O14'
_cell_volume   519.76057116
_cell_formula_units_Z   2
loop_
 _symmetry_equiv_pos_site_id
 _symmetry_equiv_pos_as_xyz
  1  'x, y, z'
loop_
 _atom_site_type_symbol
 _atom_site_label
 _atom_site_symmetry_multiplicity
 _atom_site_fract_x
 _atom_site_fract_y
 _atom_site_fract_z
 _atom_site_occupancy
  Ca  Ca0  1  0.30809000  0.56991000  0.10359000  1.0
  Ca  Ca1  1  0.69191000  0.43009000  0.89641000  1.0
  H  H2  1  0.44939000  0.70143000  0.44726000  1.0
  H  H3  1  0.55061000  0.29857000  0.55274000  1.0
  H  H4  1  0.82513000  0.08311000  0.24548000  1.0
  H  H5  1  0.17487000  0.91689000  0.75452000  1.0
  H  H6  1  0.81184000  0.09074000  0.67768000  1.0
  H  H7  1  0.18816000  0.90926000  0.32232000  1.0
  H  H8  1  0.29824000  0.49391000  0.59083000  1.0
  H  H9  1  0.70175000  0.50609000  0.40918000  1.0
  H  H10  1  0.15452000  0.78821000  0.93034000  1.0
  H  H11  1  0.84549000  0.21179000  0.06966000  1.0
  H  H12  1  0.35761000  0.91724000  0.05450000  1.0
  H  H13  1  0.64240000  0.08276000  0.94550000  1.0
  C  C14  1  0.07027000  0.29945000  0.40604000  1.0
  C  C15  1  0.92972000  0.70055000  0.59395000  1.0
  C  C16  1  0.06157000  0.30317000  0.64990000  1.0
  C  C17  1  0.93842000  0.69682000  0.35010000  1.0
  C  C18  1  0.89193000  0.14669000  0.35840000  1.0
  C  C19  1  0.10807000  0.85332000  0.64160000  1.0
  C  C20  1  0.61640000  0.90454000  0.39893000  1.0
  C  C21  1  0.38360000  0.09545000  0.60107000  1.0
  C  C22  1  0.88334000  0.14940000  0.60151000  1.0
  C  C23  1  0.11666000  0.85060000  0.39850000  1.0
  C  C24  1  0.17297000  0.37413000  0.30112000  1.0
  C  C25  1  0.82703000  0.62587000  0.69889000  1.0
  C  C26  1  0.14901000  0.38742000  0.80617000  1.0
  C  C27  1  0.85099000  0.61258000  0.19383000  1.0
  C  C28  1  0.15567000  0.37719000  0.55241000  1.0
  C  C29  1  0.84432000  0.62281000  0.44759000  1.0
  C  C30  1  0.79943000  0.07097000  0.45567000  1.0
  C  C31  1  0.20057000  0.92903000  0.54433000  1.0
  O  O32  1  0.32992000  0.51934000  0.34445000  1.0
  O  O33  1  0.67008000  0.48066000  0.65556000  1.0
  O  O34  1  0.02031000  0.39535000  0.87661000  1.0
  O  O35  1  0.97969000  0.60464000  0.12339000  1.0
  O  O36  1  0.55799000  0.82396000  0.49692000  1.0
  O  O37  1  0.44201000  0.17604000  0.50308000  1.0
  O  O38  1  0.34758000  0.44954000  0.86507000  1.0
  O  O39  1  0.65242000  0.55046000  0.13493000  1.0
  O  O40  1  0.52790000  0.84646000  0.26866000  1.0
  O  O41  1  0.47209000  0.15354000  0.73134000  1.0
  O  O42  1  0.10516000  0.29411000  0.17009000  1.0
  O  O43  1  0.89485000  0.70590000  0.82991000  1.0
  O  O44  1  0.30183000  0.80671000  0.98412000  1.0
  O  O45  1  0.69818000  0.19329000  0.01588000  1.0
