# generated using pymatgen
data_Cd2H5C2BrN10O
_symmetry_space_group_name_H-M   'P 1'
_cell_length_a   7.06168000
_cell_length_b   11.27560000
_cell_length_c   13.55460000
_cell_angle_alpha   90.00000000
_cell_angle_beta   89.99990000
_cell_angle_gamma   105.28500000
_symmetry_Int_Tables_number   1
_chemical_formula_structural   Cd2H5C2BrN10O
_chemical_formula_sum   'Cd8 H20 C8 Br4 N40 O4'
_cell_volume   1041.10270376
_cell_formula_units_Z   4
loop_
 _symmetry_equiv_pos_site_id
 _symmetry_equiv_pos_as_xyz
  1  'x, y, z'
loop_
 _atom_site_type_symbol
 _atom_site_label
 _atom_site_symmetry_multiplicity
 _atom_site_fract_x
 _atom_site_fract_y
 _atom_site_fract_z
 _atom_site_occupancy
  Cd  Cd0  1  0.41610000  0.32635000  0.98236000  1.0
  Cd  Cd1  1  0.08390000  0.67365000  0.48236000  1.0
  Cd  Cd2  1  0.58390000  0.67365000  0.01764000  1.0
  Cd  Cd3  1  0.91610000  0.32635000  0.51764000  1.0
  Cd  Cd4  1  0.60538000  0.17905000  0.74607000  1.0
  Cd  Cd5  1  0.89462000  0.82095000  0.24607000  1.0
  Cd  Cd6  1  0.39462000  0.82095000  0.25393000  1.0
  Cd  Cd7  1  0.10538000  0.17905000  0.75393000  1.0
  H  H8  1  0.33501000  0.10798000  0.89000000  1.0
  H  H9  1  0.16499000  0.89202000  0.39000000  1.0
  H  H10  1  0.66499000  0.89202000  0.11000000  1.0
  H  H11  1  0.83501000  0.10798000  0.61000000  1.0
  H  H12  1  0.71369000  0.08723000  0.16521000  1.0
  H  H13  1  0.78631000  0.91277000  0.66521000  1.0
  H  H14  1  0.28631000  0.91277000  0.83479000  1.0
  H  H15  1  0.21369000  0.08723000  0.33479000  1.0
  H  H16  1  0.69922000  0.15942000  0.05832000  1.0
  H  H17  1  0.80078000  0.84058000  0.55832000  1.0
  H  H18  1  0.30078000  0.84058000  0.94168000  1.0
  H  H19  1  0.19922000  0.15942000  0.44168000  1.0
  H  H20  1  0.08198000  0.40337000  0.14536000  1.0
  H  H21  1  0.41802000  0.59664000  0.64536000  1.0
  H  H22  1  0.91802000  0.59664000  0.85464000  1.0
  H  H23  1  0.58198000  0.40337000  0.35464000  1.0
  H  H24  1  0.83959000  0.41019000  0.14529000  1.0
  H  H25  1  0.66041000  0.58981000  0.64529000  1.0
  H  H26  1  0.16041000  0.58981000  0.85471000  1.0
  H  H27  1  0.33959000  0.41019000  0.35471000  1.0
  C  C28  1  0.43686000  0.07506000  0.11758000  1.0
  C  C29  1  0.06314000  0.92494000  0.61758000  1.0
  C  C30  1  0.56314000  0.92494000  0.88241000  1.0
  C  C31  1  0.93686000  0.07506000  0.38242000  1.0
  C  C32  1  0.93317000  0.34934000  0.01735000  1.0
  C  C33  1  0.56683000  0.65066000  0.51735000  1.0
  C  C34  1  0.06683000  0.65066000  0.98265000  1.0
  C  C35  1  0.43317000  0.34934000  0.48265000  1.0
  Br  Br36  1  0.51123000  0.52904000  0.85270000  1.0
  Br  Br37  1  0.98878000  0.47096000  0.35270000  1.0
  Br  Br38  1  0.48878000  0.47096000  0.14730000  1.0
  Br  Br39  1  0.01123000  0.52904000  0.64730000  1.0
  N  N40  1  0.32749000  0.14459000  0.07776000  1.0
  N  N41  1  0.17251000  0.85541000  0.57776000  1.0
  N  N42  1  0.67250000  0.85541000  0.92224000  1.0
  N  N43  1  0.82749000  0.14459000  0.42224000  1.0
  N  N44  1  0.13962000  0.09324000  0.10645000  1.0
  N  N45  1  0.36038000  0.90676000  0.60645000  1.0
  N  N46  1  0.86038000  0.90676000  0.89355000  1.0
  N  N47  1  0.63962000  0.09324000  0.39355000  1.0
  N  N48  1  0.13771000  0.99798000  0.16183000  1.0
  N  N49  1  0.36229000  0.00202000  0.66183000  1.0
  N  N50  1  0.86229000  0.00202000  0.83817000  1.0
  N  N51  1  0.63771000  0.99798000  0.33817000  1.0
  N  N52  1  0.32139000  0.98351000  0.17014000  1.0
  N  N53  1  0.17861000  0.01649000  0.67014000  1.0
  N  N54  1  0.67861000  0.01649000  0.82986000  1.0
  N  N55  1  0.82139000  0.98351000  0.32986000  1.0
  N  N56  1  0.63400000  0.08755000  0.10265000  1.0
  N  N57  1  0.86600000  0.91245000  0.60265000  1.0
  N  N58  1  0.36600000  0.91245000  0.89735000  1.0
  N  N59  1  0.13400000  0.08755000  0.39735000  1.0
  N  N60  1  0.76519000  0.32825000  0.96330000  1.0
  N  N61  1  0.73481000  0.67175000  0.46330000  1.0
  N  N62  1  0.23481000  0.67175000  0.03670000  1.0
  N  N63  1  0.26519000  0.32825000  0.53670000  1.0
  N  N64  1  0.81623000  0.30024000  0.87205000  1.0
  N  N65  1  0.68377000  0.69976000  0.37205000  1.0
  N  N66  1  0.18377000  0.69976000  0.12795000  1.0
  N  N67  1  0.31623000  0.30024000  0.62795000  1.0
  N  N68  1  0.00146000  0.30230000  0.87080000  1.0
  N  N69  1  0.49854000  0.69770000  0.37080000  1.0
  N  N70  1  0.99854000  0.69770000  0.12920000  1.0
  N  N71  1  0.50146000  0.30230000  0.62920000  1.0
  N  N72  1  0.08148000  0.33233000  0.96064000  1.0
  N  N73  1  0.41852000  0.66767000  0.46064000  1.0
  N  N74  1  0.91852000  0.66767000  0.03936000  1.0
  N  N75  1  0.58149000  0.33233000  0.53936000  1.0
  N  N76  1  0.94600000  0.37624000  0.11453000  1.0
  N  N77  1  0.55400000  0.62376000  0.61454000  1.0
  N  N78  1  0.05400000  0.62376000  0.88547000  1.0
  N  N79  1  0.44600000  0.37624000  0.38547000  1.0
  O  O80  1  0.36340000  0.18631000  0.85428000  1.0
  O  O81  1  0.13660000  0.81369000  0.35428000  1.0
  O  O82  1  0.63660000  0.81369000  0.14572000  1.0
  O  O83  1  0.86340000  0.18631000  0.64572000  1.0
