# generated using pymatgen
data_NdH6C6(NO4)2
_symmetry_space_group_name_H-M   'P 1'
_cell_length_a   8.19164000
_cell_length_b   8.35153000
_cell_length_c   17.47660000
_cell_angle_alpha   90.00020000
_cell_angle_beta   90.00020000
_cell_angle_gamma   69.69100000
_symmetry_Int_Tables_number   1
_chemical_formula_structural   NdH6C6(NO4)2
_chemical_formula_sum   'Nd4 H24 C24 N8 O32'
_cell_volume   1121.29534922
_cell_formula_units_Z   4
loop_
 _symmetry_equiv_pos_site_id
 _symmetry_equiv_pos_as_xyz
  1  'x, y, z'
loop_
 _atom_site_type_symbol
 _atom_site_label
 _atom_site_symmetry_multiplicity
 _atom_site_fract_x
 _atom_site_fract_y
 _atom_site_fract_z
 _atom_site_occupancy
  Nd  Nd0  1  0.74192000  0.28334000  0.47993000  1.0
  Nd  Nd1  1  0.75808000  0.71666000  0.97993000  1.0
  Nd  Nd2  1  0.25808000  0.71665000  0.52007000  1.0
  Nd  Nd3  1  0.24192000  0.28335000  0.02007000  1.0
  H  H4  1  0.60846000  0.99742000  0.46823000  1.0
  H  H5  1  0.89154000  0.00258000  0.96823000  1.0
  H  H6  1  0.39153000  0.00258000  0.53177000  1.0
  H  H7  1  0.10846000  0.99742000  0.03177000  1.0
  H  H8  1  0.77684000  0.89634000  0.51858000  1.0
  H  H9  1  0.72316000  0.10366000  0.01858000  1.0
  H  H10  1  0.22315000  0.10366000  0.48142000  1.0
  H  H11  1  0.27684000  0.89634000  0.98142000  1.0
  H  H12  1  0.49974000  0.21461000  0.34582000  1.0
  H  H13  1  0.00026000  0.78539000  0.84582000  1.0
  H  H14  1  0.50025000  0.78539000  0.65418000  1.0
  H  H15  1  0.99975000  0.21461000  0.15418000  1.0
  H  H16  1  0.37677000  0.32262000  0.41319000  1.0
  H  H17  1  0.12322000  0.67738000  0.91319000  1.0
  H  H18  1  0.62322000  0.67738000  0.58681000  1.0
  H  H19  1  0.87678000  0.32262000  0.08681000  1.0
  H  H20  1  0.69299000  0.61878000  0.21203000  1.0
  H  H21  1  0.80701000  0.38122000  0.71203000  1.0
  H  H22  1  0.30701000  0.38122000  0.78797000  1.0
  H  H23  1  0.19299000  0.61878000  0.28797000  1.0
  H  H24  1  0.38529000  0.93456000  0.38534000  1.0
  H  H25  1  0.11470000  0.06544000  0.88534000  1.0
  H  H26  1  0.61471000  0.06544000  0.61466000  1.0
  H  H27  1  0.88530000  0.93456000  0.11466000  1.0
  C  C28  1  0.07327000  0.42863000  0.47882000  1.0
  C  C29  1  0.42673000  0.57136000  0.97882000  1.0
  C  C30  1  0.92673000  0.57136000  0.52117000  1.0
  C  C31  1  0.57327000  0.42864000  0.02118000  1.0
  C  C32  1  0.61121000  0.59526000  0.37884000  1.0
  C  C33  1  0.88878000  0.40474000  0.87884000  1.0
  C  C34  1  0.38878000  0.40474000  0.62116000  1.0
  C  C35  1  0.11122000  0.59526000  0.12116000  1.0
  C  C36  1  0.55929000  0.72902000  0.32019000  1.0
  C  C37  1  0.94071000  0.27098000  0.82019000  1.0
  C  C38  1  0.44071000  0.27099000  0.67981000  1.0
  C  C39  1  0.05929000  0.72902000  0.17981000  1.0
  C  C40  1  0.60454000  0.72539000  0.24345000  1.0
  C  C41  1  0.89546000  0.27461000  0.74345000  1.0
  C  C42  1  0.39546000  0.27461000  0.75655000  1.0
  C  C43  1  0.10454000  0.72539000  0.25655000  1.0
  C  C44  1  0.50462000  0.88819000  0.21553000  1.0
  C  C45  1  0.99538000  0.11182000  0.71553000  1.0
  C  C46  1  0.49538000  0.11182000  0.78447000  1.0
  C  C47  1  0.00462000  0.88819000  0.28447000  1.0
  C  C48  1  0.49479000  0.94664000  0.13525000  1.0
  C  C49  1  0.00521000  0.05336000  0.63525000  1.0
  C  C50  1  0.50521000  0.05336000  0.86475000  1.0
  C  C51  1  0.99479000  0.94664000  0.36475000  1.0
  N  N52  1  0.44167000  0.88864000  0.33356000  1.0
  N  N53  1  0.05833000  0.11136000  0.83357000  1.0
  N  N54  1  0.55833000  0.11136000  0.66643000  1.0
  N  N55  1  0.94167000  0.88864000  0.16643000  1.0
  N  N56  1  0.40709000  0.98838000  0.27184000  1.0
  N  N57  1  0.09291000  0.01162000  0.77184000  1.0
  N  N58  1  0.59291000  0.01162000  0.72816000  1.0
  N  N59  1  0.90709000  0.98838000  0.22816000  1.0
  O  O60  1  0.67730000  0.00693000  0.51247000  1.0
  O  O61  1  0.82270000  0.99307000  0.01247000  1.0
  O  O62  1  0.32269000  0.99307000  0.48753000  1.0
  O  O63  1  0.17731000  0.00693000  0.98753000  1.0
  O  O64  1  0.49723000  0.24617000  0.39964000  1.0
  O  O65  1  0.00277000  0.75383000  0.89964000  1.0
  O  O66  1  0.50277000  0.75383000  0.60036000  1.0
  O  O67  1  0.99723000  0.24617000  0.10036000  1.0
  O  O68  1  0.05278000  0.28623000  0.47045000  1.0
  O  O69  1  0.44722000  0.71377000  0.97045000  1.0
  O  O70  1  0.94722000  0.71377000  0.52955000  1.0
  O  O71  1  0.55279000  0.28623000  0.02955000  1.0
  O  O72  1  0.20287000  0.46618000  0.45678000  1.0
  O  O73  1  0.29713000  0.53382000  0.95678000  1.0
  O  O74  1  0.79713000  0.53382000  0.54322000  1.0
  O  O75  1  0.70287000  0.46618000  0.04322000  1.0
  O  O76  1  0.51338000  0.60950000  0.43827000  1.0
  O  O77  1  0.98662000  0.39050000  0.93827000  1.0
  O  O78  1  0.48662000  0.39050000  0.56173000  1.0
  O  O79  1  0.01339000  0.60950000  0.06173000  1.0
  O  O80  1  0.74964000  0.46847000  0.36949000  1.0
  O  O81  1  0.75036000  0.53153000  0.86949000  1.0
  O  O82  1  0.25036000  0.53153000  0.63050000  1.0
  O  O83  1  0.24964000  0.46847000  0.13051000  1.0
  O  O84  1  0.60931000  0.85264000  0.08952000  1.0
  O  O85  1  0.89069000  0.14736000  0.58952000  1.0
  O  O86  1  0.39069000  0.14736000  0.91048000  1.0
  O  O87  1  0.10931000  0.85264000  0.41048000  1.0
  O  O88  1  0.37336000  0.08234000  0.11612000  1.0
  O  O89  1  0.12664000  0.91766000  0.61612000  1.0
  O  O90  1  0.62664000  0.91766000  0.88388000  1.0
  O  O91  1  0.87335000  0.08234000  0.38388000  1.0
