# generated using pymatgen
data_ZnH23C22(NO2)2
_symmetry_space_group_name_H-M   'P 1'
_cell_length_a   11.00650000
_cell_length_b   12.18952066
_cell_length_c   18.69930000
_cell_angle_alpha   78.76099333
_cell_angle_beta   89.98960000
_cell_angle_gamma   63.18318171
_symmetry_Int_Tables_number   1
_chemical_formula_structural   ZnH23C22(NO2)2
_chemical_formula_sum   'Zn4 H92 C88 N8 O16'
_cell_volume   2184.96361849
_cell_formula_units_Z   4
loop_
 _symmetry_equiv_pos_site_id
 _symmetry_equiv_pos_as_xyz
  1  'x, y, z'
loop_
 _atom_site_type_symbol
 _atom_site_label
 _atom_site_symmetry_multiplicity
 _atom_site_fract_x
 _atom_site_fract_y
 _atom_site_fract_z
 _atom_site_occupancy
  Zn  Zn0  1  0.92140000  0.93041000  0.93315000  1.0
  Zn  Zn1  1  0.85172000  0.06999000  0.56686000  1.0
  Zn  Zn2  1  0.07859000  0.06959000  0.06684000  1.0
  Zn  Zn3  1  0.14828000  0.93001000  0.43313000  1.0
  H  H4  1  0.79890000  0.80409000  0.80332000  1.0
  H  H5  1  0.60269000  0.19624000  0.69648000  1.0
  H  H6  1  0.20109000  0.19591000  0.19668000  1.0
  H  H7  1  0.39732000  0.80376000  0.30352000  1.0
  H  H8  1  0.71921000  0.72416000  0.85881000  1.0
  H  H9  1  0.44305000  0.27603000  0.64107000  1.0
  H  H10  1  0.28079000  0.27584000  0.14119000  1.0
  H  H11  1  0.55698000  0.72396000  0.35894000  1.0
  H  H12  1  0.86432000  0.73164000  0.89542000  1.0
  H  H13  1  0.59552000  0.26882000  0.60438000  1.0
  H  H14  1  0.13569000  0.26835000  0.10458000  1.0
  H  H15  1  0.40449000  0.73118000  0.39562000  1.0
  H  H16  1  0.68772000  0.17801000  0.97567000  1.0
  H  H17  1  0.86587000  0.82221000  0.52440000  1.0
  H  H18  1  0.31228000  0.82199000  0.02433000  1.0
  H  H19  1  0.13414000  0.17778000  0.47561000  1.0
  H  H20  1  0.45432000  0.33178000  0.99626000  1.0
  H  H21  1  0.78656000  0.66813000  0.50393000  1.0
  H  H22  1  0.54567000  0.66822000  0.00373000  1.0
  H  H23  1  0.21345000  0.33186000  0.49607000  1.0
  H  H24  1  0.25035000  0.30754000  0.96418000  1.0
  H  H25  1  0.55840000  0.69213000  0.53594000  1.0
  H  H26  1  0.74964000  0.69246000  0.03582000  1.0
  H  H27  1  0.44159000  0.30787000  0.46407000  1.0
  H  H28  1  0.27061000  0.13338000  0.90755000  1.0
  H  H29  1  0.40417000  0.86645000  0.59235000  1.0
  H  H30  1  0.72938000  0.86662000  0.09245000  1.0
  H  H31  1  0.59584000  0.13355000  0.40765000  1.0
  H  H32  1  0.35622000  0.94342000  0.87332000  1.0
  H  H33  1  0.29954000  0.05665000  0.62646000  1.0
  H  H34  1  0.64377000  0.05658000  0.12667000  1.0
  H  H35  1  0.70048000  0.94335000  0.37355000  1.0
  H  H36  1  0.50120000  0.80092000  0.87400000  1.0
  H  H37  1  0.30199000  0.19918000  0.62583000  1.0
  H  H38  1  0.49880000  0.19907000  0.12600000  1.0
  H  H39  1  0.69802000  0.80082000  0.37417000  1.0
  H  H40  1  0.53914000  0.88347000  0.74728000  1.0
  H  H41  1  0.42212000  0.11682000  0.75251000  1.0
  H  H42  1  0.46087000  0.11652000  0.25272000  1.0
  H  H43  1  0.57789000  0.88317000  0.24749000  1.0
  H  H44  1  0.37845000  0.88500000  0.75123000  1.0
  H  H45  1  0.26326000  0.11473000  0.74859000  1.0
  H  H46  1  0.62155000  0.11500000  0.24877000  1.0
  H  H47  1  0.73675000  0.88527000  0.25141000  1.0
  H  H48  1  0.93077000  0.10654000  0.78471000  1.0
  H  H49  1  0.03733000  0.89421000  0.71539000  1.0
  H  H50  1  0.06923000  0.89346000  0.21529000  1.0
  H  H51  1  0.96266000  0.10579000  0.28460000  1.0
  H  H52  1  0.03609000  0.36363000  0.64137000  1.0
  H  H53  1  0.39942000  0.63678000  0.85866000  1.0
  H  H54  1  0.96391000  0.63637000  0.35863000  1.0
  H  H55  1  0.60056000  0.36323000  0.14134000  1.0
  H  H56  1  0.05316000  0.34417000  0.87451000  1.0
  H  H57  1  0.39665000  0.65580000  0.62556000  1.0
  H  H58  1  0.94684000  0.65583000  0.12549000  1.0
  H  H59  1  0.60336000  0.34420000  0.37445000  1.0
  H  H60  1  0.18526000  0.44385000  0.85203000  1.0
  H  H61  1  0.62841000  0.55634000  0.64792000  1.0
  H  H62  1  0.81475000  0.55614000  0.14797000  1.0
  H  H63  1  0.37158000  0.44367000  0.35208000  1.0
  H  H64  1  0.00619000  0.54788000  0.84051000  1.0
  H  H65  1  0.55337000  0.45223000  0.65966000  1.0
  H  H66  1  0.99382000  0.45212000  0.15950000  1.0
  H  H67  1  0.44663000  0.54777000  0.34034000  1.0
  H  H68  1  0.12194000  0.60033000  0.80034000  1.0
  H  H69  1  0.72158000  0.39992000  0.69966000  1.0
  H  H70  1  0.87808000  0.39966000  0.19966000  1.0
  H  H71  1  0.27842000  0.60008000  0.30034000  1.0
  H  H72  1  0.25765000  0.50645000  0.70035000  1.0
  H  H73  1  0.76352000  0.49424000  0.79946000  1.0
  H  H74  1  0.74236000  0.49354000  0.29965000  1.0
  H  H75  1  0.23648000  0.50577000  0.20054000  1.0
  H  H76  1  0.21846000  0.40681000  0.65735000  1.0
  H  H77  1  0.62476000  0.59386000  0.84247000  1.0
  H  H78  1  0.78154000  0.59319000  0.34265000  1.0
  H  H79  1  0.37524000  0.40614000  0.15752000  1.0
  H  H80  1  0.30471000  0.34905000  0.74774000  1.0
  H  H81  1  0.65312000  0.65155000  0.75202000  1.0
  H  H82  1  0.69529000  0.65094000  0.25226000  1.0
  H  H83  1  0.34687000  0.34846000  0.24798000  1.0
  H  H84  1  0.00533000  0.66963000  0.67673000  1.0
  H  H85  1  0.67494000  0.33092000  0.82341000  1.0
  H  H86  1  0.99468000  0.33037000  0.32327000  1.0
  H  H87  1  0.32508000  0.66908000  0.17659000  1.0
  H  H88  1  0.87695000  0.62734000  0.70945000  1.0
  H  H89  1  0.50439000  0.37262000  0.79092000  1.0
  H  H90  1  0.12305000  0.37267000  0.29056000  1.0
  H  H91  1  0.49562000  0.62738000  0.20908000  1.0
  H  H92  1  0.96542000  0.56924000  0.63530000  1.0
  H  H93  1  0.53462000  0.43115000  0.86489000  1.0
  H  H94  1  0.03457000  0.43077000  0.36470000  1.0
  H  H95  1  0.46538000  0.56886000  0.13511000  1.0
  C  C96  1  0.76927000  0.78404000  0.85862000  1.0
  C  C97  1  0.55297000  0.21629000  0.64120000  1.0
  C  C98  1  0.23072000  0.21596000  0.14138000  1.0
  C  C99  1  0.44704000  0.78371000  0.35881000  1.0
  C  C100  1  0.67932000  0.90196000  0.88205000  1.0
  C  C101  1  0.58106000  0.09833000  0.61776000  1.0
  C  C102  1  0.32067000  0.09804000  0.11795000  1.0
  C  C103  1  0.41895000  0.90167000  0.38224000  1.0
  C  C104  1  0.60901000  0.07204000  0.92649000  1.0
  C  C105  1  0.68105000  0.92816000  0.57347000  1.0
  C  C106  1  0.39099000  0.92795000  0.07351000  1.0
  C  C107  1  0.31895000  0.07184000  0.42653000  1.0
  C  C108  1  0.59789000  0.16969000  0.95912000  1.0
  C  C109  1  0.76772000  0.83049000  0.54091000  1.0
  C  C110  1  0.40210000  0.83031000  0.04088000  1.0
  C  C111  1  0.23228000  0.16951000  0.45909000  1.0
  C  C112  1  0.46680000  0.25425000  0.97105000  1.0
  C  C113  1  0.72137000  0.74576000  0.52904000  1.0
  C  C114  1  0.53319000  0.74575000  0.02895000  1.0
  C  C115  1  0.27863000  0.25424000  0.47097000  1.0
  C  C116  1  0.35080000  0.24112000  0.95234000  1.0
  C  C117  1  0.59225000  0.75873000  0.54770000  1.0
  C  C118  1  0.64919000  0.75888000  0.04766000  1.0
  C  C119  1  0.40775000  0.24127000  0.45230000  1.0
  C  C120  1  0.36086000  0.14384000  0.92005000  1.0
  C  C121  1  0.50487000  0.85609000  0.57987000  1.0
  C  C122  1  0.63913000  0.85616000  0.07995000  1.0
  C  C123  1  0.49514000  0.14391000  0.42013000  1.0
  C  C124  1  0.49184000  0.06024000  0.90720000  1.0
  C  C125  1  0.55209000  0.93987000  0.59266000  1.0
  C  C126  1  0.50816000  0.93975000  0.09280000  1.0
  C  C127  1  0.44792000  0.06012000  0.40735000  1.0
  C  C128  1  0.45531000  0.90255000  0.85096000  1.0
  C  C129  1  0.35771000  0.09756000  0.64884000  1.0
  C  C130  1  0.54468000  0.09745000  0.14904000  1.0
  C  C131  1  0.64230000  0.90244000  0.35116000  1.0
  C  C132  1  0.43808000  0.92985000  0.76739000  1.0
  C  C133  1  0.36773000  0.07020000  0.73239000  1.0
  C  C134  1  0.56192000  0.07015000  0.23261000  1.0
  C  C135  1  0.63227000  0.92980000  0.26761000  1.0
  C  C136  1  0.98318000  0.15742000  0.91291000  1.0
  C  C137  1  0.14039000  0.84285000  0.58720000  1.0
  C  C138  1  0.01681000  0.84257000  0.08708000  1.0
  C  C139  1  0.85962000  0.15716000  0.41279000  1.0
  C  C140  1  0.99289000  0.21905000  0.83715000  1.0
  C  C141  1  0.21165000  0.78126000  0.66296000  1.0
  C  C142  1  0.00711000  0.78095000  0.16284000  1.0
  C  C143  1  0.78836000  0.21874000  0.33704000  1.0
  C  C144  1  0.96409000  0.17929000  0.77697000  1.0
  C  C145  1  0.14325000  0.82132000  0.72313000  1.0
  C  C146  1  0.03592000  0.82071000  0.22303000  1.0
  C  C147  1  0.85673000  0.17869000  0.27686000  1.0
  C  C148  1  0.98227000  0.23131000  0.70672000  1.0
  C  C149  1  0.21344000  0.76926000  0.79335000  1.0
  C  C150  1  0.01773000  0.76869000  0.29328000  1.0
  C  C151  1  0.78654000  0.23075000  0.20664000  1.0
  C  C152  1  0.95930000  0.18600000  0.64124000  1.0
  C  C153  1  0.14519000  0.81459000  0.85884000  1.0
  C  C154  1  0.04072000  0.81399000  0.35875000  1.0
  C  C155  1  0.85478000  0.18542000  0.14115000  1.0
  C  C156  1  0.02348000  0.32573000  0.69712000  1.0
  C  C157  1  0.34888000  0.67464000  0.80293000  1.0
  C  C158  1  0.97652000  0.67428000  0.30288000  1.0
  C  C159  1  0.65110000  0.32537000  0.19706000  1.0
  C  C160  1  0.04656000  0.37148000  0.75629000  1.0
  C  C161  1  0.41761000  0.62876000  0.74377000  1.0
  C  C162  1  0.95344000  0.62852000  0.24371000  1.0
  C  C163  1  0.58238000  0.37125000  0.25624000  1.0
  C  C164  1  0.03324000  0.31473000  0.82641000  1.0
  C  C165  1  0.34747000  0.68540000  0.67367000  1.0
  C  C166  1  0.96675000  0.68527000  0.17359000  1.0
  C  C167  1  0.65254000  0.31460000  0.32633000  1.0
  C  C168  1  0.08672000  0.47818000  0.74263000  1.0
  C  C169  1  0.56444000  0.52215000  0.75739000  1.0
  C  C170  1  0.91328000  0.52182000  0.25737000  1.0
  C  C171  1  0.43555000  0.47786000  0.24261000  1.0
  C  C172  1  0.10082000  0.51932000  0.81325000  1.0
  C  C173  1  0.61950000  0.48088000  0.68679000  1.0
  C  C174  1  0.89919000  0.48067000  0.18675000  1.0
  C  C175  1  0.38051000  0.51912000  0.31321000  1.0
  C  C176  1  0.22538000  0.43209000  0.71001000  1.0
  C  C177  1  0.65692000  0.56851000  0.78983000  1.0
  C  C178  1  0.77462000  0.56790000  0.28999000  1.0
  C  C179  1  0.34308000  0.43150000  0.21017000  1.0
  C  C180  1  0.97731000  0.59250000  0.68783000  1.0
  C  C181  1  0.56971000  0.40782000  0.81236000  1.0
  C  C182  1  0.02269000  0.40751000  0.31218000  1.0
  C  C183  1  0.43028000  0.59219000  0.18764000  1.0
  N  N184  1  0.72360000  0.97205000  0.90984000  1.0
  N  N185  1  0.69552000  0.02826000  0.59007000  1.0
  N  N186  1  0.27639000  0.02795000  0.09016000  1.0
  N  N187  1  0.30449000  0.97174000  0.40993000  1.0
  N  N188  1  0.53990000  0.95209000  0.87910000  1.0
  N  N189  1  0.49182000  0.04809000  0.62070000  1.0
  N  N190  1  0.46009000  0.04791000  0.12090000  1.0
  N  N191  1  0.50819000  0.95191000  0.37930000  1.0
  O  O192  1  0.91215000  0.09878000  0.92106000  1.0
  O  O193  1  0.01076000  0.90162000  0.57907000  1.0
  O  O194  1  0.08785000  0.90122000  0.07893000  1.0
  O  O195  1  0.98925000  0.09837000  0.42092000  1.0
  O  O196  1  0.04794000  0.16888000  0.96559000  1.0
  O  O197  1  0.21659000  0.83113000  0.53450000  1.0
  O  O198  1  0.95207000  0.83111000  0.03441000  1.0
  O  O199  1  0.78342000  0.16887000  0.46550000  1.0
  O  O200  1  0.87278000  0.13957000  0.64863000  1.0
  O  O201  1  0.01230000  0.86087000  0.85150000  1.0
  O  O202  1  0.12723000  0.86043000  0.35136000  1.0
  O  O203  1  0.98766000  0.13914000  0.14849000  1.0
  O  O204  1  0.02078000  0.19361000  0.58593000  1.0
  O  O205  1  0.21429000  0.80704000  0.91410000  1.0
  O  O206  1  0.97922000  0.80640000  0.41407000  1.0
  O  O207  1  0.78567000  0.19298000  0.08590000  1.0
