# generated using pymatgen
data_ZnH25C26NO4
_symmetry_space_group_name_H-M   'P 1'
_cell_length_a   8.90187000
_cell_length_b   18.23250000
_cell_length_c   19.69320000
_cell_angle_alpha   88.79660000
_cell_angle_beta   88.43560000
_cell_angle_gamma   79.59760000
_symmetry_Int_Tables_number   1
_chemical_formula_structural   ZnH25C26NO4
_chemical_formula_sum   'Zn2 H50 C52 N2 O8'
_cell_volume   3142.14632862
_cell_formula_units_Z   2
loop_
 _symmetry_equiv_pos_site_id
 _symmetry_equiv_pos_as_xyz
  1  'x, y, z'
loop_
 _atom_site_type_symbol
 _atom_site_label
 _atom_site_symmetry_multiplicity
 _atom_site_fract_x
 _atom_site_fract_y
 _atom_site_fract_z
 _atom_site_occupancy
  Zn  Zn0  1  0.48737000  0.57849000  0.49855000  1.0
  Zn  Zn1  1  0.51320000  0.42196000  0.50208000  1.0
  H  H2  1  0.03536000  0.41482000  0.49627000  1.0
  H  H3  1  0.51174000  0.61554000  0.28096000  1.0
  H  H4  1  0.48573000  0.38349000  0.84702000  1.0
  H  H5  1  0.51248000  0.61641000  0.15408000  1.0
  H  H6  1  0.51214000  0.61707000  0.84168000  1.0
  H  H7  1  0.48615000  0.38282000  0.15843000  1.0
  H  H8  1  0.51028000  0.61633000  0.71486000  1.0
  H  H9  1  0.48848000  0.38284000  0.28525000  1.0
  H  H10  1  0.67243000  0.56903000  0.93434000  1.0
  H  H11  1  0.32613000  0.43124000  0.06628000  1.0
  H  H12  1  0.67225000  0.56862000  0.05987000  1.0
  H  H13  1  0.96500000  0.58627000  0.50480000  1.0
  H  H14  1  0.32622000  0.43167000  0.94076000  1.0
  H  H15  1  0.27532000  0.71337000  0.53583000  1.0
  H  H16  1  0.69660000  0.29171000  0.43926000  1.0
  H  H17  1  0.98079000  0.83724000  0.34132000  1.0
  H  H18  1  0.06988000  0.83737000  0.42079000  1.0
  H  H19  1  0.12304000  0.76044000  0.36601000  1.0
  H  H20  1  0.95196000  0.72519000  0.45850000  1.0
  H  H21  1  0.86051000  0.72872000  0.38006000  1.0
  H  H22  1  0.72915000  0.86221000  0.40577000  1.0
  H  H23  1  0.81105000  0.85329000  0.48559000  1.0
  H  H24  1  0.71694000  0.67314000  0.45834000  1.0
  H  H25  1  0.96964000  0.15642000  0.61496000  1.0
  H  H26  1  0.07983000  0.15356000  0.68902000  1.0
  H  H27  1  0.93105000  0.23074000  0.67330000  1.0
  H  H28  1  0.18581000  0.26553000  0.64548000  1.0
  H  H29  1  0.07635000  0.26912000  0.57191000  1.0
  H  H30  1  0.21315000  0.13996000  0.54156000  1.0
  H  H31  1  0.31961000  0.13543000  0.61497000  1.0
  H  H32  1  0.06943000  0.99220000  0.61208000  1.0
  H  H33  1  0.98362000  0.91463000  0.63641000  1.0
  H  H34  1  0.08730000  0.95576000  0.69637000  1.0
  H  H35  1  0.31035000  0.32318000  0.56330000  1.0
  H  H36  1  0.24774000  0.83674000  0.65336000  1.0
  H  H37  1  0.33075000  0.91413000  0.62808000  1.0
  H  H38  1  0.20388000  0.91614000  0.51466000  1.0
  H  H39  1  0.12856000  0.83651000  0.54041000  1.0
  H  H40  1  0.96294000  0.00777000  0.41572000  1.0
  H  H41  1  0.04829000  0.08369000  0.38610000  1.0
  H  H42  1  0.10487000  0.03815000  0.46427000  1.0
  H  H43  1  0.92817000  0.15949000  0.48712000  1.0
  H  H44  1  0.84334000  0.08373000  0.51508000  1.0
  H  H45  1  0.70275000  0.09201000  0.40368000  1.0
  H  H46  1  0.62521000  0.91860000  0.59176000  1.0
  H  H47  1  0.78045000  0.17217000  0.38137000  1.0
  H  H48  1  0.38045000  0.08175000  0.40527000  1.0
  H  H49  1  0.62264000  0.05515000  0.59298000  1.0
  H  H50  1  0.38137000  0.94522000  0.40447000  1.0
  H  H51  1  0.48627000  0.38374000  0.72018000  1.0
  C  C52  1  0.50135000  0.49913000  0.36675000  1.0
  C  C53  1  0.61152000  0.26512000  0.46630000  1.0
  C  C54  1  0.36911000  0.81484000  0.52092000  1.0
  C  C55  1  0.61579000  0.18836000  0.46337000  1.0
  C  C56  1  0.50076000  0.84164000  0.49813000  1.0
  C  C57  1  0.50148000  0.15896000  0.49982000  1.0
  C  C58  1  0.63032000  0.79154000  0.47411000  1.0
  C  C59  1  0.38727000  0.20661000  0.53709000  1.0
  C  C60  1  0.62207000  0.71574000  0.47542000  1.0
  C  C61  1  0.39443000  0.28250000  0.53631000  1.0
  C  C62  1  0.57118000  0.95445000  0.55090000  1.0
  C  C63  1  0.49803000  0.49964000  0.63387000  1.0
  C  C64  1  0.43410000  0.04592000  0.44619000  1.0
  C  C65  1  0.57005000  0.03096000  0.55151000  1.0
  C  C66  1  0.43444000  0.96944000  0.44577000  1.0
  C  C67  1  0.79830000  0.47719000  0.49774000  1.0
  C  C68  1  0.20214000  0.52436000  0.50294000  1.0
  C  C69  1  0.50146000  0.07746000  0.49916000  1.0
  C  C70  1  0.50253000  0.92299000  0.49821000  1.0
  C  C71  1  0.96673000  0.47068000  0.49845000  1.0
  C  C72  1  0.03384000  0.53050000  0.50248000  1.0
  C  C73  1  0.49059000  0.43459000  0.74759000  1.0
  C  C74  1  0.59433000  0.53972000  0.96317000  1.0
  C  C75  1  0.50759000  0.56482000  0.25330000  1.0
  C  C76  1  0.48989000  0.43490000  0.81821000  1.0
  C  C77  1  0.50841000  0.56487000  0.18267000  1.0
  C  C78  1  0.49912000  0.50029000  0.85330000  1.0
  C  C79  1  0.49941000  0.49961000  0.14734000  1.0
  C  C80  1  0.50771000  0.56556000  0.81518000  1.0
  C  C81  1  0.49071000  0.43415000  0.18519000  1.0
  C  C82  1  0.50592000  0.56560000  0.74455000  1.0
  C  C83  1  0.49265000  0.43375000  0.25581000  1.0
  C  C84  1  0.49800000  0.50002000  0.71003000  1.0
  C  C85  1  0.40422000  0.46052000  0.03744000  1.0
  C  C86  1  0.50058000  0.49916000  0.29060000  1.0
  C  C87  1  0.76875000  0.82064000  0.44603000  1.0
  C  C88  1  0.90201000  0.76361000  0.41779000  1.0
  C  C89  1  0.02593000  0.80163000  0.38465000  1.0
  C  C90  1  0.26412000  0.17507000  0.57613000  1.0
  C  C91  1  0.13672000  0.23063000  0.61023000  1.0
  C  C92  1  0.02294000  0.19079000  0.64907000  1.0
  C  C93  1  0.22630000  0.86508000  0.54638000  1.0
  C  C94  1  0.23084000  0.88745000  0.62102000  1.0
  C  C95  1  0.08498000  0.94038000  0.64283000  1.0
  C  C96  1  0.59427000  0.53947000  0.03384000  1.0
  C  C97  1  0.74361000  0.14007000  0.42474000  1.0
  C  C98  1  0.88209000  0.11134000  0.46927000  1.0
  C  C99  1  0.00642000  0.05729000  0.43188000  1.0
  C  C100  1  0.40425000  0.46078000  0.96679000  1.0
  C  C101  1  0.49930000  0.49984000  0.07241000  1.0
  C  C102  1  0.49936000  0.50032000  0.92820000  1.0
  C  C103  1  0.37380000  0.73797000  0.51955000  1.0
  N  N104  1  0.49678000  0.69001000  0.49767000  1.0
  N  N105  1  0.50435000  0.31058000  0.50195000  1.0
  O  O106  1  0.48556000  0.56241000  0.39499000  1.0
  O  O107  1  0.50871000  0.43639000  0.60595000  1.0
  O  O108  1  0.51749000  0.43597000  0.39725000  1.0
  O  O109  1  0.48774000  0.56242000  0.60305000  1.0
  O  O110  1  0.71917000  0.54271000  0.49539000  1.0
  O  O111  1  0.28184000  0.45899000  0.50313000  1.0
  O  O112  1  0.74667000  0.41626000  0.50000000  1.0
  O  O113  1  0.25304000  0.58554000  0.50249000  1.0
