# generated using pymatgen
data_CuH42C32(N3O4)2
_symmetry_space_group_name_H-M   'P 1'
_cell_length_a   6.75767000
_cell_length_b   10.84780000
_cell_length_c   11.38030000
_cell_angle_alpha   86.05080000
_cell_angle_beta   87.24710000
_cell_angle_gamma   78.87770000
_symmetry_Int_Tables_number   1
_chemical_formula_structural   CuH42C32(N3O4)2
_chemical_formula_sum   'Cu1 H42 C32 N6 O8'
_cell_volume   816.11534863
_cell_formula_units_Z   1
loop_
 _symmetry_equiv_pos_site_id
 _symmetry_equiv_pos_as_xyz
  1  'x, y, z'
loop_
 _atom_site_type_symbol
 _atom_site_label
 _atom_site_symmetry_multiplicity
 _atom_site_fract_x
 _atom_site_fract_y
 _atom_site_fract_z
 _atom_site_occupancy
  Cu  Cu0  1  0.99998000  0.00002000  0.99998000  1.0
  H  H1  1  0.93188000  0.08764000  0.56650000  1.0
  H  H2  1  0.06804000  0.91225000  0.43347000  1.0
  H  H3  1  0.09786000  0.00721000  0.75207000  1.0
  H  H4  1  0.90224000  0.99296000  0.24795000  1.0
  H  H5  1  0.57737000  0.13947000  0.95166000  1.0
  H  H6  1  0.42264000  0.86057000  0.04834000  1.0
  H  H7  1  0.39079000  0.22820000  0.77514000  1.0
  H  H8  1  0.60924000  0.77189000  0.22485000  1.0
  H  H9  1  0.68088000  0.38859000  0.35228000  1.0
  H  H10  1  0.31927000  0.61135000  0.64767000  1.0
  H  H11  1  0.56014000  0.39473000  0.21655000  1.0
  H  H12  1  0.43985000  0.60522000  0.78345000  1.0
  H  H13  1  0.76608000  0.27078000  0.24735000  1.0
  H  H14  1  0.23390000  0.72915000  0.75258000  1.0
  H  H15  1  0.57337000  0.11876000  0.20309000  1.0
  H  H16  1  0.42662000  0.88123000  0.79691000  1.0
  H  H17  1  0.34463000  0.22654000  0.18032000  1.0
  H  H18  1  0.65536000  0.77346000  0.81970000  1.0
  H  H19  1  0.35074000  0.09613000  0.28464000  1.0
  H  H20  1  0.64926000  0.90386000  0.71537000  1.0
  H  H21  1  0.17796000  0.15603000  0.45705000  1.0
  H  H22  1  0.82203000  0.84397000  0.54295000  1.0
  H  H23  1  0.05615000  0.25605000  0.34077000  1.0
  H  H24  1  0.94388000  0.74396000  0.65922000  1.0
  H  H25  1  0.01691000  0.30180000  0.48853000  1.0
  H  H26  1  0.98311000  0.69820000  0.51147000  1.0
  H  H27  1  0.10867000  0.50431000  0.41921000  1.0
  H  H28  1  0.89137000  0.49568000  0.58080000  1.0
  H  H29  1  0.19517000  0.46392000  0.27554000  1.0
  H  H30  1  0.80487000  0.53606000  0.72448000  1.0
  H  H31  1  0.36124000  0.51389000  0.37099000  1.0
  H  H32  1  0.63881000  0.48610000  0.62902000  1.0
  H  H33  1  0.98958000  0.62498000  0.86201000  1.0
  H  H34  1  0.01043000  0.37504000  0.13798000  1.0
  H  H35  1  0.29388000  0.60871000  0.97802000  1.0
  H  H36  1  0.70612000  0.39131000  0.02198000  1.0
  H  H37  1  0.15517000  0.58060000  0.10923000  1.0
  H  H38  1  0.84482000  0.41941000  0.89077000  1.0
  H  H39  1  0.65219000  0.62270000  0.96520000  1.0
  H  H40  1  0.34781000  0.37731000  0.03478000  1.0
  H  H41  1  0.77104000  0.58917000  0.10086000  1.0
  H  H42  1  0.22895000  0.41084000  0.89912000  1.0
  C  C43  1  0.64699000  0.16750000  0.65385000  1.0
  C  C44  1  0.35301000  0.83249000  0.34614000  1.0
  C  C45  1  0.84873000  0.10345000  0.64961000  1.0
  C  C46  1  0.15127000  0.89651000  0.35038000  1.0
  C  C47  1  0.94223000  0.05764000  0.75359000  1.0
  C  C48  1  0.05782000  0.94242000  0.24640000  1.0
  C  C49  1  0.65207000  0.13171000  0.86486000  1.0
  C  C50  1  0.34794000  0.86834000  0.13514000  1.0
  C  C51  1  0.54757000  0.18175000  0.76474000  1.0
  C  C52  1  0.45245000  0.81829000  0.23527000  1.0
  C  C53  1  0.54720000  0.21493000  0.54493000  1.0
  C  C54  1  0.45278000  0.78504000  0.45509000  1.0
  C  C55  1  0.48890000  0.24805000  0.34007000  1.0
  C  C56  1  0.51112000  0.75193000  0.65994000  1.0
  C  C57  1  0.63417000  0.33087000  0.28716000  1.0
  C  C58  1  0.36587000  0.66908000  0.71282000  1.0
  C  C59  1  0.43524000  0.16682000  0.24731000  1.0
  C  C60  1  0.56476000  0.83316000  0.75269000  1.0
  C  C61  1  0.30669000  0.32302000  0.41071000  1.0
  C  C62  1  0.69333000  0.67698000  0.58931000  1.0
  C  C63  1  0.12848000  0.25448000  0.42508000  1.0
  C  C64  1  0.87154000  0.74552000  0.57492000  1.0
  C  C65  1  0.24057000  0.45985000  0.36723000  1.0
  C  C66  1  0.75947000  0.54014000  0.63279000  1.0
  C  C67  1  0.94000000  0.77410000  0.97873000  1.0
  C  C68  1  0.05994000  0.22592000  0.02127000  1.0
  C  C69  1  0.97040000  0.63437000  0.95820000  1.0
  C  C70  1  0.02960000  0.36565000  0.04179000  1.0
  C  C71  1  0.16774000  0.56578000  0.01395000  1.0
  C  C72  1  0.83226000  0.43423000  0.98604000  1.0
  C  C73  1  0.79327000  0.57472000  0.00585000  1.0
  C  C74  1  0.20673000  0.42530000  0.99413000  1.0
  N  N75  1  0.84545000  0.07103000  0.85940000  1.0
  N  N76  1  0.15458000  0.92906000  0.14060000  1.0
  N  N77  1  0.59605000  0.16456000  0.43877000  1.0
  N  N78  1  0.40388000  0.83540000  0.56125000  1.0
  N  N79  1  0.39277000  0.31509000  0.53217000  1.0
  N  N80  1  0.60722000  0.68489000  0.46785000  1.0
  O  O81  1  0.72027000  0.06251000  0.41928000  1.0
  O  O82  1  0.27951000  0.93736000  0.58079000  1.0
  O  O83  1  0.31433000  0.38957000  0.61138000  1.0
  O  O84  1  0.68564000  0.61038000  0.38866000  1.0
  O  O85  1  0.79773000  0.82637000  0.04383000  1.0
  O  O86  1  0.20225000  0.17362000  0.95620000  1.0
  O  O87  1  0.07468000  0.83258000  0.92806000  1.0
  O  O88  1  0.92518000  0.16749000  0.07189000  1.0
