# generated using pymatgen
data_Zn4H36C60N3O13
_symmetry_space_group_name_H-M   'P 1'
_cell_length_a   25.84070000
_cell_length_b   25.84070000
_cell_length_c   41.28640000
_cell_angle_alpha   71.74910000
_cell_angle_beta   71.74910000
_cell_angle_gamma   59.98320000
_symmetry_Int_Tables_number   1
_chemical_formula_structural   Zn4H36C60N3O13
_chemical_formula_sum   'Zn16 H144 C240 N12 O52'
_cell_volume   22255.86076491
_cell_formula_units_Z   4
loop_
 _symmetry_equiv_pos_site_id
 _symmetry_equiv_pos_as_xyz
  1  'x, y, z'
loop_
 _atom_site_type_symbol
 _atom_site_label
 _atom_site_symmetry_multiplicity
 _atom_site_fract_x
 _atom_site_fract_y
 _atom_site_fract_z
 _atom_site_occupancy
  Zn  Zn0  1  0.64582000  0.64576000  0.06256000  1.0
  Zn  Zn1  1  0.85424000  0.85418000  0.43744000  1.0
  Zn  Zn2  1  0.35418000  0.35424000  0.93744000  1.0
  Zn  Zn3  1  0.14576000  0.14582000  0.56256000  1.0
  Zn  Zn4  1  0.68645000  0.59029000  0.99384000  1.0
  Zn  Zn5  1  0.72939000  0.68645000  0.99383000  1.0
  Zn  Zn6  1  0.59032000  0.72936000  0.99381000  1.0
  Zn  Zn7  1  0.81355000  0.77061000  0.50617000  1.0
  Zn  Zn8  1  0.77065000  0.90968000  0.50619000  1.0
  Zn  Zn9  1  0.90971000  0.81355000  0.50616000  1.0
  Zn  Zn10  1  0.31355000  0.40971000  0.00616000  1.0
  Zn  Zn11  1  0.27061000  0.31355000  0.00617000  1.0
  Zn  Zn12  1  0.40968000  0.27064000  0.00619000  1.0
  Zn  Zn13  1  0.18645000  0.22939000  0.49383000  1.0
  Zn  Zn14  1  0.22935000  0.09032000  0.49381000  1.0
  Zn  Zn15  1  0.09029000  0.18645000  0.49384000  1.0
  H  H16  1  0.76548000  0.59052000  0.13149000  1.0
  H  H17  1  0.51248000  0.76548000  0.13143000  1.0
  H  H18  1  0.59046000  0.51246000  0.13149000  1.0
  H  H19  1  0.73452000  0.98752000  0.36857000  1.0
  H  H20  1  0.98754000  0.90954000  0.36851000  1.0
  H  H21  1  0.90948000  0.73452000  0.36851000  1.0
  H  H22  1  0.23452000  0.40948000  0.86851000  1.0
  H  H23  1  0.48752000  0.23452000  0.86857000  1.0
  H  H24  1  0.40954000  0.48754000  0.86851000  1.0
  H  H25  1  0.26548000  0.01248000  0.63143000  1.0
  H  H26  1  0.01246000  0.09046000  0.63149000  1.0
  H  H27  1  0.09052000  0.26548000  0.63149000  1.0
  H  H28  1  0.85443000  0.54656000  0.16005000  1.0
  H  H29  1  0.43894000  0.85447000  0.15997000  1.0
  H  H30  1  0.54644000  0.43895000  0.16001000  1.0
  H  H31  1  0.64553000  0.06106000  0.34003000  1.0
  H  H32  1  0.06105000  0.95356000  0.33999000  1.0
  H  H33  1  0.95344000  0.64557000  0.33995000  1.0
  H  H34  1  0.14557000  0.45344000  0.83995000  1.0
  H  H35  1  0.56106000  0.14553000  0.84003000  1.0
  H  H36  1  0.45356000  0.56105000  0.83999000  1.0
  H  H37  1  0.35447000  0.93894000  0.65997000  1.0
  H  H38  1  0.93895000  0.04644000  0.66001000  1.0
  H  H39  1  0.04656000  0.35443000  0.66005000  1.0
  H  H40  1  0.86779000  0.64518000  0.03514000  1.0
  H  H41  1  0.45191000  0.86777000  0.03507000  1.0
  H  H42  1  0.64520000  0.45189000  0.03513000  1.0
  H  H43  1  0.63223000  0.04809000  0.46493000  1.0
  H  H44  1  0.04811000  0.85480000  0.46487000  1.0
  H  H45  1  0.85482000  0.63221000  0.46486000  1.0
  H  H46  1  0.13221000  0.35482000  0.96486000  1.0
  H  H47  1  0.54809000  0.13223000  0.96493000  1.0
  H  H48  1  0.35480000  0.54811000  0.96487000  1.0
  H  H49  1  0.36777000  0.95191000  0.53507000  1.0
  H  H50  1  0.95189000  0.14520000  0.53513000  1.0
  H  H51  1  0.14518000  0.36779000  0.53514000  1.0
  H  H52  1  0.99123000  0.45933000  0.09240000  1.0
  H  H53  1  0.45709000  0.99121000  0.09242000  1.0
  H  H54  1  0.45931000  0.45701000  0.09240000  1.0
  H  H55  1  0.50879000  0.04291000  0.40758000  1.0
  H  H56  1  0.04299000  0.04069000  0.40760000  1.0
  H  H57  1  0.04067000  0.50877000  0.40760000  1.0
  H  H58  1  0.00877000  0.54067000  0.90760000  1.0
  H  H59  1  0.54291000  0.00879000  0.90758000  1.0
  H  H60  1  0.54069000  0.54299000  0.90760000  1.0
  H  H61  1  0.49121000  0.95709000  0.59242000  1.0
  H  H62  1  0.95701000  0.95931000  0.59240000  1.0
  H  H63  1  0.95933000  0.49123000  0.59240000  1.0
  H  H64  1  0.06549000  0.55344000  0.11944000  1.0
  H  H65  1  0.26165000  0.06550000  0.11942000  1.0
  H  H66  1  0.55347000  0.26157000  0.11940000  1.0
  H  H67  1  0.43450000  0.23834000  0.38058000  1.0
  H  H68  1  0.23843000  0.94653000  0.38060000  1.0
  H  H69  1  0.94656000  0.43451000  0.38056000  1.0
  H  H70  1  0.93451000  0.44656000  0.88056000  1.0
  H  H71  1  0.73835000  0.93450000  0.88058000  1.0
  H  H72  1  0.44653000  0.73843000  0.88060000  1.0
  H  H73  1  0.56549000  0.76166000  0.61942000  1.0
  H  H74  1  0.76157000  0.05347000  0.61940000  1.0
  H  H75  1  0.05344000  0.56549000  0.61944000  1.0
  H  H76  1  0.16539000  0.49998000  0.08173000  1.0
  H  H77  1  0.25294000  0.16540000  0.08173000  1.0
  H  H78  1  0.49998000  0.25290000  0.08171000  1.0
  H  H79  1  0.33460000  0.24706000  0.41827000  1.0
  H  H80  1  0.24710000  0.00002000  0.41829000  1.0
  H  H81  1  0.00002000  0.33461000  0.41827000  1.0
  H  H82  1  0.83461000  0.50002000  0.91827000  1.0
  H  H83  1  0.74706000  0.83460000  0.91827000  1.0
  H  H84  1  0.50002000  0.74711000  0.91829000  1.0
  H  H85  1  0.66540000  0.75294000  0.58173000  1.0
  H  H86  1  0.75289000  0.99998000  0.58171000  1.0
  H  H87  1  0.99998000  0.66539000  0.58173000  1.0
  H  H88  1  0.09249000  0.40302000  0.05675000  1.0
  H  H89  1  0.44785000  0.09245000  0.05679000  1.0
  H  H90  1  0.40294000  0.44780000  0.05678000  1.0
  H  H91  1  0.40755000  0.05215000  0.44321000  1.0
  H  H92  1  0.05220000  0.09707000  0.44322000  1.0
  H  H93  1  0.09698000  0.40751000  0.44325000  1.0
  H  H94  1  0.90751000  0.59698000  0.94325000  1.0
  H  H95  1  0.55215000  0.90755000  0.94321000  1.0
  H  H96  1  0.59706000  0.55220000  0.94322000  1.0
  H  H97  1  0.59245000  0.94785000  0.55679000  1.0
  H  H98  1  0.94780000  0.90294000  0.55678000  1.0
  H  H99  1  0.90302000  0.59249000  0.55675000  1.0
  H  H100  1  0.88998000  0.63469000  0.16216000  1.0
  H  H101  1  0.31323000  0.88995000  0.16216000  1.0
  H  H102  1  0.63468000  0.31319000  0.16213000  1.0
  H  H103  1  0.61005000  0.18677000  0.33784000  1.0
  H  H104  1  0.18681000  0.86532000  0.33787000  1.0
  H  H105  1  0.86531000  0.61002000  0.33784000  1.0
  H  H106  1  0.11002000  0.36531000  0.83784000  1.0
  H  H107  1  0.68677000  0.11005000  0.83784000  1.0
  H  H108  1  0.36532000  0.68681000  0.83787000  1.0
  H  H109  1  0.38995000  0.81323000  0.66216000  1.0
  H  H110  1  0.81319000  0.13468000  0.66213000  1.0
  H  H111  1  0.13469000  0.38998000  0.66216000  1.0
  H  H112  1  0.95803000  0.59903000  0.06284000  1.0
  H  H113  1  0.38009000  0.95807000  0.06276000  1.0
  H  H114  1  0.59899000  0.38013000  0.06279000  1.0
  H  H115  1  0.54193000  0.11991000  0.43724000  1.0
  H  H116  1  0.11987000  0.90102000  0.43721000  1.0
  H  H117  1  0.90097000  0.54197000  0.43716000  1.0
  H  H118  1  0.04197000  0.40097000  0.93716000  1.0
  H  H119  1  0.61991000  0.04193000  0.93724000  1.0
  H  H120  1  0.40101000  0.61987000  0.93721000  1.0
  H  H121  1  0.45807000  0.88009000  0.56276000  1.0
  H  H122  1  0.88013000  0.09899000  0.56279000  1.0
  H  H123  1  0.09903000  0.45803000  0.56284000  1.0
  H  H124  1  0.03083000  0.44978000  0.17195000  1.0
  H  H125  1  0.34738000  0.03086000  0.17190000  1.0
  H  H126  1  0.44983000  0.34734000  0.17193000  1.0
  H  H127  1  0.46914000  0.15262000  0.32810000  1.0
  H  H128  1  0.15266000  0.05017000  0.32807000  1.0
  H  H129  1  0.05022000  0.46917000  0.32805000  1.0
  H  H130  1  0.96917000  0.55022000  0.82805000  1.0
  H  H131  1  0.65262000  0.96914000  0.82810000  1.0
  H  H132  1  0.55017000  0.65266000  0.82806000  1.0
  H  H133  1  0.53086000  0.84738000  0.67190000  1.0
  H  H134  1  0.84734000  0.94983000  0.67193000  1.0
  H  H135  1  0.94978000  0.53083000  0.67195000  1.0
  H  H136  1  0.02720000  0.44935000  0.23218000  1.0
  H  H137  1  0.29124000  0.02722000  0.23212000  1.0
  H  H138  1  0.44942000  0.29115000  0.23215000  1.0
  H  H139  1  0.47278000  0.20876000  0.26788000  1.0
  H  H140  1  0.20885000  0.05058000  0.26785000  1.0
  H  H141  1  0.05065000  0.47280000  0.26782000  1.0
  H  H142  1  0.97280000  0.55065000  0.76782000  1.0
  H  H143  1  0.70876000  0.97278000  0.76788000  1.0
  H  H144  1  0.55057000  0.70885000  0.76785000  1.0
  H  H145  1  0.52722000  0.79124000  0.73212000  1.0
  H  H146  1  0.79115000  0.94942000  0.73215000  1.0
  H  H147  1  0.94935000  0.52720000  0.73218000  1.0
  H  H148  1  0.88777000  0.63532000  0.22203000  1.0
  H  H149  1  0.25496000  0.88774000  0.22203000  1.0
  H  H150  1  0.63532000  0.25490000  0.22201000  1.0
  H  H151  1  0.61226000  0.24504000  0.27797000  1.0
  H  H152  1  0.24510000  0.86468000  0.27799000  1.0
  H  H153  1  0.86469000  0.61223000  0.27797000  1.0
  H  H154  1  0.11223000  0.36468000  0.77797000  1.0
  H  H155  1  0.74504000  0.11226000  0.77797000  1.0
  H  H156  1  0.36468000  0.74510000  0.77799000  1.0
  H  H157  1  0.38774000  0.75496000  0.72203000  1.0
  H  H158  1  0.75490000  0.13532000  0.72201000  1.0
  H  H159  1  0.13532000  0.38777000  0.72203000  1.0
  C  C160  1  0.75935000  0.64450000  0.06374000  1.0
  C  C161  1  0.53237000  0.75932000  0.06371000  1.0
  C  C162  1  0.64452000  0.53231000  0.06374000  1.0
  C  C163  1  0.74067000  0.96763000  0.43629000  1.0
  C  C164  1  0.96769000  0.85548000  0.43626000  1.0
  C  C165  1  0.85550000  0.74065000  0.43626000  1.0
  C  C166  1  0.24065000  0.35550000  0.93626000  1.0
  C  C167  1  0.46763000  0.24067000  0.93629000  1.0
  C  C168  1  0.35548000  0.46769000  0.93626000  1.0
  C  C169  1  0.25933000  0.03237000  0.56371000  1.0
  C  C170  1  0.03231000  0.14452000  0.56374000  1.0
  C  C171  1  0.14450000  0.25935000  0.56374000  1.0
  C  C172  1  0.81102000  0.62065000  0.08151000  1.0
  C  C173  1  0.48677000  0.81101000  0.08145000  1.0
  C  C174  1  0.62062000  0.48678000  0.08150000  1.0
  C  C175  1  0.68899000  0.01323000  0.41855000  1.0
  C  C176  1  0.01322000  0.87938000  0.41850000  1.0
  C  C177  1  0.87935000  0.68898000  0.41849000  1.0
  C  C178  1  0.18899000  0.37935000  0.91849000  1.0
  C  C179  1  0.51322000  0.18899000  0.91855000  1.0
  C  C180  1  0.37938000  0.51322000  0.91850000  1.0
  C  C181  1  0.31101000  0.98678000  0.58145000  1.0
  C  C182  1  0.98678000  0.12062000  0.58150000  1.0
  C  C183  1  0.12065000  0.31102000  0.58151000  1.0
  C  C184  1  0.80754000  0.59313000  0.11683000  1.0
  C  C185  1  0.48247000  0.80754000  0.11677000  1.0
  C  C186  1  0.59303000  0.48249000  0.11682000  1.0
  C  C187  1  0.69246000  0.01753000  0.38323000  1.0
  C  C188  1  0.01751000  0.90697000  0.38318000  1.0
  C  C189  1  0.90687000  0.69246000  0.38317000  1.0
  C  C190  1  0.19246000  0.40687000  0.88317000  1.0
  C  C191  1  0.51753000  0.19246000  0.88323000  1.0
  C  C192  1  0.40696000  0.51751000  0.88318000  1.0
  C  C193  1  0.30754000  0.98247000  0.61677000  1.0
  C  C194  1  0.98249000  0.09303000  0.61682000  1.0
  C  C195  1  0.09313000  0.30754000  0.61683000  1.0
  C  C196  1  0.85725000  0.56834000  0.13271000  1.0
  C  C197  1  0.44167000  0.85727000  0.13264000  1.0
  C  C198  1  0.56821000  0.44172000  0.13267000  1.0
  C  C199  1  0.64273000  0.05833000  0.36736000  1.0
  C  C200  1  0.05828000  0.93179000  0.36733000  1.0
  C  C201  1  0.93166000  0.64275000  0.36729000  1.0
  C  C202  1  0.14275000  0.43166000  0.86729000  1.0
  C  C203  1  0.55833000  0.14273000  0.86736000  1.0
  C  C204  1  0.43179000  0.55828000  0.86733000  1.0
  C  C205  1  0.35727000  0.94167000  0.63264000  1.0
  C  C206  1  0.94172000  0.06821000  0.63267000  1.0
  C  C207  1  0.06834000  0.35725000  0.63271000  1.0
  C  C208  1  0.86552000  0.62312000  0.06241000  1.0
  C  C209  1  0.44892000  0.86551000  0.06234000  1.0
  C  C210  1  0.62310000  0.44894000  0.06239000  1.0
  C  C211  1  0.63449000  0.05108000  0.43766000  1.0
  C  C212  1  0.05106000  0.87690000  0.43761000  1.0
  C  C213  1  0.87688000  0.63448000  0.43759000  1.0
  C  C214  1  0.13448000  0.37688000  0.93759000  1.0
  C  C215  1  0.55108000  0.13449000  0.93766000  1.0
  C  C216  1  0.37690000  0.55106000  0.93761000  1.0
  C  C217  1  0.36551000  0.94892000  0.56234000  1.0
  C  C218  1  0.94894000  0.12310000  0.56239000  1.0
  C  C219  1  0.12312000  0.36552000  0.56241000  1.0
  C  C220  1  0.91231000  0.56946000  0.11322000  1.0
  C  C221  1  0.40501000  0.91232000  0.11314000  1.0
  C  C222  1  0.56938000  0.40503000  0.11317000  1.0
  C  C223  1  0.58768000  0.09499000  0.38686000  1.0
  C  C224  1  0.09497000  0.93062000  0.38683000  1.0
  C  C225  1  0.93054000  0.58769000  0.38678000  1.0
  C  C226  1  0.08769000  0.43054000  0.88678000  1.0
  C  C227  1  0.59499000  0.08768000  0.88686000  1.0
  C  C228  1  0.43062000  0.59497000  0.88683000  1.0
  C  C229  1  0.41232000  0.90501000  0.61314000  1.0
  C  C230  1  0.90503000  0.06938000  0.61317000  1.0
  C  C231  1  0.06946000  0.41231000  0.61322000  1.0
  C  C232  1  0.02965000  0.46782000  0.09007000  1.0
  C  C233  1  0.41251000  0.02964000  0.09009000  1.0
  C  C234  1  0.46780000  0.41244000  0.09007000  1.0
  C  C235  1  0.47036000  0.08749000  0.40991000  1.0
  C  C236  1  0.08756000  0.03221000  0.40993000  1.0
  C  C237  1  0.03218000  0.47035000  0.40992000  1.0
  C  C238  1  0.97035000  0.53218000  0.90993000  1.0
  C  C239  1  0.58749000  0.97036000  0.90991000  1.0
  C  C240  1  0.53220000  0.58756000  0.90993000  1.0
  C  C241  1  0.52964000  0.91251000  0.59009000  1.0
  C  C242  1  0.91244000  0.96780000  0.59007000  1.0
  C  C243  1  0.96782000  0.52965000  0.59007000  1.0
  C  C244  1  0.02206000  0.51019000  0.10783000  1.0
  C  C245  1  0.35995000  0.02205000  0.10782000  1.0
  C  C246  1  0.51019000  0.35987000  0.10781000  1.0
  C  C247  1  0.47795000  0.14005000  0.39218000  1.0
  C  C248  1  0.14013000  0.98981000  0.39219000  1.0
  C  C249  1  0.98981000  0.47794000  0.39217000  1.0
  C  C250  1  0.97794000  0.48981000  0.89217000  1.0
  C  C251  1  0.64005000  0.97795000  0.89218000  1.0
  C  C252  1  0.48981000  0.64013000  0.89219000  1.0
  C  C253  1  0.52205000  0.85995000  0.60782000  1.0
  C  C254  1  0.85987000  0.01020000  0.60781000  1.0
  C  C255  1  0.01019000  0.52206000  0.60783000  1.0
  C  C256  1  0.07152000  0.52083000  0.10541000  1.0
  C  C257  1  0.30228000  0.07153000  0.10540000  1.0
  C  C258  1  0.52083000  0.30221000  0.10538000  1.0
  C  C259  1  0.42847000  0.19772000  0.39460000  1.0
  C  C260  1  0.19779000  0.97917000  0.39462000  1.0
  C  C261  1  0.97917000  0.42848000  0.39459000  1.0
  C  C262  1  0.92848000  0.47917000  0.89459000  1.0
  C  C263  1  0.69772000  0.92847000  0.89460000  1.0
  C  C264  1  0.47917000  0.69779000  0.89462000  1.0
  C  C265  1  0.57153000  0.80228000  0.60540000  1.0
  C  C266  1  0.80221000  0.02083000  0.60538000  1.0
  C  C267  1  0.02083000  0.57152000  0.60541000  1.0
  C  C268  1  0.12719000  0.49078000  0.08465000  1.0
  C  C269  1  0.29742000  0.12720000  0.08465000  1.0
  C  C270  1  0.49078000  0.29736000  0.08463000  1.0
  C  C271  1  0.37280000  0.20258000  0.41535000  1.0
  C  C272  1  0.20264000  0.00922000  0.41537000  1.0
  C  C273  1  0.00922000  0.37281000  0.41535000  1.0
  C  C274  1  0.87281000  0.50922000  0.91535000  1.0
  C  C275  1  0.70258000  0.87280000  0.91535000  1.0
  C  C276  1  0.50922000  0.70264000  0.91537000  1.0
  C  C277  1  0.62720000  0.79742000  0.58465000  1.0
  C  C278  1  0.79736000  0.99078000  0.58463000  1.0
  C  C279  1  0.99079000  0.62719000  0.58465000  1.0
  C  C280  1  0.08576000  0.43683000  0.07009000  1.0
  C  C281  1  0.40741000  0.08573000  0.07012000  1.0
  C  C282  1  0.43677000  0.40735000  0.07010000  1.0
  C  C283  1  0.41427000  0.09259000  0.42988000  1.0
  C  C284  1  0.09265000  0.06323000  0.42990000  1.0
  C  C285  1  0.06317000  0.41424000  0.42991000  1.0
  C  C286  1  0.91424000  0.56317000  0.92991000  1.0
  C  C287  1  0.59259000  0.91427000  0.92988000  1.0
  C  C288  1  0.56323000  0.59265000  0.92990000  1.0
  C  C289  1  0.58573000  0.90741000  0.57012000  1.0
  C  C290  1  0.90735000  0.93677000  0.57010000  1.0
  C  C291  1  0.93683000  0.58576000  0.57009000  1.0
  C  C292  1  0.13488000  0.44854000  0.06679000  1.0
  C  C293  1  0.34986000  0.13486000  0.06680000  1.0
  C  C294  1  0.44851000  0.34982000  0.06679000  1.0
  C  C295  1  0.36514000  0.15014000  0.43320000  1.0
  C  C296  1  0.15018000  0.05149000  0.43321000  1.0
  C  C297  1  0.05146000  0.36512000  0.43321000  1.0
  C  C298  1  0.86512000  0.55146000  0.93321000  1.0
  C  C299  1  0.65014000  0.86514000  0.93320000  1.0
  C  C300  1  0.55149000  0.65018000  0.93321000  1.0
  C  C301  1  0.63486000  0.84986000  0.56680000  1.0
  C  C302  1  0.84982000  0.94851000  0.56679000  1.0
  C  C303  1  0.94854000  0.63488000  0.56679000  1.0
  C  C304  1  0.96098000  0.54234000  0.16276000  1.0
  C  C305  1  0.33398000  0.96094000  0.16272000  1.0
  C  C306  1  0.54235000  0.33390000  0.16273000  1.0
  C  C307  1  0.53905000  0.16602000  0.33728000  1.0
  C  C308  1  0.16610000  0.95765000  0.33727000  1.0
  C  C309  1  0.95766000  0.53902000  0.33724000  1.0
  C  C310  1  0.03902000  0.45766000  0.83724000  1.0
  C  C311  1  0.66602000  0.03905000  0.83728000  1.0
  C  C312  1  0.45765000  0.66610000  0.83727000  1.0
  C  C313  1  0.46095000  0.83398000  0.66272000  1.0
  C  C314  1  0.83390000  0.04235000  0.66273000  1.0
  C  C315  1  0.04233000  0.46098000  0.66276000  1.0
  C  C316  1  0.92000000  0.59401000  0.17763000  1.0
  C  C317  1  0.30842000  0.91997000  0.17762000  1.0
  C  C318  1  0.59402000  0.30835000  0.17760000  1.0
  C  C319  1  0.58003000  0.19158000  0.32238000  1.0
  C  C320  1  0.19165000  0.90598000  0.32240000  1.0
  C  C321  1  0.90599000  0.58000000  0.32237000  1.0
  C  C322  1  0.08000000  0.40598000  0.82237000  1.0
  C  C323  1  0.69158000  0.08003000  0.82238000  1.0
  C  C324  1  0.40598000  0.69165000  0.82240000  1.0
  C  C325  1  0.41997000  0.80842000  0.67762000  1.0
  C  C326  1  0.80835000  0.09402000  0.67760000  1.0
  C  C327  1  0.09401000  0.41999000  0.67763000  1.0
  C  C328  1  0.91564000  0.59761000  0.07789000  1.0
  C  C329  1  0.40883000  0.91566000  0.07782000  1.0
  C  C330  1  0.59754000  0.40888000  0.07785000  1.0
  C  C331  1  0.58434000  0.09117000  0.42218000  1.0
  C  C332  1  0.09112000  0.90246000  0.42215000  1.0
  C  C333  1  0.90239000  0.58436000  0.42210000  1.0
  C  C334  1  0.08436000  0.40239000  0.92210000  1.0
  C  C335  1  0.59117000  0.08433000  0.92218000  1.0
  C  C336  1  0.40245000  0.59112000  0.92215000  1.0
  C  C337  1  0.41567000  0.90883000  0.57782000  1.0
  C  C338  1  0.90888000  0.09754000  0.57785000  1.0
  C  C339  1  0.09761000  0.41564000  0.57790000  1.0
  C  C340  1  0.99964000  0.49053000  0.18299000  1.0
  C  C341  1  0.32683000  0.99964000  0.18294000  1.0
  C  C342  1  0.49059000  0.32675000  0.18297000  1.0
  C  C343  1  0.50036000  0.17317000  0.31706000  1.0
  C  C344  1  0.17326000  0.00941000  0.31703000  1.0
  C  C345  1  0.00947000  0.50036000  0.31701000  1.0
  C  C346  1  0.00036000  0.50947000  0.81701000  1.0
  C  C347  1  0.67317000  0.00036000  0.81705000  1.0
  C  C348  1  0.50941000  0.67325000  0.81703000  1.0
  C  C349  1  0.49964000  0.82683000  0.68294000  1.0
  C  C350  1  0.82675000  0.99059000  0.68297000  1.0
  C  C351  1  0.99053000  0.49964000  0.68299000  1.0
  C  C352  1  0.99777000  0.49087000  0.21689000  1.0
  C  C353  1  0.29446000  0.99777000  0.21684000  1.0
  C  C354  1  0.49094000  0.29437000  0.21687000  1.0
  C  C355  1  0.50223000  0.20554000  0.28316000  1.0
  C  C356  1  0.20563000  0.00906000  0.28313000  1.0
  C  C357  1  0.00913000  0.50223000  0.28311000  1.0
  C  C358  1  0.00223000  0.50913000  0.78311000  1.0
  C  C359  1  0.70554000  0.00223000  0.78316000  1.0
  C  C360  1  0.50906000  0.70563000  0.78313000  1.0
  C  C361  1  0.49777000  0.79446000  0.71684000  1.0
  C  C362  1  0.79437000  0.99094000  0.71687000  1.0
  C  C363  1  0.99087000  0.49777000  0.71689000  1.0
  C  C364  1  0.95770000  0.54254000  0.23211000  1.0
  C  C365  1  0.26768000  0.95767000  0.23210000  1.0
  C  C366  1  0.54258000  0.26759000  0.23210000  1.0
  C  C367  1  0.54233000  0.23232000  0.26790000  1.0
  C  C368  1  0.23241000  0.95742000  0.26790000  1.0
  C  C369  1  0.95746000  0.54230000  0.26789000  1.0
  C  C370  1  0.04230000  0.45746000  0.76789000  1.0
  C  C371  1  0.73232000  0.04233000  0.76790000  1.0
  C  C372  1  0.45741000  0.73241000  0.76790000  1.0
  C  C373  1  0.45767000  0.76768000  0.73210000  1.0
  C  C374  1  0.76759000  0.04259000  0.73210000  1.0
  C  C375  1  0.04254000  0.45770000  0.73211000  1.0
  C  C376  1  0.91865000  0.59383000  0.21160000  1.0
  C  C377  1  0.27598000  0.91862000  0.21159000  1.0
  C  C378  1  0.59385000  0.27589000  0.21158000  1.0
  C  C379  1  0.58138000  0.22402000  0.28841000  1.0
  C  C380  1  0.22411000  0.90615000  0.28842000  1.0
  C  C381  1  0.90617000  0.58135000  0.28840000  1.0
  C  C382  1  0.08135000  0.40617000  0.78840000  1.0
  C  C383  1  0.72402000  0.08138000  0.78841000  1.0
  C  C384  1  0.40615000  0.72411000  0.78842000  1.0
  C  C385  1  0.41862000  0.77598000  0.71159000  1.0
  C  C386  1  0.77589000  0.09385000  0.71158000  1.0
  C  C387  1  0.09383000  0.41865000  0.71160000  1.0
  C  C388  1  0.19409000  0.41653000  0.04422000  1.0
  C  C389  1  0.34518000  0.19410000  0.04426000  1.0
  C  C390  1  0.41655000  0.34516000  0.04422000  1.0
  C  C391  1  0.30590000  0.15482000  0.45574000  1.0
  C  C392  1  0.15484000  0.08345000  0.45578000  1.0
  C  C393  1  0.08346000  0.30591000  0.45578000  1.0
  C  C394  1  0.80592000  0.58346000  0.95578000  1.0
  C  C395  1  0.65482000  0.80590000  0.95574000  1.0
  C  C396  1  0.58345000  0.65484000  0.95578000  1.0
  C  C397  1  0.69410000  0.84518000  0.54426000  1.0
  C  C398  1  0.84516000  0.91655000  0.54422000  1.0
  C  C399  1  0.91654000  0.69408000  0.54422000  1.0
  N  N400  1  0.96447000  0.54192000  0.12803000  1.0
  N  N401  1  0.36559000  0.96446000  0.12799000  1.0
  N  N402  1  0.54191000  0.36554000  0.12800000  1.0
  N  N403  1  0.53554000  0.13441000  0.37201000  1.0
  N  N404  1  0.13446000  0.95809000  0.37200000  1.0
  N  N405  1  0.95808000  0.53553000  0.37197000  1.0
  N  N406  1  0.03553000  0.45808000  0.87197000  1.0
  N  N407  1  0.63441000  0.03554000  0.87201000  1.0
  N  N408  1  0.45809000  0.63447000  0.87200000  1.0
  N  N409  1  0.46446000  0.86559000  0.62799000  1.0
  N  N410  1  0.86554000  0.04191000  0.62800000  1.0
  N  N411  1  0.04192000  0.46447000  0.62804000  1.0
  O  O412  1  0.66293000  0.66289000  0.01125000  1.0
  O  O413  1  0.83711000  0.83707000  0.48875000  1.0
  O  O414  1  0.33708000  0.33711000  0.98875000  1.0
  O  O415  1  0.16289000  0.16292000  0.51125000  1.0
  O  O416  1  0.71542000  0.63097000  0.08021000  1.0
  O  O417  1  0.57335000  0.71539000  0.08019000  1.0
  O  O418  1  0.63100000  0.57331000  0.08020000  1.0
  O  O419  1  0.78461000  0.92665000  0.41981000  1.0
  O  O420  1  0.92669000  0.86900000  0.41980000  1.0
  O  O421  1  0.86903000  0.78458000  0.41979000  1.0
  O  O422  1  0.28458000  0.36903000  0.91979000  1.0
  O  O423  1  0.42665000  0.28461000  0.91981000  1.0
  O  O424  1  0.36900000  0.42670000  0.91980000  1.0
  O  O425  1  0.21539000  0.07335000  0.58019000  1.0
  O  O426  1  0.07331000  0.13100000  0.58020000  1.0
  O  O427  1  0.13097000  0.21542000  0.58021000  1.0
  O  O428  1  0.76321000  0.67622000  0.03303000  1.0
  O  O429  1  0.52753000  0.76317000  0.03301000  1.0
  O  O430  1  0.67627000  0.52743000  0.03303000  1.0
  O  O431  1  0.73683000  0.97248000  0.46699000  1.0
  O  O432  1  0.97257000  0.82373000  0.46697000  1.0
  O  O433  1  0.82378000  0.73679000  0.46697000  1.0
  O  O434  1  0.23679000  0.32378000  0.96697000  1.0
  O  O435  1  0.47247000  0.23683000  0.96699000  1.0
  O  O436  1  0.32373000  0.47257000  0.96697000  1.0
  O  O437  1  0.26317000  0.02753000  0.53301000  1.0
  O  O438  1  0.02743000  0.17627000  0.53303000  1.0
  O  O439  1  0.17622000  0.26321000  0.53303000  1.0
  O  O440  1  0.23300000  0.43751000  0.03631000  1.0
  O  O441  1  0.29322000  0.23295000  0.03628000  1.0
  O  O442  1  0.43764000  0.29320000  0.03626000  1.0
  O  O443  1  0.26705000  0.20678000  0.46372000  1.0
  O  O444  1  0.20680000  0.06236000  0.46374000  1.0
  O  O445  1  0.06249000  0.26700000  0.46369000  1.0
  O  O446  1  0.76700000  0.56249000  0.96369000  1.0
  O  O447  1  0.70678000  0.76705000  0.96372000  1.0
  O  O448  1  0.56236000  0.70680000  0.96374000  1.0
  O  O449  1  0.73295000  0.79322000  0.53628000  1.0
  O  O450  1  0.79320000  0.93764000  0.53626000  1.0
  O  O451  1  0.93751000  0.73300000  0.53631000  1.0
  O  O452  1  0.20104000  0.37087000  0.03444000  1.0
  O  O453  1  0.39361000  0.20115000  0.03456000  1.0
  O  O454  1  0.37079000  0.39361000  0.03449000  1.0
  O  O455  1  0.29885000  0.10639000  0.46544000  1.0
  O  O456  1  0.10638000  0.12921000  0.46551000  1.0
  O  O457  1  0.12912000  0.29896000  0.46556000  1.0
  O  O458  1  0.79896000  0.62913000  0.96556000  1.0
  O  O459  1  0.60639000  0.79885000  0.96544000  1.0
  O  O460  1  0.62921000  0.60638000  0.96551000  1.0
  O  O461  1  0.70115000  0.89361000  0.53456000  1.0
  O  O462  1  0.89362000  0.87080000  0.53449000  1.0
  O  O463  1  0.87088000  0.70104000  0.53444000  1.0
