# generated using pymatgen
data_ZnH15C14(NO2)2
_symmetry_space_group_name_H-M   'P 1'
_cell_length_a   9.18039000
_cell_length_b   13.06780000
_cell_length_c   13.06790000
_cell_angle_alpha   97.50090000
_cell_angle_beta   99.52130000
_cell_angle_gamma   99.52120000
_symmetry_Int_Tables_number   1
_chemical_formula_structural   ZnH15C14(NO2)2
_chemical_formula_sum   'Zn4 H60 C56 N8 O16'
_cell_volume   1504.59952244
_cell_formula_units_Z   4
loop_
 _symmetry_equiv_pos_site_id
 _symmetry_equiv_pos_as_xyz
  1  'x, y, z'
loop_
 _atom_site_type_symbol
 _atom_site_label
 _atom_site_symmetry_multiplicity
 _atom_site_fract_x
 _atom_site_fract_y
 _atom_site_fract_z
 _atom_site_occupancy
  Zn  Zn0  1  0.52574000  0.44589000  0.08559000  1.0
  Zn  Zn1  1  0.97425000  0.91441000  0.55411000  1.0
  Zn  Zn2  1  0.47426000  0.55411000  0.91441000  1.0
  Zn  Zn3  1  0.02574000  0.08559000  0.44590000  1.0
  H  H4  1  0.99936000  0.40861000  0.01616000  1.0
  H  H5  1  0.50064000  0.98383000  0.59138000  1.0
  H  H6  1  0.00064000  0.59138000  0.98384000  1.0
  H  H7  1  0.49936000  0.01616000  0.40861000  1.0
  H  H8  1  0.98830000  0.47015000  0.83953000  1.0
  H  H9  1  0.51171000  0.16047000  0.52984000  1.0
  H  H10  1  0.01171000  0.52985000  0.16047000  1.0
  H  H11  1  0.48830000  0.83953000  0.47015000  1.0
  H  H12  1  0.83499000  0.37298000  0.85022000  1.0
  H  H13  1  0.66501000  0.14978000  0.62702000  1.0
  H  H14  1  0.16501000  0.62702000  0.14978000  1.0
  H  H15  1  0.33499000  0.85022000  0.37298000  1.0
  H  H16  1  0.90797000  0.32962000  0.67994000  1.0
  H  H17  1  0.59203000  0.32005000  0.67038000  1.0
  H  H18  1  0.09203000  0.67038000  0.32006000  1.0
  H  H19  1  0.40798000  0.67994000  0.32962000  1.0
  H  H20  1  0.09818000  0.34289000  0.73884000  1.0
  H  H21  1  0.40183000  0.26116000  0.65711000  1.0
  H  H22  1  0.90182000  0.65711000  0.26116000  1.0
  H  H23  1  0.59818000  0.73884000  0.34289000  1.0
  H  H24  1  0.83967000  0.17622000  0.77048000  1.0
  H  H25  1  0.66033000  0.22952000  0.82378000  1.0
  H  H26  1  0.16033000  0.82378000  0.22952000  1.0
  H  H27  1  0.33967000  0.77048000  0.17622000  1.0
  H  H28  1  0.04036000  0.10246000  0.87010000  1.0
  H  H29  1  0.45964000  0.12990000  0.89754000  1.0
  H  H30  1  0.95963000  0.89754000  0.12990000  1.0
  H  H31  1  0.54037000  0.87010000  0.10246000  1.0
  H  H32  1  0.17612000  0.21195000  0.85988000  1.0
  H  H33  1  0.32387000  0.14012000  0.78805000  1.0
  H  H34  1  0.82387000  0.78805000  0.14012000  1.0
  H  H35  1  0.67613000  0.85988000  0.21195000  1.0
  H  H36  1  0.09264000  0.23979000  0.03143000  1.0
  H  H37  1  0.40736000  0.96857000  0.76021000  1.0
  H  H38  1  0.90736000  0.76021000  0.96857000  1.0
  H  H39  1  0.59264000  0.03143000  0.23979000  1.0
  H  H40  1  0.90303000  0.22284000  0.96507000  1.0
  H  H41  1  0.59697000  0.03493000  0.77716000  1.0
  H  H42  1  0.09697000  0.77716000  0.03493000  1.0
  H  H43  1  0.40303000  0.96507000  0.22284000  1.0
  H  H44  1  0.75794000  0.48210000  0.28198000  1.0
  H  H45  1  0.74206000  0.71802000  0.51790000  1.0
  H  H46  1  0.24206000  0.51790000  0.71803000  1.0
  H  H47  1  0.25794000  0.28198000  0.48210000  1.0
  H  H48  1  0.66461000  0.21366000  0.43770000  1.0
  H  H49  1  0.83539000  0.56231000  0.78634000  1.0
  H  H50  1  0.33540000  0.78634000  0.56230000  1.0
  H  H51  1  0.16460000  0.43769000  0.21365000  1.0
  H  H52  1  0.42903000  0.14926000  0.29987000  1.0
  H  H53  1  0.07097000  0.70014000  0.85074000  1.0
  H  H54  1  0.57097000  0.85074000  0.70013000  1.0
  H  H55  1  0.92902000  0.29986000  0.14926000  1.0
  H  H56  1  0.37973000  0.25314000  0.15276000  1.0
  H  H57  1  0.12027000  0.84724000  0.74685000  1.0
  H  H58  1  0.62027000  0.74685000  0.84724000  1.0
  H  H59  1  0.87973000  0.15276000  0.25315000  1.0
  H  H60  1  0.89209000  0.34484000  0.51239000  1.0
  H  H61  1  0.60791000  0.48761000  0.65516000  1.0
  H  H62  1  0.10791000  0.65517000  0.48762000  1.0
  H  H63  1  0.39209000  0.51238000  0.34483000  1.0
  C  C64  1  0.21060000  0.41928000  0.97187000  1.0
  C  C65  1  0.28940000  0.02814000  0.58072000  1.0
  C  C66  1  0.78940000  0.58072000  0.02814000  1.0
  C  C67  1  0.71060000  0.97187000  0.41928000  1.0
  C  C68  1  0.04314000  0.36859000  0.95134000  1.0
  C  C69  1  0.45686000  0.04865000  0.63141000  1.0
  C  C70  1  0.95686000  0.63141000  0.04866000  1.0
  C  C71  1  0.54314000  0.95135000  0.36859000  1.0
  C  C72  1  0.95571000  0.38731000  0.84719000  1.0
  C  C73  1  0.54429000  0.15280000  0.61268000  1.0
  C  C74  1  0.04429000  0.61269000  0.15281000  1.0
  C  C75  1  0.45571000  0.84720000  0.38732000  1.0
  C  C76  1  0.98245000  0.31817000  0.75073000  1.0
  C  C77  1  0.51756000  0.24927000  0.68183000  1.0
  C  C78  1  0.01755000  0.68183000  0.24927000  1.0
  C  C79  1  0.48245000  0.75073000  0.31817000  1.0
  C  C80  1  0.95751000  0.20203000  0.76227000  1.0
  C  C81  1  0.54249000  0.23773000  0.79797000  1.0
  C  C82  1  0.04249000  0.79797000  0.23773000  1.0
  C  C83  1  0.45751000  0.76227000  0.20203000  1.0
  C  C84  1  0.05680000  0.18634000  0.86349000  1.0
  C  C85  1  0.44320000  0.13650000  0.81366000  1.0
  C  C86  1  0.94320000  0.81366000  0.13651000  1.0
  C  C87  1  0.55680000  0.86350000  0.18634000  1.0
  C  C88  1  0.02114000  0.25078000  0.95919000  1.0
  C  C89  1  0.47885000  0.04081000  0.74922000  1.0
  C  C90  1  0.97885000  0.74922000  0.04081000  1.0
  C  C91  1  0.52115000  0.95919000  0.25078000  1.0
  C  C92  1  0.97472000  0.12887000  0.66568000  1.0
  C  C93  1  0.52528000  0.33432000  0.87113000  1.0
  C  C94  1  0.02528000  0.87113000  0.33432000  1.0
  C  C95  1  0.47472000  0.66568000  0.12887000  1.0
  C  C96  1  0.68899000  0.40774000  0.28842000  1.0
  C  C97  1  0.81100000  0.71158000  0.59225000  1.0
  C  C98  1  0.31101000  0.59226000  0.71159000  1.0
  C  C99  1  0.18900000  0.28841000  0.40774000  1.0
  C  C100  1  0.72764000  0.35423000  0.37238000  1.0
  C  C101  1  0.77236000  0.62763000  0.64577000  1.0
  C  C102  1  0.27236000  0.64577000  0.62763000  1.0
  C  C103  1  0.22764000  0.37238000  0.35423000  1.0
  C  C104  1  0.63447000  0.25858000  0.37547000  1.0
  C  C105  1  0.86553000  0.62453000  0.74142000  1.0
  C  C106  1  0.36553000  0.74142000  0.62453000  1.0
  C  C107  1  0.13447000  0.37546000  0.25858000  1.0
  C  C108  1  0.50599000  0.22161000  0.29796000  1.0
  C  C109  1  0.99401000  0.70204000  0.77839000  1.0
  C  C110  1  0.49401000  0.77839000  0.70204000  1.0
  C  C111  1  0.00599000  0.29796000  0.22161000  1.0
  C  C112  1  0.47703000  0.27862000  0.21672000  1.0
  C  C113  1  0.02296000  0.78328000  0.72138000  1.0
  C  C114  1  0.52297000  0.72138000  0.78328000  1.0
  C  C115  1  0.97703000  0.21672000  0.27862000  1.0
  C  C116  1  0.86036000  0.39501000  0.45428000  1.0
  C  C117  1  0.63964000  0.54572000  0.60499000  1.0
  C  C118  1  0.13964000  0.60500000  0.54573000  1.0
  C  C119  1  0.36036000  0.45428000  0.39500000  1.0
  N  N120  1  0.56830000  0.36957000  0.21208000  1.0
  N  N121  1  0.93170000  0.78792000  0.63042000  1.0
  N  N122  1  0.43170000  0.63043000  0.78792000  1.0
  N  N123  1  0.06830000  0.21208000  0.36957000  1.0
  N  N124  1  0.93951000  0.48765000  0.45809000  1.0
  N  N125  1  0.56049000  0.54191000  0.51235000  1.0
  N  N126  1  0.06048000  0.51236000  0.54191000  1.0
  N  N127  1  0.43952000  0.45809000  0.48764000  1.0
  O  O128  1  0.29418000  0.39567000  0.04988000  1.0
  O  O129  1  0.20582000  0.95011000  0.60432000  1.0
  O  O130  1  0.70582000  0.60432000  0.95011000  1.0
  O  O131  1  0.79418000  0.04988000  0.39567000  1.0
  O  O132  1  0.25401000  0.48290000  0.91233000  1.0
  O  O133  1  0.24599000  0.08768000  0.51710000  1.0
  O  O134  1  0.74599000  0.51710000  0.08768000  1.0
  O  O135  1  0.75401000  0.91233000  0.48290000  1.0
  O  O136  1  0.95983000  0.03143000  0.67256000  1.0
  O  O137  1  0.54018000  0.32744000  0.96857000  1.0
  O  O138  1  0.04018000  0.96857000  0.32744000  1.0
  O  O139  1  0.45983000  0.67256000  0.03143000  1.0
  O  O140  1  0.99896000  0.16911000  0.58499000  1.0
  O  O141  1  0.50104000  0.41500000  0.83089000  1.0
  O  O142  1  0.00104000  0.83089000  0.41500000  1.0
  O  O143  1  0.49896000  0.58499000  0.16911000  1.0
