# generated using pymatgen
data_CdH24C33N4O7
_symmetry_space_group_name_H-M   'P 1'
_cell_length_a   10.36150000
_cell_length_b   10.65850000
_cell_length_c   14.48040000
_cell_angle_alpha   91.59720000
_cell_angle_beta   103.96300000
_cell_angle_gamma   104.22600000
_symmetry_Int_Tables_number   1
_chemical_formula_structural   CdH24C33N4O7
_chemical_formula_sum   'Cd2 H48 C66 N8 O14'
_cell_volume   1497.86936395
_cell_formula_units_Z   2
loop_
 _symmetry_equiv_pos_site_id
 _symmetry_equiv_pos_as_xyz
  1  'x, y, z'
loop_
 _atom_site_type_symbol
 _atom_site_label
 _atom_site_symmetry_multiplicity
 _atom_site_fract_x
 _atom_site_fract_y
 _atom_site_fract_z
 _atom_site_occupancy
  Cd  Cd0  1  0.04410000  0.99595000  0.21999000  1.0
  Cd  Cd1  1  0.95590000  0.00405000  0.78001000  1.0
  H  H2  1  0.03043000  0.74051000  0.88395000  1.0
  H  H3  1  0.96957000  0.25949000  0.11605000  1.0
  H  H4  1  0.75043000  0.74936000  0.45291000  1.0
  H  H5  1  0.24957000  0.25064000  0.54709000  1.0
  H  H6  1  0.32039000  0.20441000  0.02783000  1.0
  H  H7  1  0.67961000  0.79560000  0.97217000  1.0
  H  H8  1  0.71894000  0.16805000  0.01035000  1.0
  H  H9  1  0.28106000  0.83195000  0.98965000  1.0
  H  H10  1  0.54342000  0.00075000  0.23365000  1.0
  H  H11  1  0.45658000  0.99925000  0.76634000  1.0
  H  H12  1  0.60433000  0.28614000  0.89625000  1.0
  H  H13  1  0.39567000  0.71386000  0.10375000  1.0
  H  H14  1  0.49833000  0.37046000  0.93876000  1.0
  H  H15  1  0.50167000  0.62954000  0.06124000  1.0
  H  H16  1  0.42220000  0.22299000  0.86447000  1.0
  H  H17  1  0.57780000  0.77702000  0.13553000  1.0
  H  H18  1  0.05433000  0.86213000  0.02348000  1.0
  H  H19  1  0.94567000  0.13787000  0.97653000  1.0
  H  H20  1  0.76592000  0.48311000  0.95628000  1.0
  H  H21  1  0.23408000  0.51689000  0.04373000  1.0
  H  H22  1  0.70515000  0.51760000  0.11102000  1.0
  H  H23  1  0.29485000  0.48240000  0.88898000  1.0
  H  H24  1  0.82633000  0.72459000  0.21583000  1.0
  H  H25  1  0.17367000  0.27541000  0.78417000  1.0
  H  H26  1  0.18536000  0.69985000  0.84054000  1.0
  H  H27  1  0.81464000  0.30015000  0.15946000  1.0
  H  H28  1  0.32654000  0.68756000  0.72982000  1.0
  H  H29  1  0.67345000  0.31244000  0.27018000  1.0
  H  H30  1  0.99215000  0.38922000  0.55086000  1.0
  H  H31  1  0.00785000  0.61078000  0.44913000  1.0
  H  H32  1  0.84945000  0.40288000  0.66666667  1.0
  H  H33  1  0.15055000  0.59712000  0.33337000  1.0
  H  H34  1  0.45239000  0.50745000  0.71461000  1.0
  H  H35  1  0.54761000  0.49256000  0.28540000  1.0
  H  H36  1  0.69747000  0.61510000  0.72412000  1.0
  H  H37  1  0.30253000  0.38490000  0.27588000  1.0
  H  H38  1  0.57130000  0.78155000  0.45901000  1.0
  H  H39  1  0.42870000  0.21844000  0.54099000  1.0
  H  H40  1  0.32833000  0.67413000  0.45059000  1.0
  H  H41  1  0.67167000  0.32586000  0.54941000  1.0
  H  H42  1  0.09381000  0.81568000  0.62881000  1.0
  H  H43  1  0.90619000  0.18432000  0.37119000  1.0
  H  H44  1  0.30594000  0.89877000  0.57131000  1.0
  H  H45  1  0.69406000  0.10123000  0.42869000  1.0
  H  H46  1  0.28053000  0.95946000  0.40074000  1.0
  H  H47  1  0.71947000  0.04054000  0.59926000  1.0
  H  H48  1  0.85702000  0.86819000  0.34925000  1.0
  H  H49  1  0.14298000  0.13181000  0.65075000  1.0
  C  C50  1  0.29987000  0.06536000  0.17835000  1.0
  C  C51  1  0.70012000  0.93463000  0.82165000  1.0
  C  C52  1  0.42044000  0.10045000  0.13513000  1.0
  C  C53  1  0.57956000  0.89954000  0.86487000  1.0
  C  C54  1  0.41320000  0.17197000  0.05515000  1.0
  C  C55  1  0.58680000  0.82803000  0.94484000  1.0
  C  C56  1  0.52058000  0.19875000  0.00948000  1.0
  C  C57  1  0.47941000  0.80125000  0.99052000  1.0
  C  C58  1  0.63538000  0.15154000  0.04585000  1.0
  C  C59  1  0.36462000  0.84846000  0.95415000  1.0
  C  C60  1  0.64573000  0.08212000  0.12711000  1.0
  C  C61  1  0.35427000  0.91787000  0.87288000  1.0
  C  C62  1  0.53765000  0.05648000  0.17159000  1.0
  C  C63  1  0.46235000  0.94352000  0.82840000  1.0
  C  C64  1  0.77429000  0.04058000  0.16791000  1.0
  C  C65  1  0.22570000  0.95942000  0.83209000  1.0
  C  C66  1  0.51155000  0.27363000  0.92260000  1.0
  C  C67  1  0.48845000  0.72637000  0.07740000  1.0
  C  C68  1  0.97820000  0.78221000  0.04111000  1.0
  C  C69  1  0.02181000  0.21779000  0.95889000  1.0
  C  C70  1  0.91682000  0.66827000  0.97838000  1.0
  C  C71  1  0.08318000  0.33173000  0.02162000  1.0
  C  C72  1  0.81601000  0.57115000  0.00382000  1.0
  C  C73  1  0.18400000  0.42885000  0.99619000  1.0
  C  C74  1  0.78278000  0.59136000  0.08956000  1.0
  C  C75  1  0.21722000  0.40864000  0.91045000  1.0
  C  C76  1  0.84972000  0.70542000  0.14832000  1.0
  C  C77  1  0.15028000  0.29458000  0.85169000  1.0
  C  C78  1  0.91983000  0.55264000  0.82892000  1.0
  C  C79  1  0.08018000  0.44735000  0.17108000  1.0
  C  C80  1  0.00621000  0.55368000  0.76020000  1.0
  C  C81  1  0.99379000  0.44632000  0.23980000  1.0
  C  C82  1  0.14047000  0.63241000  0.77682000  1.0
  C  C83  1  0.85953000  0.36759000  0.22318000  1.0
  C  C84  1  0.22238000  0.62459000  0.71470000  1.0
  C  C85  1  0.77762000  0.37541000  0.28530000  1.0
  C  C86  1  0.16824000  0.53469000  0.63423000  1.0
  C  C87  1  0.83176000  0.46531000  0.36577000  1.0
  C  C88  1  0.03314000  0.45593000  0.61534000  1.0
  C  C89  1  0.96686000  0.54407000  0.38466000  1.0
  C  C90  1  0.95357000  0.46519000  0.67843000  1.0
  C  C91  1  0.04643000  0.53481000  0.32157000  1.0
  C  C92  1  0.37675000  0.58437000  0.58112000  1.0
  C  C93  1  0.62325000  0.41564000  0.41888000  1.0
  C  C94  1  0.47933000  0.56775000  0.65901000  1.0
  C  C95  1  0.52067000  0.43225000  0.34099000  1.0
  C  C96  1  0.61654000  0.62793000  0.66425000  1.0
  C  C97  1  0.38346000  0.37207000  0.33575000  1.0
  C  C98  1  0.65228000  0.70232000  0.59142000  1.0
  C  C99  1  0.34772000  0.29768000  0.40858000  1.0
  C  C100  1  0.54771000  0.71937000  0.51463000  1.0
  C  C101  1  0.45229000  0.28062000  0.48537000  1.0
  C  C102  1  0.41032000  0.66117000  0.50954000  1.0
  C  C103  1  0.58968000  0.33883000  0.49046000  1.0
  C  C104  1  0.80075000  0.75924000  0.59800000  1.0
  C  C105  1  0.19925000  0.24076000  0.40200000  1.0
  C  C106  1  0.95826000  0.82971000  0.49204000  1.0
  C  C107  1  0.04174000  0.17029000  0.50796000  1.0
  C  C108  1  0.08685000  0.84215000  0.55623000  1.0
  C  C109  1  0.91315000  0.15785000  0.44377000  1.0
  C  C110  1  0.20431000  0.88891000  0.52352000  1.0
  C  C111  1  0.79570000  0.11109000  0.47648000  1.0
  C  C112  1  0.19226000  0.92297000  0.43013000  1.0
  C  C113  1  0.80774000  0.07703000  0.56988000  1.0
  C  C114  1  0.95435000  0.86897000  0.40000000  1.0
  C  C115  1  0.04565000  0.13103000  0.60001000  1.0
  N  N116  1  0.94573000  0.79888000  0.12377000  1.0
  N  N117  1  0.05427000  0.20112000  0.87623000  1.0
  N  N118  1  0.96260000  0.65790000  0.89642000  1.0
  N  N119  1  0.03740000  0.34210000  0.10358000  1.0
  N  N120  1  0.83105000  0.77855000  0.51152000  1.0
  N  N121  1  0.16895000  0.22145000  0.48848000  1.0
  N  N122  1  0.06797000  0.91434000  0.37004000  1.0
  N  N123  1  0.93203000  0.08566000  0.62996000  1.0
  O  O124  1  0.18529000  0.08133000  0.12814000  1.0
  O  O125  1  0.81471000  0.91867000  0.87186000  1.0
  O  O126  1  0.31251000  0.01948000  0.25885000  1.0
  O  O127  1  0.68750000  0.98052000  0.74115000  1.0
  O  O128  1  0.88133000  0.09314000  0.13809000  1.0
  O  O129  1  0.11867000  0.90686000  0.86191000  1.0
  O  O130  1  0.77608000  0.95965000  0.23006000  1.0
  O  O131  1  0.22392000  0.04035000  0.76993000  1.0
  O  O132  1  0.81808000  0.46000000  0.82510000  1.0
  O  O133  1  0.18193000  0.53999000  0.17491000  1.0
  O  O134  1  0.23914000  0.51946000  0.56694000  1.0
  O  O135  1  0.76086000  0.48055000  0.43306000  1.0
  O  O136  1  0.89045000  0.78611000  0.67517000  1.0
  O  O137  1  0.10955000  0.21390000  0.32483000  1.0
