# generated using pymatgen
data_AgH5(C2N)2
_symmetry_space_group_name_H-M   'P 1'
_cell_length_a   11.23960000
_cell_length_b   11.98470000
_cell_length_c   19.56570000
_cell_angle_alpha   90.00070000
_cell_angle_beta   90.00050000
_cell_angle_gamma   76.79500000
_symmetry_Int_Tables_number   1
_chemical_formula_structural   AgH5(C2N)2
_chemical_formula_sum   'Ag16 H80 C64 N32'
_cell_volume   2565.87607017
_cell_formula_units_Z   16
loop_
 _symmetry_equiv_pos_site_id
 _symmetry_equiv_pos_as_xyz
  1  'x, y, z'
loop_
 _atom_site_type_symbol
 _atom_site_label
 _atom_site_symmetry_multiplicity
 _atom_site_fract_x
 _atom_site_fract_y
 _atom_site_fract_z
 _atom_site_occupancy
  Ag  Ag0  1  0.36277000  0.65852000  0.95011000  1.0
  Ag  Ag1  1  0.23457000  0.24516000  0.81578000  1.0
  Ag  Ag2  1  0.13459000  0.83261000  0.96435000  1.0
  Ag  Ag3  1  0.51091000  0.75497000  0.23898000  1.0
  Ag  Ag4  1  0.13723000  0.34148000  0.45012000  1.0
  Ag  Ag5  1  0.26543000  0.75483000  0.31578000  1.0
  Ag  Ag6  1  0.36541000  0.16738000  0.46435000  1.0
  Ag  Ag7  1  0.98909000  0.24503000  0.73898000  1.0
  Ag  Ag8  1  0.63723000  0.34149000  0.04989000  1.0
  Ag  Ag9  1  0.76543000  0.75484000  0.18422000  1.0
  Ag  Ag10  1  0.86542000  0.16739000  0.03564000  1.0
  Ag  Ag11  1  0.48908000  0.24502000  0.76102000  1.0
  Ag  Ag12  1  0.86277000  0.65852000  0.54988000  1.0
  Ag  Ag13  1  0.73457000  0.24517000  0.68422000  1.0
  Ag  Ag14  1  0.63459000  0.83261000  0.53564000  1.0
  Ag  Ag15  1  0.01090000  0.75497000  0.26102000  1.0
  H  H16  1  0.32863000  0.65547000  0.78282000  1.0
  H  H17  1  0.26087000  0.47187000  0.71987000  1.0
  H  H18  1  0.27406000  0.46800000  0.99337000  1.0
  H  H19  1  0.17868000  0.38214000  0.95833000  1.0
  H  H20  1  0.33998000  0.33052000  0.95937000  1.0
  H  H21  1  0.20869000  0.01162000  0.72621000  1.0
  H  H22  1  0.15241000  0.82771000  0.79490000  1.0
  H  H23  1  0.24764000  0.16437000  0.95085000  1.0
  H  H24  1  0.12171000  0.11311000  0.98223000  1.0
  H  H25  1  0.27306000  0.02936000  0.99280000  1.0
  H  H26  1  0.55637000  0.59318000  0.49071000  1.0
  H  H27  1  0.51210000  0.55287000  0.35386000  1.0
  H  H28  1  0.63593000  0.94881000  0.41060000  1.0
  H  H29  1  0.55424000  0.95132000  0.33230000  1.0
  H  H30  1  0.71135000  0.87954000  0.33705000  1.0
  H  H31  1  0.46868000  0.89135000  0.98138000  1.0
  H  H32  1  0.52088000  0.94319000  0.11529000  1.0
  H  H33  1  0.39907000  0.59981000  0.17611000  1.0
  H  H34  1  0.44738000  0.52954000  0.09778000  1.0
  H  H35  1  0.29306000  0.60723000  0.10732000  1.0
  H  H36  1  0.17140000  0.34451000  0.28282000  1.0
  H  H37  1  0.23913000  0.52812000  0.21987000  1.0
  H  H38  1  0.22594000  0.53199000  0.49338000  1.0
  H  H39  1  0.32132000  0.61785000  0.45835000  1.0
  H  H40  1  0.16002000  0.66947000  0.45938000  1.0
  H  H41  1  0.29129000  0.98836000  0.22620000  1.0
  H  H42  1  0.34759000  0.17228000  0.29489000  1.0
  H  H43  1  0.25235000  0.83564000  0.45085000  1.0
  H  H44  1  0.37829000  0.88690000  0.48222000  1.0
  H  H45  1  0.22694000  0.97067000  0.49280000  1.0
  H  H46  1  0.94365000  0.40682000  0.99072000  1.0
  H  H47  1  0.98792000  0.44713000  0.85387000  1.0
  H  H48  1  0.86408000  0.05119000  0.91061000  1.0
  H  H49  1  0.94575000  0.04868000  0.83231000  1.0
  H  H50  1  0.78865000  0.12046000  0.83706000  1.0
  H  H51  1  0.03132000  0.10866000  0.48139000  1.0
  H  H52  1  0.97910000  0.05682000  0.61529000  1.0
  H  H53  1  0.10093000  0.40019000  0.67613000  1.0
  H  H54  1  0.05263000  0.47047000  0.59780000  1.0
  H  H55  1  0.20694000  0.39277000  0.60734000  1.0
  H  H56  1  0.67141000  0.34452000  0.21717000  1.0
  H  H57  1  0.73916000  0.52813000  0.28013000  1.0
  H  H58  1  0.72592000  0.53201000  0.00662000  1.0
  H  H59  1  0.82131000  0.61787000  0.04166000  1.0
  H  H60  1  0.66001000  0.66948000  0.04062000  1.0
  H  H61  1  0.79132000  0.98839000  0.27380000  1.0
  H  H62  1  0.84761000  0.17230000  0.20510000  1.0
  H  H63  1  0.75236000  0.83564000  0.04915000  1.0
  H  H64  1  0.87829000  0.88689000  0.01777000  1.0
  H  H65  1  0.72694000  0.97066000  0.00721000  1.0
  H  H66  1  0.44362000  0.40680000  0.50929000  1.0
  H  H67  1  0.48788000  0.44713000  0.64613000  1.0
  H  H68  1  0.36408000  0.05117000  0.58940000  1.0
  H  H69  1  0.44576000  0.04867000  0.66770000  1.0
  H  H70  1  0.28865000  0.12045000  0.66295000  1.0
  H  H71  1  0.53129000  0.10867000  0.01862000  1.0
  H  H72  1  0.47907000  0.05683000  0.88471000  1.0
  H  H73  1  0.60095000  0.40018000  0.82388000  1.0
  H  H74  1  0.55264000  0.47046000  0.90221000  1.0
  H  H75  1  0.70695000  0.39275000  0.89268000  1.0
  H  H76  1  0.82860000  0.65550000  0.71717000  1.0
  H  H77  1  0.76084000  0.47190000  0.78013000  1.0
  H  H78  1  0.77407000  0.46799000  0.50662000  1.0
  H  H79  1  0.67869000  0.38213000  0.54166000  1.0
  H  H80  1  0.83998000  0.33052000  0.54063000  1.0
  H  H81  1  0.70872000  0.01163000  0.77380000  1.0
  H  H82  1  0.65242000  0.82772000  0.70511000  1.0
  H  H83  1  0.74763000  0.16436000  0.54915000  1.0
  H  H84  1  0.62171000  0.11309000  0.51777000  1.0
  H  H85  1  0.77305000  0.02934000  0.50720000  1.0
  H  H86  1  0.05637000  0.59318000  0.00928000  1.0
  H  H87  1  0.01211000  0.55286000  0.14613000  1.0
  H  H88  1  0.13595000  0.94881000  0.08940000  1.0
  H  H89  1  0.05426000  0.95131000  0.16770000  1.0
  H  H90  1  0.21136000  0.87953000  0.16295000  1.0
  H  H91  1  0.96867000  0.89136000  0.51861000  1.0
  H  H92  1  0.02087000  0.94320000  0.38470000  1.0
  H  H93  1  0.89908000  0.59981000  0.32388000  1.0
  H  H94  1  0.94737000  0.52953000  0.40221000  1.0
  H  H95  1  0.79305000  0.60724000  0.39267000  1.0
  C  C96  1  0.27371000  0.46127000  0.88433000  1.0
  C  C97  1  0.30529000  0.58015000  0.80472000  1.0
  C  C98  1  0.27104000  0.48946000  0.77356000  1.0
  C  C99  1  0.26614000  0.40757000  0.95236000  1.0
  C  C100  1  0.20314000  0.03105000  0.89054000  1.0
  C  C101  1  0.20095000  0.99718000  0.78051000  1.0
  C  C102  1  0.17275000  0.90593000  0.81444000  1.0
  C  C103  1  0.21194000  0.08732000  0.95766000  1.0
  C  C104  1  0.59069000  0.79015000  0.38531000  1.0
  C  C105  1  0.56116000  0.64457000  0.44563000  1.0
  C  C106  1  0.54016000  0.62423000  0.37790000  1.0
  C  C107  1  0.62435000  0.89856000  0.36524000  1.0
  C  C108  1  0.42324000  0.71234000  0.09599000  1.0
  C  C109  1  0.46079000  0.84668000  0.02878000  1.0
  C  C110  1  0.48618000  0.87260000  0.09502000  1.0
  C  C111  1  0.38833000  0.60674000  0.12036000  1.0
  C  C112  1  0.22629000  0.53872000  0.38434000  1.0
  C  C113  1  0.19472000  0.41983000  0.30472000  1.0
  C  C114  1  0.22897000  0.51054000  0.27357000  1.0
  C  C115  1  0.23386000  0.59242000  0.45237000  1.0
  C  C116  1  0.29685000  0.96895000  0.39053000  1.0
  C  C117  1  0.29904000  0.00280000  0.28050000  1.0
  C  C118  1  0.32725000  0.09406000  0.31443000  1.0
  C  C119  1  0.28806000  0.91269000  0.45765000  1.0
  C  C120  1  0.90931000  0.20985000  0.88531000  1.0
  C  C121  1  0.93886000  0.35544000  0.94564000  1.0
  C  C122  1  0.95985000  0.37576000  0.87791000  1.0
  C  C123  1  0.87565000  0.10145000  0.86524000  1.0
  C  C124  1  0.07675000  0.28767000  0.59601000  1.0
  C  C125  1  0.03921000  0.15333000  0.52879000  1.0
  C  C126  1  0.01381000  0.12741000  0.59503000  1.0
  C  C127  1  0.11166000  0.39326000  0.62039000  1.0
  C  C128  1  0.72628000  0.53873000  0.11566000  1.0
  C  C129  1  0.69473000  0.41984000  0.19528000  1.0
  C  C130  1  0.72898000  0.51055000  0.22643000  1.0
  C  C131  1  0.73385000  0.59243000  0.04763000  1.0
  C  C132  1  0.79686000  0.96895000  0.10947000  1.0
  C  C133  1  0.79906000  0.00282000  0.21949000  1.0
  C  C134  1  0.82726000  0.09408000  0.18556000  1.0
  C  C135  1  0.78806000  0.91269000  0.04235000  1.0
  C  C136  1  0.40931000  0.20984000  0.61470000  1.0
  C  C137  1  0.43884000  0.35542000  0.55437000  1.0
  C  C138  1  0.45982000  0.37576000  0.62210000  1.0
  C  C139  1  0.37566000  0.10143000  0.63477000  1.0
  C  C140  1  0.57675000  0.28766000  0.90400000  1.0
  C  C141  1  0.53918000  0.15334000  0.97122000  1.0
  C  C142  1  0.51378000  0.12741000  0.90498000  1.0
  C  C143  1  0.61167000  0.39324000  0.87963000  1.0
  C  C144  1  0.77371000  0.46128000  0.61566000  1.0
  C  C145  1  0.80527000  0.58017000  0.69528000  1.0
  C  C146  1  0.77101000  0.48948000  0.72643000  1.0
  C  C147  1  0.76614000  0.40756000  0.54763000  1.0
  C  C148  1  0.70314000  0.03105000  0.60947000  1.0
  C  C149  1  0.70097000  0.99719000  0.71949000  1.0
  C  C150  1  0.67276000  0.90593000  0.68557000  1.0
  C  C151  1  0.71193000  0.08730000  0.54234000  1.0
  C  C152  1  0.09071000  0.79014000  0.11469000  1.0
  C  C153  1  0.06116000  0.64456000  0.05436000  1.0
  C  C154  1  0.04017000  0.62423000  0.12209000  1.0
  C  C155  1  0.12437000  0.89854000  0.13477000  1.0
  C  C156  1  0.92324000  0.71234000  0.40400000  1.0
  C  C157  1  0.96078000  0.84670000  0.47122000  1.0
  C  C158  1  0.98616000  0.87262000  0.40497000  1.0
  C  C159  1  0.88834000  0.60675000  0.37963000  1.0
  N  N160  1  0.30674000  0.56188000  0.87455000  1.0
  N  N161  1  0.25085000  0.41499000  0.82396000  1.0
  N  N162  1  0.22052000  0.07551000  0.82868000  1.0
  N  N163  1  0.17430000  0.92799000  0.88367000  1.0
  N  N164  1  0.59261000  0.74937000  0.44985000  1.0
  N  N165  1  0.55883000  0.71655000  0.34036000  1.0
  N  N166  1  0.46213000  0.78753000  0.13705000  1.0
  N  N167  1  0.42127000  0.74553000  0.02984000  1.0
  N  N168  1  0.19327000  0.43811000  0.37456000  1.0
  N  N169  1  0.24915000  0.58501000  0.32397000  1.0
  N  N170  1  0.27948000  0.92448000  0.32868000  1.0
  N  N171  1  0.32570000  0.07200000  0.38366000  1.0
  N  N172  1  0.90740000  0.25064000  0.94985000  1.0
  N  N173  1  0.94118000  0.28346000  0.84036000  1.0
  N  N174  1  0.03786000  0.21247000  0.63706000  1.0
  N  N175  1  0.07873000  0.25447000  0.52985000  1.0
  N  N176  1  0.69327000  0.43812000  0.12544000  1.0
  N  N177  1  0.74915000  0.58502000  0.17603000  1.0
  N  N178  1  0.77949000  0.92449000  0.17132000  1.0
  N  N179  1  0.82571000  0.07200000  0.11633000  1.0
  N  N180  1  0.40739000  0.25061000  0.55014000  1.0
  N  N181  1  0.44117000  0.28345000  0.65964000  1.0
  N  N182  1  0.53785000  0.21247000  0.86295000  1.0
  N  N183  1  0.57872000  0.25448000  0.97016000  1.0
  N  N184  1  0.80673000  0.56189000  0.62544000  1.0
  N  N185  1  0.75084000  0.41500000  0.67604000  1.0
  N  N186  1  0.72052000  0.07552000  0.67132000  1.0
  N  N187  1  0.67430000  0.92800000  0.61634000  1.0
  N  N188  1  0.09262000  0.74936000  0.05014000  1.0
  N  N189  1  0.05884000  0.71654000  0.15964000  1.0
  N  N190  1  0.96212000  0.78754000  0.36294000  1.0
  N  N191  1  0.92126000  0.74554000  0.47016000  1.0
