# generated using pymatgen
data_SmH12C13N3O9F4
_symmetry_space_group_name_H-M   'P 1'
_cell_length_a   10.76930000
_cell_length_b   10.87530000
_cell_length_c   11.56020000
_cell_angle_alpha   102.09100000
_cell_angle_beta   105.34400000
_cell_angle_gamma   100.63300000
_symmetry_Int_Tables_number   1
_chemical_formula_structural   SmH12C13N3O9F4
_chemical_formula_sum   'Sm2 H24 C26 N6 O18 F8'
_cell_volume   1234.67319389
_cell_formula_units_Z   2
loop_
 _symmetry_equiv_pos_site_id
 _symmetry_equiv_pos_as_xyz
  1  'x, y, z'
loop_
 _atom_site_type_symbol
 _atom_site_label
 _atom_site_symmetry_multiplicity
 _atom_site_fract_x
 _atom_site_fract_y
 _atom_site_fract_z
 _atom_site_occupancy
  Sm  Sm0  1  0.12096000  0.38001000  0.50419000  1.0
  Sm  Sm1  1  0.87904000  0.61999000  0.49581000  1.0
  H  H2  1  0.55454000  0.60189000  0.47548000  1.0
  H  H3  1  0.44546000  0.39811000  0.52451000  1.0
  H  H4  1  0.50427000  0.72758000  0.41761000  1.0
  H  H5  1  0.49574000  0.27242000  0.58239000  1.0
  H  H6  1  0.01887000  0.95116000  0.59264000  1.0
  H  H7  1  0.98114000  0.04884000  0.40737000  1.0
  H  H8  1  0.09615000  0.01275000  0.75351000  1.0
  H  H9  1  0.90385000  0.98726000  0.24650000  1.0
  H  H10  1  0.22648000  0.32884000  0.24629000  1.0
  H  H11  1  0.77351000  0.67117000  0.75370000  1.0
  H  H12  1  0.13134000  0.22962000  0.74348000  1.0
  H  H13  1  0.86867000  0.77039000  0.25652000  1.0
  H  H14  1  0.28795000  0.65887000  0.43282000  1.0
  H  H15  1  0.71205000  0.34113000  0.56717000  1.0
  H  H16  1  0.29543000  0.07450000  0.23580000  1.0
  H  H17  1  0.70455000  0.92551000  0.76421000  1.0
  H  H18  1  0.31293000  0.17850000  0.14060000  1.0
  H  H19  1  0.68707000  0.82149000  0.85941000  1.0
  H  H20  1  0.64806000  0.33178000  0.27858000  1.0
  H  H21  1  0.35196000  0.66824000  0.72141000  1.0
  H  H22  1  0.64216000  0.16822000  0.28662000  1.0
  H  H23  1  0.35784000  0.83179000  0.71337000  1.0
  H  H24  1  0.69014000  0.22023000  0.16576000  1.0
  H  H25  1  0.30988000  0.77978000  0.83424000  1.0
  C  C26  1  0.88723000  0.45345000  0.02912000  1.0
  C  C27  1  0.11277000  0.54653000  0.97088000  1.0
  C  C28  1  0.01341000  0.51278000  0.25977000  1.0
  C  C29  1  0.98659000  0.48720000  0.74022000  1.0
  C  C30  1  0.00712000  0.50771000  0.12610000  1.0
  C  C31  1  0.99289000  0.49226000  0.87389000  1.0
  C  C32  1  0.44175000  0.41758000  0.87525000  1.0
  C  C33  1  0.55824000  0.58241000  0.12477000  1.0
  C  C34  1  0.11963000  0.55404000  0.09429000  1.0
  C  C35  1  0.88037000  0.44594000  0.90571000  1.0
  C  C36  1  0.41661000  0.37943000  0.97616000  1.0
  C  C37  1  0.58338000  0.62057000  0.02386000  1.0
  C  C38  1  0.83896000  0.28997000  0.34524000  1.0
  C  C39  1  0.16105000  0.71003000  0.65476000  1.0
  C  C40  1  0.23548000  0.24150000  0.27877000  1.0
  C  C41  1  0.76451000  0.75851000  0.72124000  1.0
  C  C42  1  0.52678000  0.54039000  0.90276000  1.0
  C  C43  1  0.47322000  0.45960000  0.09725000  1.0
  C  C44  1  0.38258000  0.33142000  0.74140000  1.0
  C  C45  1  0.61742000  0.66859000  0.25861000  1.0
  C  C46  1  0.08305000  0.14969000  0.65754000  1.0
  C  C47  1  0.91696000  0.85032000  0.34246000  1.0
  C  C48  1  0.36347000  0.60564000  0.46048000  1.0
  C  C49  1  0.63653000  0.39436000  0.53951000  1.0
  C  C50  1  0.69560000  0.25170000  0.26393000  1.0
  C  C51  1  0.30442000  0.74832000  0.73606000  1.0
  N  N52  1  0.48428000  0.65457000  0.45849000  1.0
  N  N53  1  0.51572000  0.34543000  0.54150000  1.0
  N  N54  1  0.05982000  0.03059000  0.67018000  1.0
  N  N55  1  0.94018000  0.96941000  0.32983000  1.0
  N  N56  1  0.28102000  0.15600000  0.21048000  1.0
  N  N57  1  0.71897000  0.84400000  0.78952000  1.0
  O  O58  1  0.88103000  0.39369000  0.43857000  1.0
  O  O59  1  0.11898000  0.60631000  0.56143000  1.0
  O  O60  1  0.05050000  0.17424000  0.55329000  1.0
  O  O61  1  0.94952000  0.82576000  0.44671000  1.0
  O  O62  1  0.08695000  0.44880000  0.31170000  1.0
  O  O63  1  0.91306000  0.55120000  0.68830000  1.0
  O  O64  1  0.33341000  0.50366000  0.49353000  1.0
  O  O65  1  0.66659000  0.49634000  0.50645000  1.0
  O  O66  1  0.30367000  0.37710000  0.66863000  1.0
  O  O67  1  0.69634000  0.62291000  0.33138000  1.0
  O  O68  1  0.91771000  0.22201000  0.32489000  1.0
  O  O69  1  0.08229000  0.77799000  0.67511000  1.0
  O  O70  1  0.20382000  0.22502000  0.37168000  1.0
  O  O71  1  0.79617000  0.77499000  0.62831000  1.0
  O  O72  1  0.94369000  0.57852000  0.30433000  1.0
  O  O73  1  0.05630000  0.42146000  0.69566000  1.0
  O  O74  1  0.41829000  0.22913000  0.71526000  1.0
  O  O75  1  0.58171000  0.77088000  0.28475000  1.0
  F  F76  1  0.33201000  0.26104000  0.95764000  1.0
  F  F77  1  0.66798000  0.73898000  0.04238000  1.0
  F  F78  1  0.55818000  0.58440000  0.80915000  1.0
  F  F79  1  0.44183000  0.41559000  0.19086000  1.0
  F  F80  1  0.77504000  0.40369000  0.05387000  1.0
  F  F81  1  0.22496000  0.59630000  0.94612000  1.0
  F  F82  1  0.23880000  0.61007000  0.18476000  1.0
  F  F83  1  0.76118000  0.38990000  0.81522000  1.0
