# generated using pymatgen
data_ZnH14C18N4(ClO)2
_symmetry_space_group_name_H-M   'P 1'
_cell_length_a   8.61232000
_cell_length_b   9.48870000
_cell_length_c   13.50280000
_cell_angle_alpha   73.75900000
_cell_angle_beta   72.79700000
_cell_angle_gamma   66.56080000
_symmetry_Int_Tables_number   1
_chemical_formula_structural   ZnH14C18N4(ClO)2
_chemical_formula_sum   'Zn2 H28 C36 N8 Cl4 O4'
_cell_volume   950.42909479
_cell_formula_units_Z   2
loop_
 _symmetry_equiv_pos_site_id
 _symmetry_equiv_pos_as_xyz
  1  'x, y, z'
loop_
 _atom_site_type_symbol
 _atom_site_label
 _atom_site_symmetry_multiplicity
 _atom_site_fract_x
 _atom_site_fract_y
 _atom_site_fract_z
 _atom_site_occupancy
  Zn  Zn0  1  0.48829000  0.44785000  0.26529000  1.0
  Zn  Zn1  1  0.51171000  0.55215000  0.73471000  1.0
  H  H2  1  0.81052000  0.43441000  0.10385000  1.0
  H  H3  1  0.18948000  0.56559000  0.89615000  1.0
  H  H4  1  0.12176000  0.38229000  0.09971000  1.0
  H  H5  1  0.87824000  0.61771000  0.90029000  1.0
  H  H6  1  0.21869000  0.30457000  0.27003000  1.0
  H  H7  1  0.78131000  0.69543000  0.72997000  1.0
  H  H8  1  0.69173000  0.34468000  0.43160000  1.0
  H  H9  1  0.30827000  0.65532000  0.56840000  1.0
  H  H10  1  0.12842000  0.29107000  0.45760000  1.0
  H  H11  1  0.87158000  0.70893000  0.54240000  1.0
  H  H12  1  0.05209000  0.38721000  0.60813000  1.0
  H  H13  1  0.94790000  0.61279000  0.39187000  1.0
  H  H14  1  0.14637000  0.34495000  0.77492000  1.0
  H  H15  1  0.85363000  0.65506000  0.22508000  1.0
  H  H16  1  0.09383000  0.89071000  0.86732000  1.0
  H  H17  1  0.90618000  0.10928000  0.13267000  1.0
  H  H18  1  0.99250000  0.93674000  0.70390000  1.0
  H  H19  1  0.00750000  0.06325000  0.29610000  1.0
  H  H20  1  0.29496000  0.86393000  0.93634000  1.0
  H  H21  1  0.70504000  0.13607000  0.06367000  1.0
  H  H22  1  0.32573000  0.12255000  0.08528000  1.0
  H  H23  1  0.67428000  0.87745000  0.91472000  1.0
  H  H24  1  0.43559000  0.00823000  0.25295000  1.0
  H  H25  1  0.56441000  0.99177000  0.74705000  1.0
  H  H26  1  0.49092000  0.72416000  0.32863000  1.0
  H  H27  1  0.50908000  0.27584000  0.67137000  1.0
  H  H28  1  0.34334000  0.66243000  0.08189000  1.0
  H  H29  1  0.65666000  0.33758000  0.91811000  1.0
  C  C30  1  0.85873000  0.40155000  0.17603000  1.0
  C  C31  1  0.14126000  0.59845000  0.82397000  1.0
  C  C32  1  0.03068000  0.37249000  0.17454000  1.0
  C  C33  1  0.96931000  0.62751000  0.82546000  1.0
  C  C34  1  0.08406000  0.32897000  0.26966000  1.0
  C  C35  1  0.91594000  0.67103000  0.73034000  1.0
  C  C36  1  0.96403000  0.31581000  0.36482000  1.0
  C  C37  1  0.03597000  0.68419000  0.63518000  1.0
  C  C38  1  0.79154000  0.35028000  0.36055000  1.0
  C  C39  1  0.20846000  0.64972000  0.63945000  1.0
  C  C40  1  0.94925000  0.18632000  0.55042000  1.0
  C  C41  1  0.05074000  0.81368000  0.44958000  1.0
  C  C42  1  0.02033000  0.16191000  0.64464000  1.0
  C  C43  1  0.97966000  0.83809000  0.35536000  1.0
  C  C44  1  0.06413000  0.27759000  0.66416000  1.0
  C  C45  1  0.93586000  0.72241000  0.33584000  1.0
  C  C46  1  0.11686000  0.25471000  0.75700000  1.0
  C  C47  1  0.88314000  0.74529000  0.24299000  1.0
  C  C48  1  0.13117000  0.11497000  0.83046000  1.0
  C  C49  1  0.86882000  0.88503000  0.16954000  1.0
  C  C50  1  0.08945000  0.99848000  0.81012000  1.0
  C  C51  1  0.91056000  0.00152000  0.18988000  1.0
  C  C52  1  0.03199000  0.02319000  0.71864000  1.0
  C  C53  1  0.96801000  0.97681000  0.28136000  1.0
  C  C54  1  0.18243000  0.10142000  0.93018000  1.0
  C  C55  1  0.81758000  0.89858000  0.06982000  1.0
  C  C56  1  0.32275000  0.90230000  0.07110000  1.0
  C  C57  1  0.67725000  0.09770000  0.92890000  1.0
  C  C58  1  0.35177000  0.99968000  0.11989000  1.0
  C  C59  1  0.64824000  0.00032000  0.88011000  1.0
  C  C60  1  0.41290000  0.93547000  0.21293000  1.0
  C  C61  1  0.58710000  0.06453000  0.78707000  1.0
  C  C62  1  0.44559000  0.77758000  0.25509000  1.0
  C  C63  1  0.55440000  0.22242000  0.74492000  1.0
  C  C64  1  0.36017000  0.74388000  0.11769000  1.0
  C  C65  1  0.63984000  0.25612000  0.88232000  1.0
  N  N66  1  0.74270000  0.39145000  0.26779000  1.0
  N  N67  1  0.25730000  0.60855000  0.73221000  1.0
  N  N68  1  0.01734000  0.27270000  0.46016000  1.0
  N  N69  1  0.98266000  0.72729000  0.53984000  1.0
  N  N70  1  0.26165000  0.95096000  0.97778000  1.0
  N  N71  1  0.73835000  0.04904000  0.02222000  1.0
  N  N72  1  0.42070000  0.68389000  0.20690000  1.0
  N  N73  1  0.57930000  0.31612000  0.79310000  1.0
  Cl  Cl74  1  0.48762000  0.33986000  0.13632000  1.0
  Cl  Cl75  1  0.51238000  0.66014000  0.86368000  1.0
  Cl  Cl76  1  0.34157000  0.39724000  0.42975000  1.0
  Cl  Cl77  1  0.65842000  0.60277000  0.57025000  1.0
  O  O78  1  0.83728000  0.13335000  0.55422000  1.0
  O  O79  1  0.16272000  0.86665000  0.44578000  1.0
  O  O80  1  0.15318000  0.21823000  0.96639000  1.0
  O  O81  1  0.84683000  0.78178000  0.03361000  1.0
