# generated using pymatgen
data_FeH21C31S2N11O
_symmetry_space_group_name_H-M   'P 1'
_cell_length_a   11.73320000
_cell_length_b   12.66080000
_cell_length_c   12.89400000
_cell_angle_alpha   84.53030000
_cell_angle_beta   67.96680000
_cell_angle_gamma   87.47610000
_symmetry_Int_Tables_number   1
_chemical_formula_structural   FeH21C31S2N11O
_chemical_formula_sum   'Fe2 H42 C62 S4 N22 O2'
_cell_volume   1767.38003832
_cell_formula_units_Z   2
loop_
 _symmetry_equiv_pos_site_id
 _symmetry_equiv_pos_as_xyz
  1  'x, y, z'
loop_
 _atom_site_type_symbol
 _atom_site_label
 _atom_site_symmetry_multiplicity
 _atom_site_fract_x
 _atom_site_fract_y
 _atom_site_fract_z
 _atom_site_occupancy
  Fe  Fe0  1  0.99987000  0.00066000  0.99985000  1.0
  Fe  Fe1  1  0.51652000  0.49546000  0.48951000  1.0
  H  H2  1  0.98055000  0.78263000  0.94980000  1.0
  H  H3  1  0.01972000  0.21848000  0.04984000  1.0
  H  H4  1  0.14318000  0.04042000  0.13364000  1.0
  H  H5  1  0.85649000  0.96006000  0.86620000  1.0
  H  H6  1  0.40705000  0.15894000  0.74739000  1.0
  H  H7  1  0.59344000  0.84151000  0.25279000  1.0
  H  H8  1  0.29222000  0.94377000  0.60460000  1.0
  H  H9  1  0.70786000  0.05776000  0.39528000  1.0
  H  H10  1  0.98811000  0.05576000  0.39687000  1.0
  H  H11  1  0.01192000  0.94505000  0.60252000  1.0
  H  H12  1  0.47864000  0.18833000  0.90471000  1.0
  H  H13  1  0.52178000  0.81133000  0.09566000  1.0
  H  H14  1  0.06973000  0.90149000  0.28392000  1.0
  H  H15  1  0.93059000  0.09910000  0.71586000  1.0
  H  H16  1  0.12252000  0.40218000  0.86154000  1.0
  H  H17  1  0.87267000  0.60232000  0.13256000  1.0
  H  H18  1  0.34164000  0.12341000  0.10340000  1.0
  H  H19  1  0.65835000  0.87623000  0.89685000  1.0
  H  H20  1  0.53833000  0.55292000  0.71405000  1.0
  H  H21  1  0.46428000  0.43803000  0.29856000  1.0
  H  H22  1  0.02768000  0.50027000  0.63470000  1.0
  H  H23  1  0.97559000  0.49987000  0.37484000  1.0
  H  H24  1  0.29137000  0.85483000  0.21934000  1.0
  H  H25  1  0.70862000  0.14496000  0.78189000  1.0
  H  H26  1  0.23488000  0.75597000  0.60892000  1.0
  H  H27  1  0.76656000  0.24540000  0.39092000  1.0
  H  H28  1  0.40227000  0.66245000  0.35261000  1.0
  H  H29  1  0.59006000  0.33773000  0.63658000  1.0
  H  H30  1  0.35054000  0.11004000  0.39283000  1.0
  H  H31  1  0.64923000  0.89095000  0.60700000  1.0
  H  H32  1  0.07338000  0.67264000  0.78771000  1.0
  H  H33  1  0.92771000  0.32843000  0.21202000  1.0
  H  H34  1  0.20962000  0.46053000  0.99918000  1.0
  H  H35  1  0.77548000  0.54343000  0.00194000  1.0
  H  H36  1  0.19780000  0.72717000  0.35035000  1.0
  H  H37  1  0.78670000  0.27485000  0.65503000  1.0
  H  H38  1  0.42154000  0.53859000  0.92300000  1.0
  H  H39  1  0.56637000  0.45895000  0.08927000  1.0
  H  H40  1  0.00547000  0.64524000  0.49494000  1.0
  H  H41  1  0.98623000  0.35495000  0.51983000  1.0
  H  H42  1  0.43181000  0.95841000  0.27801000  1.0
  H  H43  1  0.56804000  0.04195000  0.72293000  1.0
  C  C44  1  0.15247000  0.20201000  0.54147000  1.0
  C  C45  1  0.84944000  0.79896000  0.45716000  1.0
  C  C46  1  0.19333000  0.14718000  0.69405000  1.0
  C  C47  1  0.80841000  0.85387000  0.30476000  1.0
  C  C48  1  0.16285000  0.96212000  0.77217000  1.0
  C  C49  1  0.83699000  0.03929000  0.22760000  1.0
  C  C50  1  0.20583000  0.31964000  0.63324000  1.0
  C  C51  1  0.80142000  0.68089000  0.36245000  1.0
  C  C52  1  0.22486000  0.50438000  0.56122000  1.0
  C  C53  1  0.77949000  0.49605000  0.43509000  1.0
  C  C54  1  0.23775000  0.08968000  0.86052000  1.0
  C  C55  1  0.76230000  0.91136000  0.13931000  1.0
  C  C56  1  0.04750000  0.81569000  0.87065000  1.0
  C  C57  1  0.95275000  0.18550000  0.12902000  1.0
  C  C58  1  0.28648000  0.44626000  0.71956000  1.0
  C  C59  1  0.71791000  0.55309000  0.27935000  1.0
  C  C60  1  0.92739000  0.20257000  0.88450000  1.0
  C  C61  1  0.07390000  0.79871000  0.11379000  1.0
  C  C62  1  0.20364000  0.07009000  0.05021000  1.0
  C  C63  1  0.79620000  0.93043000  0.94969000  1.0
  C  C64  1  0.35146000  0.13685000  0.83525000  1.0
  C  C65  1  0.64883000  0.86368000  0.16483000  1.0
  C  C66  1  0.16524000  0.09200000  0.39895000  1.0
  C  C67  1  0.83457000  0.90890000  0.60080000  1.0
  C  C68  1  0.22102000  0.90590000  0.67814000  1.0
  C  C69  1  0.77924000  0.09549000  0.32172000  1.0
  C  C70  1  0.08510000  0.03416000  0.36996000  1.0
  C  C71  1  0.91490000  0.96664000  0.62969000  1.0
  C  C72  1  0.39009000  0.15189000  0.92233000  1.0
  C  C73  1  0.61015000  0.84818000  0.07787000  1.0
  C  C74  1  0.13162000  0.94749000  0.30680000  1.0
  C  C75  1  0.86855000  0.05310000  0.69319000  1.0
  C  C76  1  0.21469000  0.43471000  0.83434000  1.0
  C  C77  1  0.78152000  0.56730000  0.16357000  1.0
  C  C78  1  0.31500000  0.11661000  0.03198000  1.0
  C  C79  1  0.68502000  0.88343000  0.96817000  1.0
  C  C80  1  0.44679000  0.51855000  0.75181000  1.0
  C  C81  1  0.55348000  0.47572000  0.25696000  1.0
  C  C82  1  0.10735000  0.53851000  0.56949000  1.0
  C  C83  1  0.89330000  0.46179000  0.43625000  1.0
  C  C84  1  0.25634000  0.92077000  0.27173000  1.0
  C  C85  1  0.74370000  0.07950000  0.72884000  1.0
  C  C86  1  0.48781000  0.25521000  0.50238000  1.0
  C  C87  1  0.52230000  0.73726000  0.48962000  1.0
  C  C88  1  0.18893000  0.80089000  0.68155000  1.0
  C  C89  1  0.81186000  0.20039000  0.31826000  1.0
  C  C90  1  0.31649000  0.62739000  0.41143000  1.0
  C  C91  1  0.67756000  0.37295000  0.58260000  1.0
  C  C92  1  0.28968000  0.06533000  0.36701000  1.0
  C  C93  1  0.71013000  0.93552000  0.63294000  1.0
  C  C94  1  0.10050000  0.75510000  0.78007000  1.0
  C  C95  1  0.90023000  0.24608000  0.21965000  1.0
  C  C96  1  0.26364000  0.46662000  0.90922000  1.0
  C  C97  1  0.72729000  0.53499000  0.09279000  1.0
  C  C98  1  0.20287000  0.66405000  0.41187000  1.0
  C  C99  1  0.78760000  0.33757000  0.59099000  1.0
  C  C100  1  0.38146000  0.51016000  0.86717000  1.0
  C  C101  1  0.61142000  0.48785000  0.14103000  1.0
  C  C102  1  0.09607000  0.61871000  0.49235000  1.0
  C  C103  1  0.89821000  0.38191000  0.51627000  1.0
  C  C104  1  0.33479000  0.97923000  0.30292000  1.0
  C  C105  1  0.66512000  0.02129000  0.69760000  1.0
  S  S106  1  0.48772000  0.12739000  0.52636000  1.0
  S  S107  1  0.51030000  0.86518000  0.47331000  1.0
  S  S108  1  0.88582000  0.31562000  0.83802000  1.0
  S  S109  1  0.11718000  0.68553000  0.15836000  1.0
  N  N110  1  0.15998000  0.11989000  0.61131000  1.0
  N  N111  1  0.83968000  0.88133000  0.38862000  1.0
  N  N112  1  0.17080000  0.30385000  0.54769000  1.0
  N  N113  1  0.83504000  0.69679000  0.44865000  1.0
  N  N114  1  0.21836000  0.24534000  0.70891000  1.0
  N  N115  1  0.78706000  0.75525000  0.28784000  1.0
  N  N116  1  0.07579000  0.91911000  0.86741000  1.0
  N  N117  1  0.92408000  0.08218000  0.13228000  1.0
  N  N118  1  0.32762000  0.54706000  0.48364000  1.0
  N  N119  1  0.67159000  0.45280000  0.50615000  1.0
  N  N120  1  0.19862000  0.06760000  0.77333000  1.0
  N  N121  1  0.80133000  0.93373000  0.22647000  1.0
  N  N122  1  0.40089000  0.48520000  0.67931000  1.0
  N  N123  1  0.60414000  0.50976000  0.32695000  1.0
  N  N124  1  0.23730000  0.42165000  0.63944000  1.0
  N  N125  1  0.77360000  0.57791000  0.35414000  1.0
  N  N126  1  0.16278000  0.05880000  0.96654000  1.0
  N  N127  1  0.83708000  0.94225000  0.03324000  1.0
  N  N128  1  0.95925000  0.11935000  0.91587000  1.0
  N  N129  1  0.04074000  0.88193000  0.08372000  1.0
  N  N130  1  0.48566000  0.34926000  0.48705000  1.0
  N  N131  1  0.53247000  0.64350000  0.50022000  1.0
  O  O132  1  0.11968000  0.18379000  0.45432000  1.0
  O  O133  1  0.88020000  0.81700000  0.54543000  1.0
