# generated using pymatgen
data_TlH16C11SNO2
_symmetry_space_group_name_H-M   'P 1'
_cell_length_a   8.95703000
_cell_length_b   11.58570000
_cell_length_c   12.99680000
_cell_angle_alpha   90.00010000
_cell_angle_beta   90.00010000
_cell_angle_gamma   90.00000000
_symmetry_Int_Tables_number   1
_chemical_formula_structural   TlH16C11SNO2
_chemical_formula_sum   'Tl4 H64 C44 S4 N4 O8'
_cell_volume   1348.72293704
_cell_formula_units_Z   4
loop_
 _symmetry_equiv_pos_site_id
 _symmetry_equiv_pos_as_xyz
  1  'x, y, z'
loop_
 _atom_site_type_symbol
 _atom_site_label
 _atom_site_symmetry_multiplicity
 _atom_site_fract_x
 _atom_site_fract_y
 _atom_site_fract_z
 _atom_site_occupancy
  Tl  Tl0  1  0.46649000  0.72659000  0.90276000  1.0
  Tl  Tl1  1  0.03351000  0.27341000  0.40276000  1.0
  Tl  Tl2  1  0.96649000  0.77341000  0.09724000  1.0
  Tl  Tl3  1  0.53352000  0.22659000  0.59724000  1.0
  H  H4  1  0.63455000  0.02215000  0.23387000  1.0
  H  H5  1  0.86545000  0.97785000  0.73387000  1.0
  H  H6  1  0.13455000  0.47785000  0.76613000  1.0
  H  H7  1  0.36545000  0.52215000  0.26613000  1.0
  H  H8  1  0.65639000  0.91710000  0.06348000  1.0
  H  H9  1  0.84361000  0.08290000  0.56348000  1.0
  H  H10  1  0.15639000  0.58290000  0.93652000  1.0
  H  H11  1  0.34361000  0.41710000  0.43652000  1.0
  H  H12  1  0.42962000  0.96048000  0.35344000  1.0
  H  H13  1  0.07038000  0.03952000  0.85343000  1.0
  H  H14  1  0.92962000  0.53952000  0.64656000  1.0
  H  H15  1  0.57038000  0.46048000  0.14657000  1.0
  H  H16  1  0.48128000  0.51422000  0.98805000  1.0
  H  H17  1  0.01872000  0.48578000  0.48805000  1.0
  H  H18  1  0.98129000  0.98578000  0.01195000  1.0
  H  H19  1  0.51872000  0.01422000  0.51195000  1.0
  H  H20  1  0.66396000  0.55508000  0.94235000  1.0
  H  H21  1  0.83605000  0.44492000  0.44235000  1.0
  H  H22  1  0.16396000  0.94492000  0.05765000  1.0
  H  H23  1  0.33604000  0.05508000  0.55765000  1.0
  H  H24  1  0.52563000  0.50387000  0.85297000  1.0
  H  H25  1  0.97437000  0.49612000  0.35297000  1.0
  H  H26  1  0.02563000  0.99613000  0.14703000  1.0
  H  H27  1  0.47437000  0.00387000  0.64703000  1.0
  H  H28  1  0.33845000  0.87560000  0.76806000  1.0
  H  H29  1  0.16155000  0.12440000  0.26806000  1.0
  H  H30  1  0.83845000  0.62440000  0.23194000  1.0
  H  H31  1  0.66155000  0.37560000  0.73194000  1.0
  H  H32  1  0.38042000  0.95030000  0.88572000  1.0
  H  H33  1  0.11958000  0.04970000  0.38572000  1.0
  H  H34  1  0.88042000  0.54970000  0.11428000  1.0
  H  H35  1  0.61958000  0.45030000  0.61428000  1.0
  H  H36  1  0.21855000  0.85793000  0.87814000  1.0
  H  H37  1  0.28145000  0.14207000  0.37813000  1.0
  H  H38  1  0.71855000  0.64207000  0.12187000  1.0
  H  H39  1  0.78145000  0.35793000  0.62187000  1.0
  H  H40  1  0.08356000  0.69887000  0.46162000  1.0
  H  H41  1  0.41644000  0.30113000  0.96162000  1.0
  H  H42  1  0.58356000  0.80113000  0.53838000  1.0
  H  H43  1  0.91644000  0.19887000  0.03838000  1.0
  H  H44  1  0.36665000  0.69164000  0.59707000  1.0
  H  H45  1  0.13335000  0.30835000  0.09707000  1.0
  H  H46  1  0.86665000  0.80836000  0.40292000  1.0
  H  H47  1  0.63335000  0.19164000  0.90293000  1.0
  H  H48  1  0.30027000  0.57804000  0.51642000  1.0
  H  H49  1  0.19973000  0.42196000  0.01642000  1.0
  H  H50  1  0.80027000  0.92196000  0.48357000  1.0
  H  H51  1  0.69973000  0.07804000  0.98358000  1.0
  H  H52  1  0.19588000  0.62109000  0.62549000  1.0
  H  H53  1  0.30412000  0.37891000  0.12549000  1.0
  H  H54  1  0.69588000  0.87891000  0.37451000  1.0
  H  H55  1  0.80412000  0.12109000  0.87451000  1.0
  H  H56  1  0.22983000  0.88621000  0.59531000  1.0
  H  H57  1  0.27017000  0.11379000  0.09531000  1.0
  H  H58  1  0.72983000  0.61379000  0.40469000  1.0
  H  H59  1  0.77017000  0.38621000  0.90469000  1.0
  H  H60  1  0.05378000  0.81962000  0.61927000  1.0
  H  H61  1  0.44622000  0.18038000  0.11927000  1.0
  H  H62  1  0.55378000  0.68038000  0.38073000  1.0
  H  H63  1  0.94622000  0.31962000  0.88073000  1.0
  H  H64  1  0.07712000  0.90801000  0.50928000  1.0
  H  H65  1  0.42288000  0.09199000  0.00928000  1.0
  H  H66  1  0.57712000  0.59199000  0.49072000  1.0
  H  H67  1  0.92288000  0.40801000  0.99072000  1.0
  C  C68  1  0.55644000  0.95417000  0.21214000  1.0
  C  C69  1  0.94356000  0.04583000  0.71214000  1.0
  C  C70  1  0.05645000  0.54583000  0.78786000  1.0
  C  C71  1  0.44355000  0.45417000  0.28786000  1.0
  C  C72  1  0.36118000  0.77821000  0.15148000  1.0
  C  C73  1  0.13882000  0.22179000  0.65148000  1.0
  C  C74  1  0.86118000  0.72179000  0.84852000  1.0
  C  C75  1  0.63882000  0.27821000  0.34852000  1.0
  C  C76  1  0.56805000  0.89675000  0.11862000  1.0
  C  C77  1  0.93195000  0.10325000  0.61861000  1.0
  C  C78  1  0.06805000  0.60325000  0.88138000  1.0
  C  C79  1  0.43195000  0.39675000  0.38138000  1.0
  C  C80  1  0.44230000  0.91986000  0.27834000  1.0
  C  C81  1  0.05770000  0.08014000  0.77834000  1.0
  C  C82  1  0.94231000  0.58014000  0.72166000  1.0
  C  C83  1  0.55770000  0.41986000  0.22166000  1.0
  C  C84  1  0.34353000  0.83274000  0.24908000  1.0
  C  C85  1  0.15647000  0.16726000  0.74908000  1.0
  C  C86  1  0.84353000  0.66726000  0.75092000  1.0
  C  C87  1  0.65647000  0.33274000  0.25092000  1.0
  C  C88  1  0.22384000  0.79760000  0.32234000  1.0
  C  C89  1  0.27616000  0.20240000  0.82234000  1.0
  C  C90  1  0.72384000  0.70240000  0.67766000  1.0
  C  C91  1  0.77616000  0.29760000  0.17766000  1.0
  C  C92  1  0.54485000  0.55166000  0.92447000  1.0
  C  C93  1  0.95515000  0.44834000  0.42447000  1.0
  C  C94  1  0.04485000  0.94834000  0.07553000  1.0
  C  C95  1  0.45515000  0.05166000  0.57553000  1.0
  C  C96  1  0.33333333  0.87180000  0.85208000  1.0
  C  C97  1  0.16668000  0.12820000  0.35208000  1.0
  C  C98  1  0.83332000  0.62820000  0.14792000  1.0
  C  C99  1  0.66666667  0.37180000  0.64792000  1.0
  C  C100  1  0.18056000  0.73916000  0.49884000  1.0
  C  C101  1  0.31944000  0.26084000  0.99884000  1.0
  C  C102  1  0.68056000  0.76084000  0.50116000  1.0
  C  C103  1  0.81944000  0.23916000  0.00116000  1.0
  C  C104  1  0.26664000  0.65269000  0.56278000  1.0
  C  C105  1  0.23336000  0.34731000  0.06277000  1.0
  C  C106  1  0.76665000  0.84731000  0.43722000  1.0
  C  C107  1  0.73335000  0.15269000  0.93722000  1.0
  C  C108  1  0.13299000  0.84493000  0.55900000  1.0
  C  C109  1  0.36701000  0.15507000  0.05900000  1.0
  C  C110  1  0.63299000  0.65507000  0.44100000  1.0
  C  C111  1  0.86701000  0.34493000  0.94100000  1.0
  S  S112  1  0.25124000  0.66463000  0.10924000  1.0
  S  S113  1  0.24876000  0.33537000  0.60924000  1.0
  S  S114  1  0.75124000  0.83537000  0.89076000  1.0
  S  S115  1  0.74876000  0.16463000  0.39076000  1.0
  N  N116  1  0.47489000  0.81241000  0.08918000  1.0
  N  N117  1  0.02511000  0.18759000  0.58918000  1.0
  N  N118  1  0.97489000  0.68759000  0.91082000  1.0
  N  N119  1  0.52511000  0.31241000  0.41082000  1.0
  O  O120  1  0.28273000  0.77534000  0.41564000  1.0
  O  O121  1  0.21727000  0.22466000  0.91564000  1.0
  O  O122  1  0.78273000  0.72466000  0.58436000  1.0
  O  O123  1  0.71727000  0.27534000  0.08436000  1.0
  O  O124  1  0.09003000  0.79080000  0.30222000  1.0
  O  O125  1  0.40997000  0.20920000  0.80222000  1.0
  O  O126  1  0.59003000  0.70920000  0.69778000  1.0
  O  O127  1  0.90997000  0.29080000  0.19778000  1.0
