# generated using pymatgen
data_CdBH15C18(N4O)2
_symmetry_space_group_name_H-M   'P 1'
_cell_length_a   9.00071000
_cell_length_b   17.01890000
_cell_length_c   17.26960000
_cell_angle_alpha   90.00000000
_cell_angle_beta   90.00010000
_cell_angle_gamma   104.76900000
_symmetry_Int_Tables_number   1
_chemical_formula_structural   CdBH15C18(N4O)2
_chemical_formula_sum   'Cd4 B4 H60 C72 N32 O8'
_cell_volume   2557.99503595
_cell_formula_units_Z   4
loop_
 _symmetry_equiv_pos_site_id
 _symmetry_equiv_pos_as_xyz
  1  'x, y, z'
loop_
 _atom_site_type_symbol
 _atom_site_label
 _atom_site_symmetry_multiplicity
 _atom_site_fract_x
 _atom_site_fract_y
 _atom_site_fract_z
 _atom_site_occupancy
  Cd  Cd0  1  0.61692000  0.78534000  0.94058000  1.0
  Cd  Cd1  1  0.88308000  0.71466000  0.44058000  1.0
  Cd  Cd2  1  0.38308000  0.21466000  0.05942000  1.0
  Cd  Cd3  1  0.11692000  0.28534000  0.55942000  1.0
  B  B4  1  0.15536000  0.87021000  0.14752000  1.0
  B  B5  1  0.34464000  0.62979000  0.64753000  1.0
  B  B6  1  0.84464000  0.12979000  0.85247000  1.0
  B  B7  1  0.65536000  0.37021000  0.35247000  1.0
  H  H8  1  0.32571000  0.65755000  0.02860000  1.0
  H  H9  1  0.17430000  0.84245000  0.52860000  1.0
  H  H10  1  0.67429000  0.34245000  0.97140000  1.0
  H  H11  1  0.82570000  0.15755000  0.47140000  1.0
  H  H12  1  0.25424000  0.74095000  0.37765000  1.0
  H  H13  1  0.24576000  0.75905000  0.87765000  1.0
  H  H14  1  0.74576000  0.25905000  0.62235000  1.0
  H  H15  1  0.75424000  0.24094000  0.12235000  1.0
  H  H16  1  0.97252000  0.79104000  0.01633000  1.0
  H  H17  1  0.52748000  0.70896000  0.51633000  1.0
  H  H18  1  0.02748000  0.20896000  0.98367000  1.0
  H  H19  1  0.47253000  0.29104000  0.48366000  1.0
  H  H20  1  0.40768000  0.91222000  0.03665000  1.0
  H  H21  1  0.09232000  0.58778000  0.53665000  1.0
  H  H22  1  0.59232000  0.08778000  0.96335000  1.0
  H  H23  1  0.90768000  0.41222000  0.46335000  1.0
  H  H24  1  0.36760000  0.80822000  0.23670000  1.0
  H  H25  1  0.13240000  0.69178000  0.73670000  1.0
  H  H26  1  0.63240000  0.19178000  0.76330000  1.0
  H  H27  1  0.86760000  0.30822000  0.26330000  1.0
  H  H28  1  0.90739000  0.82204000  0.26396000  1.0
  H  H29  1  0.59261000  0.67796000  0.76396000  1.0
  H  H30  1  0.09261000  0.17796000  0.73604000  1.0
  H  H31  1  0.40739000  0.32204000  0.23604000  1.0
  H  H32  1  0.93259000  0.95779000  0.19251000  1.0
  H  H33  1  0.56742000  0.54221000  0.69251000  1.0
  H  H34  1  0.06741000  0.04221000  0.80749000  1.0
  H  H35  1  0.43259000  0.45779000  0.30749000  1.0
  H  H36  1  0.10885000  0.69788000  0.12531000  1.0
  H  H37  1  0.39115000  0.80212000  0.62531000  1.0
  H  H38  1  0.89115000  0.30211000  0.87469000  1.0
  H  H39  1  0.60885000  0.19788000  0.37469000  1.0
  H  H40  1  0.15886000  0.01527000  0.05988000  1.0
  H  H41  1  0.34114000  0.48473000  0.55988000  1.0
  H  H42  1  0.84114000  0.98473000  0.94012000  1.0
  H  H43  1  0.65886000  0.51527000  0.44012000  1.0
  H  H44  1  0.00759000  0.63586000  0.90797000  1.0
  H  H45  1  0.49241000  0.86414000  0.40797000  1.0
  H  H46  1  0.99240000  0.36414000  0.09203000  1.0
  H  H47  1  0.50760000  0.13586000  0.59203000  1.0
  H  H48  1  0.67744000  0.92942000  0.09653000  1.0
  H  H49  1  0.82256000  0.57058000  0.59653000  1.0
  H  H50  1  0.32256000  0.07058000  0.90347000  1.0
  H  H51  1  0.17745000  0.42943000  0.40347000  1.0
  H  H52  1  0.63022000  0.52648000  0.05721000  1.0
  H  H53  1  0.86977000  0.97353000  0.55721000  1.0
  H  H54  1  0.36977000  0.47353000  0.94279000  1.0
  H  H55  1  0.13023000  0.02648000  0.44279000  1.0
  H  H56  1  0.53368000  0.11462000  0.20593000  1.0
  H  H57  1  0.96632000  0.38538000  0.70593000  1.0
  H  H58  1  0.46632000  0.88538000  0.79407000  1.0
  H  H59  1  0.03368000  0.61462000  0.29407000  1.0
  H  H60  1  0.41126000  0.95364000  0.24685000  1.0
  H  H61  1  0.08874000  0.54636000  0.74685000  1.0
  H  H62  1  0.58874000  0.04636000  0.75315000  1.0
  H  H63  1  0.91126000  0.45364000  0.25315000  1.0
  H  H64  1  0.76465000  0.42272000  0.10003000  1.0
  H  H65  1  0.73535000  0.07728000  0.60003000  1.0
  H  H66  1  0.23535000  0.57728000  0.89997000  1.0
  H  H67  1  0.26465000  0.92272000  0.39997000  1.0
  C  C68  1  0.30903000  0.71641000  0.04421000  1.0
  C  C69  1  0.19097000  0.78359000  0.54421000  1.0
  C  C70  1  0.69097000  0.28359000  0.95579000  1.0
  C  C71  1  0.80903000  0.21641000  0.45579000  1.0
  C  C72  1  0.19879000  0.76809000  0.33299000  1.0
  C  C73  1  0.30121000  0.73191000  0.83299000  1.0
  C  C74  1  0.80121000  0.23191000  0.66701000  1.0
  C  C75  1  0.69879000  0.26809000  0.16700000  1.0
  C  C76  1  0.92634000  0.83248000  0.05096000  1.0
  C  C77  1  0.57366000  0.66752000  0.55096000  1.0
  C  C78  1  0.07366000  0.16752000  0.94904000  1.0
  C  C79  1  0.42634000  0.33248000  0.44903000  1.0
  C  C80  1  0.35694000  0.84811000  0.04697000  1.0
  C  C81  1  0.14306000  0.65189000  0.54697000  1.0
  C  C82  1  0.64307000  0.15189000  0.95303000  1.0
  C  C83  1  0.85694000  0.34811000  0.45303000  1.0
  C  C84  1  0.25673000  0.80233000  0.26380000  1.0
  C  C85  1  0.24327000  0.69767000  0.76380000  1.0
  C  C86  1  0.74327000  0.19767000  0.73620000  1.0
  C  C87  1  0.75673000  0.30233000  0.23620000  1.0
  C  C88  1  0.01733000  0.80970000  0.27648000  1.0
  C  C89  1  0.48267000  0.69030000  0.77649000  1.0
  C  C90  1  0.98267000  0.19030000  0.72351000  1.0
  C  C91  1  0.51733000  0.30970000  0.22351000  1.0
  C  C92  1  0.90217000  0.91875000  0.14232000  1.0
  C  C93  1  0.59783000  0.58125000  0.64232000  1.0
  C  C94  1  0.09783000  0.08125000  0.85768000  1.0
  C  C95  1  0.40218000  0.41875000  0.35768000  1.0
  C  C96  1  0.20243000  0.73586000  0.09236000  1.0
  C  C97  1  0.29757000  0.76414000  0.59236000  1.0
  C  C98  1  0.79756000  0.26413000  0.90764000  1.0
  C  C99  1  0.70244000  0.23586000  0.40764000  1.0
  C  C100  1  0.24537000  0.02090000  0.10464000  1.0
  C  C101  1  0.25463000  0.47910000  0.60464000  1.0
  C  C102  1  0.75463000  0.97910000  0.89536000  1.0
  C  C103  1  0.74537000  0.52090000  0.39536000  1.0
  C  C104  1  0.95544000  0.58857000  0.94951000  1.0
  C  C105  1  0.54456000  0.91143000  0.44951000  1.0
  C  C106  1  0.04456000  0.41143000  0.05049000  1.0
  C  C107  1  0.45544000  0.08857000  0.55049000  1.0
  C  C108  1  0.03458000  0.53022000  0.97184000  1.0
  C  C109  1  0.46542000  0.96978000  0.47184000  1.0
  C  C110  1  0.96542000  0.46978000  0.02816000  1.0
  C  C111  1  0.53458000  0.03022000  0.52816000  1.0
  C  C112  1  0.77705000  0.90468000  0.09384000  1.0
  C  C113  1  0.72294000  0.59532000  0.59384000  1.0
  C  C114  1  0.22295000  0.09532000  0.90616000  1.0
  C  C115  1  0.27706000  0.40468000  0.40616000  1.0
  C  C116  1  0.81318000  0.58776000  0.98054000  1.0
  C  C117  1  0.68682000  0.91224000  0.48054000  1.0
  C  C118  1  0.18682000  0.41224000  0.01946000  1.0
  C  C119  1  0.31318000  0.08776000  0.51946000  1.0
  C  C120  1  0.74369000  0.52681000  0.03499000  1.0
  C  C121  1  0.75631000  0.97319000  0.53499000  1.0
  C  C122  1  0.25631000  0.47319000  0.96501000  1.0
  C  C123  1  0.24369000  0.02681000  0.46501000  1.0
  C  C124  1  0.43802000  0.06971000  0.18099000  1.0
  C  C125  1  0.06198000  0.43029000  0.68099000  1.0
  C  C126  1  0.56198000  0.93029000  0.81901000  1.0
  C  C127  1  0.93802000  0.56971000  0.31901000  1.0
  C  C128  1  0.37863000  0.98983000  0.20144000  1.0
  C  C129  1  0.12137000  0.51017000  0.70144000  1.0
  C  C130  1  0.62137000  0.01017000  0.79856000  1.0
  C  C131  1  0.87863000  0.48983000  0.29856000  1.0
  C  C132  1  0.73531000  0.65321000  0.96032000  1.0
  C  C133  1  0.76469000  0.84679000  0.46032000  1.0
  C  C134  1  0.26468000  0.34679000  0.03968000  1.0
  C  C135  1  0.23532000  0.15321000  0.53968000  1.0
  C  C136  1  0.81845000  0.46971000  0.05843000  1.0
  C  C137  1  0.68155000  0.03029000  0.55843000  1.0
  C  C138  1  0.18155000  0.53029000  0.94157000  1.0
  C  C139  1  0.31845000  0.96971000  0.44157000  1.0
  N  N140  1  0.23401000  0.82005000  0.09438000  1.0
  N  N141  1  0.26599000  0.67994000  0.59438000  1.0
  N  N142  1  0.76599000  0.17994000  0.90562000  1.0
  N  N143  1  0.73401000  0.32005000  0.40562000  1.0
  N  N144  1  0.04875000  0.77298000  0.34012000  1.0
  N  N145  1  0.45125000  0.72702000  0.84012000  1.0
  N  N146  1  0.95125000  0.22702000  0.65988000  1.0
  N  N147  1  0.54875000  0.27298000  0.15988000  1.0
  N  N148  1  0.99714000  0.87228000  0.11474000  1.0
  N  N149  1  0.50286000  0.62772000  0.61474000  1.0
  N  N150  1  0.00286000  0.12772000  0.88526000  1.0
  N  N151  1  0.49714000  0.37228000  0.38526000  1.0
  N  N152  1  0.25513000  0.95893000  0.15271000  1.0
  N  N153  1  0.24487000  0.54107000  0.65271000  1.0
  N  N154  1  0.74487000  0.04107000  0.84729000  1.0
  N  N155  1  0.75513000  0.45893000  0.34729000  1.0
  N  N156  1  0.14060000  0.82910000  0.22795000  1.0
  N  N157  1  0.35940000  0.67090000  0.72796000  1.0
  N  N158  1  0.85940000  0.17090000  0.77205000  1.0
  N  N159  1  0.64060000  0.32910000  0.27204000  1.0
  N  N160  1  0.79372000  0.85069000  0.03678000  1.0
  N  N161  1  0.70628000  0.64931000  0.53678000  1.0
  N  N162  1  0.20628000  0.14931000  0.96322000  1.0
  N  N163  1  0.29372000  0.35069000  0.46322000  1.0
  N  N164  1  0.35341000  0.08851000  0.12020000  1.0
  N  N165  1  0.14658000  0.41148000  0.62020000  1.0
  N  N166  1  0.64658000  0.91148000  0.87980000  1.0
  N  N167  1  0.85342000  0.58852000  0.37980000  1.0
  N  N168  1  0.40489000  0.78734000  0.01608000  1.0
  N  N169  1  0.09511000  0.71266000  0.51608000  1.0
  N  N170  1  0.59511000  0.21266000  0.98392000  1.0
  N  N171  1  0.90489000  0.28734000  0.48392000  1.0
  O  O172  1  0.80110000  0.70877000  0.91208000  1.0
  O  O173  1  0.69890000  0.79123000  0.41208000  1.0
  O  O174  1  0.19890000  0.29123000  0.08792000  1.0
  O  O175  1  0.30110000  0.20877000  0.58792000  1.0
  O  O176  1  0.60979000  0.65290000  0.99435000  1.0
  O  O177  1  0.89021000  0.84710000  0.49435000  1.0
  O  O178  1  0.39020000  0.34710000  0.00565000  1.0
  O  O179  1  0.10980000  0.15290000  0.50565000  1.0
