# generated using pymatgen
data_CdH4(C3N4)2
_symmetry_space_group_name_H-M   'P 1'
_cell_length_a   6.59241000
_cell_length_b   8.22313000
_cell_length_c   17.78430000
_cell_angle_alpha   90.00000000
_cell_angle_beta   90.00000000
_cell_angle_gamma   105.67700000
_symmetry_Int_Tables_number   1
_chemical_formula_structural   CdH4(C3N4)2
_chemical_formula_sum   'Cd4 H16 C24 N32'
_cell_volume   928.22734000
_cell_formula_units_Z   4
loop_
 _symmetry_equiv_pos_site_id
 _symmetry_equiv_pos_as_xyz
  1  'x, y, z'
loop_
 _atom_site_type_symbol
 _atom_site_label
 _atom_site_symmetry_multiplicity
 _atom_site_fract_x
 _atom_site_fract_y
 _atom_site_fract_z
 _atom_site_occupancy
  Cd  Cd0  1  0.76707000  0.98035000  0.20938000  1.0
  Cd  Cd1  1  0.26707000  0.98035000  0.29062000  1.0
  Cd  Cd2  1  0.23293000  0.01965000  0.79062000  1.0
  Cd  Cd3  1  0.73293000  0.01965000  0.70938000  1.0
  H  H4  1  0.75148000  0.36167000  0.19373000  1.0
  H  H5  1  0.25148000  0.36167000  0.30627000  1.0
  H  H6  1  0.24852000  0.63833000  0.80627000  1.0
  H  H7  1  0.74852000  0.63833000  0.69373000  1.0
  H  H8  1  0.74126000  0.50438000  0.95906000  1.0
  H  H9  1  0.24126000  0.50438000  0.54094000  1.0
  H  H10  1  0.25874000  0.49562000  0.04094000  1.0
  H  H11  1  0.75874000  0.49562000  0.45906000  1.0
  H  H12  1  0.71813000  0.19976000  0.92598000  1.0
  H  H13  1  0.21813000  0.19976000  0.57402000  1.0
  H  H14  1  0.28187000  0.80024000  0.07402000  1.0
  H  H15  1  0.78188000  0.80024000  0.42598000  1.0
  H  H16  1  0.72019000  0.99683000  0.02893000  1.0
  H  H17  1  0.22019000  0.99683000  0.47107000  1.0
  H  H18  1  0.27981000  0.00317000  0.97107000  1.0
  H  H19  1  0.77981000  0.00317000  0.52893000  1.0
  C  C20  1  0.74542000  0.33098000  0.13381000  1.0
  C  C21  1  0.24542000  0.33098000  0.36619000  1.0
  C  C22  1  0.25458000  0.66902000  0.86619000  1.0
  C  C23  1  0.75458000  0.66902000  0.63381000  1.0
  C  C24  1  0.75041000  0.45437000  0.07872000  1.0
  C  C25  1  0.25041000  0.45437000  0.42128000  1.0
  C  C26  1  0.24959000  0.54563000  0.92128000  1.0
  C  C27  1  0.74959000  0.54563000  0.57872000  1.0
  C  C28  1  0.73913000  0.40954000  0.00220000  1.0
  C  C29  1  0.23913000  0.40955000  0.49780000  1.0
  C  C30  1  0.26087000  0.59045000  0.99780000  1.0
  C  C31  1  0.76087000  0.59045000  0.50220000  1.0
  C  C32  1  0.72712000  0.24281000  0.98408000  1.0
  C  C33  1  0.22712000  0.24281000  0.51592000  1.0
  C  C34  1  0.27288000  0.75719000  0.01592000  1.0
  C  C35  1  0.77288000  0.75718000  0.48408000  1.0
  C  C36  1  0.72622000  0.12785000  0.04171000  1.0
  C  C37  1  0.22622000  0.12785000  0.45829000  1.0
  C  C38  1  0.27378000  0.87215000  0.95829000  1.0
  C  C39  1  0.77378000  0.87215000  0.54171000  1.0
  C  C40  1  0.77284000  0.62437000  0.10066000  1.0
  C  C41  1  0.27284000  0.62436000  0.39934000  1.0
  C  C42  1  0.22716000  0.37563000  0.89934000  1.0
  C  C43  1  0.72716000  0.37563000  0.60066000  1.0
  N  N44  1  0.12990000  0.12376000  0.20041000  1.0
  N  N45  1  0.62990000  0.12376000  0.29959000  1.0
  N  N46  1  0.87010000  0.87624000  0.79959000  1.0
  N  N47  1  0.37010000  0.87624000  0.70041000  1.0
  N  N48  1  0.19543000  0.16183000  0.13768000  1.0
  N  N49  1  0.69543000  0.16183000  0.36232000  1.0
  N  N50  1  0.80457000  0.83817000  0.86232000  1.0
  N  N51  1  0.30457000  0.83817000  0.63768000  1.0
  N  N52  1  0.25378000  0.20118000  0.07679000  1.0
  N  N53  1  0.75378000  0.20118000  0.42321000  1.0
  N  N54  1  0.74622000  0.79882000  0.92321000  1.0
  N  N55  1  0.24622000  0.79882000  0.57679000  1.0
  N  N56  1  0.90791000  0.82782000  0.29513000  1.0
  N  N57  1  0.40791000  0.82783000  0.20487000  1.0
  N  N58  1  0.09209000  0.17217000  0.70487000  1.0
  N  N59  1  0.59209000  0.17217000  0.79513000  1.0
  N  N60  1  0.84024000  0.67662000  0.30256000  1.0
  N  N61  1  0.34023000  0.67661000  0.19744000  1.0
  N  N62  1  0.15977000  0.32339000  0.69744000  1.0
  N  N63  1  0.65977000  0.32338000  0.80256000  1.0
  N  N64  1  0.77365000  0.53168000  0.31180000  1.0
  N  N65  1  0.27365000  0.53169000  0.18820000  1.0
  N  N66  1  0.22635000  0.46831000  0.68820000  1.0
  N  N67  1  0.72635000  0.46831000  0.81180000  1.0
  N  N68  1  0.73296000  0.17111000  0.11482000  1.0
  N  N69  1  0.23295000  0.17111000  0.38518000  1.0
  N  N70  1  0.26705000  0.82889000  0.88518000  1.0
  N  N71  1  0.76704000  0.82889000  0.61482000  1.0
  N  N72  1  0.79841000  0.76558000  0.11744000  1.0
  N  N73  1  0.29841000  0.76558000  0.38256000  1.0
  N  N74  1  0.20159000  0.23442000  0.88256000  1.0
  N  N75  1  0.70159000  0.23442000  0.61744000  1.0
