# generated using pymatgen
data_ZnH4(C3N5)2
_symmetry_space_group_name_H-M   'P 1'
_cell_length_a   9.24430000
_cell_length_b   14.71140000
_cell_length_c   17.08100000
_cell_angle_alpha   89.99830000
_cell_angle_beta   89.99860000
_cell_angle_gamma   89.99890000
_symmetry_Int_Tables_number   1
_chemical_formula_structural   ZnH4(C3N5)2
_chemical_formula_sum   'Zn8 H32 C48 N80'
_cell_volume   2322.95783739
_cell_formula_units_Z   8
loop_
 _symmetry_equiv_pos_site_id
 _symmetry_equiv_pos_as_xyz
  1  'x, y, z'
loop_
 _atom_site_type_symbol
 _atom_site_label
 _atom_site_symmetry_multiplicity
 _atom_site_fract_x
 _atom_site_fract_y
 _atom_site_fract_z
 _atom_site_occupancy
  Zn  Zn0  1  0.32753000  0.18325000  0.37388000  1.0
  Zn  Zn1  1  0.17246000  0.81675000  0.87389000  1.0
  Zn  Zn2  1  0.82755000  0.31674000  0.62612000  1.0
  Zn  Zn3  1  0.67246000  0.68325000  0.12611000  1.0
  Zn  Zn4  1  0.67246000  0.81675000  0.62611000  1.0
  Zn  Zn5  1  0.82753000  0.18325000  0.12611000  1.0
  Zn  Zn6  1  0.17246000  0.68326000  0.37388000  1.0
  Zn  Zn7  1  0.32755000  0.31675000  0.87389000  1.0
  H  H8  1  0.44645000  0.02627000  0.37722000  1.0
  H  H9  1  0.05355000  0.97373000  0.87721000  1.0
  H  H10  1  0.94647000  0.47372000  0.62278000  1.0
  H  H11  1  0.55354000  0.52627000  0.12279000  1.0
  H  H12  1  0.55354000  0.97373000  0.62278000  1.0
  H  H13  1  0.94646000  0.02628000  0.12279000  1.0
  H  H14  1  0.05354000  0.52628000  0.37722000  1.0
  H  H15  1  0.44646000  0.47373000  0.87722000  1.0
  H  H16  1  0.36885000  0.01967000  0.46557000  1.0
  H  H17  1  0.13113000  0.98033000  0.96557000  1.0
  H  H18  1  0.86887000  0.48033000  0.53444000  1.0
  H  H19  1  0.63114000  0.51966000  0.03443000  1.0
  H  H20  1  0.63112000  0.98034000  0.53443000  1.0
  H  H21  1  0.86888000  0.01966000  0.03443000  1.0
  H  H22  1  0.13114000  0.51966000  0.46557000  1.0
  H  H23  1  0.36886000  0.48034000  0.96557000  1.0
  H  H24  1  0.07389000  0.26987000  0.25960000  1.0
  H  H25  1  0.42608000  0.73013000  0.75959000  1.0
  H  H26  1  0.57391000  0.23013000  0.74041000  1.0
  H  H27  1  0.92607000  0.76987000  0.24040000  1.0
  H  H28  1  0.92610000  0.73014000  0.74041000  1.0
  H  H29  1  0.57388000  0.26986000  0.24040000  1.0
  H  H30  1  0.42611000  0.76987000  0.25960000  1.0
  H  H31  1  0.07392000  0.23013000  0.75960000  1.0
  H  H32  1  0.46206000  0.65509000  0.54439000  1.0
  H  H33  1  0.03797000  0.34491000  0.04439000  1.0
  H  H34  1  0.96203000  0.84491000  0.45561000  1.0
  H  H35  1  0.53799000  0.15510000  0.95562000  1.0
  H  H36  1  0.53794000  0.34491000  0.45559000  1.0
  H  H37  1  0.96203000  0.65509000  0.95561000  1.0
  H  H38  1  0.03797000  0.15508000  0.54439000  1.0
  H  H39  1  0.46202000  0.84491000  0.04438000  1.0
  C  C40  1  0.07119000  0.19603000  0.25930000  1.0
  C  C41  1  0.42878000  0.80396000  0.75929000  1.0
  C  C42  1  0.57121000  0.30396000  0.74071000  1.0
  C  C43  1  0.92878000  0.69604000  0.24070000  1.0
  C  C44  1  0.92879000  0.80397000  0.74071000  1.0
  C  C45  1  0.57119000  0.19603000  0.24070000  1.0
  C  C46  1  0.42880000  0.69604000  0.25929000  1.0
  C  C47  1  0.07122000  0.30396000  0.75930000  1.0
  C  C48  1  0.10952000  0.05619000  0.28350000  1.0
  C  C49  1  0.39047000  0.94381000  0.78349000  1.0
  C  C50  1  0.60955000  0.44380000  0.71651000  1.0
  C  C51  1  0.89046000  0.55619000  0.21651000  1.0
  C  C52  1  0.89046000  0.94381000  0.71651000  1.0
  C  C53  1  0.60954000  0.05619000  0.21651000  1.0
  C  C54  1  0.39044000  0.55620000  0.28348000  1.0
  C  C55  1  0.10955000  0.44380000  0.78349000  1.0
  C  C56  1  0.15870000  0.97163000  0.31808000  1.0
  C  C57  1  0.34130000  0.02837000  0.81808000  1.0
  C  C58  1  0.65873000  0.52837000  0.68193000  1.0
  C  C59  1  0.84129000  0.47163000  0.18193000  1.0
  C  C60  1  0.84128000  0.02838000  0.68192000  1.0
  C  C61  1  0.65872000  0.97162000  0.18193000  1.0
  C  C62  1  0.34127000  0.47162000  0.31806000  1.0
  C  C63  1  0.15872000  0.52837000  0.81807000  1.0
  C  C64  1  0.27272000  0.87306000  0.39235000  1.0
  C  C65  1  0.22729000  0.12695000  0.89235000  1.0
  C  C66  1  0.77274000  0.62695000  0.60766000  1.0
  C  C67  1  0.72728000  0.37306000  0.10766000  1.0
  C  C68  1  0.72727000  0.12695000  0.60765000  1.0
  C  C69  1  0.77273000  0.87305000  0.10766000  1.0
  C  C70  1  0.22727000  0.37305000  0.39234000  1.0
  C  C71  1  0.27272000  0.62695000  0.89234000  1.0
  C  C72  1  0.36177000  0.82849000  0.44966000  1.0
  C  C73  1  0.13824000  0.17151000  0.94965000  1.0
  C  C74  1  0.86178000  0.67150000  0.55035000  1.0
  C  C75  1  0.63824000  0.32850000  0.05035000  1.0
  C  C76  1  0.63822000  0.17151000  0.55034000  1.0
  C  C77  1  0.86178000  0.82849000  0.05035000  1.0
  C  C78  1  0.13823000  0.32849000  0.44965000  1.0
  C  C79  1  0.36177000  0.67151000  0.94965000  1.0
  C  C80  1  0.44289000  0.72102000  0.51782000  1.0
  C  C81  1  0.05714000  0.27898000  0.01782000  1.0
  C  C82  1  0.94287000  0.77899000  0.48218000  1.0
  C  C83  1  0.55716000  0.22102000  0.98219000  1.0
  C  C84  1  0.55712000  0.27898000  0.48217000  1.0
  C  C85  1  0.94286000  0.72101000  0.98218000  1.0
  C  C86  1  0.05714000  0.22101000  0.51782000  1.0
  C  C87  1  0.44285000  0.77899000  0.01781000  1.0
  N  N88  1  0.15326000  0.14146000  0.30472000  1.0
  N  N89  1  0.34673000  0.85853000  0.80472000  1.0
  N  N90  1  0.65328000  0.35854000  0.69528000  1.0
  N  N91  1  0.84672000  0.64147000  0.19528000  1.0
  N  N92  1  0.84672000  0.85854000  0.69528000  1.0
  N  N93  1  0.65327000  0.14146000  0.19528000  1.0
  N  N94  1  0.34672000  0.64147000  0.30472000  1.0
  N  N95  1  0.15328000  0.35853000  0.80472000  1.0
  N  N96  1  0.98355000  0.14783000  0.21299000  1.0
  N  N97  1  0.51644000  0.85217000  0.71298000  1.0
  N  N98  1  0.48358000  0.35217000  0.78703000  1.0
  N  N99  1  0.01643000  0.64783000  0.28702000  1.0
  N  N100  1  0.01643000  0.85218000  0.78702000  1.0
  N  N101  1  0.48355000  0.14782000  0.28701000  1.0
  N  N102  1  0.51642000  0.64783000  0.21297000  1.0
  N  N103  1  0.98358000  0.35217000  0.71299000  1.0
  N  N104  1  0.00750000  0.05803000  0.22778000  1.0
  N  N105  1  0.49250000  0.94197000  0.72777000  1.0
  N  N106  1  0.50753000  0.44197000  0.77224000  1.0
  N  N107  1  0.99249000  0.55803000  0.27223000  1.0
  N  N108  1  0.99248000  0.94198000  0.77222000  1.0
  N  N109  1  0.50751000  0.05802000  0.27223000  1.0
  N  N110  1  0.49246000  0.55803000  0.22776000  1.0
  N  N111  1  0.00752000  0.44197000  0.72777000  1.0
  N  N112  1  0.10867000  0.88924000  0.30003000  1.0
  N  N113  1  0.39135000  0.11076000  0.80003000  1.0
  N  N114  1  0.60868000  0.61076000  0.69998000  1.0
  N  N115  1  0.89133000  0.38924000  0.19998000  1.0
  N  N116  1  0.89131000  0.11076000  0.69997000  1.0
  N  N117  1  0.60867000  0.88923000  0.19998000  1.0
  N  N118  1  0.39130000  0.38924000  0.30001000  1.0
  N  N119  1  0.10867000  0.61076000  0.80002000  1.0
  N  N120  1  0.18051000  0.82834000  0.34679000  1.0
  N  N121  1  0.31951000  0.17165000  0.84679000  1.0
  N  N122  1  0.68052000  0.67165000  0.65322000  1.0
  N  N123  1  0.81950000  0.32835000  0.15322000  1.0
  N  N124  1  0.81948000  0.17166000  0.65321000  1.0
  N  N125  1  0.68051000  0.82834000  0.15322000  1.0
  N  N126  1  0.31947000  0.32834000  0.34678000  1.0
  N  N127  1  0.18050000  0.67166000  0.84678000  1.0
  N  N128  1  0.26104000  0.96366000  0.37672000  1.0
  N  N129  1  0.23896000  0.03633000  0.87671000  1.0
  N  N130  1  0.76106000  0.53633000  0.62329000  1.0
  N  N131  1  0.73896000  0.46367000  0.12329000  1.0
  N  N132  1  0.73894000  0.03634000  0.62328000  1.0
  N  N133  1  0.76106000  0.96366000  0.12329000  1.0
  N  N134  1  0.23894000  0.46366000  0.37671000  1.0
  N  N135  1  0.26105000  0.53634000  0.87671000  1.0
  N  N136  1  0.34955000  0.03224000  0.40745000  1.0
  N  N137  1  0.15044000  0.96776000  0.90745000  1.0
  N  N138  1  0.84957000  0.46776000  0.59255000  1.0
  N  N139  1  0.65044000  0.53224000  0.09255000  1.0
  N  N140  1  0.65043000  0.96777000  0.59254000  1.0
  N  N141  1  0.84957000  0.03223000  0.09255000  1.0
  N  N142  1  0.15044000  0.53224000  0.40745000  1.0
  N  N143  1  0.34957000  0.46777000  0.90746000  1.0
  N  N144  1  0.34499000  0.73749000  0.46146000  1.0
  N  N145  1  0.15503000  0.26250000  0.96145000  1.0
  N  N146  1  0.84498000  0.76251000  0.53855000  1.0
  N  N147  1  0.65505000  0.23750000  0.03855000  1.0
  N  N148  1  0.65501000  0.26251000  0.53853000  1.0
  N  N149  1  0.84497000  0.73749000  0.03854000  1.0
  N  N150  1  0.15502000  0.23749000  0.46146000  1.0
  N  N151  1  0.34496000  0.76251000  0.96145000  1.0
  N  N152  1  0.51479000  0.79664000  0.53911000  1.0
  N  N153  1  0.98522000  0.20336000  0.03911000  1.0
  N  N154  1  0.01479000  0.70336000  0.46089000  1.0
  N  N155  1  0.48523000  0.29664000  0.96090000  1.0
  N  N156  1  0.48521000  0.20336000  0.46088000  1.0
  N  N157  1  0.01479000  0.79663000  0.96089000  1.0
  N  N158  1  0.98521000  0.29664000  0.53911000  1.0
  N  N159  1  0.51478000  0.70337000  0.03910000  1.0
  N  N160  1  0.46283000  0.86687000  0.49526000  1.0
  N  N161  1  0.03718000  0.13313000  0.99526000  1.0
  N  N162  1  0.96283000  0.63314000  0.50474000  1.0
  N  N163  1  0.53718000  0.36687000  0.00474000  1.0
  N  N164  1  0.53717000  0.13314000  0.50473000  1.0
  N  N165  1  0.96283000  0.86686000  0.00474000  1.0
  N  N166  1  0.03718000  0.36686000  0.49526000  1.0
  N  N167  1  0.46281000  0.63314000  0.99526000  1.0
