# generated using pymatgen
data_CoH23C28N3O4
_symmetry_space_group_name_H-M   'P 1'
_cell_length_a   8.14560000
_cell_length_b   15.05876411
_cell_length_c   23.26550000
_cell_angle_alpha   85.20090310
_cell_angle_beta   89.98550000
_cell_angle_gamma   74.31809290
_symmetry_Int_Tables_number   1
_chemical_formula_structural   CoH23C28N3O4
_chemical_formula_sum   'Co4 H92 C112 N12 O16'
_cell_volume   2737.20517751
_cell_formula_units_Z   4
loop_
 _symmetry_equiv_pos_site_id
 _symmetry_equiv_pos_as_xyz
  1  'x, y, z'
loop_
 _atom_site_type_symbol
 _atom_site_label
 _atom_site_symmetry_multiplicity
 _atom_site_fract_x
 _atom_site_fract_y
 _atom_site_fract_z
 _atom_site_occupancy
  Co  Co0  1  0.57238000  0.05493000  0.50196000  1.0
  Co  Co1  1  0.62746000  0.94497000  0.99796000  1.0
  Co  Co2  1  0.42753000  0.94507000  0.49807000  1.0
  Co  Co3  1  0.37292000  0.05489000  0.00201000  1.0
  H  H4  1  0.52399000  0.65584000  0.69002000  1.0
  H  H5  1  0.17971000  0.34441000  0.80983000  1.0
  H  H6  1  0.47587000  0.34422000  0.30997000  1.0
  H  H7  1  0.82036000  0.65560000  0.19018000  1.0
  H  H8  1  0.94416000  0.07357000  0.57815000  1.0
  H  H9  1  0.01742000  0.92686000  0.92173000  1.0
  H  H10  1  0.05567000  0.92649000  0.42184000  1.0
  H  H11  1  0.98276000  0.07316000  0.07825000  1.0
  H  H12  1  0.26542000  0.24669000  0.61625000  1.0
  H  H13  1  0.51164000  0.75339000  0.88382000  1.0
  H  H14  1  0.73450000  0.75334000  0.38371000  1.0
  H  H15  1  0.48847000  0.24655000  0.11612000  1.0
  H  H16  1  0.72819000  0.15331000  0.64517000  1.0
  H  H17  1  0.88121000  0.84712000  0.85473000  1.0
  H  H18  1  0.27169000  0.84678000  0.35484000  1.0
  H  H19  1  0.11888000  0.15291000  0.14527000  1.0
  H  H20  1  0.55488000  0.56817000  0.60261000  1.0
  H  H21  1  0.12393000  0.43193000  0.89733000  1.0
  H  H22  1  0.44498000  0.43189000  0.39737000  1.0
  H  H23  1  0.87604000  0.56809000  0.10266000  1.0
  H  H24  1  0.94454000  0.12162000  0.75234000  1.0
  H  H25  1  0.06583000  0.87871000  0.74759000  1.0
  H  H26  1  0.05560000  0.87848000  0.24761000  1.0
  H  H27  1  0.93400000  0.12137000  0.25241000  1.0
  H  H28  1  0.04523000  0.32932000  0.68316000  1.0
  H  H29  1  0.37403000  0.67080000  0.81690000  1.0
  H  H30  1  0.95474000  0.67074000  0.31680000  1.0
  H  H31  1  0.62596000  0.32915000  0.18307000  1.0
  H  H32  1  0.87011000  0.02663000  0.83495000  1.0
  H  H33  1  0.89668000  0.97351000  0.66491000  1.0
  H  H34  1  0.13025000  0.97339000  0.16499000  1.0
  H  H35  1  0.10299000  0.02655000  0.33512000  1.0
  H  H36  1  0.40403000  0.23678000  0.85465000  1.0
  H  H37  1  0.64102000  0.76318000  0.64525000  1.0
  H  H38  1  0.59617000  0.76306000  0.14537000  1.0
  H  H39  1  0.35891000  0.23678000  0.35478000  1.0
  H  H40  1  0.47407000  0.33299000  0.77123000  1.0
  H  H41  1  0.80710000  0.66709000  0.72872000  1.0
  H  H42  1  0.52590000  0.66694000  0.22880000  1.0
  H  H43  1  0.19289000  0.33290000  0.27131000  1.0
  H  H44  1  0.52010000  0.25487000  0.53689000  1.0
  H  H45  1  0.77483000  0.74501000  0.96294000  1.0
  H  H46  1  0.47972000  0.74519000  0.46313000  1.0
  H  H47  1  0.22543000  0.25494000  0.03705000  1.0
  H  H48  1  0.15836000  0.38697000  0.47225000  1.0
  H  H49  1  0.54486000  0.61318000  0.02781000  1.0
  H  H50  1  0.84153000  0.61308000  0.52776000  1.0
  H  H51  1  0.45520000  0.38677000  0.97223000  1.0
  H  H52  1  0.02671000  0.33524000  0.51757000  1.0
  H  H53  1  0.36186000  0.66471000  0.98233000  1.0
  H  H54  1  0.97319000  0.66480000  0.48244000  1.0
  H  H55  1  0.63821000  0.33521000  0.01770000  1.0
  H  H56  1  0.95874000  0.38768000  0.39289000  1.0
  H  H57  1  0.34572000  0.61219000  0.10706000  1.0
  H  H58  1  0.04111000  0.61235000  0.60712000  1.0
  H  H59  1  0.65438000  0.38772000  0.89298000  1.0
  H  H60  1  0.74573000  0.45850000  0.39637000  1.0
  H  H61  1  0.20353000  0.54139000  0.10345000  1.0
  H  H62  1  0.25412000  0.54154000  0.60365000  1.0
  H  H63  1  0.79654000  0.45853000  0.89658000  1.0
  H  H64  1  0.98167000  0.45825000  0.58288000  1.0
  H  H65  1  0.44072000  0.54164000  0.91710000  1.0
  H  H66  1  0.01822000  0.54179000  0.41713000  1.0
  H  H67  1  0.55939000  0.45829000  0.08294000  1.0
  H  H68  1  0.20488000  0.41088000  0.57324000  1.0
  H  H69  1  0.61635000  0.58914000  0.92690000  1.0
  H  H70  1  0.79500000  0.58917000  0.42677000  1.0
  H  H71  1  0.38374000  0.41080000  0.07314000  1.0
  H  H72  1  0.84850000  0.09744000  0.42590000  1.0
  H  H73  1  0.94601000  0.90250000  0.07381000  1.0
  H  H74  1  0.15132000  0.90260000  0.57411000  1.0
  H  H75  1  0.05430000  0.09744000  0.92616000  1.0
  H  H76  1  0.95470000  0.23212000  0.38859000  1.0
  H  H77  1  0.18664000  0.76786000  0.11119000  1.0
  H  H78  1  0.04514000  0.76792000  0.61143000  1.0
  H  H79  1  0.81356000  0.23206000  0.88883000  1.0
  H  H80  1  0.66208000  0.39629000  0.61207000  1.0
  H  H81  1  0.05924000  0.60377000  0.88799000  1.0
  H  H82  1  0.33778000  0.60376000  0.38792000  1.0
  H  H83  1  0.94064000  0.39625000  0.11201000  1.0
  H  H84  1  0.61566000  0.39697000  0.50540000  1.0
  H  H85  1  0.01232000  0.60290000  0.99447000  1.0
  H  H86  1  0.38422000  0.60307000  0.49462000  1.0
  H  H87  1  0.98782000  0.39702000  0.00555000  1.0
  H  H88  1  0.73100000  0.39978000  0.79520000  1.0
  H  H89  1  0.13016000  0.60065000  0.70477000  1.0
  H  H90  1  0.26882000  0.60027000  0.20478000  1.0
  H  H91  1  0.86976000  0.39936000  0.29522000  1.0
  H  H92  1  0.62060000  0.57055000  0.78628000  1.0
  H  H93  1  0.19059000  0.42991000  0.71358000  1.0
  H  H94  1  0.37921000  0.42950000  0.21371000  1.0
  H  H95  1  0.80940000  0.57011000  0.28643000  1.0
  C  C96  1  0.11894000  0.15492000  0.59348000  1.0
  C  C97  1  0.27349000  0.84544000  0.90643000  1.0
  C  C98  1  0.88091000  0.84514000  0.40649000  1.0
  C  C99  1  0.72664000  0.15455000  0.09354000  1.0
  C  C100  1  0.57467000  0.58073000  0.69399000  1.0
  C  C101  1  0.15524000  0.41953000  0.80590000  1.0
  C  C102  1  0.42521000  0.41933000  0.30600000  1.0
  C  C103  1  0.84477000  0.58049000  0.19410000  1.0
  C  C104  1  0.96714000  0.12899000  0.60147000  1.0
  C  C105  1  0.09579000  0.87146000  0.89839000  1.0
  C  C106  1  0.03274000  0.87108000  0.39851000  1.0
  C  C107  1  0.90432000  0.12855000  0.10159000  1.0
  C  C108  1  0.87504000  0.24581000  0.66847000  1.0
  C  C109  1  0.12047000  0.75453000  0.83146000  1.0
  C  C110  1  0.12487000  0.75426000  0.33150000  1.0
  C  C111  1  0.87958000  0.24547000  0.16851000  1.0
  C  C112  1  0.58850000  0.07298000  0.90207000  1.0
  C  C113  1  0.66138000  0.92705000  0.59785000  1.0
  C  C114  1  0.41194000  0.92689000  0.09792000  1.0
  C  C115  1  0.33843000  0.07294000  0.40216000  1.0
  C  C116  1  0.14593000  0.22808000  0.62233000  1.0
  C  C117  1  0.37359000  0.77217000  0.87765000  1.0
  C  C118  1  0.85395000  0.77199000  0.37763000  1.0
  C  C119  1  0.62651000  0.22779000  0.12232000  1.0
  C  C120  1  0.84551000  0.17416000  0.63873000  1.0
  C  C121  1  0.01934000  0.82624000  0.86116000  1.0
  C  C122  1  0.15437000  0.82592000  0.36125000  1.0
  C  C123  1  0.98073000  0.17378000  0.13881000  1.0
  C  C124  1  0.59063000  0.53132000  0.64508000  1.0
  C  C125  1  0.12224000  0.46885000  0.85485000  1.0
  C  C126  1  0.40924000  0.46874000  0.35490000  1.0
  C  C127  1  0.87772000  0.53116000  0.14515000  1.0
  C  C128  1  0.82490000  0.14695000  0.77421000  1.0
  C  C129  1  0.97172000  0.85326000  0.72570000  1.0
  C  C130  1  0.17524000  0.85310000  0.22576000  1.0
  C  C131  1  0.02813000  0.14678000  0.27432000  1.0
  C  C132  1  0.25332000  0.10278000  0.55654000  1.0
  C  C133  1  0.35586000  0.89740000  0.94345000  1.0
  C  C134  1  0.74654000  0.89726000  0.44345000  1.0
  C  C135  1  0.64441000  0.10252000  0.05652000  1.0
  C  C136  1  0.02462000  0.27361000  0.65950000  1.0
  C  C137  1  0.29778000  0.72667000  0.84047000  1.0
  C  C138  1  0.97529000  0.72646000  0.34047000  1.0
  C  C139  1  0.70226000  0.27330000  0.15951000  1.0
  C  C140  1  0.78303000  0.09347000  0.82054000  1.0
  C  C141  1  0.87653000  0.90663000  0.67932000  1.0
  C  C142  1  0.21725000  0.90652000  0.17942000  1.0
  C  C143  1  0.12325000  0.09341000  0.32071000  1.0
  C  C144  1  0.63153000  0.12562000  0.85018000  1.0
  C  C145  1  0.75722000  0.87444000  0.64969000  1.0
  C  C146  1  0.36877000  0.87431000  0.14981000  1.0
  C  C147  1  0.24260000  0.12557000  0.35033000  1.0
  C  C148  1  0.69796000  0.38677000  0.70456000  1.0
  C  C149  1  0.08442000  0.61350000  0.79543000  1.0
  C  C150  1  0.30194000  0.61328000  0.29542000  1.0
  C  C151  1  0.91551000  0.38650000  0.20457000  1.0
  C  C152  1  0.71458000  0.23433000  0.75576000  1.0
  C  C153  1  0.94869000  0.76589000  0.74418000  1.0
  C  C154  1  0.28548000  0.76570000  0.24423000  1.0
  C  C155  1  0.05122000  0.23413000  0.25583000  1.0
  C  C156  1  0.52149000  0.21232000  0.83142000  1.0
  C  C157  1  0.73389000  0.78773000  0.66848000  1.0
  C  C158  1  0.47870000  0.78757000  0.16859000  1.0
  C  C159  1  0.26600000  0.21227000  0.33155000  1.0
  C  C160  1  0.56109000  0.26590000  0.78497000  1.0
  C  C161  1  0.82695000  0.73420000  0.71496000  1.0
  C  C162  1  0.43898000  0.73404000  0.21504000  1.0
  C  C163  1  0.17296000  0.26580000  0.28506000  1.0
  C  C164  1  0.61729000  0.25337000  0.50446000  1.0
  C  C165  1  0.87053000  0.74654000  0.99535000  1.0
  C  C166  1  0.38253000  0.74668000  0.49556000  1.0
  C  C167  1  0.12972000  0.25341000  0.00464000  1.0
  C  C168  1  0.04689000  0.40191000  0.50107000  1.0
  C  C169  1  0.44869000  0.59810000  0.99891000  1.0
  C  C170  1  0.95302000  0.59813000  0.49894000  1.0
  C  C171  1  0.55139000  0.40183000  0.00113000  1.0
  C  C172  1  0.79199000  0.32607000  0.44375000  1.0
  C  C173  1  0.11777000  0.67384000  0.05608000  1.0
  C  C174  1  0.20787000  0.67397000  0.55626000  1.0
  C  C175  1  0.88238000  0.32608000  0.94395000  1.0
  C  C176  1  0.85017000  0.40951000  0.42229000  1.0
  C  C177  1  0.25912000  0.59040000  0.07759000  1.0
  C  C178  1  0.14969000  0.59053000  0.57773000  1.0
  C  C179  1  0.74098000  0.40952000  0.92245000  1.0
  C  C180  1  0.08573000  0.45201000  0.55120000  1.0
  C  C181  1  0.53821000  0.54797000  0.94886000  1.0
  C  C182  1  0.91415000  0.54804000  0.44880000  1.0
  C  C183  1  0.46189000  0.45196000  0.05118000  1.0
  C  C184  1  0.79974000  0.16534000  0.44199000  1.0
  C  C185  1  0.96509000  0.83459000  0.05776000  1.0
  C  C186  1  0.20012000  0.83470000  0.55803000  1.0
  C  C187  1  0.03518000  0.16535000  0.94224000  1.0
  C  C188  1  0.85755000  0.24073000  0.42143000  1.0
  C  C189  1  0.09819000  0.75920000  0.07835000  1.0
  C  C190  1  0.14227000  0.75931000  0.57858000  1.0
  C  C191  1  0.90204000  0.24072000  0.92167000  1.0
  C  C192  1  0.65078000  0.43499000  0.65014000  1.0
  C  C193  1  0.08603000  0.56520000  0.84986000  1.0
  C  C194  1  0.34911000  0.56507000  0.34985000  1.0
  C  C195  1  0.91389000  0.43481000  0.15014000  1.0
  C  C196  1  0.66892000  0.33177000  0.48639000  1.0
  C  C197  1  0.00045000  0.66815000  0.01343000  1.0
  C  C198  1  0.33097000  0.66826000  0.51363000  1.0
  C  C199  1  0.99972000  0.33179000  0.98659000  1.0
  C  C200  1  0.68869000  0.43681000  0.75329000  1.0
  C  C201  1  0.12492000  0.56354000  0.74666000  1.0
  C  C202  1  0.31117000  0.56325000  0.24669000  1.0
  C  C203  1  0.87502000  0.43647000  0.25333000  1.0
  C  C204  1  0.62619000  0.53285000  0.74791000  1.0
  C  C205  1  0.15850000  0.46751000  0.75198000  1.0
  C  C206  1  0.37365000  0.46720000  0.25207000  1.0
  C  C207  1  0.84147000  0.53250000  0.24802000  1.0
  N  N208  1  0.68155000  0.17122000  0.48280000  1.0
  N  N209  1  0.85278000  0.82870000  0.01697000  1.0
  N  N210  1  0.31828000  0.82883000  0.51721000  1.0
  N  N211  1  0.14754000  0.17124000  0.98301000  1.0
  N  N212  1  0.75674000  0.28887000  0.70929000  1.0
  N  N213  1  0.04520000  0.71140000  0.79070000  1.0
  N  N214  1  0.24320000  0.71118000  0.29069000  1.0
  N  N215  1  0.95476000  0.28860000  0.20930000  1.0
  N  N216  1  0.89307000  0.45758000  0.46943000  1.0
  N  N217  1  0.35041000  0.54238000  0.03047000  1.0
  N  N218  1  0.10682000  0.54247000  0.53058000  1.0
  N  N219  1  0.64968000  0.45755000  0.96956000  1.0
  O  O220  1  0.23601000  0.02757000  0.53911000  1.0
  O  O221  1  0.26347000  0.97254000  0.96100000  1.0
  O  O222  1  0.76392000  0.97243000  0.46092000  1.0
  O  O223  1  0.73683000  0.02735000  0.03902000  1.0
  O  O224  1  0.69573000  0.99746000  0.92183000  1.0
  O  O225  1  0.69298000  0.00259000  0.57806000  1.0
  O  O226  1  0.30484000  0.00245000  0.07817000  1.0
  O  O227  1  0.30674000  0.99743000  0.42198000  1.0
  O  O228  1  0.38121000  0.13446000  0.54496000  1.0
  O  O229  1  0.51546000  0.86569000  0.95493000  1.0
  O  O230  1  0.61858000  0.86563000  0.45501000  1.0
  O  O231  1  0.48484000  0.13425000  0.04499000  1.0
  O  O232  1  0.44587000  0.10746000  0.92523000  1.0
  O  O233  1  0.55318000  0.89251000  0.57477000  1.0
  O  O234  1  0.55450000  0.89231000  0.07473000  1.0
  O  O235  1  0.44671000  0.10746000  0.42521000  1.0
