# generated using pymatgen
data_ZnH5C14N(O3F)2
_symmetry_space_group_name_H-M   'P 1'
_cell_length_a   7.56501000
_cell_length_b   10.85000000
_cell_length_c   34.98950000
_cell_angle_alpha   89.84690000
_cell_angle_beta   91.33760000
_cell_angle_gamma   89.65080000
_symmetry_Int_Tables_number   1
_chemical_formula_structural   ZnH5C14N(O3F)2
_chemical_formula_sum   'Zn4 H20 C56 N4 O24 F8'
_cell_volume   2871.10341118
_cell_formula_units_Z   4
loop_
 _symmetry_equiv_pos_site_id
 _symmetry_equiv_pos_as_xyz
  1  'x, y, z'
loop_
 _atom_site_type_symbol
 _atom_site_label
 _atom_site_symmetry_multiplicity
 _atom_site_fract_x
 _atom_site_fract_y
 _atom_site_fract_z
 _atom_site_occupancy
  Zn  Zn0  1  0.71100000  0.99504000  0.50122000  1.0
  Zn  Zn1  1  0.34811000  0.99664000  0.49937000  1.0
  Zn  Zn2  1  0.19879000  0.99224000  0.99872000  1.0
  Zn  Zn3  1  0.56151000  0.99075000  0.00054000  1.0
  H  H4  1  0.72281000  0.95834000  0.87751000  1.0
  H  H5  1  0.69815000  0.95352000  0.80696000  1.0
  H  H6  1  0.14244000  0.04394000  0.81339000  1.0
  H  H7  1  0.76527000  0.04490000  0.68666000  1.0
  H  H8  1  0.21106000  0.95404000  0.69279000  1.0
  H  H9  1  0.18712000  0.96021000  0.62223000  1.0
  H  H10  1  0.25192000  0.00090000  0.75344000  1.0
  H  H11  1  0.65597000  0.00073000  0.74650000  1.0
  H  H12  1  0.71726000  0.02105000  0.12379000  1.0
  H  H13  1  0.69846000  0.02988000  0.19432000  1.0
  H  H14  1  0.13517000  0.97035000  0.18451000  1.0
  H  H15  1  0.77415000  0.97323000  0.31561000  1.0
  H  H16  1  0.20956000  0.03122000  0.30548000  1.0
  H  H17  1  0.19086000  0.02430000  0.37608000  1.0
  H  H18  1  0.25218000  0.00021000  0.24489000  1.0
  H  H19  1  0.65654000  0.00188000  0.25508000  1.0
  H  H20  1  0.39592000  0.72808000  0.56010000  1.0
  H  H21  1  0.39979000  0.26842000  0.56271000  1.0
  H  H22  1  0.51406000  0.72339000  0.93974000  1.0
  H  H23  1  0.50849000  0.26383000  0.93704000  1.0
  C  C24  1  0.59919000  0.76406000  0.50185000  1.0
  C  C25  1  0.45089000  0.99776000  0.57187000  1.0
  C  C26  1  0.60016000  0.22681000  0.50389000  1.0
  C  C27  1  0.45988000  0.99760000  0.42831000  1.0
  C  C28  1  0.31142000  0.76026000  0.99813000  1.0
  C  C29  1  0.45871000  0.99430000  0.92803000  1.0
  C  C30  1  0.30947000  0.22312000  0.99606000  1.0
  C  C31  1  0.44879000  0.99284000  0.07166000  1.0
  C  C32  1  0.44977000  0.00336000  0.88558000  1.0
  C  C33  1  0.59671000  0.97794000  0.86306000  1.0
  C  C34  1  0.58175000  0.97616000  0.82341000  1.0
  C  C35  1  0.41807000  0.99901000  0.80446000  1.0
  C  C36  1  0.27096000  0.02513000  0.82694000  1.0
  C  C37  1  0.28865000  0.02847000  0.86635000  1.0
  C  C38  1  0.39032000  0.99761000  0.76317000  1.0
  C  C39  1  0.51763000  0.99775000  0.73675000  1.0
  C  C40  1  0.63717000  0.02634000  0.67305000  1.0
  C  C41  1  0.49025000  0.99983000  0.69544000  1.0
  C  C42  1  0.32716000  0.97727000  0.67642000  1.0
  C  C43  1  0.31264000  0.97981000  0.63676000  1.0
  C  C44  1  0.45933000  0.00586000  0.61432000  1.0
  C  C45  1  0.61984000  0.03049000  0.63363000  1.0
  C  C46  1  0.43982000  0.99049000  0.11413000  1.0
  C  C47  1  0.59068000  0.00878000  0.13760000  1.0
  C  C48  1  0.57891000  0.01331000  0.17715000  1.0
  C  C49  1  0.41493000  0.99973000  0.19512000  1.0
  C  C50  1  0.26407000  0.98150000  0.17169000  1.0
  C  C51  1  0.27789000  0.97641000  0.13235000  1.0
  C  C52  1  0.39010000  0.00257000  0.23624000  1.0
  C  C53  1  0.51855000  0.00349000  0.26371000  1.0
  C  C54  1  0.64499000  0.98452000  0.32836000  1.0
  C  C55  1  0.49375000  0.00176000  0.30485000  1.0
  C  C56  1  0.32943000  0.01542000  0.32275000  1.0
  C  C57  1  0.31771000  0.01191000  0.36231000  1.0
  C  C58  1  0.46899000  0.99451000  0.38586000  1.0
  C  C59  1  0.63129000  0.98035000  0.36772000  1.0
  C  C60  1  0.60195000  0.62651000  0.50471000  1.0
  C  C61  1  0.50068000  0.56306000  0.53257000  1.0
  C  C62  1  0.70011000  0.55926000  0.47931000  1.0
  C  C63  1  0.40211000  0.62794000  0.56019000  1.0
  C  C64  1  0.31013000  0.56457000  0.58713000  1.0
  C  C65  1  0.60307000  0.36443000  0.50595000  1.0
  C  C66  1  0.70045000  0.42929000  0.47992000  1.0
  C  C67  1  0.50142000  0.43049000  0.53326000  1.0
  C  C68  1  0.40380000  0.36847000  0.56156000  1.0
  C  C69  1  0.31097000  0.43450000  0.58784000  1.0
  C  C70  1  0.30861000  0.62276000  0.99531000  1.0
  C  C71  1  0.40934000  0.55891000  0.96736000  1.0
  C  C72  1  0.21063000  0.55599000  0.02076000  1.0
  C  C73  1  0.50766000  0.62331000  0.93968000  1.0
  C  C74  1  0.59891000  0.55948000  0.91265000  1.0
  C  C75  1  0.30673000  0.36079000  0.99401000  1.0
  C  C76  1  0.21009000  0.42604000  0.02015000  1.0
  C  C77  1  0.40811000  0.42638000  0.96664000  1.0
  C  C78  1  0.50487000  0.36389000  0.93824000  1.0
  C  C79  1  0.59748000  0.42947000  0.91190000  1.0
  N  N80  1  0.12691000  0.06323000  0.88676000  1.0
  N  N81  1  0.78114000  0.06550000  0.61327000  1.0
  N  N82  1  0.10933000  0.95292000  0.11135000  1.0
  N  N83  1  0.80045000  0.95785000  0.38881000  1.0
  O  O84  1  0.74959000  0.81867000  0.50228000  1.0
  O  O85  1  0.44892000  0.81626000  0.49948000  1.0
  O  O86  1  0.29901000  0.99823000  0.55440000  1.0
  O  O87  1  0.59799000  0.98877000  0.55541000  1.0
  O  O88  1  0.44971000  0.17603000  0.50195000  1.0
  O  O89  1  0.75032000  0.17072000  0.50413000  1.0
  O  O90  1  0.60695000  0.00185000  0.44646000  1.0
  O  O91  1  0.30763000  0.99739000  0.44388000  1.0
  O  O92  1  0.16096000  0.81607000  0.99769000  1.0
  O  O93  1  0.46166000  0.81121000  0.00049000  1.0
  O  O94  1  0.61068000  0.99313000  0.94546000  1.0
  O  O95  1  0.31178000  0.98614000  0.94456000  1.0
  O  O96  1  0.45995000  0.17103000  0.99798000  1.0
  O  O97  1  0.15927000  0.16837000  0.99575000  1.0
  O  O98  1  0.30160000  0.99781000  0.05354000  1.0
  O  O99  1  0.60098000  0.99128000  0.05608000  1.0
  O  O100  1  0.11974000  0.16800000  0.90024000  1.0
  O  O101  1  0.00699000  0.98609000  0.88667000  1.0
  O  O102  1  0.78641000  0.17033000  0.59965000  1.0
  O  O103  1  0.90245000  0.98838000  0.61349000  1.0
  O  O104  1  0.08121000  0.84663000  0.10055000  1.0
  O  O105  1  0.00468000  0.04098000  0.10872000  1.0
  O  O106  1  0.83170000  0.85169000  0.39977000  1.0
  O  O107  1  0.90252000  0.04648000  0.39133000  1.0
  F  F108  1  0.79352000  0.37085000  0.45285000  1.0
  F  F109  1  0.79340000  0.61505000  0.45190000  1.0
  F  F110  1  0.21620000  0.62595000  0.61370000  1.0
  F  F111  1  0.21841000  0.37609000  0.61513000  1.0
  F  F112  1  0.11761000  0.36798000  0.04732000  1.0
  F  F113  1  0.11793000  0.61218000  0.04825000  1.0
  F  F114  1  0.69267000  0.62043000  0.88603000  1.0
  F  F115  1  0.68933000  0.37063000  0.88452000  1.0
