# generated using pymatgen
data_HgH11C9N2Cl2O
_symmetry_space_group_name_H-M   'P 1'
_cell_length_a   7.95732000
_cell_length_b   9.35274000
_cell_length_c   9.52328000
_cell_angle_alpha   71.09090000
_cell_angle_beta   71.61780000
_cell_angle_gamma   66.41200000
_symmetry_Int_Tables_number   1
_chemical_formula_structural   HgH11C9N2Cl2O
_chemical_formula_sum   'Hg2 H22 C18 N4 Cl4 O2'
_cell_volume   600.22061607
_cell_formula_units_Z   2
loop_
 _symmetry_equiv_pos_site_id
 _symmetry_equiv_pos_as_xyz
  1  'x, y, z'
loop_
 _atom_site_type_symbol
 _atom_site_label
 _atom_site_symmetry_multiplicity
 _atom_site_fract_x
 _atom_site_fract_y
 _atom_site_fract_z
 _atom_site_occupancy
  Hg  Hg0  1  0.69459000  0.33474000  0.88697000  1.0
  Hg  Hg1  1  0.30542000  0.66526000  0.11303000  1.0
  H  H2  1  0.16645000  0.05840000  0.35750000  1.0
  H  H3  1  0.83355000  0.94162000  0.64249000  1.0
  H  H4  1  0.40718000  0.87528000  0.51031000  1.0
  H  H5  1  0.59282000  0.12473000  0.48968000  1.0
  H  H6  1  0.39388000  0.93806000  0.75286000  1.0
  H  H7  1  0.60612000  0.06194000  0.24714000  1.0
  H  H8  1  0.25323000  0.11606000  0.92441000  1.0
  H  H9  1  0.74677000  0.88393000  0.07559000  1.0
  H  H10  1  0.11489000  0.22177000  0.12137000  1.0
  H  H11  1  0.88511000  0.77821000  0.87863000  1.0
  H  H12  1  0.86933000  0.24964000  0.18839000  1.0
  H  H13  1  0.13068000  0.75035000  0.81161000  1.0
  H  H14  1  0.93221000  0.48962000  0.17220000  1.0
  H  H15  1  0.06780000  0.51036000  0.82781000  1.0
  H  H16  1  0.78645000  0.53134000  0.04703000  1.0
  H  H17  1  0.21355000  0.46864000  0.95297000  1.0
  H  H18  1  0.68168000  0.51041000  0.38673000  1.0
  H  H19  1  0.31832000  0.48960000  0.61327000  1.0
  H  H20  1  0.80850000  0.51452000  0.51140000  1.0
  H  H21  1  0.19149000  0.48549000  0.48860000  1.0
  H  H22  1  0.64899000  0.40281000  0.58196000  1.0
  H  H23  1  0.35100000  0.59720000  0.41805000  1.0
  C  C24  1  0.01887000  0.20762000  0.52255000  1.0
  C  C25  1  0.98113000  0.79239000  0.47744000  1.0
  C  C26  1  0.16200000  0.07734000  0.46566000  1.0
  C  C27  1  0.83800000  0.92267000  0.53433000  1.0
  C  C28  1  0.29579000  0.97746000  0.54990000  1.0
  C  C29  1  0.70422000  0.02255000  0.45009000  1.0
  C  C30  1  0.28758000  0.01071000  0.68579000  1.0
  C  C31  1  0.71242000  0.98930000  0.31420000  1.0
  C  C32  1  0.13724000  0.13773000  0.73545000  1.0
  C  C33  1  0.86277000  0.86227000  0.26455000  1.0
  C  C34  1  0.12348000  0.16688000  0.88127000  1.0
  C  C35  1  0.87652000  0.83311000  0.11873000  1.0
  C  C36  1  0.97538000  0.28735000  0.09343000  1.0
  C  C37  1  0.02463000  0.71264000  0.90657000  1.0
  C  C38  1  0.93048000  0.46808000  0.06607000  1.0
  C  C39  1  0.06953000  0.53190000  0.93393000  1.0
  C  C40  1  0.74999000  0.44190000  0.48290000  1.0
  C  C41  1  0.25001000  0.55811000  0.51710000  1.0
  N  N42  1  0.00302000  0.23574000  0.65508000  1.0
  N  N43  1  0.99698000  0.76426000  0.34492000  1.0
  N  N44  1  0.97154000  0.24833000  0.95850000  1.0
  N  N45  1  0.02846000  0.75166000  0.04151000  1.0
  Cl  Cl46  1  0.54176000  0.63061000  0.80782000  1.0
  Cl  Cl47  1  0.45824000  0.36938000  0.19218000  1.0
  Cl  Cl48  1  0.57888000  0.15322000  0.83779000  1.0
  Cl  Cl49  1  0.42111000  0.84680000  0.16221000  1.0
  O  O50  1  0.89625000  0.30483000  0.43306000  1.0
  O  O51  1  0.10375000  0.69518000  0.56694000  1.0
