# generated using pymatgen
data_ZnH10C16(N3O)2
_symmetry_space_group_name_H-M   'P 1'
_cell_length_a   7.86330000
_cell_length_b   9.09763000
_cell_length_c   11.98810000
_cell_angle_alpha   98.00020000
_cell_angle_beta   105.47400000
_cell_angle_gamma   100.84400000
_symmetry_Int_Tables_number   1
_chemical_formula_structural   ZnH10C16(N3O)2
_chemical_formula_sum   'Zn2 H20 C32 N12 O4'
_cell_volume   795.34022325
_cell_formula_units_Z   2
loop_
 _symmetry_equiv_pos_site_id
 _symmetry_equiv_pos_as_xyz
  1  'x, y, z'
loop_
 _atom_site_type_symbol
 _atom_site_label
 _atom_site_symmetry_multiplicity
 _atom_site_fract_x
 _atom_site_fract_y
 _atom_site_fract_z
 _atom_site_occupancy
  Zn  Zn0  1  0.93937000  0.65368000  0.39803000  1.0
  Zn  Zn1  1  0.06063000  0.34632000  0.60197000  1.0
  H  H2  1  0.06877000  0.97621000  0.36923000  1.0
  H  H3  1  0.93123000  0.02380000  0.63077000  1.0
  H  H4  1  0.34004000  0.12821000  0.33417000  1.0
  H  H5  1  0.65996000  0.87180000  0.66583000  1.0
  H  H6  1  0.61081000  0.00997000  0.33863000  1.0
  H  H7  1  0.38919000  0.99004000  0.66137000  1.0
  H  H8  1  0.30572000  0.60544000  0.40497000  1.0
  H  H9  1  0.69428000  0.39456000  0.59504000  1.0
  H  H10  1  0.79661000  0.23871000  0.00391000  1.0
  H  H11  1  0.20339000  0.76129000  0.99609000  1.0
  H  H12  1  0.67684000  0.37397000  0.84134000  1.0
  H  H13  1  0.32315000  0.62603000  0.15866000  1.0
  H  H14  1  0.58546000  0.60721000  0.78316000  1.0
  H  H15  1  0.41454000  0.39278000  0.21684000  1.0
  H  H16  1  0.57351000  0.87857000  0.84295000  1.0
  H  H17  1  0.42649000  0.12143000  0.15705000  1.0
  H  H18  1  0.69222000  0.00802000  0.05565000  1.0
  H  H19  1  0.30778000  0.99197000  0.94435000  1.0
  H  H20  1  0.80966000  0.86775000  0.20914000  1.0
  H  H21  1  0.19035000  0.13225000  0.79086000  1.0
  C  C22  1  0.18520000  0.92793000  0.36764000  1.0
  C  C23  1  0.81480000  0.07207000  0.63236000  1.0
  C  C24  1  0.33865000  0.01247000  0.34878000  1.0
  C  C25  1  0.66135000  0.98754000  0.65122000  1.0
  C  C26  1  0.48639000  0.94782000  0.35087000  1.0
  C  C27  1  0.51361000  0.05218000  0.64913000  1.0
  C  C28  1  0.47608000  0.79931000  0.37218000  1.0
  C  C29  1  0.52392000  0.20070000  0.62781000  1.0
  C  C30  1  0.31703000  0.72134000  0.38850000  1.0
  C  C31  1  0.68297000  0.27866000  0.61150000  1.0
  C  C32  1  0.62987000  0.72204000  0.38068000  1.0
  C  C33  1  0.37014000  0.27797000  0.61932000  1.0
  C  C34  1  0.89251000  0.35884000  0.23871000  1.0
  C  C35  1  0.10749000  0.64116000  0.76129000  1.0
  C  C36  1  0.83483000  0.43558000  0.14096000  1.0
  C  C37  1  0.16517000  0.56442000  0.85904000  1.0
  C  C38  1  0.78443000  0.35629000  0.02221000  1.0
  C  C39  1  0.21557000  0.64371000  0.97779000  1.0
  C  C40  1  0.71988000  0.43115000  0.93384000  1.0
  C  C41  1  0.28011000  0.56884000  0.06616000  1.0
  C  C42  1  0.70756000  0.58441000  0.96258000  1.0
  C  C43  1  0.29244000  0.41559000  0.03742000  1.0
  C  C44  1  0.63703000  0.66616000  0.87564000  1.0
  C  C45  1  0.36297000  0.33384000  0.12436000  1.0
  C  C46  1  0.62992000  0.81570000  0.90916000  1.0
  C  C47  1  0.37008000  0.18430000  0.09084000  1.0
  C  C48  1  0.69476000  0.88909000  0.02953000  1.0
  C  C49  1  0.30524000  0.11090000  0.97047000  1.0
  C  C50  1  0.76300000  0.81236000  0.11626000  1.0
  C  C51  1  0.23700000  0.18764000  0.88374000  1.0
  C  C52  1  0.76902000  0.65767000  0.08526000  1.0
  C  C53  1  0.23098000  0.34233000  0.91474000  1.0
  N  N54  1  0.17483000  0.78405000  0.38590000  1.0
  N  N55  1  0.82517000  0.21595000  0.61410000  1.0
  N  N56  1  0.94490000  0.43157000  0.35235000  1.0
  N  N57  1  0.05510000  0.56843000  0.64765000  1.0
  N  N58  1  0.98213000  0.32507000  0.41578000  1.0
  N  N59  1  0.01787000  0.67493000  0.58422000  1.0
  N  N60  1  0.95281000  0.19272000  0.34339000  1.0
  N  N61  1  0.04719000  0.80728000  0.65661000  1.0
  N  N62  1  0.89663000  0.21079000  0.23164000  1.0
  N  N63  1  0.10337000  0.78921000  0.76836000  1.0
  N  N64  1  0.83019000  0.58078000  0.17206000  1.0
  N  N65  1  0.16981000  0.41922000  0.82794000  1.0
  O  O66  1  0.78501000  0.80782000  0.38882000  1.0
  O  O67  1  0.21499000  0.19218000  0.61118000  1.0
  O  O68  1  0.60435000  0.58135000  0.38068000  1.0
  O  O69  1  0.39565000  0.41865000  0.61932000  1.0
