# generated using pymatgen
data_CuH8C8S2IN2
_symmetry_space_group_name_H-M   'P 1'
_cell_length_a   7.19474000
_cell_length_b   10.47030000
_cell_length_c   10.90800000
_cell_angle_alpha   96.95630000
_cell_angle_beta   92.89260000
_cell_angle_gamma   105.08200000
_symmetry_Int_Tables_number   1
_chemical_formula_structural   CuH8C8S2IN2
_chemical_formula_sum   'Cu2 H16 C16 S4 I2 N4'
_cell_volume   784.68067162
_cell_formula_units_Z   2
loop_
 _symmetry_equiv_pos_site_id
 _symmetry_equiv_pos_as_xyz
  1  'x, y, z'
loop_
 _atom_site_type_symbol
 _atom_site_label
 _atom_site_symmetry_multiplicity
 _atom_site_fract_x
 _atom_site_fract_y
 _atom_site_fract_z
 _atom_site_occupancy
  Cu  Cu0  1  0.51002000  0.39317000  0.59693000  1.0
  Cu  Cu1  1  0.48997000  0.60682000  0.40306000  1.0
  H  H2  1  0.84029000  0.51508000  0.79713000  1.0
  H  H3  1  0.15971000  0.48492000  0.20288000  1.0
  H  H4  1  0.32984000  0.46815000  0.01631000  1.0
  H  H5  1  0.67017000  0.53186000  0.98370000  1.0
  H  H6  1  0.05520000  0.21536000  0.63696000  1.0
  H  H7  1  0.94480000  0.78463000  0.36304000  1.0
  H  H8  1  0.70124000  0.90637000  0.35837000  1.0
  H  H9  1  0.29878000  0.09363000  0.64164000  1.0
  H  H10  1  0.05984000  0.58858000  0.68464000  1.0
  H  H11  1  0.94015000  0.41142000  0.31536000  1.0
  H  H12  1  0.22490000  0.52253000  0.60351000  1.0
  H  H13  1  0.77508000  0.47746000  0.39650000  1.0
  H  H14  1  0.59040000  0.05478000  0.32347000  1.0
  H  H15  1  0.40960000  0.94521000  0.67652000  1.0
  H  H16  1  0.49005000  0.18015000  0.38908000  1.0
  H  H17  1  0.50994000  0.81984000  0.61093000  1.0
  C  C18  1  0.20517000  0.47943000  0.78023000  1.0
  C  C19  1  0.79482000  0.52058000  0.21977000  1.0
  C  C20  1  0.10037000  0.49129000  0.89244000  1.0
  C  C21  1  0.89965000  0.50872000  0.10758000  1.0
  C  C22  1  0.91364000  0.51009000  0.88568000  1.0
  C  C23  1  0.08637000  0.48991000  0.11434000  1.0
  C  C24  1  0.18459000  0.48116000  0.00865000  1.0
  C  C25  1  0.81541000  0.51884000  0.99136000  1.0
  C  C26  1  0.71921000  0.15345000  0.49302000  1.0
  C  C27  1  0.28084000  0.84657000  0.50696000  1.0
  C  C28  1  0.86019000  0.07316000  0.49691000  1.0
  C  C29  1  0.13978000  0.92683000  0.50310000  1.0
  C  C30  1  0.02909000  0.11992000  0.57793000  1.0
  C  C31  1  0.97093000  0.88009000  0.42206000  1.0
  C  C32  1  0.83363000  0.95147000  0.41881000  1.0
  C  C33  1  0.16638000  0.04854000  0.58118000  1.0
  S  S34  1  0.36801000  0.38877000  0.77593000  1.0
  S  S35  1  0.63201000  0.61123000  0.22408000  1.0
  S  S36  1  0.72653000  0.27538000  0.61088000  1.0
  S  S37  1  0.27347000  0.72462000  0.38911000  1.0
  I  I38  1  0.27777000  0.34701000  0.39033000  1.0
  I  I39  1  0.72223000  0.65299000  0.60966000  1.0
  N  N40  1  0.16449000  0.53867000  0.68482000  1.0
  N  N41  1  0.83550000  0.46133000  0.31518000  1.0
  N  N42  1  0.58909000  0.12581000  0.39514000  1.0
  N  N43  1  0.41087000  0.87419000  0.60485000  1.0
