# generated using pymatgen
data_CuH12C16(N5O2)2
_symmetry_space_group_name_H-M   'P 1'
_cell_length_a   6.74411000
_cell_length_b   8.55325000
_cell_length_c   8.59858000
_cell_angle_alpha   93.06340000
_cell_angle_beta   108.94700000
_cell_angle_gamma   104.26000000
_symmetry_Int_Tables_number   1
_chemical_formula_structural   CuH12C16(N5O2)2
_chemical_formula_sum   'Cu1 H12 C16 N10 O4'
_cell_volume   449.83084228
_cell_formula_units_Z   1
loop_
 _symmetry_equiv_pos_site_id
 _symmetry_equiv_pos_as_xyz
  1  'x, y, z'
loop_
 _atom_site_type_symbol
 _atom_site_label
 _atom_site_symmetry_multiplicity
 _atom_site_fract_x
 _atom_site_fract_y
 _atom_site_fract_z
 _atom_site_occupancy
  Cu  Cu0  1  0.00000000  0.00000000  0.00000000  1.0
  H  H1  1  0.94406000  0.49465000  0.31218000  1.0
  H  H2  1  0.05594000  0.50535000  0.68781000  1.0
  H  H3  1  0.79214000  0.49933000  0.10094000  1.0
  H  H4  1  0.20786000  0.50066000  0.89906000  1.0
  H  H5  1  0.86250000  0.07130000  0.65727000  1.0
  H  H6  1  0.13750000  0.92870000  0.34274000  1.0
  H  H7  1  0.04345000  0.19666000  0.46439000  1.0
  H  H8  1  0.95654000  0.80333000  0.53561000  1.0
  H  H9  1  0.44939000  0.33513000  0.57981000  1.0
  H  H10  1  0.55060000  0.66487000  0.42019000  1.0
  H  H11  1  0.65081000  0.34342000  0.87540000  1.0
  H  H12  1  0.34919000  0.65658000  0.12459000  1.0
  C  C13  1  0.84403000  0.41907000  0.19213000  1.0
  C  C14  1  0.15597000  0.58093000  0.80786000  1.0
  C  C15  1  0.98450000  0.32711000  0.13328000  1.0
  C  C16  1  0.01551000  0.67289000  0.86672000  1.0
  C  C17  1  0.36445000  0.21202000  0.92688000  1.0
  C  C18  1  0.63555000  0.78798000  0.07312000  1.0
  C  C19  1  0.03708000  0.13291000  0.70140000  1.0
  C  C20  1  0.96292000  0.86708000  0.29860000  1.0
  C  C21  1  0.13958000  0.20305000  0.59463000  1.0
  C  C22  1  0.86042000  0.79695000  0.40538000  1.0
  C  C23  1  0.36260000  0.27942000  0.65855000  1.0
  C  C24  1  0.63740000  0.72058000  0.34145000  1.0
  C  C25  1  0.47693000  0.28342000  0.82659000  1.0
  C  C26  1  0.52307000  0.71658000  0.17341000  1.0
  C  C27  1  0.46567000  0.21255000  0.10520000  1.0
  C  C28  1  0.53434000  0.78745000  0.89480000  1.0
  N  N29  1  0.14647000  0.13702000  0.86307000  1.0
  N  N30  1  0.85353000  0.86298000  0.13693000  1.0
  N  N31  1  0.36733000  0.11645000  0.19167000  1.0
  N  N32  1  0.63267000  0.88355000  0.80833000  1.0
  N  N33  1  0.49846000  0.15601000  0.35237000  1.0
  N  N34  1  0.50154000  0.84399000  0.64763000  1.0
  N  N35  1  0.67365000  0.27206000  0.36868000  1.0
  N  N36  1  0.32635000  0.72794000  0.63131000  1.0
  N  N37  1  0.65649000  0.31005000  0.21446000  1.0
  N  N38  1  0.34352000  0.68995000  0.78554000  1.0
  O  O39  1  0.16662000  0.40997000  0.13835000  1.0
  O  O40  1  0.83338000  0.59003000  0.86165000  1.0
  O  O41  1  0.89122000  0.17436000  0.08413000  1.0
  O  O42  1  0.10879000  0.82564000  0.91588000  1.0
