# generated using pymatgen
data_CuH16(C5N2)4
_symmetry_space_group_name_H-M   'P 1'
_cell_length_a   3.87445000
_cell_length_b   15.35510000
_cell_length_c   15.35880000
_cell_angle_alpha   89.10440000
_cell_angle_beta   82.80290000
_cell_angle_gamma   82.78570000
_symmetry_Int_Tables_number   1
_chemical_formula_structural   CuH16(C5N2)4
_chemical_formula_sum   'Cu2 H32 C40 N16'
_cell_volume   899.35847660
_cell_formula_units_Z   2
loop_
 _symmetry_equiv_pos_site_id
 _symmetry_equiv_pos_as_xyz
  1  'x, y, z'
loop_
 _atom_site_type_symbol
 _atom_site_label
 _atom_site_symmetry_multiplicity
 _atom_site_fract_x
 _atom_site_fract_y
 _atom_site_fract_z
 _atom_site_occupancy
  Cu  Cu0  1  0.37534000  0.74985000  0.24993000  1.0
  Cu  Cu1  1  0.62463000  0.25015000  0.75007000  1.0
  H  H2  1  0.75299000  0.55182000  0.35448000  1.0
  H  H3  1  0.80588000  0.35451000  0.94838000  1.0
  H  H4  1  0.66135000  0.94822000  0.14542000  1.0
  H  H5  1  0.10998000  0.14553000  0.55161000  1.0
  H  H6  1  0.24698000  0.44818000  0.64552000  1.0
  H  H7  1  0.19417000  0.64549000  0.05162000  1.0
  H  H8  1  0.33864000  0.05178000  0.85458000  1.0
  H  H9  1  0.89005000  0.85448000  0.44839000  1.0
  H  H10  1  0.81856000  0.60478000  0.66724000  1.0
  H  H11  1  0.92169000  0.66733000  0.89512000  1.0
  H  H12  1  0.08885000  0.89535000  0.83290000  1.0
  H  H13  1  0.48297000  0.83277000  0.60507000  1.0
  H  H14  1  0.18145000  0.39520000  0.33276000  1.0
  H  H15  1  0.07832000  0.33267000  0.10487000  1.0
  H  H16  1  0.91116000  0.10466000  0.16710000  1.0
  H  H17  1  0.51704000  0.16723000  0.39493000  1.0
  H  H18  1  0.41059000  0.66542000  0.65579000  1.0
  H  H19  1  0.57429000  0.65544000  0.83450000  1.0
  H  H20  1  0.73033000  0.83456000  0.84419000  1.0
  H  H21  1  0.06352000  0.84454000  0.66560000  1.0
  H  H22  1  0.58943000  0.33457000  0.34422000  1.0
  H  H23  1  0.42570000  0.34456000  0.16550000  1.0
  H  H24  1  0.26971000  0.16545000  0.15580000  1.0
  H  H25  1  0.93648000  0.15546000  0.33440000  1.0
  H  H26  1  0.42734000  0.56648000  0.71889000  1.0
  H  H27  1  0.49194000  0.71881000  0.93330000  1.0
  H  H28  1  0.71111000  0.93352000  0.78108000  1.0
  H  H29  1  0.14299000  0.78116000  0.56679000  1.0
  H  H30  1  0.57266000  0.43351000  0.28112000  1.0
  H  H31  1  0.50807000  0.28119000  0.06669000  1.0
  H  H32  1  0.28890000  0.06649000  0.21892000  1.0
  H  H33  1  0.85704000  0.21884000  0.43322000  1.0
  C  C34  1  0.97493000  0.68061000  0.41919000  1.0
  C  C35  1  0.15507000  0.41927000  0.81952000  1.0
  C  C36  1  0.07437000  0.81938000  0.08069000  1.0
  C  C37  1  0.39392000  0.08085000  0.68061000  1.0
  C  C38  1  0.02508000  0.31938000  0.58083000  1.0
  C  C39  1  0.84484000  0.58073000  0.18048000  1.0
  C  C40  1  0.92565000  0.18063000  0.91930000  1.0
  C  C41  1  0.60600000  0.91915000  0.31939000  1.0
  C  C42  1  0.67091000  0.57613000  0.49440000  1.0
  C  C43  1  0.74656000  0.49440000  0.92394000  1.0
  C  C44  1  0.74121000  0.92389000  0.00551000  1.0
  C  C45  1  0.16499000  0.00560000  0.57615000  1.0
  C  C46  1  0.32907000  0.42387000  0.50560000  1.0
  C  C47  1  0.25350000  0.50561000  0.07606000  1.0
  C  C48  1  0.25877000  0.07611000  0.99449000  1.0
  C  C49  1  0.83502000  0.99441000  0.42385000  1.0
  C  C50  1  0.52169000  0.54707000  0.57925000  1.0
  C  C51  1  0.56797000  0.57922000  0.95289000  1.0
  C  C52  1  0.64668000  0.95293000  0.92072000  1.0
  C  C53  1  0.09939000  0.92075000  0.54717000  1.0
  C  C54  1  0.47828000  0.45292000  0.42075000  1.0
  C  C55  1  0.43208000  0.42079000  0.04711000  1.0
  C  C56  1  0.35331000  0.04707000  0.07928000  1.0
  C  C57  1  0.90062000  0.07925000  0.45283000  1.0
  C  C58  1  0.64192000  0.52732000  0.41753000  1.0
  C  C59  1  0.66975000  0.41754000  0.97275000  1.0
  C  C60  1  0.58817000  0.97274000  0.08242000  1.0
  C  C61  1  0.06097000  0.08247000  0.52721000  1.0
  C  C62  1  0.35806000  0.47267000  0.58247000  1.0
  C  C63  1  0.33028000  0.58246000  0.02724000  1.0
  C  C64  1  0.41182000  0.02726000  0.91758000  1.0
  C  C65  1  0.93901000  0.91753000  0.47280000  1.0
  C  C66  1  0.54479000  0.59824000  0.66001000  1.0
  C  C67  1  0.64155000  0.65993000  0.90163000  1.0
  C  C68  1  0.80137000  0.90178000  0.83999000  1.0
  C  C69  1  0.20202000  0.84007000  0.59848000  1.0
  C  C70  1  0.45522000  0.40174000  0.34000000  1.0
  C  C71  1  0.35847000  0.34008000  0.09836000  1.0
  C  C72  1  0.19864000  0.09823000  0.16001000  1.0
  C  C73  1  0.79800000  0.15993000  0.40152000  1.0
  N  N74  1  0.10765000  0.71844000  0.35894000  1.0
  N  N75  1  0.32441000  0.35899000  0.78145000  1.0
  N  N76  1  0.18439000  0.78158000  0.14100000  1.0
  N  N77  1  0.46511000  0.14118000  0.71865000  1.0
  N  N78  1  0.89231000  0.28156000  0.64106000  1.0
  N  N79  1  0.67563000  0.64102000  0.21855000  1.0
  N  N80  1  0.81556000  0.21842000  0.85901000  1.0
  N  N81  1  0.53488000  0.85881000  0.28135000  1.0
  N  N82  1  0.83290000  0.64893000  0.49152000  1.0
  N  N83  1  0.98114000  0.49156000  0.85116000  1.0
  N  N84  1  0.97250000  0.85103000  0.00834000  1.0
  N  N85  1  0.32355000  0.00848000  0.64900000  1.0
  N  N86  1  0.16705000  0.35107000  0.50848000  1.0
  N  N87  1  0.01892000  0.50844000  0.14884000  1.0
  N  N88  1  0.02746000  0.14897000  0.99166000  1.0
  N  N89  1  0.67648000  0.99151000  0.35100000  1.0
