# generated using pymatgen
data_AlH12(C9O2)3
_symmetry_space_group_name_H-M   'P 1'
_cell_length_a   3.93290000
_cell_length_b   24.49440000
_cell_length_c   24.49440000
_cell_angle_alpha   60.00000000
_cell_angle_beta   89.99890000
_cell_angle_gamma   89.99860000
_symmetry_Int_Tables_number   1
_chemical_formula_structural   AlH12(C9O2)3
_chemical_formula_sum   'Al2 H24 C54 O12'
_cell_volume   2043.51178627
_cell_formula_units_Z   2
loop_
 _symmetry_equiv_pos_site_id
 _symmetry_equiv_pos_as_xyz
  1  'x, y, z'
loop_
 _atom_site_type_symbol
 _atom_site_label
 _atom_site_symmetry_multiplicity
 _atom_site_fract_x
 _atom_site_fract_y
 _atom_site_fract_z
 _atom_site_occupancy
  Al  Al0  1  0.00001000  0.00000000  0.50000000  1.0
  Al  Al1  1  0.00001000  0.66667000  0.16666000  1.0
  H  H2  1  0.54558000  0.17375000  0.50064000  1.0
  H  H3  1  0.51424000  0.27510000  0.50135000  1.0
  H  H4  1  0.45441000  0.17374000  0.32562000  1.0
  H  H5  1  0.48576000  0.27509000  0.22356000  1.0
  H  H6  1  0.54556000  0.49292000  0.16603000  1.0
  H  H7  1  0.51421000  0.39158000  0.16531000  1.0
  H  H8  1  0.45447000  0.49292000  0.34105000  1.0
  H  H9  1  0.48580000  0.39158000  0.44311000  1.0
  H  H10  1  0.54557000  0.00064000  0.32561000  1.0
  H  H11  1  0.51423000  0.00135000  0.22356000  1.0
  H  H12  1  0.45445000  0.82562000  0.50064000  1.0
  H  H13  1  0.48579000  0.72356000  0.50135000  1.0
  H  H14  1  0.54555000  0.66603000  0.34105000  1.0
  H  H15  1  0.51422000  0.66532000  0.44311000  1.0
  H  H16  1  0.45442000  0.84105000  0.16603000  1.0
  H  H17  1  0.48578000  0.94311000  0.16531000  1.0
  H  H18  1  0.54555000  0.82562000  0.67374000  1.0
  H  H19  1  0.51421000  0.72356000  0.77509000  1.0
  H  H20  1  0.45445000  0.00063000  0.67375000  1.0
  H  H21  1  0.48578000  0.00135000  0.77509000  1.0
  H  H22  1  0.54557000  0.84105000  0.99292000  1.0
  H  H23  1  0.51423000  0.94311000  0.89157000  1.0
  H  H24  1  0.45442000  0.66603000  0.99292000  1.0
  H  H25  1  0.48576000  0.66532000  0.89157000  1.0
  C  C26  1  0.50000000  0.95138000  0.59723000  1.0
  C  C27  1  0.49999000  0.09723000  0.45139000  1.0
  C  C28  1  0.50003000  0.95139000  0.45138000  1.0
  C  C29  1  0.50002000  0.56944000  0.21528000  1.0
  C  C30  1  0.49998000  0.71528000  0.21528000  1.0
  C  C31  1  0.50001000  0.71528000  0.06944000  1.0
  C  C32  1  0.52443000  0.20006000  0.44938000  1.0
  C  C33  1  0.51094000  0.26611000  0.41743000  1.0
  C  C34  1  0.50773000  0.30120000  0.44990000  1.0
  C  C35  1  0.47558000  0.20006000  0.35056000  1.0
  C  C36  1  0.48910000  0.26611000  0.31646000  1.0
  C  C37  1  0.49228000  0.30120000  0.24890000  1.0
  C  C38  1  0.52443000  0.46662000  0.21728000  1.0
  C  C39  1  0.51093000  0.40057000  0.24923000  1.0
  C  C40  1  0.50771000  0.36548000  0.21676000  1.0
  C  C41  1  0.47562000  0.46661000  0.31611000  1.0
  C  C42  1  0.48912000  0.40057000  0.35020000  1.0
  C  C43  1  0.49231000  0.36547000  0.41777000  1.0
  C  C44  1  0.50000000  0.16742000  0.41629000  1.0
  C  C45  1  0.50003000  0.29984000  0.35008000  1.0
  C  C46  1  0.50002000  0.49924000  0.25038000  1.0
  C  C47  1  0.50003000  0.36682000  0.31659000  1.0
  C  C48  1  0.52443000  0.94939000  0.35056000  1.0
  C  C49  1  0.51092000  0.91744000  0.31646000  1.0
  C  C50  1  0.50771000  0.94991000  0.24890000  1.0
  C  C51  1  0.47560000  0.85057000  0.44938000  1.0
  C  C52  1  0.48909000  0.81646000  0.41743000  1.0
  C  C53  1  0.49230000  0.74891000  0.44990000  1.0
  C  C54  1  0.52440000  0.71728000  0.31611000  1.0
  C  C55  1  0.51091000  0.74924000  0.35020000  1.0
  C  C56  1  0.50770000  0.71677000  0.41776000  1.0
  C  C57  1  0.47557000  0.81611000  0.21728000  1.0
  C  C58  1  0.48908000  0.85021000  0.24923000  1.0
  C  C59  1  0.49228000  0.91777000  0.21676000  1.0
  C  C60  1  0.50002000  0.91628000  0.41629000  1.0
  C  C61  1  0.50000000  0.85008000  0.35008000  1.0
  C  C62  1  0.49998000  0.75038000  0.25038000  1.0
  C  C63  1  0.50000000  0.81659000  0.31659000  1.0
  C  C64  1  0.52440000  0.85056000  0.70005000  1.0
  C  C65  1  0.51091000  0.81646000  0.76611000  1.0
  C  C66  1  0.50770000  0.74891000  0.80119000  1.0
  C  C67  1  0.47559000  0.94939000  0.70005000  1.0
  C  C68  1  0.48909000  0.91744000  0.76610000  1.0
  C  C69  1  0.49230000  0.94991000  0.80119000  1.0
  C  C70  1  0.52443000  0.81611000  0.96661000  1.0
  C  C71  1  0.51092000  0.85021000  0.90056000  1.0
  C  C72  1  0.50772000  0.91777000  0.86547000  1.0
  C  C73  1  0.47559000  0.71729000  0.96661000  1.0
  C  C74  1  0.48909000  0.74924000  0.90056000  1.0
  C  C75  1  0.49228000  0.71677000  0.86547000  1.0
  C  C76  1  0.49999000  0.91628000  0.66743000  1.0
  C  C77  1  0.50000000  0.85007000  0.79985000  1.0
  C  C78  1  0.50001000  0.75038000  0.99924000  1.0
  C  C79  1  0.50000000  0.81659000  0.86682000  1.0
  O  O80  1  0.73471000  0.99199000  0.43862000  1.0
  O  O81  1  0.73471000  0.93862000  0.56938000  1.0
  O  O82  1  0.73468000  0.06939000  0.49199000  1.0
  O  O83  1  0.26531000  0.93863000  0.49199000  1.0
  O  O84  1  0.26532000  0.06939000  0.43862000  1.0
  O  O85  1  0.26529000  0.99200000  0.56938000  1.0
  O  O86  1  0.73471000  0.72805000  0.09728000  1.0
  O  O87  1  0.73473000  0.59728000  0.17467000  1.0
  O  O88  1  0.73469000  0.67468000  0.22804000  1.0
  O  O89  1  0.26533000  0.67468000  0.09728000  1.0
  O  O90  1  0.26529000  0.72805000  0.17467000  1.0
  O  O91  1  0.26529000  0.59729000  0.22804000  1.0
