# generated using pymatgen
data_Zn3H28C44(NO3)4
_symmetry_space_group_name_H-M   'P 1'
_cell_length_a   21.22632111
_cell_length_b   21.22640000
_cell_length_c   21.22650000
_cell_angle_alpha   117.45610000
_cell_angle_beta   94.46620236
_cell_angle_gamma   117.45587066
_symmetry_Int_Tables_number   1
_chemical_formula_structural   Zn3H28C44(NO3)4
_chemical_formula_sum   'Zn6 H56 C88 N8 O24'
_cell_volume   6999.62887687
_cell_formula_units_Z   2
loop_
 _symmetry_equiv_pos_site_id
 _symmetry_equiv_pos_as_xyz
  1  'x, y, z'
loop_
 _atom_site_type_symbol
 _atom_site_label
 _atom_site_symmetry_multiplicity
 _atom_site_fract_x
 _atom_site_fract_y
 _atom_site_fract_z
 _atom_site_occupancy
  Zn  Zn0  1  0.50001000  0.55839000  0.05841000  1.0
  Zn  Zn1  1  0.04444000  1.00000000  0.04444000  1.0
  Zn  Zn2  1  0.95555000  0.00000000  0.95555000  1.0
  Zn  Zn3  1  0.05841000  0.55840000  0.50002000  1.0
  Zn  Zn4  1  0.50001000  0.44160000  0.94162000  1.0
  Zn  Zn5  1  0.94162000  0.44161000  0.50001000  1.0
  H  H6  1  0.61067000  0.87764000  0.07993000  1.0
  H  H7  1  0.07993000  0.46926000  0.20230000  1.0
  H  H8  1  0.29094000  0.23468000  0.73245000  1.0
  H  H9  1  0.96382000  0.42283000  0.30965000  1.0
  H  H10  1  0.96362000  0.52096000  0.29436000  1.0
  H  H11  1  0.97468000  0.46984000  0.20552000  1.0
  H  H12  1  0.05626000  0.55849000  0.29095000  1.0
  H  H13  1  0.54099000  0.65416000  0.96382000  1.0
  H  H14  1  0.44266000  0.66925000  0.96362000  1.0
  H  H15  1  0.50484000  0.76915000  0.97468000  1.0
  H  H16  1  0.49776000  0.76530000  0.05625000  1.0
  H  H17  1  0.88682000  0.57717000  0.54099000  1.0
  H  H18  1  0.20230000  0.12237000  0.73304000  1.0
  H  H19  1  0.77341000  0.47905000  0.44267000  1.0
  H  H20  1  0.73569000  0.53017000  0.50485000  1.0
  H  H21  1  0.73245000  0.44151000  0.49776000  1.0
  H  H22  1  0.73303000  0.53074000  0.61066000  1.0
  H  H23  1  0.38933000  0.46927000  0.26697000  1.0
  H  H24  1  0.92006000  0.12236000  0.38933000  1.0
  H  H25  1  0.79770000  0.53074000  0.92006000  1.0
  H  H26  1  0.26696000  0.87764000  0.79769000  1.0
  H  H27  1  0.88533000  0.62737000  0.88804000  1.0
  H  H28  1  0.88805000  0.00272000  0.26068000  1.0
  H  H29  1  0.26068000  0.37263000  0.25796000  1.0
  H  H30  1  0.25796000  0.99729000  0.88533000  1.0
  H  H31  1  0.11466000  0.00272000  0.74203000  1.0
  H  H32  1  0.11194000  0.37263000  0.11465000  1.0
  H  H33  1  0.73931000  0.99729000  0.11195000  1.0
  H  H34  1  0.74202000  0.62737000  0.73931000  1.0
  H  H35  1  0.90168000  0.76652000  0.93517000  1.0
  H  H36  1  0.93517000  0.03349000  0.16865000  1.0
  H  H37  1  0.16865000  0.23348000  0.13516000  1.0
  H  H38  1  0.13516000  0.96651000  0.90168000  1.0
  H  H39  1  0.09831000  0.03349000  0.86483000  1.0
  H  H40  1  0.06482000  0.23348000  0.09831000  1.0
  H  H41  1  0.83133000  0.96651000  0.06482000  1.0
  H  H42  1  0.86483000  0.76652000  0.83134000  1.0
  H  H43  1  0.69035000  0.57717000  0.03617000  1.0
  H  H44  1  0.70563000  0.47904000  0.03636000  1.0
  H  H45  1  0.79448000  0.53016000  0.02531000  1.0
  H  H46  1  0.70905000  0.44151000  0.94373000  1.0
  H  H47  1  0.03617000  0.34583000  0.45901000  1.0
  H  H48  1  0.03636000  0.33073000  0.55732000  1.0
  H  H49  1  0.02531000  0.23083000  0.49515000  1.0
  H  H50  1  0.94373000  0.23468000  0.50222000  1.0
  H  H51  1  0.45900000  0.42283000  0.11318000  1.0
  H  H52  1  0.55733000  0.52096000  0.22660000  1.0
  H  H53  1  0.49515000  0.46984000  0.26432000  1.0
  H  H54  1  0.50222000  0.55848000  0.26754000  1.0
  H  H55  1  0.11318000  0.65418000  0.69035000  1.0
  H  H56  1  0.22659000  0.66926000  0.70563000  1.0
  H  H57  1  0.26431000  0.76917000  0.79447000  1.0
  H  H58  1  0.26754000  0.76532000  0.70905000  1.0
  H  H59  1  0.30966000  0.34583000  0.88683000  1.0
  H  H60  1  0.29437000  0.33074000  0.77341000  1.0
  H  H61  1  0.20553000  0.23085000  0.73569000  1.0
  C  C62  1  0.61842000  0.61841000  0.99999000  1.0
  C  C63  1  0.97330000  0.16760000  0.23750000  1.0
  C  C64  1  0.14688000  0.77992000  0.75143000  1.0
  C  C65  1  0.24857000  0.22008000  0.85312000  1.0
  C  C66  1  0.02849000  0.39545000  0.24857000  1.0
  C  C67  1  0.63303000  0.77991000  0.02848000  1.0
  C  C68  1  0.85312000  0.60455000  0.63304000  1.0
  C  C69  1  0.75143000  0.60456000  0.97151000  1.0
  C  C70  1  0.97151000  0.22008000  0.36696000  1.0
  C  C71  1  0.36696000  0.39545000  0.14688000  1.0
  C  C72  1  0.23750000  0.26420000  0.06990000  1.0
  C  C73  1  0.79799000  0.58689000  0.93334000  1.0
  C  C74  1  0.93334000  0.13535000  0.34645000  1.0
  C  C75  1  0.34646000  0.41312000  0.21111000  1.0
  C  C76  1  0.21111000  0.86465000  0.79800000  1.0
  C  C77  1  0.20201000  0.13536000  0.78889000  1.0
  C  C78  1  0.06664000  0.41311000  0.20200000  1.0
  C  C79  1  0.65353000  0.86464000  0.06665000  1.0
  C  C80  1  0.06989000  0.83239000  0.80570000  1.0
  C  C81  1  0.78889000  0.58689000  0.65353000  1.0
  C  C82  1  0.84912000  0.64284000  0.91664000  1.0
  C  C83  1  0.19429000  0.16760000  0.93010000  1.0
  C  C84  1  0.91664000  0.06752000  0.27381000  1.0
  C  C85  1  0.27381000  0.35717000  0.20628000  1.0
  C  C86  1  0.20628000  0.93248000  0.84911000  1.0
  C  C87  1  0.15087000  0.06753000  0.79371000  1.0
  C  C88  1  0.08334000  0.35716000  0.15087000  1.0
  C  C89  1  0.72618000  0.93248000  0.08335000  1.0
  C  C90  1  0.79371000  0.64284000  0.72618000  1.0
  C  C91  1  0.02669000  0.26419000  0.19429000  1.0
  C  C92  1  0.85675000  0.71894000  0.94072000  1.0
  C  C93  1  0.94073000  0.08397000  0.22179000  1.0
  C  C94  1  0.22179000  0.28106000  0.13781000  1.0
  C  C95  1  0.13781000  0.91602000  0.85675000  1.0
  C  C96  1  0.14323000  0.08397000  0.86217000  1.0
  C  C97  1  0.76249000  0.83239000  0.02669000  1.0
  C  C98  1  0.05926000  0.28106000  0.14324000  1.0
  C  C99  1  0.77819000  0.91602000  0.05926000  1.0
  C  C100  1  0.86217000  0.71893000  0.77819000  1.0
  C  C101  1  0.93010000  0.73580000  0.76250000  1.0
  C  C102  1  0.73233000  0.49947000  0.00146000  1.0
  C  C103  1  0.00146000  0.26913000  0.50199000  1.0
  C  C104  1  0.50200000  0.50053000  0.23287000  1.0
  C  C105  1  0.23286000  0.73086000  0.73233000  1.0
  C  C106  1  0.26767000  0.26914000  0.76714000  1.0
  C  C107  1  0.99853000  0.50053000  0.26767000  1.0
  C  C108  1  0.49800000  0.73086000  0.99853000  1.0
  C  C109  1  0.76714000  0.49947000  0.49800000  1.0
  C  C110  1  0.80570000  0.73581000  0.97330000  1.0
  C  C111  1  0.00001000  0.38159000  0.38158000  1.0
  C  C112  1  0.74487000  0.67377000  0.98130000  1.0
  C  C113  1  0.98131000  0.23644000  0.30754000  1.0
  C  C114  1  0.30754000  0.32623000  0.07110000  1.0
  C  C115  1  0.07110000  0.76356000  0.74487000  1.0
  C  C116  1  0.25513000  0.23645000  0.92890000  1.0
  C  C117  1  0.38158000  0.38157000  1.00000000  1.0
  C  C118  1  0.01868000  0.32623000  0.25512000  1.0
  C  C119  1  0.69245000  0.76356000  0.01868000  1.0
  C  C120  1  0.92889000  0.67376000  0.69245000  1.0
  C  C121  1  0.00000000  0.61842000  0.61843000  1.0
  C  C122  1  0.81456000  0.81457000  0.99999000  1.0
  C  C123  1  0.00000000  0.18543000  0.18542000  1.0
  C  C124  1  0.18542000  0.18543000  0.99999000  1.0
  C  C125  1  0.99999000  0.81456000  0.81456000  1.0
  C  C126  1  0.68669000  0.68670000  0.00000000  1.0
  C  C127  1  0.00000000  0.31331000  0.31330000  1.0
  C  C128  1  0.31330000  0.31330000  0.99999000  1.0
  C  C129  1  0.99999000  0.68669000  0.68669000  1.0
  C  C130  1  0.00000000  0.11724000  0.11724000  1.0
  C  C131  1  0.11723000  0.11724000  0.99999000  1.0
  C  C132  1  0.00000000  0.88276000  0.88277000  1.0
  C  C133  1  0.88275000  0.88276000  0.99998000  1.0
  C  C134  1  0.58997000  0.50000000  0.08997000  1.0
  C  C135  1  0.08998000  0.50000000  0.58998000  1.0
  C  C136  1  0.41007000  0.50000000  0.91007000  1.0
  C  C137  1  0.91007000  0.50000000  0.41007000  1.0
  C  C138  1  0.63955000  0.50000000  0.13955000  1.0
  C  C139  1  0.13956000  0.50001000  0.63956000  1.0
  C  C140  1  0.36051000  0.50001000  0.86050000  1.0
  C  C141  1  0.86049000  0.50000000  0.36049000  1.0
  C  C142  1  0.68227000  0.50000000  0.18227000  1.0
  C  C143  1  0.18228000  0.50001000  0.68228000  1.0
  C  C144  1  0.31777000  0.50000000  0.81777000  1.0
  C  C145  1  0.81777000  0.50000000  0.31777000  1.0
  C  C146  1  0.72854000  0.50000000  0.22854000  1.0
  C  C147  1  0.22855000  0.50001000  0.72855000  1.0
  C  C148  1  0.27151000  0.50000000  0.77151000  1.0
  C  C149  1  0.77150000  0.50000000  0.27151000  1.0
  N  N150  1  0.71582000  0.55793000  0.00044000  1.0
  N  N151  1  0.00044000  0.28462000  0.44250000  1.0
  N  N152  1  0.44251000  0.44207000  0.15789000  1.0
  N  N153  1  0.15789000  0.71538000  0.71582000  1.0
  N  N154  1  0.28418000  0.28463000  0.84212000  1.0
  N  N155  1  0.99955000  0.44206000  0.28417000  1.0
  N  N156  1  0.55748000  0.71537000  0.99955000  1.0
  N  N157  1  0.84211000  0.55794000  0.55749000  1.0
  O  O158  1  0.60171000  0.64019000  0.06024000  1.0
  O  O159  1  0.06025000  0.45854000  0.42006000  1.0
  O  O160  1  0.42005000  0.35981000  0.96152000  1.0
  O  O161  1  0.96151000  0.54146000  0.60171000  1.0
  O  O162  1  0.39831000  0.45854000  0.03849000  1.0
  O  O163  1  0.93978000  0.35983000  0.39831000  1.0
  O  O164  1  0.57995000  0.54146000  0.93976000  1.0
  O  O165  1  0.03848000  0.64017000  0.57995000  1.0
  O  O166  1  0.56172000  0.54294000  0.12142000  1.0
  O  O167  1  0.12142000  0.55970000  0.57848000  1.0
  O  O168  1  0.57848000  0.45707000  0.01878000  1.0
  O  O169  1  0.01878000  0.44030000  0.56171000  1.0
  O  O170  1  0.43833000  0.55972000  0.98126000  1.0
  O  O171  1  0.87861000  0.45708000  0.43833000  1.0
  O  O172  1  0.42154000  0.44028000  0.87862000  1.0
  O  O173  1  0.98126000  0.54293000  0.42154000  1.0
  O  O174  1  0.94833000  0.07712000  0.05275000  1.0
  O  O175  1  0.05274000  0.10442000  0.97563000  1.0
  O  O176  1  0.97563000  0.92288000  0.87121000  1.0
  O  O177  1  0.87121000  0.89559000  0.94833000  1.0
  O  O178  1  0.05167000  0.10442000  0.12879000  1.0
  O  O179  1  0.94724000  0.92288000  0.05166000  1.0
  O  O180  1  0.02437000  0.89558000  0.94725000  1.0
  O  O181  1  0.12878000  0.07712000  0.02436000  1.0
