# generated using pymatgen
data_AlH9C10N2O5
_symmetry_space_group_name_H-M   'P 1'
_cell_length_a   6.68166000
_cell_length_b   8.80890000
_cell_length_c   15.04775816
_cell_angle_alpha   89.54893173
_cell_angle_beta   78.00975353
_cell_angle_gamma   74.87800000
_symmetry_Int_Tables_number   1
_chemical_formula_structural   AlH9C10N2O5
_chemical_formula_sum   'Al2 H18 C20 N4 O10'
_cell_volume   835.35240522
_cell_formula_units_Z   2
loop_
 _symmetry_equiv_pos_site_id
 _symmetry_equiv_pos_as_xyz
  1  'x, y, z'
loop_
 _atom_site_type_symbol
 _atom_site_label
 _atom_site_symmetry_multiplicity
 _atom_site_fract_x
 _atom_site_fract_y
 _atom_site_fract_z
 _atom_site_occupancy
  Al  Al0  1  0.50003000  0.99990000  0.50003000  1.0
  Al  Al1  1  0.00003000  0.99989000  0.50003000  1.0
  H  H2  1  0.22265000  0.92713000  0.61086000  1.0
  H  H3  1  0.77715000  0.07315000  0.38929000  1.0
  H  H4  1  0.11667000  0.88059000  0.23203000  1.0
  H  H5  1  0.19018000  0.71760000  0.08768000  1.0
  H  H6  1  0.82536000  0.51331000  0.12262000  1.0
  H  H7  1  0.17468000  0.48694000  0.87724000  1.0
  H  H8  1  0.80964000  0.28246000  0.91235000  1.0
  H  H9  1  0.88324000  0.11938000  0.76804000  1.0
  H  H10  1  0.94999000  0.57293000  0.24375000  1.0
  H  H11  1  0.75872000  0.61104000  0.34826000  1.0
  H  H12  1  0.84795000  0.76657000  0.29543000  1.0
  H  H13  1  0.15200000  0.23357000  0.70455000  1.0
  H  H14  1  0.24141000  0.38896000  0.65161000  1.0
  H  H15  1  0.05012000  0.42730000  0.75609000  1.0
  H  H16  1  0.74729000  0.36807000  0.51716000  1.0
  H  H17  1  0.58033000  0.55758000  0.54521000  1.0
  H  H18  1  0.25262000  0.63187000  0.48294000  1.0
  H  H19  1  0.41975000  0.44239000  0.45487000  1.0
  C  C20  1  0.84033000  0.71877000  0.51841000  1.0
  C  C21  1  0.63669000  0.11370000  0.65406000  1.0
  C  C22  1  0.15977000  0.28107000  0.48163000  1.0
  C  C23  1  0.36333000  0.88615000  0.34599000  1.0
  C  C24  1  0.42804000  0.78905000  0.25885000  1.0
  C  C25  1  0.27218000  0.79957000  0.20696000  1.0
  C  C26  1  0.31150000  0.70956000  0.12722000  1.0
  C  C27  1  0.51357000  0.60481000  0.09765000  1.0
  C  C28  1  0.67044000  0.59564000  0.14801000  1.0
  C  C29  1  0.63289000  0.68464000  0.22934000  1.0
  C  C30  1  0.32957000  0.40453000  0.85189000  1.0
  C  C31  1  0.48635000  0.39531000  0.90229000  1.0
  C  C32  1  0.68839000  0.29050000  0.87278000  1.0
  C  C33  1  0.72775000  0.20047000  0.79306000  1.0
  C  C34  1  0.57196000  0.21097000  0.74113000  1.0
  C  C35  1  0.36716000  0.31546000  0.77057000  1.0
  C  C36  1  0.89480000  0.54549000  0.50865000  1.0
  C  C37  1  0.10525000  0.45438000  0.49136000  1.0
  C  C38  1  0.80709000  0.65780000  0.28160000  1.0
  C  C39  1  0.19298000  0.34233000  0.71829000  1.0
  N  N40  1  0.57551000  0.50409000  0.01850000  1.0
  N  N41  1  0.42437000  0.49605000  0.98145000  1.0
  N  N42  1  0.72138000  0.48635000  0.51224000  1.0
  N  N43  1  0.27861000  0.51355000  0.48777000  1.0
  O  O44  1  0.64351000  0.79203000  0.52937000  1.0
  O  O45  1  0.83585000  0.06405000  0.62065000  1.0
  O  O46  1  0.01014000  0.21353000  0.48461000  1.0
  O  O47  1  0.50722000  0.91341000  0.38240000  1.0
  O  O48  1  0.35660000  0.20785000  0.47070000  1.0
  O  O49  1  0.16421000  0.93558000  0.37943000  1.0
  O  O50  1  0.98999000  0.78627000  0.51542000  1.0
  O  O51  1  0.49275000  0.08648000  0.61765000  1.0
  O  O52  1  0.24410000  0.95276000  0.54751000  1.0
  O  O53  1  0.75594000  0.04708000  0.45256000  1.0
