# generated using pymatgen
data_CuH6C9S3N5
_symmetry_space_group_name_H-M   'P 1'
_cell_length_a   8.39096000
_cell_length_b   11.07710000
_cell_length_c   13.78870000
_cell_angle_alpha   90.00020000
_cell_angle_beta   90.00010000
_cell_angle_gamma   111.14900000
_symmetry_Int_Tables_number   1
_chemical_formula_structural   CuH6C9S3N5
_chemical_formula_sum   'Cu4 H24 C36 S12 N20'
_cell_volume   1195.30177768
_cell_formula_units_Z   4
loop_
 _symmetry_equiv_pos_site_id
 _symmetry_equiv_pos_as_xyz
  1  'x, y, z'
loop_
 _atom_site_type_symbol
 _atom_site_label
 _atom_site_symmetry_multiplicity
 _atom_site_fract_x
 _atom_site_fract_y
 _atom_site_fract_z
 _atom_site_occupancy
  Cu  Cu0  1  0.75033000  0.60449000  0.74551000  1.0
  Cu  Cu1  1  0.24967000  0.89551000  0.24551000  1.0
  Cu  Cu2  1  0.24966000  0.39551000  0.25449000  1.0
  Cu  Cu3  1  0.75033000  0.10449000  0.75449000  1.0
  H  H4  1  0.00707000  0.02963000  0.19145000  1.0
  H  H5  1  0.99293000  0.47037000  0.69145000  1.0
  H  H6  1  0.99293000  0.97037000  0.80855000  1.0
  H  H7  1  0.00707000  0.52963000  0.30855000  1.0
  H  H8  1  0.76360000  0.06827000  0.27674000  1.0
  H  H9  1  0.23640000  0.43173000  0.77675000  1.0
  H  H10  1  0.23640000  0.93173000  0.72325000  1.0
  H  H11  1  0.76360000  0.56827000  0.22325000  1.0
  H  H12  1  0.66490000  0.95247000  0.43701000  1.0
  H  H13  1  0.33510000  0.54752000  0.93702000  1.0
  H  H14  1  0.33510000  0.04753000  0.56299000  1.0
  H  H15  1  0.66490000  0.45247000  0.06298000  1.0
  H  H16  1  0.49870000  0.35589000  0.65161000  1.0
  H  H17  1  0.50130000  0.14411000  0.15161000  1.0
  H  H18  1  0.50129000  0.64412000  0.34839000  1.0
  H  H19  1  0.49870000  0.85589000  0.84839000  1.0
  H  H20  1  0.43596000  0.26537000  0.48166000  1.0
  H  H21  1  0.56404000  0.23463000  0.98166000  1.0
  H  H22  1  0.56404000  0.73463000  0.51834000  1.0
  H  H23  1  0.43597000  0.76537000  0.01834000  1.0
  H  H24  1  0.64184000  0.38585000  0.34959000  1.0
  H  H25  1  0.35816000  0.11414000  0.84959000  1.0
  H  H26  1  0.35817000  0.61414000  0.65042000  1.0
  H  H27  1  0.64184000  0.88585000  0.15042000  1.0
  C  C28  1  0.98261000  0.85993000  0.38972000  1.0
  C  C29  1  0.01740000  0.64007000  0.88973000  1.0
  C  C30  1  0.01740000  0.14007000  0.61028000  1.0
  C  C31  1  0.98260000  0.35993000  0.11027000  1.0
  C  C32  1  0.96108000  0.98668000  0.26193000  1.0
  C  C33  1  0.03893000  0.51331000  0.76193000  1.0
  C  C34  1  0.03892000  0.01332000  0.73807000  1.0
  C  C35  1  0.96107000  0.48668000  0.23807000  1.0
  C  C36  1  0.82629000  0.00714000  0.30857000  1.0
  C  C37  1  0.17372000  0.49286000  0.80858000  1.0
  C  C38  1  0.17372000  0.99286000  0.69142000  1.0
  C  C39  1  0.82628000  0.50713000  0.19142000  1.0
  C  C40  1  0.77265000  0.94398000  0.39676000  1.0
  C  C41  1  0.22735000  0.55602000  0.89677000  1.0
  C  C42  1  0.22735000  0.05602000  0.60324000  1.0
  C  C43  1  0.77264000  0.44397000  0.10323000  1.0
  C  C44  1  0.58089000  0.40087000  0.59044000  1.0
  C  C45  1  0.41911000  0.09913000  0.09043000  1.0
  C  C46  1  0.41911000  0.59913000  0.40957000  1.0
  C  C47  1  0.58088000  0.90087000  0.90956000  1.0
  C  C48  1  0.54710000  0.35132000  0.49714000  1.0
  C  C49  1  0.45290000  0.14868000  0.99715000  1.0
  C  C50  1  0.45291000  0.64868000  0.50285000  1.0
  C  C51  1  0.54711000  0.85132000  0.00286000  1.0
  C  C52  1  0.65970000  0.41894000  0.42469000  1.0
  C  C53  1  0.34029000  0.08106000  0.92469000  1.0
  C  C54  1  0.34030000  0.58106000  0.57531000  1.0
  C  C55  1  0.65971000  0.91894000  0.07530000  1.0
  C  C56  1  0.81584000  0.56736000  0.53457000  1.0
  C  C57  1  0.18416000  0.93264000  0.03457000  1.0
  C  C58  1  0.18416000  0.43264000  0.46544000  1.0
  C  C59  1  0.81584000  0.06736000  0.96543000  1.0
  C  C60  1  0.62747000  0.32447000  0.80605000  1.0
  C  C61  1  0.37252000  0.17554000  0.30604000  1.0
  C  C62  1  0.37253000  0.67554000  0.19396000  1.0
  C  C63  1  0.62748000  0.82447000  0.69395000  1.0
  S  S64  1  0.10784000  0.77537000  0.43873000  1.0
  S  S65  1  0.89216000  0.72463000  0.93874000  1.0
  S  S66  1  0.89216000  0.22463000  0.56127000  1.0
  S  S67  1  0.10784000  0.27537000  0.06126000  1.0
  S  S68  1  0.98531000  0.71080000  0.56851000  1.0
  S  S69  1  0.01469000  0.78921000  0.06851000  1.0
  S  S70  1  0.01469000  0.28921000  0.43149000  1.0
  S  S71  1  0.98531000  0.21079000  0.93149000  1.0
  S  S72  1  0.55351000  0.43437000  0.84234000  1.0
  S  S73  1  0.44649000  0.06563000  0.34233000  1.0
  S  S74  1  0.44649000  0.56563000  0.15767000  1.0
  S  S75  1  0.55351000  0.93438000  0.65766000  1.0
  N  N76  1  0.85081000  0.87011000  0.43758000  1.0
  N  N77  1  0.14919000  0.62989000  0.93758000  1.0
  N  N78  1  0.14920000  0.12989000  0.56242000  1.0
  N  N79  1  0.85080000  0.37010000  0.06242000  1.0
  N  N80  1  0.71640000  0.50853000  0.61059000  1.0
  N  N81  1  0.28360000  0.99146000  0.11059000  1.0
  N  N82  1  0.28360000  0.49147000  0.38941000  1.0
  N  N83  1  0.71640000  0.00854000  0.88942000  1.0
  N  N84  1  0.67840000  0.24395000  0.77811000  1.0
  N  N85  1  0.32160000  0.25605000  0.27811000  1.0
  N  N86  1  0.32160000  0.75605000  0.22189000  1.0
  N  N87  1  0.67840000  0.74396000  0.72189000  1.0
  N  N88  1  0.03949000  0.91154000  0.30151000  1.0
  N  N89  1  0.96052000  0.58846000  0.80151000  1.0
  N  N90  1  0.96052000  0.08846000  0.69849000  1.0
  N  N91  1  0.03948000  0.41154000  0.19849000  1.0
  N  N92  1  0.79337000  0.52790000  0.44267000  1.0
  N  N93  1  0.20663000  0.97210000  0.94268000  1.0
  N  N94  1  0.20663000  0.47210000  0.55733000  1.0
  N  N95  1  0.79337000  0.02790000  0.05733000  1.0
