# generated using pymatgen
data_ZnH10C10S(N2O)2
_symmetry_space_group_name_H-M   'P 1'
_cell_length_a   9.59327000
_cell_length_b   11.92560000
_cell_length_c   13.99000000
_cell_angle_alpha   93.07110000
_cell_angle_beta   90.00000000
_cell_angle_gamma   90.00000000
_symmetry_Int_Tables_number   1
_chemical_formula_structural   ZnH10C10S(N2O)2
_chemical_formula_sum   'Zn4 H40 C40 S4 N16 O8'
_cell_volume   1598.23430260
_cell_formula_units_Z   4
loop_
 _symmetry_equiv_pos_site_id
 _symmetry_equiv_pos_as_xyz
  1  'x, y, z'
loop_
 _atom_site_type_symbol
 _atom_site_label
 _atom_site_symmetry_multiplicity
 _atom_site_fract_x
 _atom_site_fract_y
 _atom_site_fract_z
 _atom_site_occupancy
  Zn  Zn0  1  0.72700000  0.24749000  0.11568000  1.0
  Zn  Zn1  1  0.22700000  0.25251000  0.38432000  1.0
  Zn  Zn2  1  0.27300000  0.75251000  0.88432000  1.0
  Zn  Zn3  1  0.77301000  0.74749000  0.61568000  1.0
  H  H4  1  0.61852000  0.32323000  0.92639000  1.0
  H  H5  1  0.11851000  0.17678000  0.57362000  1.0
  H  H6  1  0.38148000  0.67678000  0.07362000  1.0
  H  H7  1  0.88149000  0.82322000  0.42638000  1.0
  H  H8  1  0.98594000  0.44004000  0.17253000  1.0
  H  H9  1  0.48596000  0.05997000  0.32748000  1.0
  H  H10  1  0.01405000  0.55996000  0.82748000  1.0
  H  H11  1  0.51404000  0.94003000  0.67252000  1.0
  H  H12  1  0.57685000  0.00057000  0.10521000  1.0
  H  H13  1  0.07686000  0.49943000  0.39480000  1.0
  H  H14  1  0.42314000  0.99942000  0.89479000  1.0
  H  H15  1  0.92315000  0.50058000  0.60521000  1.0
  H  H16  1  0.99051000  0.78588000  0.97586000  1.0
  H  H17  1  0.49053000  0.71411000  0.52414000  1.0
  H  H18  1  0.00948000  0.21411000  0.02415000  1.0
  H  H19  1  0.50948000  0.28588000  0.47585000  1.0
  H  H20  1  0.85166000  0.01252000  0.27522000  1.0
  H  H21  1  0.35165000  0.48747000  0.22478000  1.0
  H  H22  1  0.14835000  0.98748000  0.72478000  1.0
  H  H23  1  0.64835000  0.51253000  0.77521000  1.0
  H  H24  1  0.02842000  0.03612000  0.31586000  1.0
  H  H25  1  0.52841000  0.46388000  0.18414000  1.0
  H  H26  1  0.97159000  0.96389000  0.68414000  1.0
  H  H27  1  0.47159000  0.53611000  0.81586000  1.0
  H  H28  1  0.98027000  0.07639000  0.19749000  1.0
  H  H29  1  0.48027000  0.42360000  0.30251000  1.0
  H  H30  1  0.01974000  0.92361000  0.80251000  1.0
  H  H31  1  0.51973000  0.57639000  0.69748000  1.0
  H  H32  1  0.72520000  0.14163000  0.42162000  1.0
  H  H33  1  0.22518000  0.35837000  0.07839000  1.0
  H  H34  1  0.27481000  0.85836000  0.57838000  1.0
  H  H35  1  0.77482000  0.64163000  0.92161000  1.0
  H  H36  1  0.81231000  0.26901000  0.46958000  1.0
  H  H37  1  0.31230000  0.23099000  0.03042000  1.0
  H  H38  1  0.18770000  0.73099000  0.53042000  1.0
  H  H39  1  0.68770000  0.76901000  0.96958000  1.0
  H  H40  1  0.89717000  0.13238000  0.47152000  1.0
  H  H41  1  0.39715000  0.36763000  0.02848000  1.0
  H  H42  1  0.10285000  0.86762000  0.52848000  1.0
  H  H43  1  0.60285000  0.63237000  0.97152000  1.0
  C  C44  1  0.71365000  0.36967000  0.94470000  1.0
  C  C45  1  0.21365000  0.13034000  0.55529000  1.0
  C  C46  1  0.28635000  0.63034000  0.05530000  1.0
  C  C47  1  0.78635000  0.86966000  0.44470000  1.0
  C  C48  1  0.89063000  0.43438000  0.02990000  1.0
  C  C49  1  0.39063000  0.06563000  0.47011000  1.0
  C  C50  1  0.10936000  0.56564000  0.97010000  1.0
  C  C51  1  0.60938000  0.93438000  0.52989000  1.0
  C  C52  1  0.99138000  0.46466000  0.09860000  1.0
  C  C53  1  0.49138000  0.03536000  0.40141000  1.0
  C  C54  1  0.00860000  0.53534000  0.90141000  1.0
  C  C55  1  0.50862000  0.96464000  0.59859000  1.0
  C  C56  1  0.10079000  0.53159000  0.06708000  1.0
  C  C57  1  0.60078000  0.96842000  0.43291000  1.0
  C  C58  1  0.89920000  0.46842000  0.93292000  1.0
  C  C59  1  0.39921000  0.03157000  0.56708000  1.0
  C  C60  1  0.68295000  0.99848000  0.07761000  1.0
  C  C61  1  0.18296000  0.50153000  0.42239000  1.0
  C  C62  1  0.31704000  0.00152000  0.92239000  1.0
  C  C63  1  0.81705000  0.49847000  0.57761000  1.0
  C  C64  1  0.87937000  0.93988000  0.01976000  1.0
  C  C65  1  0.37938000  0.56011000  0.48023000  1.0
  C  C66  1  0.12062000  0.06011000  0.98024000  1.0
  C  C67  1  0.62063000  0.43989000  0.51976000  1.0
  C  C68  1  0.99379000  0.87735000  0.98506000  1.0
  C  C69  1  0.49379000  0.62265000  0.51494000  1.0
  C  C70  1  0.00620000  0.12265000  0.01494000  1.0
  C  C71  1  0.50621000  0.37735000  0.48506000  1.0
  C  C72  1  0.88722000  0.05982000  0.03394000  1.0
  C  C73  1  0.38724000  0.44018000  0.46605000  1.0
  C  C74  1  0.11276000  0.94017000  0.96605000  1.0
  C  C75  1  0.61278000  0.55982000  0.53394000  1.0
  C  C76  1  0.94413000  0.06714000  0.27118000  1.0
  C  C77  1  0.44412000  0.43286000  0.22882000  1.0
  C  C78  1  0.05588000  0.93287000  0.72882000  1.0
  C  C79  1  0.55588000  0.56714000  0.77118000  1.0
  C  C80  1  0.82550000  0.18470000  0.43198000  1.0
  C  C81  1  0.32548000  0.31530000  0.06802000  1.0
  C  C82  1  0.17452000  0.81530000  0.56802000  1.0
  C  C83  1  0.67452000  0.68470000  0.93197000  1.0
  S  S84  1  0.89961000  0.20198000  0.31965000  1.0
  S  S85  1  0.39960000  0.29801000  0.18036000  1.0
  S  S86  1  0.10040000  0.79802000  0.68035000  1.0
  S  S87  1  0.60039000  0.70199000  0.81964000  1.0
  N  N88  1  0.76870000  0.37070000  0.03574000  1.0
  N  N89  1  0.26870000  0.12931000  0.46426000  1.0
  N  N90  1  0.23130000  0.62930000  0.96426000  1.0
  N  N91  1  0.73130000  0.87069000  0.53574000  1.0
  N  N92  1  0.75955000  0.09454000  0.07178000  1.0
  N  N93  1  0.25956000  0.40546000  0.42822000  1.0
  N  N94  1  0.24044000  0.90545000  0.92822000  1.0
  N  N95  1  0.74045000  0.59454000  0.57178000  1.0
  N  N96  1  0.74785000  0.90461000  0.04717000  1.0
  N  N97  1  0.24786000  0.59539000  0.45283000  1.0
  N  N98  1  0.25214000  0.09539000  0.95283000  1.0
  N  N99  1  0.75215000  0.40461000  0.54717000  1.0
  N  N100  1  0.21558000  0.57336000  0.11814000  1.0
  N  N101  1  0.71559000  0.92665000  0.38187000  1.0
  N  N102  1  0.78441000  0.42664000  0.88186000  1.0
  N  N103  1  0.28441000  0.07335000  0.61813000  1.0
  O  O104  1  0.79676000  0.25600000  0.25920000  1.0
  O  O105  1  0.29676000  0.24399000  0.24081000  1.0
  O  O106  1  0.20324000  0.74400000  0.74080000  1.0
  O  O107  1  0.70324000  0.75601000  0.75919000  1.0
  O  O108  1  0.02814000  0.26892000  0.33241000  1.0
  O  O109  1  0.52815000  0.23108000  0.16758000  1.0
  O  O110  1  0.97186000  0.73108000  0.66759000  1.0
  O  O111  1  0.47185000  0.76892000  0.83242000  1.0
