# generated using pymatgen
data_MgH8C4(NO3)2
_symmetry_space_group_name_H-M   'P 1'
_cell_length_a   8.46012000
_cell_length_b   8.64400000
_cell_length_c   12.12290000
_cell_angle_alpha   89.08070000
_cell_angle_beta   89.99980000
_cell_angle_gamma   89.99990000
_symmetry_Int_Tables_number   1
_chemical_formula_structural   MgH8C4(NO3)2
_chemical_formula_sum   'Mg4 H32 C16 N8 O24'
_cell_volume   886.42480447
_cell_formula_units_Z   4
loop_
 _symmetry_equiv_pos_site_id
 _symmetry_equiv_pos_as_xyz
  1  'x, y, z'
loop_
 _atom_site_type_symbol
 _atom_site_label
 _atom_site_symmetry_multiplicity
 _atom_site_fract_x
 _atom_site_fract_y
 _atom_site_fract_z
 _atom_site_occupancy
  Mg  Mg0  1  0.00000000  0.00000000  0.50000000  1.0
  Mg  Mg1  1  0.50000000  0.00000000  0.00000000  1.0
  Mg  Mg2  1  0.50000000  0.50000000  0.50000000  1.0
  Mg  Mg3  1  0.00000000  0.50000000  1.00000000  1.0
  H  H4  1  0.14427000  0.98866000  0.87335000  1.0
  H  H5  1  0.64427000  0.01134000  0.62664000  1.0
  H  H6  1  0.85573000  0.01134000  0.12665000  1.0
  H  H7  1  0.35573000  0.98866000  0.37335000  1.0
  H  H8  1  0.20486000  0.29563000  0.54735000  1.0
  H  H9  1  0.70486000  0.70437000  0.95266000  1.0
  H  H10  1  0.79514000  0.70437000  0.45265000  1.0
  H  H11  1  0.29514000  0.29563000  0.04734000  1.0
  H  H12  1  0.36684000  0.46146000  0.82332000  1.0
  H  H13  1  0.86684000  0.53854000  0.67668000  1.0
  H  H14  1  0.63316000  0.53854000  0.17668000  1.0
  H  H15  1  0.13316000  0.46146000  0.32331000  1.0
  H  H16  1  0.45093000  0.71152000  0.83878000  1.0
  H  H17  1  0.95093000  0.28848000  0.66122000  1.0
  H  H18  1  0.54907000  0.28848000  0.16122000  1.0
  H  H19  1  0.04907000  0.71152000  0.33878000  1.0
  H  H20  1  0.52328000  0.71714000  0.69949000  1.0
  H  H21  1  0.02328000  0.28286000  0.80051000  1.0
  H  H22  1  0.47672000  0.28286000  0.30051000  1.0
  H  H23  1  0.97672000  0.71714000  0.19949000  1.0
  H  H24  1  0.28038000  0.78160000  0.58298000  1.0
  H  H25  1  0.78038000  0.21840000  0.91702000  1.0
  H  H26  1  0.71962000  0.21840000  0.41702000  1.0
  H  H27  1  0.21962000  0.78160000  0.08298000  1.0
  H  H28  1  0.93968000  0.81710000  0.71466000  1.0
  H  H29  1  0.43968000  0.18290000  0.78534000  1.0
  H  H30  1  0.06032000  0.18290000  0.28534000  1.0
  H  H31  1  0.56032000  0.81710000  0.21466000  1.0
  H  H32  1  0.02441000  0.82237000  0.89093000  1.0
  H  H33  1  0.52441000  0.17763000  0.60907000  1.0
  H  H34  1  0.97559000  0.17763000  0.10907000  1.0
  H  H35  1  0.47559000  0.82237000  0.39093000  1.0
  C  C36  1  0.27303000  0.22959000  0.48599000  1.0
  C  C37  1  0.77304000  0.77041000  0.01401000  1.0
  C  C38  1  0.72697000  0.77041000  0.51401000  1.0
  C  C39  1  0.22696000  0.22959000  0.98599000  1.0
  C  C40  1  0.22034000  0.72150000  0.51425000  1.0
  C  C41  1  0.72034000  0.27850000  0.98575000  1.0
  C  C42  1  0.77966000  0.27850000  0.48575000  1.0
  C  C43  1  0.27967000  0.72150000  0.01425000  1.0
  C  C44  1  0.02277000  0.90988000  0.73644000  1.0
  C  C45  1  0.52277000  0.09012000  0.76356000  1.0
  C  C46  1  0.97723000  0.09012000  0.26356000  1.0
  C  C47  1  0.47723000  0.90988000  0.23644000  1.0
  C  C48  1  0.42348000  0.51466000  0.75000000  1.0
  C  C49  1  0.92348000  0.48534000  0.75000000  1.0
  C  C50  1  0.57652000  0.48534000  0.25000000  1.0
  C  C51  1  0.07652000  0.51466000  0.25000000  1.0
  N  N52  1  0.06554000  0.90938000  0.84137000  1.0
  N  N53  1  0.56554000  0.09061000  0.65863000  1.0
  N  N54  1  0.93446000  0.09061000  0.15863000  1.0
  N  N55  1  0.43446000  0.90939000  0.34137000  1.0
  N  N56  1  0.46925000  0.65953000  0.76372000  1.0
  N  N57  1  0.96925000  0.34047000  0.73628000  1.0
  N  N58  1  0.53075000  0.34047000  0.23628000  1.0
  N  N59  1  0.03075000  0.65953000  0.26372000  1.0
  O  O60  1  0.21495000  0.10375000  0.45193000  1.0
  O  O61  1  0.71495000  0.89625000  0.04807000  1.0
  O  O62  1  0.78505000  0.89625000  0.54807000  1.0
  O  O63  1  0.28505000  0.10375000  0.95193000  1.0
  O  O64  1  0.09369000  0.78230000  0.47726000  1.0
  O  O65  1  0.59369000  0.21770000  0.02274000  1.0
  O  O66  1  0.90631000  0.21770000  0.52274000  1.0
  O  O67  1  0.40631000  0.78230000  0.97726000  1.0
  O  O68  1  0.06946000  0.00657000  0.66496000  1.0
  O  O69  1  0.56946000  0.99343000  0.83504000  1.0
  O  O70  1  0.93054000  0.99343000  0.33504000  1.0
  O  O71  1  0.43054000  0.00657000  0.16496000  1.0
  O  O72  1  0.28180000  0.59998000  0.47736000  1.0
  O  O73  1  0.78180000  0.40002000  0.02264000  1.0
  O  O74  1  0.71820000  0.40002000  0.52264000  1.0
  O  O75  1  0.21820000  0.59998000  0.97736000  1.0
  O  O76  1  0.40527000  0.28450000  0.45442000  1.0
  O  O77  1  0.90527000  0.71550000  0.04558000  1.0
  O  O78  1  0.59473000  0.71550000  0.54558000  1.0
  O  O79  1  0.09473000  0.28450000  0.95442000  1.0
  O  O80  1  0.43904000  0.43910000  0.66270000  1.0
  O  O81  1  0.93904000  0.56090000  0.83730000  1.0
  O  O82  1  0.56095000  0.56090000  0.33730000  1.0
  O  O83  1  0.06095000  0.43910000  0.16270000  1.0
