# generated using pymatgen
data_SmPH7C3O10
_symmetry_space_group_name_H-M   'P 1'
_cell_length_a   6.85270000
_cell_length_b   10.16650000
_cell_length_c   13.29220000
_cell_angle_alpha   89.99980000
_cell_angle_beta   89.99990000
_cell_angle_gamma   79.09700000
_symmetry_Int_Tables_number   1
_chemical_formula_structural   SmPH7C3O10
_chemical_formula_sum   'Sm4 P4 H28 C12 O40'
_cell_volume   909.32451587
_cell_formula_units_Z   4
loop_
 _symmetry_equiv_pos_site_id
 _symmetry_equiv_pos_as_xyz
  1  'x, y, z'
loop_
 _atom_site_type_symbol
 _atom_site_label
 _atom_site_symmetry_multiplicity
 _atom_site_fract_x
 _atom_site_fract_y
 _atom_site_fract_z
 _atom_site_occupancy
  Sm  Sm0  1  0.84227000  0.27916000  0.10192000  1.0
  Sm  Sm1  1  0.15771000  0.22084000  0.60192000  1.0
  Sm  Sm2  1  0.15771000  0.72085000  0.89808000  1.0
  Sm  Sm3  1  0.84229000  0.77915000  0.39808000  1.0
  P  P4  1  0.21941000  0.07165000  0.94610000  1.0
  P  P5  1  0.78059000  0.42835000  0.44609000  1.0
  P  P6  1  0.78059000  0.92835000  0.05390000  1.0
  P  P7  1  0.21942000  0.57165000  0.55391000  1.0
  H  H8  1  0.45796000  0.19623000  0.94523000  1.0
  H  H9  1  0.54204000  0.30377000  0.44523000  1.0
  H  H10  1  0.54203000  0.80378000  0.05477000  1.0
  H  H11  1  0.45797000  0.69622000  0.55477000  1.0
  H  H12  1  0.09710000  0.98808000  0.74250000  1.0
  H  H13  1  0.90288000  0.51191000  0.24250000  1.0
  H  H14  1  0.90290000  0.01191000  0.25751000  1.0
  H  H15  1  0.09712000  0.48809000  0.75750000  1.0
  H  H16  1  0.20328000  0.35000000  0.04370000  1.0
  H  H17  1  0.79673000  0.14999000  0.54369000  1.0
  H  H18  1  0.79673000  0.65000000  0.95630000  1.0
  H  H19  1  0.20326000  0.85001000  0.45631000  1.0
  H  H20  1  0.12050000  0.48791000  0.09859000  1.0
  H  H21  1  0.87950000  0.01210000  0.59859000  1.0
  H  H22  1  0.87951000  0.51210000  0.90141000  1.0
  H  H23  1  0.12049000  0.98790000  0.40141000  1.0
  H  H24  1  0.39794000  0.32482000  0.17993000  1.0
  H  H25  1  0.60206000  0.17517000  0.67993000  1.0
  H  H26  1  0.60206000  0.67518000  0.82007000  1.0
  H  H27  1  0.39794000  0.82482000  0.32008000  1.0
  H  H28  1  0.53742000  0.34332000  0.27315000  1.0
  H  H29  1  0.46258000  0.15667000  0.77314000  1.0
  H  H30  1  0.46258000  0.65668000  0.72686000  1.0
  H  H31  1  0.53742000  0.84332000  0.22686000  1.0
  H  H32  1  0.90162000  0.09576000  0.86180000  1.0
  H  H33  1  0.09837000  0.40424000  0.36178000  1.0
  H  H34  1  0.09838000  0.90424000  0.13821000  1.0
  H  H35  1  0.90162000  0.59575000  0.63821000  1.0
  C  C36  1  0.03937000  0.13298000  0.84483000  1.0
  C  C37  1  0.96064000  0.36702000  0.34482000  1.0
  C  C38  1  0.96065000  0.86702000  0.15518000  1.0
  C  C39  1  0.03936000  0.63299000  0.65517000  1.0
  C  C40  1  0.99407000  0.28441000  0.84012000  1.0
  C  C41  1  0.00594000  0.21559000  0.34012000  1.0
  C  C42  1  0.00597000  0.71559000  0.15988000  1.0
  C  C43  1  0.99405000  0.78440000  0.65988000  1.0
  C  C44  1  0.54573000  0.55492000  0.02630000  1.0
  C  C45  1  0.45423000  0.94509000  0.52630000  1.0
  C  C46  1  0.45422000  0.44511000  0.97369000  1.0
  C  C47  1  0.54576000  0.05491000  0.47369000  1.0
  O  O48  1  0.41591000  0.11947000  0.90755000  1.0
  O  O49  1  0.58410000  0.38053000  0.40754000  1.0
  O  O50  1  0.58410000  0.88054000  0.09246000  1.0
  O  O51  1  0.41591000  0.61946000  0.59246000  1.0
  O  O52  1  0.14707000  0.13818000  0.04465000  1.0
  O  O53  1  0.85293000  0.36182000  0.54464000  1.0
  O  O54  1  0.85293000  0.86183000  0.95536000  1.0
  O  O55  1  0.14708000  0.63818000  0.45536000  1.0
  O  O56  1  0.25294000  0.92071000  0.94014000  1.0
  O  O57  1  0.74705000  0.57930000  0.44014000  1.0
  O  O58  1  0.74706000  0.07931000  0.05987000  1.0
  O  O59  1  0.25296000  0.42070000  0.55986000  1.0
  O  O60  1  0.12668000  0.08028000  0.75282000  1.0
  O  O61  1  0.87332000  0.41971000  0.25282000  1.0
  O  O62  1  0.87334000  0.91971000  0.24718000  1.0
  O  O63  1  0.12669000  0.58029000  0.74719000  1.0
  O  O64  1  0.92119000  0.34839000  0.91777000  1.0
  O  O65  1  0.07880000  0.15162000  0.41778000  1.0
  O  O66  1  0.07880000  0.65162000  0.08222000  1.0
  O  O67  1  0.92118000  0.84838000  0.58223000  1.0
  O  O68  1  0.03707000  0.33916000  0.75864000  1.0
  O  O69  1  0.96291000  0.16083000  0.25865000  1.0
  O  O70  1  0.96294000  0.66082000  0.24136000  1.0
  O  O71  1  0.03708000  0.83918000  0.74135000  1.0
  O  O72  1  0.69946000  0.51851000  0.07862000  1.0
  O  O73  1  0.30053000  0.98149000  0.57860000  1.0
  O  O74  1  0.30055000  0.48149000  0.92139000  1.0
  O  O75  1  0.69947000  0.01851000  0.42139000  1.0
  O  O76  1  0.46050000  0.67537000  0.00919000  1.0
  O  O77  1  0.53947000  0.82462000  0.50918000  1.0
  O  O78  1  0.53949000  0.32463000  0.99081000  1.0
  O  O79  1  0.46051000  0.17537000  0.49081000  1.0
  O  O80  1  0.14680000  0.38734000  0.10729000  1.0
  O  O81  1  0.85320000  0.11266000  0.60728000  1.0
  O  O82  1  0.85320000  0.61266000  0.89272000  1.0
  O  O83  1  0.14680000  0.88734000  0.39272000  1.0
  O  O84  1  0.53428000  0.30159000  0.20634000  1.0
  O  O85  1  0.46573000  0.19841000  0.70634000  1.0
  O  O86  1  0.46573000  0.69841000  0.79366000  1.0
  O  O87  1  0.53427000  0.80158000  0.29366000  1.0
