# generated using pymatgen
data_Ag2H12C16S(N2O3)2
_symmetry_space_group_name_H-M   'P 1'
_cell_length_a   7.32106000
_cell_length_b   11.33570000
_cell_length_c   12.74410000
_cell_angle_alpha   70.53120000
_cell_angle_beta   73.33880000
_cell_angle_gamma   71.17910000
_symmetry_Int_Tables_number   1
_chemical_formula_structural   Ag2H12C16S(N2O3)2
_chemical_formula_sum   'Ag4 H24 C32 S2 N8 O12'
_cell_volume   924.61471136
_cell_formula_units_Z   2
loop_
 _symmetry_equiv_pos_site_id
 _symmetry_equiv_pos_as_xyz
  1  'x, y, z'
loop_
 _atom_site_type_symbol
 _atom_site_label
 _atom_site_symmetry_multiplicity
 _atom_site_fract_x
 _atom_site_fract_y
 _atom_site_fract_z
 _atom_site_occupancy
  Ag  Ag0  1  0.35614000  0.41322000  0.65196000  1.0
  Ag  Ag1  1  0.42076000  0.08723000  0.84813000  1.0
  Ag  Ag2  1  0.64385000  0.58678000  0.34803000  1.0
  Ag  Ag3  1  0.57923000  0.91277000  0.15187000  1.0
  H  H4  1  0.86769000  0.39157000  0.02385000  1.0
  H  H5  1  0.28386000  0.10850000  0.47572000  1.0
  H  H6  1  0.13231000  0.60844000  0.97615000  1.0
  H  H7  1  0.71614000  0.89149000  0.52428000  1.0
  H  H8  1  0.58454000  0.45464000  0.17749000  1.0
  H  H9  1  0.21749000  0.04529000  0.32202000  1.0
  H  H10  1  0.41546000  0.54536000  0.82251000  1.0
  H  H11  1  0.78251000  0.95470000  0.67797000  1.0
  H  H12  1  0.39750000  0.82616000  0.94920000  1.0
  H  H13  1  0.17240000  0.67411000  0.55060000  1.0
  H  H14  1  0.60249000  0.17383000  0.05080000  1.0
  H  H15  1  0.82760000  0.32589000  0.44941000  1.0
  H  H16  1  0.67564000  0.76450000  0.79457000  1.0
  H  H17  1  0.23401000  0.73597000  0.70531000  1.0
  H  H18  1  0.32436000  0.23551000  0.20543000  1.0
  H  H19  1  0.76598000  0.26404000  0.29470000  1.0
  H  H20  1  0.25865000  0.60015000  0.22524000  1.0
  H  H21  1  0.08419000  0.89996000  0.27438000  1.0
  H  H22  1  0.74135000  0.39985000  0.77476000  1.0
  H  H23  1  0.91582000  0.10005000  0.72562000  1.0
  H  H24  1  0.18867000  0.75894000  0.13071000  1.0
  H  H25  1  0.07825000  0.74118000  0.36886000  1.0
  H  H26  1  0.81132000  0.24106000  0.86929000  1.0
  H  H27  1  0.92176000  0.25882000  0.63114000  1.0
  C  C28  1  0.95093000  0.54040000  0.81490000  1.0
  C  C29  1  0.30553000  0.96013000  0.68497000  1.0
  C  C30  1  0.04907000  0.45960000  0.18509000  1.0
  C  C31  1  0.69447000  0.03987000  0.31503000  1.0
  C  C32  1  0.79093000  0.57617000  0.90174000  1.0
  C  C33  1  0.26857000  0.92415000  0.59805000  1.0
  C  C34  1  0.20907000  0.42383000  0.09827000  1.0
  C  C35  1  0.73144000  0.07585000  0.40195000  1.0
  C  C36  1  0.76630000  0.48742000  0.00945000  1.0
  C  C37  1  0.26358000  0.01270000  0.49018000  1.0
  C  C38  1  0.23370000  0.51258000  0.99056000  1.0
  C  C39  1  0.73643000  0.98730000  0.50981000  1.0
  C  C40  1  0.60970000  0.52300000  0.09443000  1.0
  C  C41  1  0.22756000  0.97705000  0.40519000  1.0
  C  C42  1  0.39030000  0.47700000  0.90558000  1.0
  C  C43  1  0.77245000  0.02295000  0.59481000  1.0
  C  C44  1  0.47816000  0.64541000  0.07343000  1.0
  C  C45  1  0.19694000  0.85475000  0.42629000  1.0
  C  C46  1  0.52183000  0.35459000  0.92658000  1.0
  C  C47  1  0.80307000  0.14525000  0.57371000  1.0
  C  C48  1  0.50347000  0.73251000  0.96555000  1.0
  C  C49  1  0.20119000  0.76776000  0.53424000  1.0
  C  C50  1  0.49653000  0.26749000  0.03445000  1.0
  C  C51  1  0.79881000  0.23224000  0.46576000  1.0
  C  C52  1  0.65801000  0.69871000  0.87924000  1.0
  C  C53  1  0.23546000  0.80167000  0.62061000  1.0
  C  C54  1  0.34199000  0.30129000  0.12077000  1.0
  C  C55  1  0.76454000  0.19833000  0.37939000  1.0
  C  C56  1  0.31077000  0.68352000  0.16533000  1.0
  C  C57  1  0.15957000  0.81656000  0.33437000  1.0
  C  C58  1  0.68922000  0.31648000  0.83467000  1.0
  C  C59  1  0.84043000  0.18344000  0.66563000  1.0
  S  S60  1  0.39601000  0.75000000  0.24997000  1.0
  S  S61  1  0.60399000  0.25000000  0.75003000  1.0
  N  N62  1  0.08397000  0.50999000  0.74460000  1.0
  N  N63  1  0.33755000  0.99065000  0.75534000  1.0
  N  N64  1  0.91602000  0.49001000  0.25540000  1.0
  N  N65  1  0.66247000  0.00934000  0.24465000  1.0
  N  N66  1  0.31211000  0.36823000  0.44708000  1.0
  N  N67  1  0.12723000  0.13194000  0.05295000  1.0
  N  N68  1  0.68790000  0.63177000  0.55291000  1.0
  N  N69  1  0.87278000  0.86806000  0.94706000  1.0
  O  O70  1  0.34301000  0.47086000  0.45529000  1.0
  O  O71  1  0.26932000  0.02953000  0.04484000  1.0
  O  O72  1  0.65700000  0.52914000  0.54471000  1.0
  O  O73  1  0.73068000  0.97047000  0.95517000  1.0
  O  O74  1  0.27171000  0.28270000  0.53787000  1.0
  O  O75  1  0.09197000  0.21735000  0.96210000  1.0
  O  O76  1  0.72829000  0.71730000  0.46212000  1.0
  O  O77  1  0.90802000  0.78265000  0.03791000  1.0
  O  O78  1  0.32452000  0.35562000  0.35130000  1.0
  O  O79  1  0.03103000  0.14449000  0.14869000  1.0
  O  O80  1  0.67548000  0.64438000  0.64869000  1.0
  O  O81  1  0.96898000  0.85551000  0.85132000  1.0
