# generated using pymatgen
data_CoH12C16(N5O)2
_symmetry_space_group_name_H-M   'P 1'
_cell_length_a   6.11230000
_cell_length_b   7.31296000
_cell_length_c   11.75782648
_cell_angle_alpha   72.00501124
_cell_angle_beta   89.63391707
_cell_angle_gamma   85.94750000
_symmetry_Int_Tables_number   1
_chemical_formula_structural   CoH12C16(N5O)2
_chemical_formula_sum   'Co1 H12 C16 N10 O2'
_cell_volume   498.53861728
_cell_formula_units_Z   1
loop_
 _symmetry_equiv_pos_site_id
 _symmetry_equiv_pos_as_xyz
  1  'x, y, z'
loop_
 _atom_site_type_symbol
 _atom_site_label
 _atom_site_symmetry_multiplicity
 _atom_site_fract_x
 _atom_site_fract_y
 _atom_site_fract_z
 _atom_site_occupancy
  Co  Co0  1  0.00001000  0.00000000  1.00000000  1.0
  H  H1  1  0.11852000  0.67098000  0.60016000  1.0
  H  H2  1  0.88147000  0.32901000  0.39983000  1.0
  H  H3  1  0.34544000  0.62847000  0.69572000  1.0
  H  H4  1  0.65455000  0.37152000  0.30429000  1.0
  H  H5  1  0.82802000  0.95599000  0.23753000  1.0
  H  H6  1  0.17199000  0.04399000  0.76247000  1.0
  H  H7  1  0.96478000  0.83975000  0.44525000  1.0
  H  H8  1  0.03521000  0.16022000  0.55475000  1.0
  H  H9  1  0.60959000  0.75951000  0.30702000  1.0
  H  H10  1  0.39041000  0.24050000  0.69298000  1.0
  H  H11  1  0.44063000  0.88333000  0.10057000  1.0
  H  H12  1  0.55939000  0.11668000  0.89943000  1.0
  C  C13  1  0.23403000  0.37003000  0.92305000  1.0
  C  C14  1  0.76597000  0.62999000  0.07694000  1.0
  C  C15  1  0.29022000  0.67789000  0.91830000  1.0
  C  C16  1  0.70978000  0.32212000  0.08170000  1.0
  C  C17  1  0.99996000  0.90942000  0.25717000  1.0
  C  C18  1  0.00005000  0.09058000  0.74283000  1.0
  C  C19  1  0.08149000  0.84529000  0.37391000  1.0
  C  C20  1  0.91850000  0.15469000  0.62609000  1.0
  C  C21  1  0.30568000  0.79111000  0.39407000  1.0
  C  C22  1  0.69431000  0.20887000  0.60593000  1.0
  C  C23  1  0.43574000  0.80395000  0.29422000  1.0
  C  C24  1  0.56426000  0.19606000  0.70578000  1.0
  C  C25  1  0.34362000  0.87072000  0.17997000  1.0
  C  C26  1  0.65639000  0.12928000  0.82004000  1.0
  C  C27  1  0.41602000  0.72541000  0.51562000  1.0
  C  C28  1  0.58398000  0.27458000  0.48438000  1.0
  N  N29  1  0.16303000  0.21761000  0.95495000  1.0
  N  N30  1  0.83697000  0.78240000  0.04505000  1.0
  N  N31  1  0.32584000  0.53115000  0.87848000  1.0
  N  N32  1  0.67416000  0.46886000  0.12152000  1.0
  N  N33  1  0.26687000  0.82019000  0.94560000  1.0
  N  N34  1  0.73313000  0.17982000  0.05440000  1.0
  N  N35  1  0.12732000  0.92191000  0.16133000  1.0
  N  N36  1  0.87270000  0.07810000  0.83866000  1.0
  N  N37  1  0.28209000  0.67676000  0.61050000  1.0
  N  N38  1  0.71790000  0.32322000  0.38951000  1.0
  O  O39  1  0.61913000  0.71948000  0.52544000  1.0
  O  O40  1  0.38087000  0.28051000  0.47457000  1.0
