# generated using pymatgen
data_CdH7C5N(ClO)2
_symmetry_space_group_name_H-M   'P 1'
_cell_length_a   6.28476000
_cell_length_b   7.36390000
_cell_length_c   19.26980000
_cell_angle_alpha   90.00000000
_cell_angle_beta   89.99940000
_cell_angle_gamma   89.99990000
_symmetry_Int_Tables_number   1
_chemical_formula_structural   CdH7C5N(ClO)2
_chemical_formula_sum   'Cd4 H28 C20 N4 Cl8 O8'
_cell_volume   891.81297592
_cell_formula_units_Z   4
loop_
 _symmetry_equiv_pos_site_id
 _symmetry_equiv_pos_as_xyz
  1  'x, y, z'
loop_
 _atom_site_type_symbol
 _atom_site_label
 _atom_site_symmetry_multiplicity
 _atom_site_fract_x
 _atom_site_fract_y
 _atom_site_fract_z
 _atom_site_occupancy
  Cd  Cd0  1  0.01186000  0.05915000  0.24910000  1.0
  Cd  Cd1  1  0.48814000  0.94085000  0.74910000  1.0
  Cd  Cd2  1  0.98814000  0.55915000  0.25090000  1.0
  Cd  Cd3  1  0.51186000  0.44085000  0.75090000  1.0
  H  H4  1  0.69715000  0.33783000  0.40086000  1.0
  H  H5  1  0.80284000  0.66217000  0.90087000  1.0
  H  H6  1  0.30285000  0.83783000  0.09913000  1.0
  H  H7  1  0.19714000  0.16217000  0.59913000  1.0
  H  H8  1  0.56246000  0.80947000  0.34043000  1.0
  H  H9  1  0.93755000  0.19053000  0.84043000  1.0
  H  H10  1  0.43755000  0.30948000  0.15957000  1.0
  H  H11  1  0.06246000  0.69052000  0.65957000  1.0
  H  H12  1  0.65722000  0.25683000  0.52812000  1.0
  H  H13  1  0.84277000  0.74318000  0.02812000  1.0
  H  H14  1  0.34277000  0.75683000  0.97188000  1.0
  H  H15  1  0.15723000  0.24318000  0.47188000  1.0
  H  H16  1  0.56471000  0.93668000  0.55995000  1.0
  H  H17  1  0.93529000  0.06333000  0.05995000  1.0
  H  H18  1  0.43527000  0.43667000  0.94005000  1.0
  H  H19  1  0.06472000  0.56334000  0.44005000  1.0
  H  H20  1  0.51211000  0.70927000  0.46377000  1.0
  H  H21  1  0.98790000  0.29073000  0.96377000  1.0
  H  H22  1  0.48789000  0.20927000  0.03623000  1.0
  H  H23  1  0.01211000  0.79073000  0.53624000  1.0
  H  H24  1  0.46798000  0.03928000  0.24495000  1.0
  H  H25  1  0.03202000  0.96073000  0.74495000  1.0
  H  H26  1  0.53203000  0.53928000  0.25505000  1.0
  H  H27  1  0.96797000  0.46072000  0.75505000  1.0
  H  H28  1  0.37294000  0.86403000  0.20754000  1.0
  H  H29  1  0.12706000  0.13597000  0.70755000  1.0
  H  H30  1  0.62706000  0.36403000  0.29245000  1.0
  H  H31  1  0.87294000  0.63597000  0.79246000  1.0
  C  C32  1  0.65678000  0.20254000  0.41905000  1.0
  C  C33  1  0.84322000  0.79746000  0.91905000  1.0
  C  C34  1  0.34323000  0.70254000  0.08095000  1.0
  C  C35  1  0.15678000  0.29745000  0.58096000  1.0
  C  C36  1  0.57871000  0.90161000  0.38406000  1.0
  C  C37  1  0.92130000  0.09839000  0.88406000  1.0
  C  C38  1  0.42130000  0.40160000  0.11594000  1.0
  C  C39  1  0.07870000  0.59839000  0.61595000  1.0
  C  C40  1  0.63397000  0.15461000  0.48801000  1.0
  C  C41  1  0.86602000  0.84539000  0.98801000  1.0
  C  C42  1  0.36602000  0.65461000  0.01199000  1.0
  C  C43  1  0.13397000  0.34539000  0.51199000  1.0
  C  C44  1  0.58149000  0.97621000  0.50573000  1.0
  C  C45  1  0.91851000  0.02380000  0.00573000  1.0
  C  C46  1  0.41851000  0.47620000  0.99427000  1.0
  C  C47  1  0.08149000  0.52381000  0.49427000  1.0
  C  C48  1  0.55353000  0.84984000  0.45271000  1.0
  C  C49  1  0.94647000  0.15016000  0.95271000  1.0
  C  C50  1  0.44649000  0.34984000  0.04729000  1.0
  C  C51  1  0.05352000  0.65016000  0.54728000  1.0
  N  N52  1  0.62845000  0.07604000  0.36842000  1.0
  N  N53  1  0.87155000  0.92395000  0.86842000  1.0
  N  N54  1  0.37156000  0.57605000  0.13157000  1.0
  N  N55  1  0.12845000  0.42394000  0.63157000  1.0
  Cl  Cl56  1  0.93200000  0.30713000  0.15662000  1.0
  Cl  Cl57  1  0.56800000  0.69287000  0.65662000  1.0
  Cl  Cl58  1  0.06800000  0.80713000  0.34338000  1.0
  Cl  Cl59  1  0.43200000  0.19287000  0.84338000  1.0
  Cl  Cl60  1  0.15168000  0.31165000  0.33147000  1.0
  Cl  Cl61  1  0.34832000  0.68835000  0.83147000  1.0
  Cl  Cl62  1  0.84833000  0.81165000  0.16852000  1.0
  Cl  Cl63  1  0.65168000  0.18835000  0.66852000  1.0
  O  O64  1  0.65347000  0.12505000  0.30195000  1.0
  O  O65  1  0.84653000  0.87494000  0.80195000  1.0
  O  O66  1  0.34654000  0.62506000  0.19805000  1.0
  O  O67  1  0.15347000  0.37493000  0.69805000  1.0
  O  O68  1  0.35923000  0.99856000  0.21050000  1.0
  O  O69  1  0.14077000  0.00144000  0.71050000  1.0
  O  O70  1  0.64077000  0.49856000  0.28950000  1.0
  O  O71  1  0.85923000  0.50144000  0.78950000  1.0
