# generated using pymatgen
data_CdH10C3(IN)2
_symmetry_space_group_name_H-M   'P 1'
_cell_length_a   6.72590000
_cell_length_b   9.75470000
_cell_length_c   14.01270000
_cell_angle_alpha   89.99950000
_cell_angle_beta   82.01010000
_cell_angle_gamma   89.99940000
_symmetry_Int_Tables_number   1
_chemical_formula_structural   CdH10C3(IN)2
_chemical_formula_sum   'Cd4 H40 C12 I8 N8'
_cell_volume   910.43653138
_cell_formula_units_Z   4
loop_
 _symmetry_equiv_pos_site_id
 _symmetry_equiv_pos_as_xyz
  1  'x, y, z'
loop_
 _atom_site_type_symbol
 _atom_site_label
 _atom_site_symmetry_multiplicity
 _atom_site_fract_x
 _atom_site_fract_y
 _atom_site_fract_z
 _atom_site_occupancy
  Cd  Cd0  1  0.70674000  0.20998000  0.27874000  1.0
  Cd  Cd1  1  0.79325000  0.70998000  0.22126000  1.0
  Cd  Cd2  1  0.29326000  0.79002000  0.72126000  1.0
  Cd  Cd3  1  0.20675000  0.29002000  0.77874000  1.0
  H  H4  1  0.73254000  0.10815000  0.09157000  1.0
  H  H5  1  0.76744000  0.60814000  0.40844000  1.0
  H  H6  1  0.26746000  0.89185000  0.90843000  1.0
  H  H7  1  0.23255000  0.39186000  0.59156000  1.0
  H  H8  1  0.75299000  0.27629000  0.08731000  1.0
  H  H9  1  0.74701000  0.77629000  0.41268000  1.0
  H  H10  1  0.24701000  0.72371000  0.91269000  1.0
  H  H11  1  0.25300000  0.22371000  0.58732000  1.0
  H  H12  1  0.59547000  0.22780000  0.81239000  1.0
  H  H13  1  0.90453000  0.72780000  0.68760000  1.0
  H  H14  1  0.40453000  0.77220000  0.18761000  1.0
  H  H15  1  0.09548000  0.27220000  0.31240000  1.0
  H  H16  1  0.57572000  0.39435000  0.79882000  1.0
  H  H17  1  0.92430000  0.89435000  0.70117000  1.0
  H  H18  1  0.42429000  0.60565000  0.20118000  1.0
  H  H19  1  0.07570000  0.10565000  0.29883000  1.0
  H  H20  1  0.37235000  0.12399000  0.14132000  1.0
  H  H21  1  0.12764000  0.62398000  0.35868000  1.0
  H  H22  1  0.62765000  0.87602000  0.85868000  1.0
  H  H23  1  0.87236000  0.37601000  0.64132000  1.0
  H  H24  1  0.39408000  0.30410000  0.13462000  1.0
  H  H25  1  0.10591000  0.80409000  0.36537000  1.0
  H  H26  1  0.60593000  0.69591000  0.86538000  1.0
  H  H27  1  0.89409000  0.19590000  0.63463000  1.0
  H  H28  1  0.26427000  0.18940000  0.99196000  1.0
  H  H29  1  0.23572000  0.68939000  0.50803000  1.0
  H  H30  1  0.73573000  0.81061000  0.00804000  1.0
  H  H31  1  0.76427000  0.31060000  0.49197000  1.0
  H  H32  1  0.50195000  0.11092000  0.96192000  1.0
  H  H33  1  0.99804000  0.61091000  0.53808000  1.0
  H  H34  1  0.49805000  0.88909000  0.03808000  1.0
  H  H35  1  0.00194000  0.38907000  0.46192000  1.0
  H  H36  1  0.65723000  0.35548000  0.95386000  1.0
  H  H37  1  0.84278000  0.85550000  0.54613000  1.0
  H  H38  1  0.34277000  0.64453000  0.04614000  1.0
  H  H39  1  0.15722000  0.14450000  0.45387000  1.0
  H  H40  1  0.40645000  0.41745000  0.96249000  1.0
  H  H41  1  0.09358000  0.91744000  0.53750000  1.0
  H  H42  1  0.59355000  0.58255000  0.03751000  1.0
  H  H43  1  0.90643000  0.08255000  0.46249000  1.0
  C  C44  1  0.45584000  0.20801000  0.10165000  1.0
  C  C45  1  0.04415000  0.70799000  0.39835000  1.0
  C  C46  1  0.54416000  0.79199000  0.89835000  1.0
  C  C47  1  0.95585000  0.29200000  0.60165000  1.0
  C  C48  1  0.42567000  0.20239000  0.99572000  1.0
  C  C49  1  0.07432000  0.70239000  0.50428000  1.0
  C  C50  1  0.57433000  0.79762000  0.00428000  1.0
  C  C51  1  0.92568000  0.29760000  0.49573000  1.0
  C  C52  1  0.50417000  0.32967000  0.93990000  1.0
  C  C53  1  0.99584000  0.82967000  0.56009000  1.0
  C  C54  1  0.49583000  0.67034000  0.06010000  1.0
  C  C55  1  0.00415000  0.17032000  0.43991000  1.0
  I  I56  1  0.45555000  0.42232000  0.35853000  1.0
  I  I57  1  0.04443000  0.92232000  0.14146000  1.0
  I  I58  1  0.54445000  0.57768000  0.64147000  1.0
  I  I59  1  0.95555000  0.07768000  0.85853000  1.0
  I  I60  1  0.49332000  0.96885000  0.34678000  1.0
  I  I61  1  0.00665000  0.46884000  0.15321000  1.0
  I  I62  1  0.50669000  0.03115000  0.65321000  1.0
  I  I63  1  0.99336000  0.53116000  0.84680000  1.0
  N  N64  1  0.66704000  0.19738000  0.11918000  1.0
  N  N65  1  0.83294000  0.69739000  0.38081000  1.0
  N  N66  1  0.33296000  0.80263000  0.88082000  1.0
  N  N67  1  0.16705000  0.30261000  0.61918000  1.0
  N  N68  1  0.50744000  0.31120000  0.83485000  1.0
  N  N69  1  0.99258000  0.81121000  0.66515000  1.0
  N  N70  1  0.49256000  0.68880000  0.16515000  1.0
  N  N71  1  0.00743000  0.18878000  0.33485000  1.0
