# generated using pymatgen
data_Tb2H11C9O16
_symmetry_space_group_name_H-M   'P 1'
_cell_length_a   5.99651000
_cell_length_b   10.83670000
_cell_length_c   12.97770000
_cell_angle_alpha   68.35240000
_cell_angle_beta   81.34770000
_cell_angle_gamma   84.30450000
_symmetry_Int_Tables_number   1
_chemical_formula_structural   Tb2H11C9O16
_chemical_formula_sum   'Tb4 H22 C18 O32'
_cell_volume   774.04343965
_cell_formula_units_Z   2
loop_
 _symmetry_equiv_pos_site_id
 _symmetry_equiv_pos_as_xyz
  1  'x, y, z'
loop_
 _atom_site_type_symbol
 _atom_site_label
 _atom_site_symmetry_multiplicity
 _atom_site_fract_x
 _atom_site_fract_y
 _atom_site_fract_z
 _atom_site_occupancy
  Tb  Tb0  1  0.56394000  0.90397000  0.16919000  1.0
  Tb  Tb1  1  0.43608000  0.09603000  0.83081000  1.0
  Tb  Tb2  1  0.07891000  0.32206000  0.35814000  1.0
  Tb  Tb3  1  0.92109000  0.67793000  0.64186000  1.0
  H  H4  1  0.22508000  0.94086000  0.33544000  1.0
  H  H5  1  0.77492000  0.05913000  0.66456000  1.0
  H  H6  1  0.10090000  0.91260000  0.24690000  1.0
  H  H7  1  0.89912000  0.08740000  0.75310000  1.0
  H  H8  1  0.82400000  0.04435000  0.45311000  1.0
  H  H9  1  0.17599000  0.95565000  0.54689000  1.0
  H  H10  1  0.69975000  0.15700000  0.36628000  1.0
  H  H11  1  0.30024000  0.84300000  0.63372000  1.0
  H  H12  1  0.76473000  0.47122000  0.47443000  1.0
  H  H13  1  0.23526000  0.52878000  0.52557000  1.0
  H  H14  1  0.62213000  0.39402000  0.42155000  1.0
  H  H15  1  0.37786000  0.60598000  0.57845000  1.0
  H  H16  1  0.94613000  0.61091000  0.27675000  1.0
  H  H17  1  0.05386000  0.38908000  0.72325000  1.0
  H  H18  1  0.21164000  0.61281000  0.23320000  1.0
  H  H19  1  0.78835000  0.38719000  0.76680000  1.0
  H  H20  1  0.79147000  0.56295000  0.01870000  1.0
  H  H21  1  0.20852000  0.43705000  0.98130000  1.0
  H  H22  1  0.31762000  0.48848000  0.13991000  1.0
  H  H23  1  0.68237000  0.51152000  0.86009000  1.0
  H  H24  1  0.31972000  0.67360000  0.95453000  1.0
  H  H25  1  0.68027000  0.32641000  0.04547000  1.0
  C  C26  1  0.61216000  0.58688000  0.04025000  1.0
  C  C27  1  0.38784000  0.41312000  0.95976000  1.0
  C  C28  1  0.49593000  0.46111000  0.12051000  1.0
  C  C29  1  0.50407000  0.53890000  0.87949000  1.0
  C  C30  1  0.49645000  0.64491000  0.93219000  1.0
  C  C31  1  0.50354000  0.35509000  0.06781000  1.0
  C  C32  1  0.60352000  0.68944000  0.09514000  1.0
  C  C33  1  0.39649000  0.31056000  0.90486000  1.0
  C  C34  1  0.60166000  0.40351000  0.22944000  1.0
  C  C35  1  0.39834000  0.59649000  0.77056000  1.0
  C  C36  1  0.60629000  0.77241000  0.85081000  1.0
  C  C37  1  0.39371000  0.22759000  0.14919000  1.0
  C  C38  1  0.71359000  0.86035000  0.41311000  1.0
  C  C39  1  0.28640000  0.13964000  0.58689000  1.0
  C  C40  1  0.74398000  0.72081000  0.40540000  1.0
  C  C41  1  0.25602000  0.27920000  0.59460000  1.0
  C  C42  1  0.06577000  0.97875000  0.05086000  1.0
  C  C43  1  0.93425000  0.02126000  0.94914000  1.0
  O  O44  1  0.42201000  0.70874000  0.15560000  1.0
  O  O45  1  0.57799000  0.29126000  0.84440000  1.0
  O  O46  1  0.77355000  0.75757000  0.07910000  1.0
  O  O47  1  0.22645000  0.24243000  0.92089000  1.0
  O  O48  1  0.81441000  0.39080000  0.22442000  1.0
  O  O49  1  0.18559000  0.60920000  0.77558000  1.0
  O  O50  1  0.46919000  0.36847000  0.32177000  1.0
  O  O51  1  0.53081000  0.63153000  0.67823000  1.0
  O  O52  1  0.53180000  0.87793000  0.86665000  1.0
  O  O53  1  0.46821000  0.12207000  0.13335000  1.0
  O  O54  1  0.76157000  0.76758000  0.77394000  1.0
  O  O55  1  0.23843000  0.23242000  0.22606000  1.0
  O  O56  1  0.63183000  0.95202000  0.33405000  1.0
  O  O57  1  0.36817000  0.04798000  0.66595000  1.0
  O  O58  1  0.78076000  0.87251000  0.49775000  1.0
  O  O59  1  0.21923000  0.12749000  0.50226000  1.0
  O  O60  1  0.70986000  0.71348000  0.31378000  1.0
  O  O61  1  0.29014000  0.28652000  0.68622000  1.0
  O  O62  1  0.80380000  0.62517000  0.48928000  1.0
  O  O63  1  0.19620000  0.37483000  0.51072000  1.0
  O  O64  1  0.94860000  0.95253000  0.14564000  1.0
  O  O65  1  0.05142000  0.04748000  0.85435000  1.0
  O  O66  1  0.27857000  0.97304000  0.03262000  1.0
  O  O67  1  0.72145000  0.02696000  0.96738000  1.0
  O  O68  1  0.22280000  0.87864000  0.29730000  1.0
  O  O69  1  0.77720000  0.12135000  0.70270000  1.0
  O  O70  1  0.82142000  0.14214000  0.41222000  1.0
  O  O71  1  0.17857000  0.85786000  0.58778000  1.0
  O  O72  1  0.75747000  0.38891000  0.45854000  1.0
  O  O73  1  0.24252000  0.61109000  0.54145000  1.0
  O  O74  1  0.08602000  0.55441000  0.27818000  1.0
  O  O75  1  0.91397000  0.44558000  0.72182000  1.0
