# generated using pymatgen
data_MnH22C24(N7O3)2
_symmetry_space_group_name_H-M   'P 1'
_cell_length_a   7.39649000
_cell_length_b   9.34481000
_cell_length_c   11.33372124
_cell_angle_alpha   97.39352697
_cell_angle_beta   105.93992874
_cell_angle_gamma   103.42820000
_symmetry_Int_Tables_number   1
_chemical_formula_structural   MnH22C24(N7O3)2
_chemical_formula_sum   'Mn1 H22 C24 N14 O6'
_cell_volume   716.97950610
_cell_formula_units_Z   1
loop_
 _symmetry_equiv_pos_site_id
 _symmetry_equiv_pos_as_xyz
  1  'x, y, z'
loop_
 _atom_site_type_symbol
 _atom_site_label
 _atom_site_symmetry_multiplicity
 _atom_site_fract_x
 _atom_site_fract_y
 _atom_site_fract_z
 _atom_site_occupancy
  Mn  Mn0  1  0.50000000  0.50000000  1.00000000  1.0
  H  H1  1  0.68494000  0.61488000  0.84210000  1.0
  H  H2  1  0.31506000  0.38512000  0.15790000  1.0
  H  H3  1  0.87102000  0.62589000  0.95387000  1.0
  H  H4  1  0.12899000  0.37411000  0.04613000  1.0
  H  H5  1  0.91298000  0.20377000  0.84603000  1.0
  H  H6  1  0.08701000  0.79623000  0.15396000  1.0
  H  H7  1  0.78829000  0.06652000  0.91481000  1.0
  H  H8  1  0.21172000  0.93347000  0.08519000  1.0
  H  H9  1  0.51913000  0.35977000  0.50415000  1.0
  H  H10  1  0.48087000  0.64023000  0.49585000  1.0
  H  H11  1  0.02596000  0.26301000  0.19009000  1.0
  H  H12  1  0.97404000  0.73700000  0.80991000  1.0
  H  H13  1  0.90451000  0.00872000  0.23535000  1.0
  H  H14  1  0.09550000  0.99128000  0.76464000  1.0
  H  H15  1  0.17976000  0.25134000  0.75021000  1.0
  H  H16  1  0.82024000  0.74866000  0.24979000  1.0
  H  H17  1  0.95444000  0.25108000  0.54569000  1.0
  H  H18  1  0.04555000  0.74892000  0.45431000  1.0
  H  H19  1  0.21579000  0.73386000  0.62005000  1.0
  H  H20  1  0.78420000  0.26613000  0.37995000  1.0
  H  H21  1  0.41546000  0.71353000  0.82604000  1.0
  H  H22  1  0.58454000  0.28647000  0.17396000  1.0
  C  C23  1  0.75023000  0.28927000  0.95847000  1.0
  C  C24  1  0.24977000  0.71072000  0.04153000  1.0
  C  C25  1  0.77850000  0.16255000  0.86928000  1.0
  C  C26  1  0.22150000  0.83745000  0.13072000  1.0
  C  C27  1  0.41151000  0.10121000  0.58587000  1.0
  C  C28  1  0.58849000  0.89878000  0.41412000  1.0
  C  C29  1  0.30717000  0.14242000  0.47181000  1.0
  C  C30  1  0.69284000  0.85758000  0.52820000  1.0
  C  C31  1  0.38016000  0.28230000  0.44318000  1.0
  C  C32  1  0.61983000  0.71771000  0.55682000  1.0
  C  C33  1  0.11069000  0.22748000  0.27031000  1.0
  C  C34  1  0.88930000  0.77253000  0.72969000  1.0
  C  C35  1  0.04232000  0.08699000  0.29691000  1.0
  C  C36  1  0.95767000  0.91302000  0.70309000  1.0
  C  C37  1  0.18041000  0.35695000  0.71877000  1.0
  C  C38  1  0.81959000  0.64305000  0.28123000  1.0
  C  C39  1  0.05492000  0.35790000  0.60218000  1.0
  C  C40  1  0.94507000  0.64210000  0.39782000  1.0
  C  C41  1  0.06327000  0.49481000  0.56168000  1.0
  C  C42  1  0.93672000  0.50519000  0.43832000  1.0
  C  C43  1  0.19881000  0.62367000  0.64420000  1.0
  C  C44  1  0.80118000  0.37633000  0.35580000  1.0
  C  C45  1  0.31416000  0.61276000  0.76021000  1.0
  C  C46  1  0.68584000  0.38724000  0.23979000  1.0
  N  N47  1  0.58282000  0.18847000  0.66694000  1.0
  N  N48  1  0.41719000  0.81153000  0.33306000  1.0
  N  N49  1  0.61643000  0.10809000  0.75443000  1.0
  N  N50  1  0.38357000  0.89191000  0.24557000  1.0
  N  N51  1  0.47717000  0.97899000  0.73261000  1.0
  N  N52  1  0.52283000  0.02101000  0.26739000  1.0
  N  N53  1  0.34614000  0.97275000  0.62499000  1.0
  N  N54  1  0.65386000  0.02725000  0.37501000  1.0
  N  N55  1  0.13964000  0.04254000  0.39677000  1.0
  N  N56  1  0.86037000  0.95747000  0.60323000  1.0
  N  N57  1  0.28289000  0.32443000  0.34177000  1.0
  N  N58  1  0.71711000  0.67558000  0.65824000  1.0
  N  N59  1  0.30792000  0.48158000  0.79822000  1.0
  N  N60  1  0.69208000  0.51842000  0.20178000  1.0
  O  O61  1  0.57673000  0.29928000  0.93970000  1.0
  O  O62  1  0.42327000  0.70071000  0.06030000  1.0
  O  O63  1  0.90306000  0.36868000  0.04318000  1.0
  O  O64  1  0.09695000  0.63131000  0.95682000  1.0
  O  O65  1  0.73182000  0.63246000  0.93381000  1.0
  O  O66  1  0.26818000  0.36753000  0.06619000  1.0
