# generated using pymatgen
data_HoH5(C3O4)2
_symmetry_space_group_name_H-M   'P 1'
_cell_length_a   6.22024000
_cell_length_b   8.61902000
_cell_length_c   8.75551000
_cell_angle_alpha   111.19500000
_cell_angle_beta   109.80500000
_cell_angle_gamma   91.52120000
_symmetry_Int_Tables_number   1
_chemical_formula_structural   HoH5(C3O4)2
_chemical_formula_sum   'Ho2 H10 C12 O16'
_cell_volume   405.77738257
_cell_formula_units_Z   2
loop_
 _symmetry_equiv_pos_site_id
 _symmetry_equiv_pos_as_xyz
  1  'x, y, z'
loop_
 _atom_site_type_symbol
 _atom_site_label
 _atom_site_symmetry_multiplicity
 _atom_site_fract_x
 _atom_site_fract_y
 _atom_site_fract_z
 _atom_site_occupancy
  Ho  Ho0  1  0.31952000  0.35015000  0.18134000  1.0
  Ho  Ho1  1  0.68049000  0.64985000  0.81866000  1.0
  H  H2  1  0.80844000  0.28112000  0.28253000  1.0
  H  H3  1  0.19156000  0.71889000  0.71748000  1.0
  H  H4  1  0.48788000  0.33190000  0.89210000  1.0
  H  H5  1  0.51212000  0.66811000  0.10790000  1.0
  H  H6  1  0.68174000  0.27334000  0.02774000  1.0
  H  H7  1  0.31826000  0.72669000  0.97226000  1.0
  H  H8  1  0.77046000  0.35548000  0.46749000  1.0
  H  H9  1  0.22954000  0.64453000  0.53252000  1.0
  H  H10  1  0.25910000  0.96916000  0.33282000  1.0
  H  H11  1  0.74090000  0.03084000  0.66717000  1.0
  C  C12  1  0.15005000  0.14135000  0.52927000  1.0
  C  C13  1  0.84994000  0.85864000  0.47072000  1.0
  C  C14  1  0.00523000  0.15979000  0.62590000  1.0
  C  C15  1  0.99476000  0.84021000  0.37410000  1.0
  C  C16  1  0.14289000  0.98210000  0.40456000  1.0
  C  C17  1  0.85711000  0.01789000  0.59543000  1.0
  C  C18  1  0.31507000  0.28928000  0.55883000  1.0
  C  C19  1  0.68493000  0.71071000  0.44116000  1.0
  C  C20  1  0.99727000  0.32888000  0.75806000  1.0
  C  C21  1  0.00273000  0.67111000  0.24193000  1.0
  C  C22  1  0.89359000  0.03933000  0.01027000  1.0
  C  C23  1  0.10641000  0.96065000  0.98973000  1.0
  O  O24  1  0.44682000  0.38096000  0.71775000  1.0
  O  O25  1  0.55319000  0.61903000  0.28225000  1.0
  O  O26  1  0.69303000  0.31211000  0.33662000  1.0
  O  O27  1  0.30697000  0.68791000  0.66339000  1.0
  O  O28  1  0.52969000  0.31181000  0.00257000  1.0
  O  O29  1  0.47031000  0.68822000  0.99744000  1.0
  O  O30  1  0.31673000  0.31698000  0.42734000  1.0
  O  O31  1  0.68326000  0.68303000  0.57266000  1.0
  O  O32  1  0.08944000  0.35652000  0.91935000  1.0
  O  O33  1  0.91054000  0.64347000  0.08067000  1.0
  O  O34  1  0.88834000  0.43040000  0.69669000  1.0
  O  O35  1  0.11167000  0.56958000  0.30330000  1.0
  O  O36  1  0.93176000  0.19945000  0.09682000  1.0
  O  O37  1  0.06824000  0.80054000  0.90318000  1.0
  O  O38  1  0.29766000  0.05714000  0.05968000  1.0
  O  O39  1  0.70235000  0.94285000  0.94033000  1.0
