# generated using pymatgen
data_AlHgH30C30N3(ClO3)2
_symmetry_space_group_name_H-M   'P 1'
_cell_length_a   15.02220000
_cell_length_b   16.28220000
_cell_length_c   16.71220000
_cell_angle_alpha   94.27720000
_cell_angle_beta   89.99990000
_cell_angle_gamma   90.00000000
_symmetry_Int_Tables_number   1
_chemical_formula_structural   AlHgH30C30N3(ClO3)2
_chemical_formula_sum   'Al4 Hg4 H120 C120 N12 Cl8 O24'
_cell_volume   4076.32689385
_cell_formula_units_Z   4
loop_
 _symmetry_equiv_pos_site_id
 _symmetry_equiv_pos_as_xyz
  1  'x, y, z'
loop_
 _atom_site_type_symbol
 _atom_site_label
 _atom_site_symmetry_multiplicity
 _atom_site_fract_x
 _atom_site_fract_y
 _atom_site_fract_z
 _atom_site_occupancy
  Al  Al0  1  0.25149000  0.00317000  0.99753000  1.0
  Al  Al1  1  0.75149000  0.49683000  0.50246000  1.0
  Al  Al2  1  0.74851000  0.99683000  0.00247000  1.0
  Al  Al3  1  0.24851000  0.50317000  0.49754000  1.0
  Hg  Hg4  1  0.29030000  0.93633000  0.58659000  1.0
  Hg  Hg5  1  0.79031000  0.56366000  0.91341000  1.0
  Hg  Hg6  1  0.70969000  0.06366000  0.41341000  1.0
  Hg  Hg7  1  0.20970000  0.43634000  0.08659000  1.0
  H  H8  1  0.32301000  0.77815000  0.10641000  1.0
  H  H9  1  0.82301000  0.72185000  0.39359000  1.0
  H  H10  1  0.67699000  0.22185000  0.89359000  1.0
  H  H11  1  0.17700000  0.27815000  0.60641000  1.0
  H  H12  1  0.23580000  0.79774000  0.17747000  1.0
  H  H13  1  0.73580000  0.70225000  0.32253000  1.0
  H  H14  1  0.76420000  0.20226000  0.82253000  1.0
  H  H15  1  0.26420000  0.29774000  0.67747000  1.0
  H  H16  1  0.34716000  0.81770000  0.20719000  1.0
  H  H17  1  0.84716000  0.68231000  0.29281000  1.0
  H  H18  1  0.65284000  0.18230000  0.79281000  1.0
  H  H19  1  0.15285000  0.31769000  0.70719000  1.0
  H  H20  1  0.29265000  0.18573000  0.19346000  1.0
  H  H21  1  0.79264000  0.31427000  0.30654000  1.0
  H  H22  1  0.70736000  0.81427000  0.80654000  1.0
  H  H23  1  0.20735000  0.68573000  0.69346000  1.0
  H  H24  1  0.35986000  0.12662000  0.25593000  1.0
  H  H25  1  0.85985000  0.37338000  0.24406000  1.0
  H  H26  1  0.64015000  0.87338000  0.74407000  1.0
  H  H27  1  0.14014000  0.62662000  0.75593000  1.0
  H  H28  1  0.24328000  0.12680000  0.26859000  1.0
  H  H29  1  0.74327000  0.37321000  0.23141000  1.0
  H  H30  1  0.75673000  0.87321000  0.73141000  1.0
  H  H31  1  0.25672000  0.62679000  0.76859000  1.0
  H  H32  1  0.15468000  0.91521000  0.42814000  1.0
  H  H33  1  0.65468000  0.58481000  0.07185000  1.0
  H  H34  1  0.84532000  0.08478000  0.57186000  1.0
  H  H35  1  0.34532000  0.41520000  0.92814000  1.0
  H  H36  1  0.14885000  0.93141000  0.28015000  1.0
  H  H37  1  0.64885000  0.56860000  0.21985000  1.0
  H  H38  1  0.85114000  0.06858000  0.71985000  1.0
  H  H39  1  0.35115000  0.43141000  0.78015000  1.0
  H  H40  1  0.43052000  0.98626000  0.29127000  1.0
  H  H41  1  0.93051000  0.51374000  0.20873000  1.0
  H  H42  1  0.56948000  0.01375000  0.70874000  1.0
  H  H43  1  0.06948000  0.48626000  0.79127000  1.0
  H  H44  1  0.42392000  0.96947000  0.43755000  1.0
  H  H45  1  0.92393000  0.53052000  0.06245000  1.0
  H  H46  1  0.57606000  0.03054000  0.56245000  1.0
  H  H47  1  0.07607000  0.46947000  0.93755000  1.0
  H  H48  1  0.53739000  0.09241000  0.94541000  1.0
  H  H49  1  0.03739000  0.40759000  0.55459000  1.0
  H  H50  1  0.46262000  0.90759000  0.05459000  1.0
  H  H51  1  0.96262000  0.59241000  0.44542000  1.0
  H  H52  1  0.51527000  0.08226000  0.84100000  1.0
  H  H53  1  0.01527000  0.41774000  0.65900000  1.0
  H  H54  1  0.48473000  0.91773000  0.15900000  1.0
  H  H55  1  0.98473000  0.58226000  0.34101000  1.0
  H  H56  1  0.51594000  0.99337000  0.89906000  1.0
  H  H57  1  0.01593000  0.50662000  0.60094000  1.0
  H  H58  1  0.48407000  0.00662000  0.10094000  1.0
  H  H59  1  0.98406000  0.49337000  0.39907000  1.0
  H  H60  1  0.24399000  0.24601000  0.82865000  1.0
  H  H61  1  0.74399000  0.25398000  0.67135000  1.0
  H  H62  1  0.75601000  0.75399000  0.17135000  1.0
  H  H63  1  0.25600000  0.74602000  0.32866000  1.0
  H  H64  1  0.19930000  0.26458000  0.92658000  1.0
  H  H65  1  0.69930000  0.23541000  0.57342000  1.0
  H  H66  1  0.80070000  0.73542000  0.07342000  1.0
  H  H67  1  0.30069000  0.76458000  0.42659000  1.0
  H  H68  1  0.14378000  0.19524000  0.85607000  1.0
  H  H69  1  0.64378000  0.30476000  0.64393000  1.0
  H  H70  1  0.85623000  0.80476000  0.14394000  1.0
  H  H71  1  0.35622000  0.69524000  0.35608000  1.0
  H  H72  1  0.52547000  0.37752000  0.88150000  1.0
  H  H73  1  0.02547000  0.12247000  0.61849000  1.0
  H  H74  1  0.47454000  0.62249000  0.11851000  1.0
  H  H75  1  0.97453000  0.87753000  0.38150000  1.0
  H  H76  1  0.43969000  0.27798000  0.95854000  1.0
  H  H77  1  0.93969000  0.22202000  0.54146000  1.0
  H  H78  1  0.56032000  0.72203000  0.04147000  1.0
  H  H79  1  0.06031000  0.77799000  0.45855000  1.0
  H  H80  1  0.38103000  0.14322000  0.73232000  1.0
  H  H81  1  0.88103000  0.35677000  0.76768000  1.0
  H  H82  1  0.61898000  0.85678000  0.26769000  1.0
  H  H83  1  0.11897000  0.64322000  0.23233000  1.0
  H  H84  1  0.46867000  0.24718000  0.66513000  1.0
  H  H85  1  0.96867000  0.25281000  0.83486000  1.0
  H  H86  1  0.53135000  0.75281000  0.33488000  1.0
  H  H87  1  0.03134000  0.74718000  0.16514000  1.0
  H  H88  1  0.18898000  0.84919000  0.78265000  1.0
  H  H89  1  0.68898000  0.65081000  0.71734000  1.0
  H  H90  1  0.81101000  0.15082000  0.21734000  1.0
  H  H91  1  0.31102000  0.34918000  0.28266000  1.0
  H  H92  1  0.08859000  0.80014000  0.81217000  1.0
  H  H93  1  0.58859000  0.69986000  0.68783000  1.0
  H  H94  1  0.91141000  0.19987000  0.18783000  1.0
  H  H95  1  0.41141000  0.30014000  0.31217000  1.0
  H  H96  1  0.19343000  0.76415000  0.84326000  1.0
  H  H97  1  0.69343000  0.73585000  0.65673000  1.0
  H  H98  1  0.80657000  0.23585000  0.15673000  1.0
  H  H99  1  0.30657000  0.26416000  0.34327000  1.0
  H  H100  1  0.02614000  0.88328000  0.13493000  1.0
  H  H101  1  0.52614000  0.61672000  0.36507000  1.0
  H  H102  1  0.97387000  0.11672000  0.86506000  1.0
  H  H103  1  0.47387000  0.38329000  0.63493000  1.0
  H  H104  1  0.94388000  0.91198000  0.06677000  1.0
  H  H105  1  0.44388000  0.58802000  0.43323000  1.0
  H  H106  1  0.05612000  0.08802000  0.93323000  1.0
  H  H107  1  0.55612000  0.41199000  0.56677000  1.0
  H  H108  1  0.00412000  0.98897000  0.12661000  1.0
  H  H109  1  0.50412000  0.51103000  0.37339000  1.0
  H  H110  1  0.99588000  0.01103000  0.87339000  1.0
  H  H111  1  0.49589000  0.48897000  0.62661000  1.0
  H  H112  1  0.80671000  0.76245000  0.90308000  1.0
  H  H113  1  0.30670000  0.73754000  0.59692000  1.0
  H  H114  1  0.19329000  0.23755000  0.09692000  1.0
  H  H115  1  0.69330000  0.26245000  0.40307000  1.0
  H  H116  1  0.91134000  0.88133000  0.92349000  1.0
  H  H117  1  0.41134000  0.61866000  0.57651000  1.0
  H  H118  1  0.08866000  0.11867000  0.07651000  1.0
  H  H119  1  0.58866000  0.38133000  0.42349000  1.0
  H  H120  1  0.11406000  0.70840000  0.98496000  1.0
  H  H121  1  0.61406000  0.79161000  0.51504000  1.0
  H  H122  1  0.88594000  0.29161000  0.01503000  1.0
  H  H123  1  0.38594000  0.20840000  0.48496000  1.0
  H  H124  1  0.00254000  0.59634000  0.95779000  1.0
  H  H125  1  0.50253000  0.90366000  0.54221000  1.0
  H  H126  1  0.99746000  0.40367000  0.04221000  1.0
  H  H127  1  0.49746000  0.09634000  0.45779000  1.0
  C  C128  1  0.30058000  0.81985000  0.15681000  1.0
  C  C129  1  0.80058000  0.68015000  0.34319000  1.0
  C  C130  1  0.69942000  0.18015000  0.84319000  1.0
  C  C131  1  0.19943000  0.31985000  0.65681000  1.0
  C  C132  1  0.29078000  0.90536000  0.12933000  1.0
  C  C133  1  0.79078000  0.59464000  0.37067000  1.0
  C  C134  1  0.70922000  0.09464000  0.87067000  1.0
  C  C135  1  0.20922000  0.40536000  0.62934000  1.0
  C  C136  1  0.28786000  0.97448000  0.18601000  1.0
  C  C137  1  0.78785000  0.52553000  0.31399000  1.0
  C  C138  1  0.71214000  0.02552000  0.81399000  1.0
  C  C139  1  0.21214000  0.47447000  0.68601000  1.0
  C  C140  1  0.28818000  0.05607000  0.16200000  1.0
  C  C141  1  0.78817000  0.44393000  0.33799000  1.0
  C  C142  1  0.71182000  0.94394000  0.83800000  1.0
  C  C143  1  0.21182000  0.55606000  0.66200000  1.0
  C  C144  1  0.29637000  0.12823000  0.22336000  1.0
  C  C145  1  0.79636000  0.37177000  0.27664000  1.0
  C  C146  1  0.70364000  0.87177000  0.77664000  1.0
  C  C147  1  0.20363000  0.62823000  0.72336000  1.0
  C  C148  1  0.21390000  0.93167000  0.39509000  1.0
  C  C149  1  0.71390000  0.56834000  0.10490000  1.0
  C  C150  1  0.78610000  0.06833000  0.60491000  1.0
  C  C151  1  0.28610000  0.43166000  0.89510000  1.0
  C  C152  1  0.21129000  0.94035000  0.31292000  1.0
  C  C153  1  0.71129000  0.55966000  0.18708000  1.0
  C  C154  1  0.78871000  0.05965000  0.68708000  1.0
  C  C155  1  0.28871000  0.44034000  0.81292000  1.0
  C  C156  1  0.28923000  0.96159000  0.27305000  1.0
  C  C157  1  0.78923000  0.53841000  0.22695000  1.0
  C  C158  1  0.71077000  0.03841000  0.72695000  1.0
  C  C159  1  0.21077000  0.46159000  0.77305000  1.0
  C  C160  1  0.36735000  0.97125000  0.31879000  1.0
  C  C161  1  0.86735000  0.52875000  0.18121000  1.0
  C  C162  1  0.63264000  0.02875000  0.68122000  1.0
  C  C163  1  0.13265000  0.47125000  0.81879000  1.0
  C  C164  1  0.36417000  0.96166000  0.40067000  1.0
  C  C165  1  0.86417000  0.53834000  0.09932000  1.0
  C  C166  1  0.63583000  0.03834000  0.59933000  1.0
  C  C167  1  0.13583000  0.46166000  0.90067000  1.0
  C  C168  1  0.49771000  0.05842000  0.89850000  1.0
  C  C169  1  0.99771000  0.44158000  0.60150000  1.0
  C  C170  1  0.50229000  0.94157000  0.10150000  1.0
  C  C171  1  0.00229000  0.55842000  0.39850000  1.0
  C  C172  1  0.40068000  0.06869000  0.91735000  1.0
  C  C173  1  0.90068000  0.43131000  0.58265000  1.0
  C  C174  1  0.59933000  0.93131000  0.08266000  1.0
  C  C175  1  0.09932000  0.56869000  0.41735000  1.0
  C  C176  1  0.35335000  0.13851000  0.89436000  1.0
  C  C177  1  0.85335000  0.36148000  0.60564000  1.0
  C  C178  1  0.64666000  0.86149000  0.10565000  1.0
  C  C179  1  0.14665000  0.63851000  0.39437000  1.0
  C  C180  1  0.26079000  0.14671000  0.90740000  1.0
  C  C181  1  0.76078000  0.35328000  0.59260000  1.0
  C  C182  1  0.73922000  0.85329000  0.09261000  1.0
  C  C183  1  0.23921000  0.64672000  0.40740000  1.0
  C  C184  1  0.20946000  0.21717000  0.87693000  1.0
  C  C185  1  0.70945000  0.28283000  0.62307000  1.0
  C  C186  1  0.79055000  0.78283000  0.12307000  1.0
  C  C187  1  0.29054000  0.71717000  0.37694000  1.0
  C  C188  1  0.49252000  0.32450000  0.85009000  1.0
  C  C189  1  0.99252000  0.17549000  0.64990000  1.0
  C  C190  1  0.50749000  0.67550000  0.14992000  1.0
  C  C191  1  0.00748000  0.82451000  0.35010000  1.0
  C  C192  1  0.44483000  0.26885000  0.89330000  1.0
  C  C193  1  0.94482000  0.23114000  0.60669000  1.0
  C  C194  1  0.55518000  0.73115000  0.10671000  1.0
  C  C195  1  0.05517000  0.76886000  0.39331000  1.0
  C  C196  1  0.40280000  0.20160000  0.85182000  1.0
  C  C197  1  0.90280000  0.29839000  0.64818000  1.0
  C  C198  1  0.59721000  0.79840000  0.14819000  1.0
  C  C199  1  0.09720000  0.70161000  0.35183000  1.0
  C  C200  1  0.41134000  0.19458000  0.76803000  1.0
  C  C201  1  0.91134000  0.30541000  0.73196000  1.0
  C  C202  1  0.58867000  0.80542000  0.23198000  1.0
  C  C203  1  0.08866000  0.69458000  0.26804000  1.0
  C  C204  1  0.46078000  0.25302000  0.73047000  1.0
  C  C205  1  0.96078000  0.24697000  0.76952000  1.0
  C  C206  1  0.53923000  0.74698000  0.26953000  1.0
  C  C207  1  0.03922000  0.75302000  0.23048000  1.0
  C  C208  1  0.15553000  0.81979000  0.83127000  1.0
  C  C209  1  0.65553000  0.68021000  0.66872000  1.0
  C  C210  1  0.84447000  0.18022000  0.16872000  1.0
  C  C211  1  0.34447000  0.31978000  0.33128000  1.0
  C  C212  1  0.15523000  0.87778000  0.90560000  1.0
  C  C213  1  0.65522000  0.62222000  0.59440000  1.0
  C  C214  1  0.84478000  0.12223000  0.09440000  1.0
  C  C215  1  0.34478000  0.37778000  0.40560000  1.0
  C  C216  1  0.08840000  0.87270000  0.96516000  1.0
  C  C217  1  0.58840000  0.62730000  0.53484000  1.0
  C  C218  1  0.91160000  0.12731000  0.03483000  1.0
  C  C219  1  0.41160000  0.37270000  0.46516000  1.0
  C  C220  1  0.08122000  0.93272000  0.03062000  1.0
  C  C221  1  0.58122000  0.56727000  0.46938000  1.0
  C  C222  1  0.91878000  0.06728000  0.96938000  1.0
  C  C223  1  0.41879000  0.43272000  0.53062000  1.0
  C  C224  1  0.00906000  0.92918000  0.09223000  1.0
  C  C225  1  0.50906000  0.57082000  0.40777000  1.0
  C  C226  1  0.99094000  0.07082000  0.90777000  1.0
  C  C227  1  0.49094000  0.42919000  0.59223000  1.0
  C  C228  1  0.87613000  0.75314000  0.91955000  1.0
  C  C229  1  0.37612000  0.74685000  0.58045000  1.0
  C  C230  1  0.12387000  0.24685000  0.08045000  1.0
  C  C231  1  0.62387000  0.25315000  0.41955000  1.0
  C  C232  1  0.93450000  0.81908000  0.93149000  1.0
  C  C233  1  0.43450000  0.68092000  0.56851000  1.0
  C  C234  1  0.06549000  0.18092000  0.06851000  1.0
  C  C235  1  0.56550000  0.31908000  0.43149000  1.0
  C  C236  1  0.02253000  0.80481000  0.95477000  1.0
  C  C237  1  0.52253000  0.69519000  0.54523000  1.0
  C  C238  1  0.97747000  0.19520000  0.04522000  1.0
  C  C239  1  0.47747000  0.30481000  0.45477000  1.0
  C  C240  1  0.04707000  0.72317000  0.96545000  1.0
  C  C241  1  0.54706000  0.77684000  0.53454000  1.0
  C  C242  1  0.95293000  0.27684000  0.03454000  1.0
  C  C243  1  0.45293000  0.22316000  0.46546000  1.0
  C  C244  1  0.98504000  0.66043000  0.95088000  1.0
  C  C245  1  0.48504000  0.83957000  0.54911000  1.0
  C  C246  1  0.01496000  0.33957000  0.04911000  1.0
  C  C247  1  0.51496000  0.16043000  0.45088000  1.0
  N  N248  1  0.28878000  0.94280000  0.43834000  1.0
  N  N249  1  0.78878000  0.55720000  0.06166000  1.0
  N  N250  1  0.71122000  0.05720000  0.56167000  1.0
  N  N251  1  0.21122000  0.44280000  0.93834000  1.0
  N  N252  1  0.50121000  0.31771000  0.76982000  1.0
  N  N253  1  0.00121000  0.18228000  0.73017000  1.0
  N  N254  1  0.49880000  0.68229000  0.23018000  1.0
  N  N255  1  0.99880000  0.81771000  0.26983000  1.0
  N  N256  1  0.90109000  0.67502000  0.92813000  1.0
  N  N257  1  0.40108000  0.82497000  0.57186000  1.0
  N  N258  1  0.09891000  0.32498000  0.07187000  1.0
  N  N259  1  0.59891000  0.17502000  0.42813000  1.0
  Cl  Cl260  1  0.15769000  0.86048000  0.60683000  1.0
  Cl  Cl261  1  0.65769000  0.63951000  0.89317000  1.0
  Cl  Cl262  1  0.84230000  0.13951000  0.39317000  1.0
  Cl  Cl263  1  0.34231000  0.36049000  0.10683000  1.0
  Cl  Cl264  1  0.39557000  0.04747000  0.60459000  1.0
  Cl  Cl265  1  0.89557000  0.45252000  0.89540000  1.0
  Cl  Cl266  1  0.60443000  0.95252000  0.39541000  1.0
  Cl  Cl267  1  0.10443000  0.54748000  0.10460000  1.0
  O  O268  1  0.28790000  0.91060000  0.05318000  1.0
  O  O269  1  0.78789000  0.58940000  0.44682000  1.0
  O  O270  1  0.71211000  0.08940000  0.94682000  1.0
  O  O271  1  0.21211000  0.41060000  0.55318000  1.0
  O  O272  1  0.28218000  0.07404000  0.08878000  1.0
  O  O273  1  0.78218000  0.42597000  0.41122000  1.0
  O  O274  1  0.71782000  0.92596000  0.91122000  1.0
  O  O275  1  0.21782000  0.57403000  0.58878000  1.0
  O  O276  1  0.36575000  0.01074000  0.95488000  1.0
  O  O277  1  0.86575000  0.48926000  0.54512000  1.0
  O  O278  1  0.63425000  0.98926000  0.04512000  1.0
  O  O279  1  0.13425000  0.51073000  0.45488000  1.0
  O  O280  1  0.21428000  0.09579000  0.94543000  1.0
  O  O281  1  0.71429000  0.40420000  0.55457000  1.0
  O  O282  1  0.78573000  0.90421000  0.05457000  1.0
  O  O283  1  0.28571000  0.59579000  0.44544000  1.0
  O  O284  1  0.21802000  0.93118000  0.90966000  1.0
  O  O285  1  0.71802000  0.56882000  0.59034000  1.0
  O  O286  1  0.78198000  0.06882000  0.09034000  1.0
  O  O287  1  0.28198000  0.43118000  0.40966000  1.0
  O  O288  1  0.13638000  0.99302000  0.04227000  1.0
  O  O289  1  0.63638000  0.50698000  0.45773000  1.0
  O  O290  1  0.86362000  0.00698000  0.95773000  1.0
  O  O291  1  0.36362000  0.49302000  0.54227000  1.0
