# generated using pymatgen
data_CaH8C14SIO6
_symmetry_space_group_name_H-M   'P 1'
_cell_length_a   5.57601000
_cell_length_b   11.83680000
_cell_length_c   22.70920000
_cell_angle_alpha   100.60700000
_cell_angle_beta   89.99980000
_cell_angle_gamma   89.99950000
_symmetry_Int_Tables_number   1
_chemical_formula_structural   CaH8C14SIO6
_chemical_formula_sum   'Ca4 H32 C56 S4 I4 O24'
_cell_volume   1473.24409634
_cell_formula_units_Z   4
loop_
 _symmetry_equiv_pos_site_id
 _symmetry_equiv_pos_as_xyz
  1  'x, y, z'
loop_
 _atom_site_type_symbol
 _atom_site_label
 _atom_site_symmetry_multiplicity
 _atom_site_fract_x
 _atom_site_fract_y
 _atom_site_fract_z
 _atom_site_occupancy
  Ca  Ca0  1  0.20322000  0.63431000  0.21891000  1.0
  Ca  Ca1  1  0.70321000  0.86568000  0.28109000  1.0
  Ca  Ca2  1  0.79680000  0.36567000  0.78109000  1.0
  Ca  Ca3  1  0.29678000  0.13433000  0.71891000  1.0
  H  H4  1  0.38427000  0.34933000  0.17200000  1.0
  H  H5  1  0.88424000  0.15065000  0.32800000  1.0
  H  H6  1  0.61573000  0.65066000  0.82799000  1.0
  H  H7  1  0.11576000  0.84933000  0.67200000  1.0
  H  H8  1  0.48642000  0.18484000  0.22286000  1.0
  H  H9  1  0.98641000  0.31514000  0.27714000  1.0
  H  H10  1  0.51358000  0.81516000  0.77713000  1.0
  H  H11  1  0.01360000  0.68484000  0.72285000  1.0
  H  H12  1  0.80446000  0.02790000  0.17118000  1.0
  H  H13  1  0.30447000  0.47209000  0.32881000  1.0
  H  H14  1  0.19555000  0.97209000  0.82880000  1.0
  H  H15  1  0.69558000  0.52791000  0.67119000  1.0
  H  H16  1  0.70819000  0.18591000  0.11585000  1.0
  H  H17  1  0.20817000  0.31409000  0.38415000  1.0
  H  H18  1  0.29182000  0.81409000  0.88414000  1.0
  H  H19  1  0.79186000  0.68591000  0.61586000  1.0
  H  H20  1  0.40165000  0.43496000  0.04921000  1.0
  H  H21  1  0.90163000  0.06505000  0.45079000  1.0
  H  H22  1  0.59831000  0.56505000  0.95079000  1.0
  H  H23  1  0.09838000  0.93496000  0.54921000  1.0
  H  H24  1  0.53451000  0.38817000  0.94199000  1.0
  H  H25  1  0.03449000  0.11184000  0.55802000  1.0
  H  H26  1  0.46548000  0.61185000  0.05802000  1.0
  H  H27  1  0.96551000  0.88817000  0.44199000  1.0
  H  H28  1  0.86744000  0.21440000  0.89330000  1.0
  H  H29  1  0.36741000  0.28561000  0.60671000  1.0
  H  H30  1  0.13257000  0.78560000  0.10670000  1.0
  H  H31  1  0.63258000  0.71439000  0.39329000  1.0
  H  H32  1  0.73540000  0.25807000  0.99995000  1.0
  H  H33  1  0.23536000  0.24193000  0.50006000  1.0
  H  H34  1  0.26458000  0.74194000  0.00005000  1.0
  H  H35  1  0.76462000  0.75805000  0.49995000  1.0
  C  C36  1  0.04194000  0.27541000  0.14083000  1.0
  C  C37  1  0.54192000  0.22459000  0.35917000  1.0
  C  C38  1  0.95805000  0.72460000  0.85917000  1.0
  C  C39  1  0.45810000  0.77540000  0.64082000  1.0
  C  C40  1  0.26148000  0.27733000  0.17063000  1.0
  C  C41  1  0.76146000  0.22265000  0.32937000  1.0
  C  C42  1  0.73851000  0.72267000  0.82937000  1.0
  C  C43  1  0.23854000  0.77733000  0.67063000  1.0
  C  C44  1  0.31706000  0.18605000  0.19916000  1.0
  C  C45  1  0.81705000  0.31393000  0.30084000  1.0
  C  C46  1  0.68293000  0.81396000  0.80084000  1.0
  C  C47  1  0.18296000  0.68605000  0.69916000  1.0
  C  C48  1  0.15416000  0.09612000  0.19941000  1.0
  C  C49  1  0.65415000  0.40386000  0.30059000  1.0
  C  C50  1  0.84584000  0.90388000  0.80059000  1.0
  C  C51  1  0.34587000  0.59612000  0.69941000  1.0
  C  C52  1  0.93432000  0.09608000  0.16942000  1.0
  C  C53  1  0.43432000  0.40391000  0.33058000  1.0
  C  C54  1  0.06567000  0.90392000  0.83057000  1.0
  C  C55  1  0.56571000  0.59608000  0.66942000  1.0
  C  C56  1  0.87899000  0.18478000  0.13902000  1.0
  C  C57  1  0.37898000  0.31521000  0.36098000  1.0
  C  C58  1  0.12100000  0.81522000  0.86097000  1.0
  C  C59  1  0.62105000  0.68478000  0.63903000  1.0
  C  C60  1  0.21295000  0.00298000  0.23455000  1.0
  C  C61  1  0.71296000  0.49701000  0.26546000  1.0
  C  C62  1  0.78704000  0.99703000  0.76545000  1.0
  C  C63  1  0.28707000  0.50297000  0.73455000  1.0
  C  C64  1  0.05953000  0.35163000  0.02983000  1.0
  C  C65  1  0.55951000  0.14838000  0.47018000  1.0
  C  C66  1  0.94044000  0.64838000  0.97017000  1.0
  C  C67  1  0.44048000  0.85162000  0.52983000  1.0
  C  C68  1  0.28576000  0.38795000  0.01476000  1.0
  C  C69  1  0.78575000  0.11207000  0.48524000  1.0
  C  C70  1  0.71421000  0.61207000  0.98524000  1.0
  C  C71  1  0.21426000  0.88794000  0.51476000  1.0
  C  C72  1  0.35971000  0.36113000  0.95541000  1.0
  C  C73  1  0.85970000  0.13888000  0.54460000  1.0
  C  C74  1  0.64027000  0.63888000  0.04460000  1.0
  C  C75  1  0.14031000  0.86113000  0.45540000  1.0
  C  C76  1  0.20967000  0.30005000  0.91141000  1.0
  C  C77  1  0.70965000  0.19997000  0.58859000  1.0
  C  C78  1  0.79033000  0.69996000  0.08859000  1.0
  C  C79  1  0.29034000  0.80004000  0.41141000  1.0
  C  C80  1  0.98505000  0.26191000  0.92746000  1.0
  C  C81  1  0.48502000  0.23810000  0.57254000  1.0
  C  C82  1  0.01495000  0.73809000  0.07254000  1.0
  C  C83  1  0.51497000  0.76190000  0.42746000  1.0
  C  C84  1  0.90993000  0.28678000  0.98706000  1.0
  C  C85  1  0.40990000  0.21323000  0.51294000  1.0
  C  C86  1  0.09005000  0.71323000  0.01294000  1.0
  C  C87  1  0.59009000  0.78676000  0.48706000  1.0
  C  C88  1  0.29465000  0.27817000  0.84752000  1.0
  C  C89  1  0.79462000  0.22185000  0.65248000  1.0
  C  C90  1  0.70536000  0.72183000  0.15248000  1.0
  C  C91  1  0.20536000  0.77816000  0.34752000  1.0
  S  S92  1  0.96350000  0.39134000  0.10530000  1.0
  S  S93  1  0.46348000  0.10866000  0.39471000  1.0
  S  S94  1  0.03647000  0.60866000  0.89470000  1.0
  S  S95  1  0.53652000  0.89134000  0.60530000  1.0
  I  I96  1  0.27024000  0.03068000  0.01799000  1.0
  I  I97  1  0.77020000  0.46931000  0.48201000  1.0
  I  I98  1  0.72984000  0.96930000  0.98200000  1.0
  I  I99  1  0.22979000  0.53068000  0.51799000  1.0
  O  O100  1  0.03812000  0.96068000  0.25866000  1.0
  O  O101  1  0.53812000  0.53930000  0.24135000  1.0
  O  O102  1  0.96189000  0.03933000  0.74134000  1.0
  O  O103  1  0.46192000  0.46068000  0.75865000  1.0
  O  O104  1  0.43252000  0.97674000  0.23816000  1.0
  O  O105  1  0.93253000  0.52326000  0.26185000  1.0
  O  O106  1  0.56748000  0.02327000  0.76184000  1.0
  O  O107  1  0.06751000  0.47673000  0.73816000  1.0
  O  O108  1  0.51740000  0.27881000  0.83739000  1.0
  O  O109  1  0.01737000  0.22120000  0.66261000  1.0
  O  O110  1  0.48261000  0.72118000  0.16261000  1.0
  O  O111  1  0.98261000  0.77881000  0.33739000  1.0
  O  O112  1  0.13465000  0.25799000  0.80623000  1.0
  O  O113  1  0.63462000  0.24203000  0.69377000  1.0
  O  O114  1  0.86536000  0.74202000  0.19377000  1.0
  O  O115  1  0.36536000  0.75798000  0.30623000  1.0
  O  O116  1  0.70454000  0.40120000  0.10622000  1.0
  O  O117  1  0.20452000  0.09881000  0.39379000  1.0
  O  O118  1  0.29543000  0.59880000  0.89378000  1.0
  O  O119  1  0.79548000  0.90120000  0.60622000  1.0
  O  O120  1  0.10996000  0.49037000  0.13137000  1.0
  O  O121  1  0.60994000  0.00963000  0.36864000  1.0
  O  O122  1  0.89000000  0.50964000  0.86863000  1.0
  O  O123  1  0.39007000  0.99036000  0.63137000  1.0
