# generated using pymatgen
data_CuH14C17S(NO3)2
_symmetry_space_group_name_H-M   'P 1'
_cell_length_a   8.98325000
_cell_length_b   10.87900000
_cell_length_c   11.03080000
_cell_angle_alpha   106.65000000
_cell_angle_beta   106.83400000
_cell_angle_gamma   107.37600000
_symmetry_Int_Tables_number   1
_chemical_formula_structural   CuH14C17S(NO3)2
_chemical_formula_sum   'Cu2 H28 C34 S2 N4 O12'
_cell_volume   898.90107166
_cell_formula_units_Z   2
loop_
 _symmetry_equiv_pos_site_id
 _symmetry_equiv_pos_as_xyz
  1  'x, y, z'
loop_
 _atom_site_type_symbol
 _atom_site_label
 _atom_site_symmetry_multiplicity
 _atom_site_fract_x
 _atom_site_fract_y
 _atom_site_fract_z
 _atom_site_occupancy
  Cu  Cu0  1  0.87559000  0.14634000  0.04972000  1.0
  Cu  Cu1  1  0.12441000  0.85366000  0.95028000  1.0
  H  H2  1  0.91666000  0.40670000  0.13024000  1.0
  H  H3  1  0.08333000  0.59330000  0.86976000  1.0
  H  H4  1  0.13184000  0.25960000  0.32724000  1.0
  H  H5  1  0.86816000  0.74041000  0.67276000  1.0
  H  H6  1  0.14675000  0.26837000  0.55984000  1.0
  H  H7  1  0.85325000  0.73163000  0.44017000  1.0
  H  H8  1  0.60101000  0.01505000  0.36152000  1.0
  H  H9  1  0.39899000  0.98495000  0.63847000  1.0
  H  H10  1  0.60922000  0.01486000  0.13756000  1.0
  H  H11  1  0.39077000  0.98514000  0.86244000  1.0
  H  H12  1  0.13269000  0.14943000  0.69635000  1.0
  H  H13  1  0.86732000  0.85057000  0.30365000  1.0
  H  H14  1  0.13051000  0.15885000  0.92181000  1.0
  H  H15  1  0.86947000  0.84115000  0.07819000  1.0
  H  H16  1  0.64801000  0.15666000  0.81487000  1.0
  H  H17  1  0.35198000  0.84333000  0.18513000  1.0
  H  H18  1  0.62768000  0.14588000  0.57890000  1.0
  H  H19  1  0.37232000  0.85412000  0.42111000  1.0
  H  H20  1  0.13336000  0.50768000  0.64759000  1.0
  H  H21  1  0.86662000  0.49232000  0.35240000  1.0
  H  H22  1  0.11827000  0.48132000  0.41070000  1.0
  H  H23  1  0.88173000  0.51869000  0.58929000  1.0
  H  H24  1  0.37508000  0.61349000  0.38424000  1.0
  H  H25  1  0.62495000  0.38652000  0.61576000  1.0
  H  H26  1  0.64202000  0.78368000  0.59525000  1.0
  H  H27  1  0.35802000  0.21632000  0.40477000  1.0
  H  H28  1  0.08483000  0.40008000  0.10817000  1.0
  H  H29  1  0.91516000  0.59991000  0.89183000  1.0
  C  C30  1  0.01877000  0.20617000  0.34116000  1.0
  C  C31  1  0.98124000  0.79383000  0.65884000  1.0
  C  C32  1  0.02550000  0.20829000  0.46886000  1.0
  C  C33  1  0.97450000  0.79171000  0.53114000  1.0
  C  C34  1  0.87432000  0.13992000  0.48035000  1.0
  C  C35  1  0.12568000  0.86008000  0.51965000  1.0
  C  C36  1  0.72245000  0.07029000  0.35936000  1.0
  C  C37  1  0.27756000  0.92971000  0.64065000  1.0
  C  C38  1  0.72495000  0.07017000  0.23377000  1.0
  C  C39  1  0.27505000  0.92983000  0.76624000  1.0
  C  C40  1  0.87766000  0.14394000  0.61578000  1.0
  C  C41  1  0.12234000  0.85605000  0.38422000  1.0
  C  C42  1  0.02081000  0.15001000  0.71583000  1.0
  C  C43  1  0.97919000  0.84997000  0.28417000  1.0
  C  C44  1  0.02101000  0.15460000  0.84296000  1.0
  C  C45  1  0.97897000  0.84539000  0.15704000  1.0
  C  C46  1  0.74912000  0.15154000  0.78042000  1.0
  C  C47  1  0.25088000  0.84846000  0.21959000  1.0
  C  C48  1  0.73952000  0.14501000  0.65078000  1.0
  C  C49  1  0.26048000  0.85498000  0.34923000  1.0
  C  C50  1  0.70303000  0.85117000  0.85774000  1.0
  C  C51  1  0.29697000  0.14882000  0.14226000  1.0
  C  C52  1  0.53687000  0.74207000  0.73868000  1.0
  C  C53  1  0.46314000  0.25793000  0.26132000  1.0
  C  C54  1  0.39252000  0.66326000  0.75309000  1.0
  C  C55  1  0.60747000  0.33674000  0.24690000  1.0
  C  C56  1  0.24280000  0.56991000  0.63464000  1.0
  C  C57  1  0.75719000  0.43008000  0.36535000  1.0
  C  C58  1  0.23500000  0.55426000  0.50262000  1.0
  C  C59  1  0.76501000  0.44574000  0.49737000  1.0
  C  C60  1  0.37927000  0.62941000  0.48760000  1.0
  C  C61  1  0.62074000  0.37059000  0.51240000  1.0
  C  C62  1  0.52874000  0.72298000  0.60529000  1.0
  C  C63  1  0.47128000  0.27702000  0.39471000  1.0
  S  S64  1  0.39731000  0.67329000  0.92063000  1.0
  S  S65  1  0.60268000  0.32671000  0.07936000  1.0
  N  N66  1  0.87184000  0.13785000  0.22586000  1.0
  N  N67  1  0.12815000  0.86215000  0.77414000  1.0
  N  N68  1  0.88708000  0.15483000  0.87444000  1.0
  N  N69  1  0.11292000  0.84517000  0.12556000  1.0
  O  O70  1  0.68886000  0.95450000  0.93846000  1.0
  O  O71  1  0.31114000  0.04550000  0.06155000  1.0
  O  O72  1  0.83867000  0.83876000  0.86318000  1.0
  O  O73  1  0.16135000  0.16124000  0.13683000  1.0
  O  O74  1  0.55808000  0.67015000  0.99391000  1.0
  O  O75  1  0.44192000  0.32985000  0.00609000  1.0
  O  O76  1  0.38228000  0.80523000  0.98624000  1.0
  O  O77  1  0.61771000  0.19476000  0.01375000  1.0
  O  O78  1  0.24124000  0.54922000  0.88790000  1.0
  O  O79  1  0.75876000  0.45078000  0.11208000  1.0
  O  O80  1  0.00862000  0.36939000  0.15122000  1.0
  O  O81  1  0.99137000  0.63061000  0.84878000  1.0
