# generated using pymatgen
data_RbP2H11(C2O)6
_symmetry_space_group_name_H-M   'P 1'
_cell_length_a   5.82581000
_cell_length_b   7.69307000
_cell_length_c   15.21820000
_cell_angle_alpha   101.44900000
_cell_angle_beta   92.88990000
_cell_angle_gamma   94.06200000
_symmetry_Int_Tables_number   1
_chemical_formula_structural   RbP2H11(C2O)6
_chemical_formula_sum   'Rb2 P4 H22 C24 O12'
_cell_volume   665.35213196
_cell_formula_units_Z   2
loop_
 _symmetry_equiv_pos_site_id
 _symmetry_equiv_pos_as_xyz
  1  'x, y, z'
loop_
 _atom_site_type_symbol
 _atom_site_label
 _atom_site_symmetry_multiplicity
 _atom_site_fract_x
 _atom_site_fract_y
 _atom_site_fract_z
 _atom_site_occupancy
  Rb  Rb0  1  0.78303000  0.77930000  0.51086000  1.0
  Rb  Rb1  1  0.21698000  0.22071000  0.48914000  1.0
  P  P2  1  0.25499000  0.69031000  0.33939000  1.0
  P  P3  1  0.74501000  0.30969000  0.66060000  1.0
  P  P4  1  0.29671000  0.78520000  0.66952000  1.0
  P  P5  1  0.70330000  0.21479000  0.33048000  1.0
  H  H6  1  0.66347000  0.77944000  0.25026000  1.0
  H  H7  1  0.33652000  0.22056000  0.74974000  1.0
  H  H8  1  0.94535000  0.50481000  0.35680000  1.0
  H  H9  1  0.05465000  0.49519000  0.64320000  1.0
  H  H10  1  0.77644000  0.69632000  0.09760000  1.0
  H  H11  1  0.22355000  0.30368000  0.90240000  1.0
  H  H12  1  0.57149000  0.55632000  0.63943000  1.0
  H  H13  1  0.42852000  0.44368000  0.36057000  1.0
  H  H14  1  0.12776000  0.37787000  0.02267000  1.0
  H  H15  1  0.87223000  0.62214000  0.97732000  1.0
  H  H16  1  0.45859000  0.02012000  0.62524000  1.0
  H  H17  1  0.54141000  0.97988000  0.37477000  1.0
  H  H18  1  0.01216000  0.46719000  0.17572000  1.0
  H  H19  1  0.98783000  0.53281000  0.82427000  1.0
  H  H20  1  0.90584000  0.98127000  0.73439000  1.0
  H  H21  1  0.09416000  0.01874000  0.26562000  1.0
  H  H22  1  0.76937000  0.07711000  0.88282000  1.0
  H  H23  1  0.23065000  0.92290000  0.11719000  1.0
  H  H24  1  0.34331000  0.85218000  0.99901000  1.0
  H  H25  1  0.65670000  0.14782000  0.00099000  1.0
  H  H26  1  0.48225000  0.75981000  0.84902000  1.0
  H  H27  1  0.51773000  0.24017000  0.15098000  1.0
  C  C28  1  0.32805000  0.63076000  0.22448000  1.0
  C  C29  1  0.67193000  0.36924000  0.77552000  1.0
  C  C30  1  0.54349000  0.69306000  0.20046000  1.0
  C  C31  1  0.45649000  0.30694000  0.79954000  1.0
  C  C32  1  0.60852000  0.64335000  0.11302000  1.0
  C  C33  1  0.39148000  0.35665000  0.88698000  1.0
  C  C34  1  0.46342000  0.52792000  0.04628000  1.0
  C  C35  1  0.53657000  0.47208000  0.95372000  1.0
  C  C36  1  0.24728000  0.46715000  0.07129000  1.0
  C  C37  1  0.75272000  0.53285000  0.92871000  1.0
  C  C38  1  0.18016000  0.51755000  0.15865000  1.0
  C  C39  1  0.81983000  0.48246000  0.84134000  1.0
  C  C40  1  0.20527000  0.86347000  0.78077000  1.0
  C  C41  1  0.79471000  0.13652000  0.21923000  1.0
  C  C42  1  0.00392000  0.95341000  0.79222000  1.0
  C  C43  1  0.99608000  0.04659000  0.20779000  1.0
  C  C44  1  0.92575000  0.00719000  0.87741000  1.0
  C  C45  1  0.07426000  0.99281000  0.12258000  1.0
  C  C46  1  0.04313000  0.97234000  0.95464000  1.0
  C  C47  1  0.95688000  0.02767000  0.04537000  1.0
  C  C48  1  0.24521000  0.88239000  0.94193000  1.0
  C  C49  1  0.75480000  0.11760000  0.05806000  1.0
  C  C50  1  0.32545000  0.82914000  0.85678000  1.0
  C  C51  1  0.67454000  0.17086000  0.14322000  1.0
  O  O52  1  0.40060000  0.58015000  0.39465000  1.0
  O  O53  1  0.59941000  0.41986000  0.60535000  1.0
  O  O54  1  0.31090000  0.88744000  0.37686000  1.0
  O  O55  1  0.68909000  0.11257000  0.62313000  1.0
  O  O56  1  0.99254000  0.63769000  0.34249000  1.0
  O  O57  1  0.00747000  0.36231000  0.65751000  1.0
  O  O58  1  0.53905000  0.72384000  0.67619000  1.0
  O  O59  1  0.46095000  0.27615000  0.32382000  1.0
  O  O60  1  0.11216000  0.64651000  0.61709000  1.0
  O  O61  1  0.88784000  0.35348000  0.38290000  1.0
  O  O62  1  0.29786000  0.94781000  0.61919000  1.0
  O  O63  1  0.70215000  0.05219000  0.38081000  1.0
