# generated using pymatgen
data_AgH2C3SO4
_symmetry_space_group_name_H-M   'P 1'
_cell_length_a   5.36161000
_cell_length_b   5.37007000
_cell_length_c   17.60823937
_cell_angle_alpha   98.06722376
_cell_angle_beta   96.94552548
_cell_angle_gamma   98.06240000
_symmetry_Int_Tables_number   1
_chemical_formula_structural   AgH2C3SO4
_chemical_formula_sum   'Ag4 H8 C12 S4 O16'
_cell_volume   491.86301473
_cell_formula_units_Z   4
loop_
 _symmetry_equiv_pos_site_id
 _symmetry_equiv_pos_as_xyz
  1  'x, y, z'
loop_
 _atom_site_type_symbol
 _atom_site_label
 _atom_site_symmetry_multiplicity
 _atom_site_fract_x
 _atom_site_fract_y
 _atom_site_fract_z
 _atom_site_occupancy
  Ag  Ag0  1  0.81353000  0.67678000  0.50037000  1.0
  Ag  Ag1  1  0.67639000  0.31333000  0.99999000  1.0
  Ag  Ag2  1  0.18648000  0.32322000  0.49963000  1.0
  Ag  Ag3  1  0.32358000  0.68666000  0.00001000  1.0
  H  H4  1  0.71274000  0.18463000  0.36578000  1.0
  H  H5  1  0.31916000  0.34684000  0.13401000  1.0
  H  H6  1  0.28725000  0.81536000  0.63422000  1.0
  H  H7  1  0.68084000  0.65316000  0.86599000  1.0
  H  H8  1  0.20067000  0.95061000  0.25008000  1.0
  H  H9  1  0.79933000  0.04938000  0.74992000  1.0
  H  H10  1  0.49671000  0.24666000  0.24984000  1.0
  H  H11  1  0.50329000  0.75335000  0.75016000  1.0
  C  C12  1  0.04648000  0.79640000  0.25001000  1.0
  C  C13  1  0.95353000  0.20360000  0.74999000  1.0
  C  C14  1  0.05408000  0.65596000  0.31055000  1.0
  C  C15  1  0.84561000  0.74358000  0.18941000  1.0
  C  C16  1  0.94592000  0.34405000  0.68945000  1.0
  C  C17  1  0.15439000  0.25642000  0.81059000  1.0
  C  C18  1  0.85478000  0.45331000  0.31041000  1.0
  C  C19  1  0.64305000  0.54442000  0.18947000  1.0
  C  C20  1  0.14521000  0.54667000  0.68958000  1.0
  C  C21  1  0.35695000  0.45558000  0.81053000  1.0
  C  C22  1  0.65129000  0.40130000  0.24992000  1.0
  C  C23  1  0.34872000  0.59871000  0.75009000  1.0
  S  S24  1  0.30184000  0.75973000  0.38906000  1.0
  S  S25  1  0.87056000  0.91270000  0.11088000  1.0
  S  S26  1  0.69816000  0.24027000  0.61094000  1.0
  S  S27  1  0.12943000  0.08729000  0.88911000  1.0
  O  O28  1  0.41034000  0.53392000  0.40915000  1.0
  O  O29  1  0.62407000  0.00066000  0.09092000  1.0
  O  O30  1  0.58965000  0.46609000  0.59085000  1.0
  O  O31  1  0.37592000  0.99934000  0.90908000  1.0
  O  O32  1  0.48559000  0.94338000  0.36262000  1.0
  O  O33  1  0.08074000  0.12273000  0.13722000  1.0
  O  O34  1  0.51441000  0.05663000  0.63738000  1.0
  O  O35  1  0.91925000  0.87727000  0.86278000  1.0
  O  O36  1  0.18293000  0.87512000  0.45482000  1.0
  O  O37  1  0.92028000  0.72837000  0.04510000  1.0
  O  O38  1  0.81707000  0.12488000  0.54518000  1.0
  O  O39  1  0.07971000  0.27163000  0.95490000  1.0
  O  O40  1  0.86674000  0.31690000  0.36933000  1.0
  O  O41  1  0.44778000  0.49731000  0.13049000  1.0
  O  O42  1  0.13327000  0.68310000  0.63067000  1.0
  O  O43  1  0.55223000  0.50269000  0.86951000  1.0
