# generated using pymatgen
data_MnH8C12(NO2)2
_symmetry_space_group_name_H-M   'P 1'
_cell_length_a   10.31110000
_cell_length_b   10.33030000
_cell_length_c   10.95240000
_cell_angle_alpha   90.00000000
_cell_angle_beta   90.00000000
_cell_angle_gamma   107.96200000
_symmetry_Int_Tables_number   1
_chemical_formula_structural   MnH8C12(NO2)2
_chemical_formula_sum   'Mn4 H32 C48 N8 O16'
_cell_volume   1109.75481375
_cell_formula_units_Z   4
loop_
 _symmetry_equiv_pos_site_id
 _symmetry_equiv_pos_as_xyz
  1  'x, y, z'
loop_
 _atom_site_type_symbol
 _atom_site_label
 _atom_site_symmetry_multiplicity
 _atom_site_fract_x
 _atom_site_fract_y
 _atom_site_fract_z
 _atom_site_occupancy
  Mn  Mn0  1  0.91067000  0.48632000  0.63871000  1.0
  Mn  Mn1  1  0.58933000  0.51368000  0.13870000  1.0
  Mn  Mn2  1  0.08933000  0.51368000  0.36130000  1.0
  Mn  Mn3  1  0.41066000  0.48631000  0.86129000  1.0
  H  H4  1  0.86409000  0.97324000  0.58342000  1.0
  H  H5  1  0.63591000  0.02676000  0.08342000  1.0
  H  H6  1  0.13591000  0.02676000  0.41658000  1.0
  H  H7  1  0.36409000  0.97324000  0.91658000  1.0
  H  H8  1  0.68846000  0.87938000  0.74799000  1.0
  H  H9  1  0.81154000  0.12062000  0.24799000  1.0
  H  H10  1  0.31154000  0.12062000  0.25201000  1.0
  H  H11  1  0.18846000  0.87938000  0.75201000  1.0
  H  H12  1  0.59533000  0.03914000  0.86363000  1.0
  H  H13  1  0.90467000  0.96085000  0.36363000  1.0
  H  H14  1  0.40467000  0.96085000  0.13637000  1.0
  H  H15  1  0.09533000  0.03914000  0.63637000  1.0
  H  H16  1  0.67501000  0.28855000  0.80571000  1.0
  H  H17  1  0.82499000  0.71144000  0.30571000  1.0
  H  H18  1  0.32499000  0.71145000  0.19429000  1.0
  H  H19  1  0.17501000  0.28856000  0.69428000  1.0
  H  H20  1  0.17590000  0.69147000  0.03174000  1.0
  H  H21  1  0.32410000  0.30853000  0.53174000  1.0
  H  H22  1  0.82411000  0.30853000  0.96826000  1.0
  H  H23  1  0.67589000  0.69147000  0.46826000  1.0
  H  H24  1  0.04825000  0.85640000  0.08959000  1.0
  H  H25  1  0.45175000  0.14361000  0.58959000  1.0
  H  H26  1  0.95174000  0.14360000  0.91042000  1.0
  H  H27  1  0.54825000  0.85640000  0.41041000  1.0
  H  H28  1  0.85785000  0.87142000  0.95165000  1.0
  H  H29  1  0.64215000  0.12858000  0.45165000  1.0
  H  H30  1  0.14215000  0.12858000  0.04836000  1.0
  H  H31  1  0.35785000  0.87142000  0.54836000  1.0
  H  H32  1  0.80120000  0.72058000  0.76804000  1.0
  H  H33  1  0.69880000  0.27942000  0.26804000  1.0
  H  H34  1  0.19881000  0.27942000  0.23196000  1.0
  H  H35  1  0.30119000  0.72058000  0.73197000  1.0
  C  C36  1  0.95981000  0.24131000  0.51035000  1.0
  C  C37  1  0.54019000  0.75869000  0.01034000  1.0
  C  C38  1  0.04019000  0.75869000  0.48964000  1.0
  C  C39  1  0.45981000  0.24132000  0.98965000  1.0
  C  C40  1  0.86018000  0.17857000  0.61184000  1.0
  C  C41  1  0.63983000  0.82143000  0.11184000  1.0
  C  C42  1  0.13983000  0.82143000  0.38816000  1.0
  C  C43  1  0.36016000  0.17857000  0.88814000  1.0
  C  C44  1  0.82002000  0.03902000  0.63576000  1.0
  C  C45  1  0.67998000  0.96097000  0.13576000  1.0
  C  C46  1  0.17998000  0.96098000  0.36424000  1.0
  C  C47  1  0.32002000  0.03902000  0.86424000  1.0
  C  C48  1  0.72365000  0.98789000  0.72740000  1.0
  C  C49  1  0.77635000  0.01211000  0.22740000  1.0
  C  C50  1  0.27635000  0.01211000  0.27260000  1.0
  C  C51  1  0.22365000  0.98789000  0.77260000  1.0
  C  C52  1  0.67039000  0.07646000  0.79159000  1.0
  C  C53  1  0.82962000  0.92354000  0.29159000  1.0
  C  C54  1  0.32962000  0.92354000  0.20841000  1.0
  C  C55  1  0.17039000  0.07646000  0.70841000  1.0
  C  C56  1  0.71561000  0.21444000  0.76160000  1.0
  C  C57  1  0.78439000  0.78556000  0.26160000  1.0
  C  C58  1  0.28439000  0.78556000  0.23840000  1.0
  C  C59  1  0.21562000  0.21444000  0.73840000  1.0
  C  C60  1  0.12467000  0.52162000  0.83631000  1.0
  C  C61  1  0.37533000  0.47838000  0.33631000  1.0
  C  C62  1  0.87530000  0.47838000  0.16368000  1.0
  C  C63  1  0.62469000  0.52162000  0.66370000  1.0
  C  C64  1  0.05044000  0.61950000  0.87546000  1.0
  C  C65  1  0.44957000  0.38050000  0.37546000  1.0
  C  C66  1  0.94956000  0.38049000  0.12452000  1.0
  C  C67  1  0.55043000  0.61950000  0.62455000  1.0
  C  C68  1  0.09030000  0.70111000  0.97868000  1.0
  C  C69  1  0.40970000  0.29889000  0.47868000  1.0
  C  C70  1  0.90970000  0.29892000  0.02133000  1.0
  C  C71  1  0.59030000  0.70110000  0.52133000  1.0
  C  C72  1  0.02034000  0.79244000  0.00860000  1.0
  C  C73  1  0.47966000  0.20756000  0.50860000  1.0
  C  C74  1  0.97966000  0.20755000  0.99141000  1.0
  C  C75  1  0.52034000  0.79244000  0.49140000  1.0
  C  C76  1  0.91457000  0.80056000  0.93264000  1.0
  C  C77  1  0.58543000  0.19944000  0.43264000  1.0
  C  C78  1  0.08542000  0.19944000  0.06735000  1.0
  C  C79  1  0.41457000  0.80055000  0.56737000  1.0
  C  C80  1  0.88150000  0.71583000  0.83076000  1.0
  C  C81  1  0.61850000  0.28417000  0.33076000  1.0
  C  C82  1  0.11849000  0.28418000  0.16925000  1.0
  C  C83  1  0.38150000  0.71583000  0.66925000  1.0
  N  N84  1  0.80896000  0.26453000  0.67429000  1.0
  N  N85  1  0.69104000  0.73546000  0.17429000  1.0
  N  N86  1  0.19104000  0.73546000  0.32571000  1.0
  N  N87  1  0.30896000  0.26453000  0.82571000  1.0
  N  N88  1  0.94692000  0.62591000  0.80264000  1.0
  N  N89  1  0.55308000  0.37409000  0.30263000  1.0
  N  N90  1  0.05308000  0.37408000  0.19736000  1.0
  N  N91  1  0.44694000  0.62593000  0.69736000  1.0
  O  O92  1  0.01879000  0.17109000  0.45407000  1.0
  O  O93  1  0.48122000  0.82890000  0.95407000  1.0
  O  O94  1  0.98122000  0.82890000  0.54593000  1.0
  O  O95  1  0.51878000  0.17110000  0.04593000  1.0
  O  O96  1  0.97248000  0.36835000  0.48973000  1.0
  O  O97  1  0.52752000  0.63165000  0.98972000  1.0
  O  O98  1  0.02751000  0.63164000  0.51026000  1.0
  O  O99  1  0.47250000  0.36836000  0.01024000  1.0
  O  O100  1  0.22384000  0.51633000  0.90300000  1.0
  O  O101  1  0.27614000  0.48366000  0.40300000  1.0
  O  O102  1  0.77617000  0.48367000  0.09700000  1.0
  O  O103  1  0.72383000  0.51633000  0.59701000  1.0
  O  O104  1  0.08459000  0.45476000  0.73881000  1.0
  O  O105  1  0.41542000  0.54525000  0.23881000  1.0
  O  O106  1  0.91540000  0.54524000  0.26118000  1.0
  O  O107  1  0.58460000  0.45477000  0.76119000  1.0
