# generated using pymatgen
data_ZnH16C18(NO)3
_symmetry_space_group_name_H-M   'P 1'
_cell_length_a   16.34130000
_cell_length_b   16.76970000
_cell_length_c   19.59550000
_cell_angle_alpha   80.18730000
_cell_angle_beta   65.35720000
_cell_angle_gamma   60.84650000
_symmetry_Int_Tables_number   1
_chemical_formula_structural   ZnH16C18(NO)3
_chemical_formula_sum   'Zn8 H128 C144 N24 O24'
_cell_volume   4258.92330660
_cell_formula_units_Z   8
loop_
 _symmetry_equiv_pos_site_id
 _symmetry_equiv_pos_as_xyz
  1  'x, y, z'
loop_
 _atom_site_type_symbol
 _atom_site_label
 _atom_site_symmetry_multiplicity
 _atom_site_fract_x
 _atom_site_fract_y
 _atom_site_fract_z
 _atom_site_occupancy
  Zn  Zn0  1  0.65593000  0.58193000  0.37249000  1.0
  Zn  Zn1  1  0.11024000  0.91803000  0.12748000  1.0
  Zn  Zn2  1  0.34407000  0.41807000  0.62751000  1.0
  Zn  Zn3  1  0.88975000  0.08197000  0.87252000  1.0
  Zn  Zn4  1  0.82576000  0.62085000  0.40939000  1.0
  Zn  Zn5  1  0.35592000  0.87901000  0.09065000  1.0
  Zn  Zn6  1  0.17424000  0.37915000  0.59061000  1.0
  Zn  Zn7  1  0.64408000  0.12099000  0.90935000  1.0
  H  H8  1  0.59872000  0.31804000  0.76510000  1.0
  H  H9  1  0.18195000  0.18164000  0.73473000  1.0
  H  H10  1  0.40128000  0.68195000  0.23489000  1.0
  H  H11  1  0.81805000  0.81836000  0.26528000  1.0
  H  H12  1  0.59349000  0.41886000  0.65675000  1.0
  H  H13  1  0.16933000  0.08073000  0.84302000  1.0
  H  H14  1  0.40652000  0.58114000  0.34324000  1.0
  H  H15  1  0.83067000  0.91927000  0.15698000  1.0
  H  H16  1  0.92145000  0.28492000  0.55710000  1.0
  H  H17  1  0.26321000  0.21498000  0.94286000  1.0
  H  H18  1  0.07856000  0.71508000  0.44290000  1.0
  H  H19  1  0.73679000  0.78502000  0.05715000  1.0
  H  H20  1  0.92630000  0.18223000  0.66426000  1.0
  H  H21  1  0.27243000  0.31775000  0.83573000  1.0
  H  H22  1  0.07370000  0.81777000  0.33574000  1.0
  H  H23  1  0.72757000  0.68225000  0.16427000  1.0
  H  H24  1  0.61618000  0.43216000  0.43847000  1.0
  H  H25  1  0.98679000  0.06790000  0.06145000  1.0
  H  H26  1  0.38382000  0.56784000  0.56153000  1.0
  H  H27  1  0.01321000  0.93210000  0.93855000  1.0
  H  H28  1  0.55907000  0.43729000  0.53851000  1.0
  H  H29  1  0.03491000  0.06276000  0.96139000  1.0
  H  H30  1  0.44092000  0.56271000  0.46149000  1.0
  H  H31  1  0.96509000  0.93724000  0.03861000  1.0
  H  H32  1  0.66840000  0.33687000  0.49042000  1.0
  H  H33  1  0.99597000  0.16310000  0.00948000  1.0
  H  H34  1  0.33159000  0.66313000  0.50958000  1.0
  H  H35  1  0.00403000  0.83690000  0.99052000  1.0
  H  H36  1  0.86841000  0.54867000  0.53878000  1.0
  H  H37  1  0.45595000  0.95104000  0.96117000  1.0
  H  H38  1  0.13159000  0.45132000  0.46122000  1.0
  H  H39  1  0.54405000  0.04896000  0.03884000  1.0
  H  H40  1  0.95485000  0.43093000  0.51281000  1.0
  H  H41  1  0.39868000  0.06877000  0.98715000  1.0
  H  H42  1  0.04515000  0.56907000  0.48719000  1.0
  H  H43  1  0.60132000  0.93123000  0.01285000  1.0
  H  H44  1  0.85547000  0.46243000  0.60269000  1.0
  H  H45  1  0.42083000  0.03727000  0.89722000  1.0
  H  H46  1  0.14453000  0.53757000  0.39731000  1.0
  H  H47  1  0.57917000  0.96273000  0.10278000  1.0
  H  H48  1  0.62656000  0.59993000  0.11561000  1.0
  H  H49  1  0.84191000  0.90016000  0.38439000  1.0
  H  H50  1  0.37344000  0.40007000  0.88439000  1.0
  H  H51  1  0.15809000  0.09984000  0.61561000  1.0
  H  H52  1  0.71333000  0.49613000  0.00289000  1.0
  H  H53  1  0.71211000  0.00403000  0.49705000  1.0
  H  H54  1  0.28667000  0.50387000  0.99711000  1.0
  H  H55  1  0.28789000  0.99598000  0.50295000  1.0
  H  H56  1  0.79050000  0.26284000  0.14032000  1.0
  H  H57  1  0.69378000  0.23724000  0.35959000  1.0
  H  H58  1  0.20950000  0.73716000  0.85968000  1.0
  H  H59  1  0.30622000  0.76277000  0.64041000  1.0
  H  H60  1  0.70561000  0.36752000  0.25230000  1.0
  H  H61  1  0.82570000  0.13249000  0.24766000  1.0
  H  H62  1  0.29439000  0.63248000  0.74770000  1.0
  H  H63  1  0.17430000  0.86752000  0.75234000  1.0
  H  H64  1  0.65808000  0.22533000  0.01029000  1.0
  H  H65  1  0.39340000  0.27474000  0.48982000  1.0
  H  H66  1  0.34192000  0.77467000  0.98971000  1.0
  H  H67  1  0.60660000  0.72526000  0.51018000  1.0
  H  H68  1  0.65783000  0.26681000  0.08811000  1.0
  H  H69  1  0.51240000  0.23330000  0.41193000  1.0
  H  H70  1  0.34217000  0.73319000  0.91189000  1.0
  H  H71  1  0.48760000  0.76670000  0.58807000  1.0
  H  H72  1  0.73534000  0.14928000  0.05876000  1.0
  H  H73  1  0.44302000  0.35084000  0.44132000  1.0
  H  H74  1  0.26466000  0.85072000  0.94124000  1.0
  H  H75  1  0.55698000  0.64916000  0.55868000  1.0
  H  H76  1  0.96976000  0.37763000  0.85547000  1.0
  H  H77  1  0.70280000  0.12251000  0.64439000  1.0
  H  H78  1  0.03024000  0.62237000  0.14453000  1.0
  H  H79  1  0.29721000  0.87749000  0.35561000  1.0
  H  H80  1  0.03188000  0.30794000  0.91530000  1.0
  H  H81  1  0.75500000  0.19220000  0.58451000  1.0
  H  H82  1  0.96812000  0.69206000  0.08470000  1.0
  H  H83  1  0.24500000  0.80780000  0.41549000  1.0
  H  H84  1  0.91675000  0.41106000  0.95203000  1.0
  H  H85  1  0.77969000  0.08906000  0.54783000  1.0
  H  H86  1  0.08325000  0.58894000  0.04797000  1.0
  H  H87  1  0.22031000  0.91094000  0.45217000  1.0
  H  H88  1  0.45181000  0.29712000  0.09339000  1.0
  H  H89  1  0.34214000  0.20286000  0.40648000  1.0
  H  H90  1  0.54819000  0.70287000  0.90661000  1.0
  H  H91  1  0.65786000  0.79714000  0.59352000  1.0
  H  H92  1  0.31622000  0.40547000  0.20248000  1.0
  H  H93  1  0.42385000  0.09438000  0.29753000  1.0
  H  H94  1  0.68378000  0.59452000  0.79752000  1.0
  H  H95  1  0.57616000  0.90563000  0.70246000  1.0
  H  H96  1  0.08959000  0.43555000  0.12770000  1.0
  H  H97  1  0.15222000  0.06470000  0.37243000  1.0
  H  H98  1  0.91042000  0.56445000  0.87230000  1.0
  H  H99  1  0.84778000  0.93529000  0.62757000  1.0
  H  H100  1  0.22636000  0.33002000  0.01730000  1.0
  H  H101  1  0.07332000  0.17021000  0.48276000  1.0
  H  H102  1  0.77364000  0.66998000  0.98270000  1.0
  H  H103  1  0.92668000  0.82979000  0.51723000  1.0
  H  H104  1  0.94270000  0.41617000  0.34901000  1.0
  H  H105  1  0.20763000  0.08344000  0.15119000  1.0
  H  H106  1  0.05730000  0.58383000  0.65099000  1.0
  H  H107  1  0.79236000  0.91656000  0.84881000  1.0
  H  H108  1  0.04799000  0.36020000  0.26404000  1.0
  H  H109  1  0.17201000  0.13942000  0.23616000  1.0
  H  H110  1  0.95201000  0.63980000  0.73596000  1.0
  H  H111  1  0.82799000  0.86058000  0.76384000  1.0
  H  H112  1  0.93184000  0.45112000  0.26140000  1.0
  H  H113  1  0.14417000  0.04847000  0.23881000  1.0
  H  H114  1  0.06816000  0.54889000  0.73860000  1.0
  H  H115  1  0.85583000  0.95153000  0.76119000  1.0
  H  H116  1  0.14896000  0.68049000  0.22780000  1.0
  H  H117  1  0.55728000  0.81948000  0.27222000  1.0
  H  H118  1  0.85104000  0.31951000  0.77220000  1.0
  H  H119  1  0.44272000  0.18052000  0.72777000  1.0
  H  H120  1  0.23318000  0.58330000  0.16439000  1.0
  H  H121  1  0.48082000  0.91665000  0.33566000  1.0
  H  H122  1  0.76682000  0.41669000  0.83561000  1.0
  H  H123  1  0.51918000  0.08335000  0.66434000  1.0
  H  H124  1  0.24012000  0.58163000  0.25266000  1.0
  H  H125  1  0.57422000  0.91846000  0.24734000  1.0
  H  H126  1  0.75988000  0.41837000  0.74734000  1.0
  H  H127  1  0.42578000  0.08154000  0.75266000  1.0
  H  H128  1  0.99319000  0.66712000  0.35210000  1.0
  H  H129  1  0.51244000  0.83289000  0.14786000  1.0
  H  H130  1  0.00681000  0.33288000  0.64790000  1.0
  H  H131  1  0.48756000  0.16711000  0.85213000  1.0
  H  H132  1  0.97841000  0.20437000  0.83613000  1.0
  H  H133  1  0.51879000  0.29565000  0.66385000  1.0
  H  H134  1  0.02160000  0.79562000  0.16387000  1.0
  H  H135  1  0.48121000  0.70435000  0.33615000  1.0
  C  C136  1  0.76539000  0.18742000  0.78827000  1.0
  C  C137  1  0.24085000  0.31248000  0.71168000  1.0
  C  C138  1  0.23461000  0.81258000  0.21173000  1.0
  C  C139  1  0.75915000  0.68752000  0.28832000  1.0
  C  C140  1  0.76285000  0.24353000  0.72118000  1.0
  C  C141  1  0.22739000  0.25632000  0.77875000  1.0
  C  C142  1  0.23715000  0.75647000  0.27882000  1.0
  C  C143  1  0.77261000  0.74368000  0.22125000  1.0
  C  C144  1  0.66915000  0.31021000  0.71884000  1.0
  C  C145  1  0.19818000  0.18953000  0.78102000  1.0
  C  C146  1  0.33086000  0.68979000  0.28115000  1.0
  C  C147  1  0.80182000  0.81047000  0.21898000  1.0
  C  C148  1  0.66642000  0.36635000  0.65792000  1.0
  C  C149  1  0.19078000  0.13331000  0.84191000  1.0
  C  C150  1  0.33358000  0.63364000  0.34207000  1.0
  C  C151  1  0.80922000  0.86669000  0.15809000  1.0
  C  C152  1  0.75701000  0.35869000  0.59896000  1.0
  C  C153  1  0.21468000  0.14103000  0.90089000  1.0
  C  C154  1  0.24300000  0.64130000  0.40103000  1.0
  C  C155  1  0.78531000  0.85898000  0.09911000  1.0
  C  C156  1  0.85053000  0.29111000  0.60176000  1.0
  C  C157  1  0.24323000  0.20873000  0.89817000  1.0
  C  C158  1  0.14947000  0.70889000  0.39823000  1.0
  C  C159  1  0.75677000  0.79127000  0.10184000  1.0
  C  C160  1  0.85371000  0.23340000  0.66171000  1.0
  C  C161  1  0.24855000  0.26650000  0.83826000  1.0
  C  C162  1  0.14629000  0.76660000  0.33829000  1.0
  C  C163  1  0.75145000  0.73350000  0.16175000  1.0
  C  C164  1  0.75431000  0.42251000  0.53786000  1.0
  C  C165  1  0.21484000  0.07719000  0.96197000  1.0
  C  C166  1  0.24569000  0.57749000  0.46214000  1.0
  C  C167  1  0.78515000  0.92282000  0.03803000  1.0
  C  C168  1  0.69862000  0.44709000  0.49217000  1.0
  C  C169  1  0.13797000  0.05272000  0.00774000  1.0
  C  C170  1  0.30139000  0.55291000  0.50783000  1.0
  C  C171  1  0.86202000  0.94728000  0.99226000  1.0
  C  C172  1  0.80581000  0.47570000  0.51448000  1.0
  C  C173  1  0.29613000  0.02401000  0.98537000  1.0
  C  C174  1  0.19419000  0.52430000  0.48552000  1.0
  C  C175  1  0.70387000  0.97599000  0.01463000  1.0
  C  C176  1  0.63194000  0.41180000  0.48974000  1.0
  C  C177  1  0.03357000  0.08817000  0.01018000  1.0
  C  C178  1  0.36806000  0.58820000  0.51026000  1.0
  C  C179  1  0.96643000  0.91183000  0.98982000  1.0
  C  C180  1  0.87486000  0.47985000  0.54343000  1.0
  C  C181  1  0.39828000  0.01984000  0.95649000  1.0
  C  C182  1  0.12514000  0.52014000  0.45657000  1.0
  C  C183  1  0.60171000  0.98016000  0.04352000  1.0
  C  C184  1  0.61256000  0.55274000  0.25793000  1.0
  C  C185  1  0.92324000  0.94725000  0.24208000  1.0
  C  C186  1  0.38745000  0.44726000  0.74207000  1.0
  C  C187  1  0.07676000  0.05275000  0.75792000  1.0
  C  C188  1  0.65985000  0.49007000  0.19112000  1.0
  C  C189  1  0.84107000  0.00997000  0.30887000  1.0
  C  C190  1  0.34016000  0.50993000  0.80888000  1.0
  C  C191  1  0.15893000  0.99003000  0.69113000  1.0
  C  C192  1  0.66227000  0.52594000  0.12057000  1.0
  C  C193  1  0.80867000  0.97415000  0.37942000  1.0
  C  C194  1  0.33773000  0.47406000  0.87943000  1.0
  C  C195  1  0.19133000  0.02585000  0.62059000  1.0
  C  C196  1  0.71156000  0.46756000  0.05756000  1.0
  C  C197  1  0.73652000  0.03257000  0.44238000  1.0
  C  C198  1  0.28844000  0.53244000  0.94243000  1.0
  C  C199  1  0.26348000  0.96743000  0.55762000  1.0
  C  C200  1  0.75820000  0.37214000  0.06363000  1.0
  C  C201  1  0.69385000  0.12798000  0.43629000  1.0
  C  C202  1  0.24180000  0.62786000  0.93636000  1.0
  C  C203  1  0.30615000  0.87202000  0.56371000  1.0
  C  C204  1  0.75386000  0.33679000  0.13489000  1.0
  C  C205  1  0.72558000  0.16329000  0.36505000  1.0
  C  C206  1  0.24614000  0.66321000  0.86511000  1.0
  C  C207  1  0.27442000  0.83671000  0.63495000  1.0
  C  C208  1  0.70625000  0.39491000  0.19759000  1.0
  C  C209  1  0.79888000  0.10513000  0.30238000  1.0
  C  C210  1  0.29375000  0.60509000  0.80241000  1.0
  C  C211  1  0.20112000  0.89487000  0.69762000  1.0
  C  C212  1  0.81135000  0.30944000  0.99759000  1.0
  C  C213  1  0.61822000  0.19067000  0.50234000  1.0
  C  C214  1  0.18864000  0.69056000  0.00241000  1.0
  C  C215  1  0.38178000  0.80933000  0.49766000  1.0
  C  C216  1  0.89629000  0.30239000  0.93254000  1.0
  C  C217  1  0.63107000  0.19771000  0.56739000  1.0
  C  C218  1  0.10371000  0.69761000  0.06746000  1.0
  C  C219  1  0.36894000  0.80229000  0.43261000  1.0
  C  C220  1  0.78983000  0.24084000  0.98808000  1.0
  C  C221  1  0.51854000  0.25922000  0.51191000  1.0
  C  C222  1  0.21017000  0.75915000  0.01192000  1.0
  C  C223  1  0.48146000  0.74079000  0.48809000  1.0
  C  C224  1  0.70598000  0.21922000  0.03896000  1.0
  C  C225  1  0.46385000  0.28087000  0.46110000  1.0
  C  C226  1  0.29402000  0.78078000  0.96105000  1.0
  C  C227  1  0.53615000  0.71914000  0.53890000  1.0
  C  C228  1  0.95692000  0.35246000  0.91263000  1.0
  C  C229  1  0.72188000  0.14767000  0.58723000  1.0
  C  C230  1  0.04308000  0.64754000  0.08737000  1.0
  C  C231  1  0.27812000  0.85233000  0.41277000  1.0
  C  C232  1  0.42933000  0.24366000  0.98306000  1.0
  C  C233  1  0.15599000  0.25632000  0.51699000  1.0
  C  C234  1  0.57068000  0.75634000  0.01694000  1.0
  C  C235  1  0.84401000  0.74368000  0.48301000  1.0
  C  C236  1  0.34710000  0.30711000  0.04901000  1.0
  C  C237  1  0.20301000  0.19291000  0.45104000  1.0
  C  C238  1  0.65290000  0.69289000  0.95099000  1.0
  C  C239  1  0.79700000  0.80708000  0.54896000  1.0
  C  C240  1  0.37218000  0.32859000  0.10128000  1.0
  C  C241  1  0.30182000  0.17137000  0.39871000  1.0
  C  C242  1  0.62782000  0.67141000  0.89872000  1.0
  C  C243  1  0.69818000  0.82863000  0.60129000  1.0
  C  C244  1  0.29647000  0.38911000  0.16181000  1.0
  C  C245  1  0.34707000  0.11079000  0.33824000  1.0
  C  C246  1  0.70353000  0.61089000  0.83820000  1.0
  C  C247  1  0.65293000  0.88921000  0.66176000  1.0
  C  C248  1  0.19372000  0.42808000  0.17235000  1.0
  C  C249  1  0.29381000  0.07178000  0.32779000  1.0
  C  C250  1  0.80629000  0.57192000  0.82765000  1.0
  C  C251  1  0.70619000  0.92822000  0.67221000  1.0
  C  C252  1  0.16901000  0.40489000  0.12042000  1.0
  C  C253  1  0.19391000  0.09518000  0.37968000  1.0
  C  C254  1  0.83099000  0.59511000  0.87958000  1.0
  C  C255  1  0.80610000  0.90481000  0.62032000  1.0
  C  C256  1  0.24496000  0.34590000  0.05892000  1.0
  C  C257  1  0.14947000  0.15421000  0.44115000  1.0
  C  C258  1  0.75504000  0.65410000  0.94108000  1.0
  C  C259  1  0.85053000  0.84579000  0.55884000  1.0
  C  C260  1  0.11419000  0.49273000  0.23547000  1.0
  C  C261  1  0.34210000  0.00702000  0.26472000  1.0
  C  C262  1  0.88581000  0.50727000  0.76453000  1.0
  C  C263  1  0.65790000  0.99298000  0.73528000  1.0
  C  C264  1  0.11272000  0.56950000  0.25695000  1.0
  C  C265  1  0.43899000  0.93038000  0.24318000  1.0
  C  C266  1  0.88728000  0.43050000  0.74305000  1.0
  C  C267  1  0.56101000  0.06962000  0.75682000  1.0
  C  C268  1  0.02250000  0.49242000  0.28630000  1.0
  C  C269  1  0.30100000  0.00728000  0.21386000  1.0
  C  C270  1  0.97750000  0.50758000  0.71370000  1.0
  C  C271  1  0.69900000  0.99273000  0.78613000  1.0
  C  C272  1  0.98429000  0.42634000  0.29047000  1.0
  C  C273  1  0.20087000  0.07328000  0.20972000  1.0
  C  C274  1  0.01571000  0.57366000  0.70953000  1.0
  C  C275  1  0.79913000  0.92672000  0.79027000  1.0
  C  C276  1  0.18757000  0.60568000  0.22377000  1.0
  C  C277  1  0.51691000  0.89430000  0.27628000  1.0
  C  C278  1  0.81243000  0.39432000  0.77623000  1.0
  C  C279  1  0.48309000  0.10570000  0.72372000  1.0
  N  N280  1  0.71677000  0.51052000  0.44470000  1.0
  N  N281  1  0.17203000  0.98935000  0.05526000  1.0
  N  N282  1  0.28323000  0.48948000  0.55530000  1.0
  N  N283  1  0.82797000  0.01065000  0.94474000  1.0
  N  N284  1  0.78115000  0.52879000  0.45903000  1.0
  N  N285  1  0.26902000  0.97103000  0.04091000  1.0
  N  N286  1  0.21885000  0.47120000  0.54097000  1.0
  N  N287  1  0.73097000  0.02897000  0.95909000  1.0
  N  N288  1  0.96968000  0.56429000  0.33542000  1.0
  N  N289  1  0.36928000  0.93548000  0.16469000  1.0
  N  N290  1  0.03032000  0.43571000  0.66458000  1.0
  N  N291  1  0.63072000  0.06452000  0.83531000  1.0
  N  N292  1  0.02425000  0.61063000  0.31632000  1.0
  N  N293  1  0.45112000  0.88925000  0.18376000  1.0
  N  N294  1  0.97575000  0.38936000  0.68368000  1.0
  N  N295  1  0.54888000  0.11075000  0.81624000  1.0
  N  N296  1  0.92097000  0.23349000  0.88891000  1.0
  N  N297  1  0.54319000  0.26654000  0.61107000  1.0
  N  N298  1  0.07903000  0.76651000  0.11109000  1.0
  N  N299  1  0.45681000  0.73347000  0.38893000  1.0
  N  N300  1  0.85725000  0.19580000  0.92137000  1.0
  N  N301  1  0.47421000  0.30421000  0.57865000  1.0
  N  N302  1  0.14276000  0.80420000  0.07863000  1.0
  N  N303  1  0.52579000  0.69579000  0.42136000  1.0
  O  O304  1  0.63243000  0.51371000  0.31645000  1.0
  O  O305  1  0.96249000  0.98624000  0.18346000  1.0
  O  O306  1  0.36757000  0.48629000  0.68356000  1.0
  O  O307  1  0.03751000  0.01376000  0.81654000  1.0
  O  O308  1  0.55884000  0.63720000  0.25455000  1.0
  O  O309  1  0.95070000  0.86278000  0.24557000  1.0
  O  O310  1  0.44116000  0.36280000  0.74545000  1.0
  O  O311  1  0.04930000  0.13723000  0.75443000  1.0
  O  O312  1  0.68310000  0.21279000  0.84727000  1.0
  O  O313  1  0.24277000  0.28722000  0.65271000  1.0
  O  O314  1  0.31689000  0.78721000  0.15273000  1.0
  O  O315  1  0.75722000  0.71278000  0.34730000  1.0
  O  O316  1  0.84953000  0.11761000  0.78410000  1.0
  O  O317  1  0.25112000  0.38224000  0.71584000  1.0
  O  O318  1  0.15046000  0.88239000  0.21591000  1.0
  O  O319  1  0.74888000  0.61776000  0.28416000  1.0
  O  O320  1  0.40958000  0.23832000  0.92888000  1.0
  O  O321  1  0.07699000  0.26139000  0.57136000  1.0
  O  O322  1  0.59042000  0.76167000  0.07112000  1.0
  O  O323  1  0.92301000  0.73861000  0.42863000  1.0
  O  O324  1  0.51674000  0.19794000  0.98850000  1.0
  O  O325  1  0.20299000  0.30222000  0.51140000  1.0
  O  O326  1  0.48326000  0.80206000  0.01150000  1.0
  O  O327  1  0.79701000  0.69778000  0.48860000  1.0
