# generated using pymatgen
data_NiH12C18(SN3)2
_symmetry_space_group_name_H-M   'P 1'
_cell_length_a   10.84660000
_cell_length_b   14.70260000
_cell_length_c   15.73680000
_cell_angle_alpha   89.99960000
_cell_angle_beta   89.99970000
_cell_angle_gamma   89.99980000
_symmetry_Int_Tables_number   1
_chemical_formula_structural   NiH12C18(SN3)2
_chemical_formula_sum   'Ni4 H48 C72 S8 N24'
_cell_volume   2509.59818664
_cell_formula_units_Z   4
loop_
 _symmetry_equiv_pos_site_id
 _symmetry_equiv_pos_as_xyz
  1  'x, y, z'
loop_
 _atom_site_type_symbol
 _atom_site_label
 _atom_site_symmetry_multiplicity
 _atom_site_fract_x
 _atom_site_fract_y
 _atom_site_fract_z
 _atom_site_occupancy
  Ni  Ni0  1  0.84271000  0.00000000  0.25000000  1.0
  Ni  Ni1  1  0.65729000  0.50000000  0.75000000  1.0
  Ni  Ni2  1  0.15728000  0.00000000  0.75000000  1.0
  Ni  Ni3  1  0.34273000  0.50000000  0.25000000  1.0
  H  H4  1  0.54957000  0.91440000  0.30672000  1.0
  H  H5  1  0.95040000  0.58560000  0.80672000  1.0
  H  H6  1  0.54957000  0.08560000  0.19328000  1.0
  H  H7  1  0.95041000  0.41439000  0.69328000  1.0
  H  H8  1  0.45042000  0.08562000  0.69329000  1.0
  H  H9  1  0.04959000  0.41439000  0.19328000  1.0
  H  H10  1  0.45043000  0.91438000  0.80671000  1.0
  H  H11  1  0.04960000  0.58561000  0.30672000  1.0
  H  H12  1  0.50648000  0.78984000  0.41127000  1.0
  H  H13  1  0.99350000  0.71016000  0.91126000  1.0
  H  H14  1  0.50648000  0.21015000  0.08872000  1.0
  H  H15  1  0.99351000  0.28984000  0.58873000  1.0
  H  H16  1  0.49352000  0.21020000  0.58876000  1.0
  H  H17  1  0.00650000  0.28983000  0.08873000  1.0
  H  H18  1  0.49351000  0.78979000  0.91123000  1.0
  H  H19  1  0.00651000  0.71018000  0.41127000  1.0
  H  H20  1  0.49040000  0.68562000  0.49685000  1.0
  H  H21  1  0.00959000  0.81437000  0.99684000  1.0
  H  H22  1  0.49039000  0.31438000  0.00314000  1.0
  H  H23  1  0.00960000  0.18563000  0.50315000  1.0
  H  H24  1  0.50961000  0.31436000  0.50313000  1.0
  H  H25  1  0.99040000  0.18562000  0.00315000  1.0
  H  H26  1  0.50960000  0.68563000  0.99687000  1.0
  H  H27  1  0.99041000  0.81438000  0.49685000  1.0
  H  H28  1  0.88586000  0.69322000  0.53197000  1.0
  H  H29  1  0.61413000  0.80678000  0.03199000  1.0
  H  H30  1  0.88586000  0.30679000  0.96804000  1.0
  H  H31  1  0.61413000  0.19322000  0.46801000  1.0
  H  H32  1  0.11413000  0.30686000  0.46808000  1.0
  H  H33  1  0.38588000  0.19317000  0.96804000  1.0
  H  H34  1  0.11413000  0.69315000  0.03193000  1.0
  H  H35  1  0.38589000  0.80683000  0.53196000  1.0
  H  H36  1  0.47985000  0.58155000  0.62126000  1.0
  H  H37  1  0.02016000  0.91843000  0.12125000  1.0
  H  H38  1  0.47985000  0.41845000  0.87873000  1.0
  H  H39  1  0.02017000  0.08157000  0.37874000  1.0
  H  H40  1  0.52016000  0.41840000  0.37870000  1.0
  H  H41  1  0.97984000  0.08159000  0.87873000  1.0
  H  H42  1  0.52015000  0.58159000  0.12130000  1.0
  H  H43  1  0.97984000  0.91842000  0.62127000  1.0
  H  H44  1  0.85800000  0.58566000  0.65263000  1.0
  H  H45  1  0.64200000  0.91440000  0.15260000  1.0
  H  H46  1  0.85800000  0.41435000  0.84738000  1.0
  H  H47  1  0.64201000  0.08560000  0.34740000  1.0
  H  H48  1  0.14200000  0.41443000  0.34742000  1.0
  H  H49  1  0.35799000  0.08556000  0.84742000  1.0
  H  H50  1  0.14199000  0.58557000  0.15258000  1.0
  H  H51  1  0.35800000  0.91444000  0.65258000  1.0
  C  C52  1  0.69028000  0.70113000  0.50479000  1.0
  C  C53  1  0.80971000  0.79886000  0.00479000  1.0
  C  C54  1  0.69027000  0.29887000  0.99521000  1.0
  C  C55  1  0.80972000  0.20114000  0.49521000  1.0
  C  C56  1  0.30972000  0.29889000  0.49523000  1.0
  C  C57  1  0.19029000  0.20112000  0.99522000  1.0
  C  C58  1  0.30972000  0.70110000  0.00478000  1.0
  C  C59  1  0.19030000  0.79888000  0.50479000  1.0
  C  C60  1  0.70361000  0.76885000  0.43571000  1.0
  C  C61  1  0.79636000  0.73114000  0.93572000  1.0
  C  C62  1  0.70361000  0.23115000  0.06428000  1.0
  C  C63  1  0.79637000  0.26886000  0.56428000  1.0
  C  C64  1  0.29639000  0.23117000  0.56431000  1.0
  C  C65  1  0.20363000  0.26884000  0.06429000  1.0
  C  C66  1  0.29638000  0.76882000  0.93570000  1.0
  C  C67  1  0.20364000  0.73116000  0.43571000  1.0
  C  C68  1  0.62483000  0.87801000  0.33804000  1.0
  C  C69  1  0.87515000  0.62199000  0.83803000  1.0
  C  C70  1  0.62483000  0.12199000  0.16196000  1.0
  C  C71  1  0.87516000  0.37800000  0.66196000  1.0
  C  C72  1  0.37517000  0.12201000  0.66197000  1.0
  C  C73  1  0.12485000  0.37800000  0.16196000  1.0
  C  C74  1  0.37517000  0.87799000  0.83803000  1.0
  C  C75  1  0.12485000  0.62200000  0.33804000  1.0
  C  C76  1  0.83560000  0.85670000  0.35433000  1.0
  C  C77  1  0.66438000  0.64331000  0.85432000  1.0
  C  C78  1  0.83559000  0.14331000  0.14567000  1.0
  C  C79  1  0.66439000  0.35669000  0.64568000  1.0
  C  C80  1  0.16440000  0.14332000  0.64568000  1.0
  C  C81  1  0.33562000  0.35668000  0.14568000  1.0
  C  C82  1  0.16440000  0.85668000  0.85432000  1.0
  C  C83  1  0.33562000  0.64332000  0.35432000  1.0
  C  C84  1  0.60087000  0.80987000  0.39714000  1.0
  C  C85  1  0.89911000  0.69013000  0.89713000  1.0
  C  C86  1  0.60086000  0.19013000  0.10285000  1.0
  C  C87  1  0.89911000  0.30987000  0.60286000  1.0
  C  C88  1  0.39912000  0.19015000  0.60289000  1.0
  C  C89  1  0.10089000  0.30987000  0.10287000  1.0
  C  C90  1  0.39912000  0.80984000  0.89712000  1.0
  C  C91  1  0.10090000  0.69014000  0.39713000  1.0
  C  C92  1  0.57497000  0.66738000  0.53026000  1.0
  C  C93  1  0.92502000  0.83260000  0.03026000  1.0
  C  C94  1  0.57497000  0.33261000  0.96974000  1.0
  C  C95  1  0.92502000  0.16740000  0.46974000  1.0
  C  C96  1  0.42503000  0.33261000  0.46974000  1.0
  C  C97  1  0.07498000  0.16739000  0.96975000  1.0
  C  C98  1  0.42503000  0.66738000  0.03026000  1.0
  C  C99  1  0.07499000  0.83262000  0.53025000  1.0
  C  C100  1  0.79411000  0.67000000  0.54936000  1.0
  C  C101  1  0.70588000  0.82999000  0.04936000  1.0
  C  C102  1  0.79411000  0.33000000  0.95065000  1.0
  C  C103  1  0.70589000  0.17001000  0.45064000  1.0
  C  C104  1  0.20589000  0.33005000  0.45067000  1.0
  C  C105  1  0.29412000  0.16997000  0.95065000  1.0
  C  C106  1  0.20589000  0.66996000  0.04933000  1.0
  C  C107  1  0.29413000  0.83003000  0.54935000  1.0
  C  C108  1  0.56785000  0.60832000  0.59910000  1.0
  C  C109  1  0.93216000  0.89167000  0.09910000  1.0
  C  C110  1  0.56784000  0.39168000  0.90090000  1.0
  C  C111  1  0.93217000  0.10833000  0.40090000  1.0
  C  C112  1  0.43216000  0.39166000  0.40089000  1.0
  C  C113  1  0.06784000  0.10833000  0.90090000  1.0
  C  C114  1  0.43216000  0.60833000  0.09911000  1.0
  C  C115  1  0.06785000  0.89167000  0.59910000  1.0
  C  C116  1  0.77882000  0.61033000  0.61677000  1.0
  C  C117  1  0.72118000  0.88969000  0.11676000  1.0
  C  C118  1  0.77881000  0.38967000  0.88323000  1.0
  C  C119  1  0.72119000  0.11031000  0.38323000  1.0
  C  C120  1  0.22118000  0.38972000  0.38326000  1.0
  C  C121  1  0.27881000  0.11029000  0.88325000  1.0
  C  C122  1  0.22118000  0.61028000  0.11675000  1.0
  C  C123  1  0.27882000  0.88972000  0.61675000  1.0
  S  S124  1  0.97741000  0.89266000  0.32020000  1.0
  S  S125  1  0.52257000  0.60735000  0.82018000  1.0
  S  S126  1  0.97740000  0.10735000  0.17980000  1.0
  S  S127  1  0.52258000  0.39265000  0.67981000  1.0
  S  S128  1  0.02259000  0.10735000  0.67980000  1.0
  S  S129  1  0.47743000  0.39263000  0.17982000  1.0
  S  S130  1  0.02259000  0.89265000  0.82020000  1.0
  S  S131  1  0.47743000  0.60736000  0.32018000  1.0
  N  N132  1  0.73932000  0.90258000  0.31697000  1.0
  N  N133  1  0.76065000  0.59742000  0.81696000  1.0
  N  N134  1  0.73932000  0.09742000  0.18303000  1.0
  N  N135  1  0.76066000  0.40258000  0.68304000  1.0
  N  N136  1  0.26067000  0.09743000  0.68304000  1.0
  N  N137  1  0.23934000  0.40257000  0.18304000  1.0
  N  N138  1  0.26067000  0.90257000  0.81697000  1.0
  N  N139  1  0.23935000  0.59743000  0.31696000  1.0
  N  N140  1  0.81953000  0.79155000  0.41359000  1.0
  N  N141  1  0.68044000  0.70844000  0.91359000  1.0
  N  N142  1  0.81953000  0.20845000  0.08641000  1.0
  N  N143  1  0.68045000  0.29156000  0.58642000  1.0
  N  N144  1  0.18046000  0.20846000  0.58643000  1.0
  N  N145  1  0.31955000  0.29155000  0.08642000  1.0
  N  N146  1  0.18046000  0.79154000  0.91357000  1.0
  N  N147  1  0.31957000  0.70845000  0.41358000  1.0
  N  N148  1  0.66768000  0.58045000  0.64258000  1.0
  N  N149  1  0.83233000  0.91956000  0.14258000  1.0
  N  N150  1  0.66767000  0.41955000  0.85742000  1.0
  N  N151  1  0.83234000  0.08045000  0.35742000  1.0
  N  N152  1  0.33233000  0.41956000  0.35742000  1.0
  N  N153  1  0.16766000  0.08044000  0.85742000  1.0
  N  N154  1  0.33232000  0.58043000  0.14258000  1.0
  N  N155  1  0.16767000  0.91957000  0.64258000  1.0
