# generated using pymatgen
data_ZnH6C8NO4
_symmetry_space_group_name_H-M   'P 1'
_cell_length_a   7.62623000
_cell_length_b   8.62269000
_cell_length_c   14.69140000
_cell_angle_alpha   90.00010000
_cell_angle_beta   90.00000000
_cell_angle_gamma   110.65700000
_symmetry_Int_Tables_number   1
_chemical_formula_structural   ZnH6C8NO4
_chemical_formula_sum   'Zn4 H24 C32 N4 O16'
_cell_volume   903.97554923
_cell_formula_units_Z   4
loop_
 _symmetry_equiv_pos_site_id
 _symmetry_equiv_pos_as_xyz
  1  'x, y, z'
loop_
 _atom_site_type_symbol
 _atom_site_label
 _atom_site_symmetry_multiplicity
 _atom_site_fract_x
 _atom_site_fract_y
 _atom_site_fract_z
 _atom_site_occupancy
  Zn  Zn0  1  0.85281000  0.95697000  0.93078000  1.0
  Zn  Zn1  1  0.14719000  0.54303000  0.43078000  1.0
  Zn  Zn2  1  0.14719000  0.04303000  0.06922000  1.0
  Zn  Zn3  1  0.85281000  0.45697000  0.56922000  1.0
  H  H4  1  0.36959000  0.75294000  0.11327000  1.0
  H  H5  1  0.63041000  0.74705000  0.61327000  1.0
  H  H6  1  0.63043000  0.24707000  0.88673000  1.0
  H  H7  1  0.36959000  0.25294000  0.38673000  1.0
  H  H8  1  0.14122000  0.63569000  0.23993000  1.0
  H  H9  1  0.85878000  0.86430000  0.73993000  1.0
  H  H10  1  0.85879000  0.36431000  0.76007000  1.0
  H  H11  1  0.14122000  0.13569000  0.26007000  1.0
  H  H12  1  0.56022000  0.61275000  0.41325000  1.0
  H  H13  1  0.43978000  0.88725000  0.91325000  1.0
  H  H14  1  0.43978000  0.38725000  0.58675000  1.0
  H  H15  1  0.56021000  0.11275000  0.08674000  1.0
  H  H16  1  0.80824000  0.73316000  0.29375000  1.0
  H  H17  1  0.19176000  0.76685000  0.79375000  1.0
  H  H18  1  0.19177000  0.26685000  0.70625000  1.0
  H  H19  1  0.80824000  0.23315000  0.20624000  1.0
  H  H20  1  0.78978000  0.44300000  0.02353000  1.0
  H  H21  1  0.21021000  0.05700000  0.52354000  1.0
  H  H22  1  0.21021000  0.55700000  0.97646000  1.0
  H  H23  1  0.78978000  0.94300000  0.47647000  1.0
  H  H24  1  0.97817000  0.49736000  0.10422000  1.0
  H  H25  1  0.02182000  0.00264000  0.60422000  1.0
  H  H26  1  0.02182000  0.50263000  0.89578000  1.0
  H  H27  1  0.97817000  0.99736000  0.39578000  1.0
  C  C28  1  0.75175000  0.83669000  0.12297000  1.0
  C  C29  1  0.24825000  0.66331000  0.62297000  1.0
  C  C30  1  0.24826000  0.16331000  0.87704000  1.0
  C  C31  1  0.75175000  0.33669000  0.37703000  1.0
  C  C32  1  0.60748000  0.75312000  0.19466000  1.0
  C  C33  1  0.39252000  0.74687000  0.69466000  1.0
  C  C34  1  0.39253000  0.24688000  0.80535000  1.0
  C  C35  1  0.60748000  0.25312000  0.30534000  1.0
  C  C36  1  0.41753000  0.72246000  0.17844000  1.0
  C  C37  1  0.58246000  0.77754000  0.67844000  1.0
  C  C38  1  0.58248000  0.27755000  0.82156000  1.0
  C  C39  1  0.41754000  0.22245000  0.32156000  1.0
  C  C40  1  0.29003000  0.65744000  0.24833000  1.0
  C  C41  1  0.70997000  0.84256000  0.74833000  1.0
  C  C42  1  0.70998000  0.34256000  0.75168000  1.0
  C  C43  1  0.29003000  0.15744000  0.25167000  1.0
  C  C44  1  0.52491000  0.64507000  0.34569000  1.0
  C  C45  1  0.47509000  0.85493000  0.84569000  1.0
  C  C46  1  0.47510000  0.35493000  0.65431000  1.0
  C  C47  1  0.52491000  0.14506000  0.15431000  1.0
  C  C48  1  0.66139000  0.71186000  0.27961000  1.0
  C  C49  1  0.33861000  0.78815000  0.77961000  1.0
  C  C50  1  0.33862000  0.28815000  0.72039000  1.0
  C  C51  1  0.66139000  0.21185000  0.22039000  1.0
  C  C52  1  0.93874000  0.27262000  0.03063000  1.0
  C  C53  1  0.06125000  0.22738000  0.53063000  1.0
  C  C54  1  0.06124000  0.72738000  0.96936000  1.0
  C  C55  1  0.93875000  0.77262000  0.46937000  1.0
  C  C56  1  0.93288000  0.44601000  0.03632000  1.0
  C  C57  1  0.06711000  0.05399000  0.53632000  1.0
  C  C58  1  0.06711000  0.55399000  0.96368000  1.0
  C  C59  1  0.93288000  0.94601000  0.46368000  1.0
  N  N60  1  0.34266000  0.61995000  0.33050000  1.0
  N  N61  1  0.65734000  0.88005000  0.83050000  1.0
  N  N62  1  0.65734000  0.38005000  0.66950000  1.0
  N  N63  1  0.34266000  0.11994000  0.16950000  1.0
  O  O64  1  0.69088000  0.84046000  0.04283000  1.0
  O  O65  1  0.30914000  0.65954000  0.54282000  1.0
  O  O66  1  0.30914000  0.15954000  0.95718000  1.0
  O  O67  1  0.69087000  0.34046000  0.45717000  1.0
  O  O68  1  0.92078000  0.89895000  0.14976000  1.0
  O  O69  1  0.07922000  0.60106000  0.64975000  1.0
  O  O70  1  0.07923000  0.10106000  0.85025000  1.0
  O  O71  1  0.92078000  0.39895000  0.35024000  1.0
  O  O72  1  0.82934000  0.17487000  0.97306000  1.0
  O  O73  1  0.17065000  0.32513000  0.47306000  1.0
  O  O74  1  0.17064000  0.82513000  0.02694000  1.0
  O  O75  1  0.82935000  0.67486000  0.52694000  1.0
  O  O76  1  0.05673000  0.23998000  0.08093000  1.0
  O  O77  1  0.94327000  0.26002000  0.58094000  1.0
  O  O78  1  0.94326000  0.76002000  0.91906000  1.0
  O  O79  1  0.05674000  0.73998000  0.41907000  1.0
