# generated using pymatgen
data_SmH13C19S(NO4)2
_symmetry_space_group_name_H-M   'P 1'
_cell_length_a   8.75004000
_cell_length_b   10.61490000
_cell_length_c   11.03900000
_cell_angle_alpha   81.01990000
_cell_angle_beta   69.21070000
_cell_angle_gamma   88.86420000
_symmetry_Int_Tables_number   1
_chemical_formula_structural   SmH13C19S(NO4)2
_chemical_formula_sum   'Sm2 H26 C38 S2 N4 O16'
_cell_volume   946.10273179
_cell_formula_units_Z   2
loop_
 _symmetry_equiv_pos_site_id
 _symmetry_equiv_pos_as_xyz
  1  'x, y, z'
loop_
 _atom_site_type_symbol
 _atom_site_label
 _atom_site_symmetry_multiplicity
 _atom_site_fract_x
 _atom_site_fract_y
 _atom_site_fract_z
 _atom_site_occupancy
  Sm  Sm0  1  0.15720000  0.07524000  0.19373000  1.0
  Sm  Sm1  1  0.84280000  0.92475000  0.80626000  1.0
  H  H2  1  0.24322000  0.78258000  0.31093000  1.0
  H  H3  1  0.75679000  0.21742000  0.68907000  1.0
  H  H4  1  0.72190000  0.62495000  0.63267000  1.0
  H  H5  1  0.27810000  0.37505000  0.36733000  1.0
  H  H6  1  0.59749000  0.41054000  0.73958000  1.0
  H  H7  1  0.40252000  0.58947000  0.26042000  1.0
  H  H8  1  0.74857000  0.01789000  0.34406000  1.0
  H  H9  1  0.25142000  0.98211000  0.65595000  1.0
  H  H10  1  0.46016000  0.04983000  0.26450000  1.0
  H  H11  1  0.53984000  0.95018000  0.73550000  1.0
  H  H12  1  0.31476000  0.01261000  0.39580000  1.0
  H  H13  1  0.68525000  0.98739000  0.60421000  1.0
  H  H14  1  0.48935000  0.12012000  0.47433000  1.0
  H  H15  1  0.51064000  0.87988000  0.52567000  1.0
  H  H16  1  0.48350000  0.35424000  0.45413000  1.0
  H  H17  1  0.51650000  0.64576000  0.54587000  1.0
  H  H18  1  0.63064000  0.56843000  0.35298000  1.0
  H  H19  1  0.36936000  0.43158000  0.64701000  1.0
  H  H20  1  0.87939000  0.69406000  0.20342000  1.0
  H  H21  1  0.12061000  0.30594000  0.79657000  1.0
  H  H22  1  0.16730000  0.69951000  0.04392000  1.0
  H  H23  1  0.83270000  0.30049000  0.95608000  1.0
  H  H24  1  0.40860000  0.57768000  0.92638000  1.0
  H  H25  1  0.59139000  0.42232000  0.07363000  1.0
  H  H26  1  0.39831000  0.33866000  0.98669000  1.0
  H  H27  1  0.60169000  0.66134000  0.01331000  1.0
  C  C28  1  0.18793000  0.68890000  0.35979000  1.0
  C  C29  1  0.81207000  0.31110000  0.64021000  1.0
  C  C30  1  0.02918000  0.67689000  0.44797000  1.0
  C  C31  1  0.97082000  0.32312000  0.55202000  1.0
  C  C32  1  0.95309000  0.55549000  0.51493000  1.0
  C  C33  1  0.04692000  0.44451000  0.48507000  1.0
  C  C34  1  0.79083000  0.54048000  0.60802000  1.0
  C  C35  1  0.20917000  0.45952000  0.39198000  1.0
  C  C36  1  0.72185000  0.42113000  0.66805000  1.0
  C  C37  1  0.27816000  0.57887000  0.33195000  1.0
  C  C38  1  0.94790000  0.94632000  0.05405000  1.0
  C  C39  1  0.05208000  0.05368000  0.94595000  1.0
  C  C40  1  0.46293000  0.93248000  0.00378000  1.0
  C  C41  1  0.53709000  0.06751000  0.99621000  1.0
  C  C42  1  0.74199000  0.12124000  0.34087000  1.0
  C  C43  1  0.25801000  0.87876000  0.65913000  1.0
  C  C44  1  0.59789000  0.17775000  0.41135000  1.0
  C  C45  1  0.40210000  0.82225000  0.58865000  1.0
  C  C46  1  0.59489000  0.30907000  0.40103000  1.0
  C  C47  1  0.40510000  0.69094000  0.59897000  1.0
  C  C48  1  0.73597000  0.38410000  0.32044000  1.0
  C  C49  1  0.26403000  0.61591000  0.67956000  1.0
  C  C50  1  0.74045000  0.52054000  0.30140000  1.0
  C  C51  1  0.25954000  0.47946000  0.69860000  1.0
  C  C52  1  0.87770000  0.59001000  0.21893000  1.0
  C  C53  1  0.12229000  0.40999000  0.78107000  1.0
  C  C54  1  0.02192000  0.52712000  0.15131000  1.0
  C  C55  1  0.97808000  0.47288000  0.84869000  1.0
  C  C56  1  0.16428000  0.59540000  0.06142000  1.0
  C  C57  1  0.83571000  0.40460000  0.93858000  1.0
  C  C58  1  0.29810000  0.52834000  0.99836000  1.0
  C  C59  1  0.70190000  0.47166000  0.00164000  1.0
  C  C60  1  0.29252000  0.39442000  0.03041000  1.0
  C  C61  1  0.70747000  0.60558000  0.96960000  1.0
  C  C62  1  0.02516000  0.39152000  0.17311000  1.0
  C  C63  1  0.97483000  0.60848000  0.82689000  1.0
  C  C64  1  0.87803000  0.31856000  0.25588000  1.0
  C  C65  1  0.12196000  0.68144000  0.74412000  1.0
  S  S66  1  0.91654000  0.81705000  0.47542000  1.0
  S  S67  1  0.08346000  0.18296000  0.52458000  1.0
  N  N68  1  0.87893000  0.18916000  0.26660000  1.0
  N  N69  1  0.12106000  0.81084000  0.73340000  1.0
  N  N70  1  0.16164000  0.32721000  0.11665000  1.0
  N  N71  1  0.83836000  0.67278000  0.88335000  1.0
  O  O72  1  0.03141000  0.92339000  0.39603000  1.0
  O  O73  1  0.96858000  0.07661000  0.60397000  1.0
  O  O74  1  0.77280000  0.80631000  0.43979000  1.0
  O  O75  1  0.22720000  0.19369000  0.56021000  1.0
  O  O76  1  0.86907000  0.81975000  0.61793000  1.0
  O  O77  1  0.13093000  0.18024000  0.38207000  1.0
  O  O78  1  0.85442000  0.87766000  0.02390000  1.0
  O  O79  1  0.14556000  0.12233000  0.97611000  1.0
  O  O80  1  0.96502000  0.93527000  0.16419000  1.0
  O  O81  1  0.03498000  0.06472000  0.83581000  1.0
  O  O82  1  0.55651000  0.85853000  0.93212000  1.0
  O  O83  1  0.44350000  0.14146000  0.06787000  1.0
  O  O84  1  0.31655000  0.90723000  0.07889000  1.0
  O  O85  1  0.68347000  0.09276000  0.92111000  1.0
  O  O86  1  0.36657000  0.98998000  0.30842000  1.0
  O  O87  1  0.63344000  0.01001000  0.69158000  1.0
