# generated using pymatgen
data_BiH11C9S2NCl
_symmetry_space_group_name_H-M   'P 1'
_cell_length_a   8.27125000
_cell_length_b   8.54640000
_cell_length_c   17.33710000
_cell_angle_alpha   102.49900000
_cell_angle_beta   89.99970000
_cell_angle_gamma   89.99990000
_symmetry_Int_Tables_number   1
_chemical_formula_structural   BiH11C9S2NCl
_chemical_formula_sum   'Bi4 H44 C36 S8 N4 Cl4'
_cell_volume   1196.50360291
_cell_formula_units_Z   4
loop_
 _symmetry_equiv_pos_site_id
 _symmetry_equiv_pos_as_xyz
  1  'x, y, z'
loop_
 _atom_site_type_symbol
 _atom_site_label
 _atom_site_symmetry_multiplicity
 _atom_site_fract_x
 _atom_site_fract_y
 _atom_site_fract_z
 _atom_site_occupancy
  Bi  Bi0  1  0.67173000  0.75500000  0.19489000  1.0
  Bi  Bi1  1  0.17172000  0.74499000  0.30511000  1.0
  Bi  Bi2  1  0.32827000  0.24499000  0.80511000  1.0
  Bi  Bi3  1  0.82826000  0.25501000  0.69489000  1.0
  H  H4  1  0.10218000  0.82740000  0.91993000  1.0
  H  H5  1  0.60218000  0.67260000  0.58007000  1.0
  H  H6  1  0.89783000  0.17260000  0.08007000  1.0
  H  H7  1  0.39782000  0.32740000  0.41993000  1.0
  H  H8  1  0.96148000  0.68994000  0.86352000  1.0
  H  H9  1  0.46148000  0.81006000  0.63648000  1.0
  H  H10  1  0.03852000  0.31006000  0.13648000  1.0
  H  H11  1  0.53852000  0.18994000  0.36352000  1.0
  H  H12  1  0.03717000  0.65442000  0.95429000  1.0
  H  H13  1  0.53717000  0.84558000  0.54571000  1.0
  H  H14  1  0.96283000  0.34558000  0.04571000  1.0
  H  H15  1  0.46283000  0.15442000  0.45429000  1.0
  H  H16  1  0.67422000  0.99465000  0.95120000  1.0
  H  H17  1  0.17422000  0.50535000  0.54880000  1.0
  H  H18  1  0.32578000  0.00535000  0.04880000  1.0
  H  H19  1  0.82578000  0.49465000  0.45120000  1.0
  H  H20  1  0.75797000  0.88190000  0.86184000  1.0
  H  H21  1  0.25797000  0.61810000  0.63817000  1.0
  H  H22  1  0.24203000  0.11810000  0.13816000  1.0
  H  H23  1  0.74204000  0.38190000  0.36183000  1.0
  H  H24  1  0.86779000  0.04735000  0.91810000  1.0
  H  H25  1  0.36780000  0.45265000  0.58190000  1.0
  H  H26  1  0.13221000  0.95265000  0.08190000  1.0
  H  H27  1  0.63221000  0.54735000  0.41810000  1.0
  H  H28  1  0.93200000  0.05149000  0.19132000  1.0
  H  H29  1  0.43199000  0.44852000  0.30868000  1.0
  H  H30  1  0.06801000  0.94852000  0.80868000  1.0
  H  H31  1  0.56800000  0.55148000  0.69132000  1.0
  H  H32  1  0.10234000  0.23728000  0.28863000  1.0
  H  H33  1  0.60234000  0.26272000  0.21138000  1.0
  H  H34  1  0.89766000  0.76272000  0.71138000  1.0
  H  H35  1  0.39766000  0.73728000  0.78862000  1.0
  H  H36  1  0.08264000  0.23603000  0.43169000  1.0
  H  H37  1  0.58264000  0.26396000  0.06832000  1.0
  H  H38  1  0.91736000  0.76397000  0.56832000  1.0
  H  H39  1  0.41736000  0.73604000  0.93169000  1.0
  H  H40  1  0.88964000  0.05093000  0.47737000  1.0
  H  H41  1  0.38964000  0.44906000  0.02263000  1.0
  H  H42  1  0.11035000  0.94907000  0.52264000  1.0
  H  H43  1  0.61036000  0.55093000  0.97737000  1.0
  H  H44  1  0.72339000  0.86375000  0.38110000  1.0
  H  H45  1  0.22339000  0.63625000  0.11890000  1.0
  H  H46  1  0.27661000  0.13625000  0.61890000  1.0
  H  H47  1  0.77661000  0.36375000  0.88110000  1.0
  C  C48  1  0.81467000  0.82292000  0.03622000  1.0
  C  C49  1  0.31467000  0.67708000  0.46378000  1.0
  C  C50  1  0.18533000  0.17708000  0.96378000  1.0
  C  C51  1  0.68533000  0.32292000  0.53622000  1.0
  C  C52  1  0.99943000  0.74751000  0.92363000  1.0
  C  C53  1  0.49943000  0.75248000  0.57637000  1.0
  C  C54  1  0.00057000  0.25249000  0.07637000  1.0
  C  C55  1  0.50057000  0.24752000  0.42363000  1.0
  C  C56  1  0.78656000  0.94737000  0.92192000  1.0
  C  C57  1  0.28656000  0.55263000  0.57808000  1.0
  C  C58  1  0.21344000  0.05263000  0.07808000  1.0
  C  C59  1  0.71344000  0.44737000  0.42192000  1.0
  C  C60  1  0.81649000  0.94512000  0.27921000  1.0
  C  C61  1  0.31649000  0.55488000  0.22079000  1.0
  C  C62  1  0.18351000  0.05488000  0.72079000  1.0
  C  C63  1  0.68351000  0.44512000  0.77921000  1.0
  C  C64  1  0.92284000  0.05105000  0.25402000  1.0
  C  C65  1  0.42284000  0.44895000  0.24598000  1.0
  C  C66  1  0.07716000  0.94895000  0.74598000  1.0
  C  C67  1  0.57716000  0.55105000  0.75402000  1.0
  C  C68  1  0.01907000  0.15547000  0.30868000  1.0
  C  C69  1  0.51907000  0.34453000  0.19133000  1.0
  C  C70  1  0.98093000  0.84454000  0.69133000  1.0
  C  C71  1  0.48093000  0.65547000  0.80867000  1.0
  C  C72  1  0.00855000  0.15425000  0.38897000  1.0
  C  C73  1  0.50854000  0.34575000  0.11103000  1.0
  C  C74  1  0.99145000  0.84575000  0.61103000  1.0
  C  C75  1  0.49145000  0.65425000  0.88897000  1.0
  C  C76  1  0.90047000  0.05030000  0.41461000  1.0
  C  C77  1  0.40046000  0.44970000  0.08539000  1.0
  C  C78  1  0.09953000  0.94970000  0.58539000  1.0
  C  C79  1  0.59953000  0.55030000  0.91461000  1.0
  C  C80  1  0.80516000  0.94561000  0.35995000  1.0
  C  C81  1  0.30516000  0.55439000  0.14005000  1.0
  C  C82  1  0.19483000  0.05439000  0.64005000  1.0
  C  C83  1  0.69484000  0.44561000  0.85995000  1.0
  S  S84  1  0.65156000  0.92989000  0.08275000  1.0
  S  S85  1  0.15156000  0.57011000  0.41725000  1.0
  S  S86  1  0.34845000  0.07012000  0.91725000  1.0
  S  S87  1  0.84845000  0.42988000  0.58275000  1.0
  S  S88  1  0.91026000  0.69334000  0.08524000  1.0
  S  S89  1  0.41026000  0.80666000  0.41476000  1.0
  S  S90  1  0.08974000  0.30666000  0.91476000  1.0
  S  S91  1  0.58974000  0.19333000  0.58524000  1.0
  N  N92  1  0.86459000  0.83925000  0.96511000  1.0
  N  N93  1  0.36459000  0.66075000  0.53489000  1.0
  N  N94  1  0.13541000  0.16075000  0.03488000  1.0
  N  N95  1  0.63541000  0.33924000  0.46511000  1.0
  Cl  Cl96  1  0.39314000  0.95453000  0.24479000  1.0
  Cl  Cl97  1  0.89314000  0.54548000  0.25521000  1.0
  Cl  Cl98  1  0.60686000  0.04547000  0.75521000  1.0
  Cl  Cl99  1  0.10686000  0.45453000  0.74479000  1.0
