# generated using pymatgen
data_Cu3H12C17S2N7F4
_symmetry_space_group_name_H-M   'P 1'
_cell_length_a   8.74510000
_cell_length_b   11.55530000
_cell_length_c   11.70980000
_cell_angle_alpha   95.10870000
_cell_angle_beta   105.01700000
_cell_angle_gamma   107.10000000
_symmetry_Int_Tables_number   1
_chemical_formula_structural   Cu3H12C17S2N7F4
_chemical_formula_sum   'Cu6 H24 C34 S4 N14 F8'
_cell_volume   1074.72663785
_cell_formula_units_Z   2
loop_
 _symmetry_equiv_pos_site_id
 _symmetry_equiv_pos_as_xyz
  1  'x, y, z'
loop_
 _atom_site_type_symbol
 _atom_site_label
 _atom_site_symmetry_multiplicity
 _atom_site_fract_x
 _atom_site_fract_y
 _atom_site_fract_z
 _atom_site_occupancy
  Cu  Cu0  1  0.02224000  0.08506000  0.27336000  1.0
  Cu  Cu1  1  0.97776000  0.91494000  0.72664000  1.0
  Cu  Cu2  1  0.64187000  0.82170000  0.30392000  1.0
  Cu  Cu3  1  0.35813000  0.17830000  0.69608000  1.0
  Cu  Cu4  1  0.90196000  0.37342000  0.00825000  1.0
  Cu  Cu5  1  0.09804000  0.62658000  0.99175000  1.0
  H  H6  1  0.60751000  0.03167000  0.63247000  1.0
  H  H7  1  0.39248000  0.96833000  0.36753000  1.0
  H  H8  1  0.20786000  0.75200000  0.70281000  1.0
  H  H9  1  0.79214000  0.24799000  0.29719000  1.0
  H  H10  1  0.38330000  0.78207000  0.91617000  1.0
  H  H11  1  0.61670000  0.21793000  0.08383000  1.0
  H  H12  1  0.24366000  0.39951000  0.67045000  1.0
  H  H13  1  0.75633000  0.60049000  0.32955000  1.0
  H  H14  1  0.60708000  0.71127000  0.60505000  1.0
  H  H15  1  0.39292000  0.28873000  0.39495000  1.0
  H  H16  1  0.42083000  0.68287000  0.39636000  1.0
  H  H17  1  0.57918000  0.31714000  0.60364000  1.0
  H  H18  1  0.07401000  0.42612000  0.24407000  1.0
  H  H19  1  0.92599000  0.57388000  0.75593000  1.0
  H  H20  1  0.15541000  0.72859000  0.40316000  1.0
  H  H21  1  0.84459000  0.27141000  0.59684000  1.0
  H  H22  1  0.02608000  0.76347000  0.27858000  1.0
  H  H23  1  0.97392000  0.23653000  0.72142000  1.0
  H  H24  1  0.76487000  0.02706000  0.05857000  1.0
  H  H25  1  0.23513000  0.97294000  0.94143000  1.0
  H  H26  1  0.63260000  0.71209000  0.91891000  1.0
  H  H27  1  0.36740000  0.28791000  0.08109000  1.0
  H  H28  1  0.74284000  0.67480000  0.05003000  1.0
  H  H29  1  0.25717000  0.32520000  0.94997000  1.0
  C  C30  1  0.00694000  0.19554000  0.16742000  1.0
  C  C31  1  0.99307000  0.80446000  0.83258000  1.0
  C  C32  1  0.43896000  0.74390000  0.18757000  1.0
  C  C33  1  0.56105000  0.25610000  0.81243000  1.0
  C  C34  1  0.15587000  0.11170000  0.43287000  1.0
  C  C35  1  0.84412000  0.88831000  0.56713000  1.0
  C  C36  1  0.04573000  0.59308000  0.25207000  1.0
  C  C37  1  0.95427000  0.40692000  0.74793000  1.0
  C  C38  1  0.74281000  0.85043000  0.06674000  1.0
  C  C39  1  0.25719000  0.14958000  0.93326000  1.0
  C  C40  1  0.59529000  0.92101000  0.89346000  1.0
  C  C41  1  0.40472000  0.07899000  0.10654000  1.0
  C  C42  1  0.65367000  0.99127000  0.81264000  1.0
  C  C43  1  0.34633000  0.00873000  0.18736000  1.0
  C  C44  1  0.55825000  0.97775000  0.69426000  1.0
  C  C45  1  0.44175000  0.02225000  0.30574000  1.0
  C  C46  1  0.39958000  0.88981000  0.65854000  1.0
  C  C47  1  0.60042000  0.11019000  0.34146000  1.0
  C  C48  1  0.33370000  0.81858000  0.73494000  1.0
  C  C49  1  0.66630000  0.18141000  0.26506000  1.0
  C  C50  1  0.43266000  0.83541000  0.85348000  1.0
  C  C51  1  0.56733000  0.16458000  0.14652000  1.0
  C  C52  1  0.22437000  0.52890000  0.41610000  1.0
  C  C53  1  0.77563000  0.47110000  0.58390000  1.0
  C  C54  1  0.17912000  0.45036000  0.49512000  1.0
  C  C55  1  0.82089000  0.54964000  0.50488000  1.0
  C  C56  1  0.28122000  0.46210000  0.61104000  1.0
  C  C57  1  0.71877000  0.53790000  0.38896000  1.0
  C  C58  1  0.43325000  0.55780000  0.64736000  1.0
  C  C59  1  0.56676000  0.44220000  0.35264000  1.0
  C  C60  1  0.48563000  0.63863000  0.57365000  1.0
  C  C61  1  0.51436000  0.36136000  0.42635000  1.0
  C  C62  1  0.38025000  0.62271000  0.45732000  1.0
  C  C63  1  0.61975000  0.37729000  0.54268000  1.0
  S  S64  1  0.90602000  0.55358000  0.10954000  1.0
  S  S65  1  0.09398000  0.44642000  0.89046000  1.0
  S  S66  1  0.85800000  0.88568000  0.21734000  1.0
  S  S67  1  0.14200000  0.11432000  0.78265000  1.0
  N  N68  1  0.98686000  0.27005000  0.10774000  1.0
  N  N69  1  0.01313000  0.72996000  0.89225000  1.0
  N  N70  1  0.31240000  0.69836000  0.10969000  1.0
  N  N71  1  0.68760000  0.30164000  0.89031000  1.0
  N  N72  1  0.24044000  0.13483000  0.53345000  1.0
  N  N73  1  0.75955000  0.86517000  0.46655000  1.0
  N  N74  1  0.11375000  0.51054000  0.29850000  1.0
  N  N75  1  0.88626000  0.48946000  0.70151000  1.0
  N  N76  1  0.08250000  0.70403000  0.31607000  1.0
  N  N77  1  0.91750000  0.29598000  0.68393000  1.0
  N  N78  1  0.70004000  0.93926000  0.01259000  1.0
  N  N79  1  0.29995000  0.06074000  0.98741000  1.0
  N  N80  1  0.69278000  0.73567000  0.00869000  1.0
  N  N81  1  0.30722000  0.26433000  0.99131000  1.0
  F  F82  1  0.02762000  0.35898000  0.45651000  1.0
  F  F83  1  0.97237000  0.64102000  0.54349000  1.0
  F  F84  1  0.30440000  0.87314000  0.54145000  1.0
  F  F85  1  0.69559000  0.12686000  0.45855000  1.0
  F  F86  1  0.80953000  0.07536000  0.85243000  1.0
  F  F87  1  0.19047000  0.92465000  0.14757000  1.0
  F  F88  1  0.53630000  0.57153000  0.76145000  1.0
  F  F89  1  0.46370000  0.42847000  0.23855000  1.0
