# generated using pymatgen
data_CoH24C30(NO2)3
_symmetry_space_group_name_H-M   'P 1'
_cell_length_a   11.26460000
_cell_length_b   13.62880000
_cell_length_c   14.73740000
_cell_angle_alpha   86.87330000
_cell_angle_beta   71.38290000
_cell_angle_gamma   74.17500000
_symmetry_Int_Tables_number   1
_chemical_formula_structural   CoH24C30(NO2)3
_chemical_formula_sum   'Co2 H48 C60 N6 O12'
_cell_volume   2061.56176197
_cell_formula_units_Z   2
loop_
 _symmetry_equiv_pos_site_id
 _symmetry_equiv_pos_as_xyz
  1  'x, y, z'
loop_
 _atom_site_type_symbol
 _atom_site_label
 _atom_site_symmetry_multiplicity
 _atom_site_fract_x
 _atom_site_fract_y
 _atom_site_fract_z
 _atom_site_occupancy
  Co  Co0  1  0.50000000  0.00000000  0.00000000  1.0
  Co  Co1  1  0.50000000  0.50000000  0.00000000  1.0
  H  H2  1  0.36538000  0.21476000  0.28393000  1.0
  H  H3  1  0.63462000  0.78525000  0.71607000  1.0
  H  H4  1  0.46523000  0.10713000  0.39773000  1.0
  H  H5  1  0.53477000  0.89288000  0.60228000  1.0
  H  H6  1  0.80471000  0.21872000  0.28607000  1.0
  H  H7  1  0.19530000  0.78128000  0.71392000  1.0
  H  H8  1  0.70112000  0.32981000  0.17515000  1.0
  H  H9  1  0.29889000  0.67018000  0.82485000  1.0
  H  H10  1  0.42677000  0.25649000  0.69114000  1.0
  H  H11  1  0.57322000  0.74352000  0.30885000  1.0
  H  H12  1  0.51507000  0.24547000  0.51348000  1.0
  H  H13  1  0.48492000  0.75454000  0.48652000  1.0
  H  H14  1  0.77520000  0.95052000  0.52843000  1.0
  H  H15  1  0.22480000  0.04949000  0.47158000  1.0
  H  H16  1  0.68421000  0.96422000  0.70572000  1.0
  H  H17  1  0.31578000  0.03579000  0.29429000  1.0
  H  H18  1  0.23428000  0.51230000  0.14885000  1.0
  H  H19  1  0.76573000  0.48769000  0.85115000  1.0
  H  H20  1  0.04300000  0.64460000  0.24729000  1.0
  H  H21  1  0.95701000  0.35538000  0.75272000  1.0
  H  H22  1  0.27014000  0.86229000  0.15437000  1.0
  H  H23  1  0.72985000  0.13771000  0.84564000  1.0
  H  H24  1  0.44570000  0.72477000  0.05385000  1.0
  H  H25  1  0.55428000  0.27524000  0.94616000  1.0
  H  H26  1  0.88769000  0.80045000  0.21500000  1.0
  H  H27  1  0.11230000  0.19955000  0.78501000  1.0
  H  H28  1  0.69955000  0.94165000  0.30139000  1.0
  H  H29  1  0.30045000  0.05835000  0.69861000  1.0
  H  H30  1  0.94983000  0.05963000  0.40773000  1.0
  H  H31  1  0.05017000  0.94038000  0.59226000  1.0
  H  H32  1  0.13949000  0.91831000  0.32080000  1.0
  H  H33  1  0.86050000  0.08168000  0.67920000  1.0
  H  H34  1  0.23363000  0.06097000  0.13417000  1.0
  H  H35  1  0.76638000  0.93903000  0.86583000  1.0
  H  H36  1  0.00799000  0.06964000  0.14205000  1.0
  H  H37  1  0.99202000  0.93033000  0.85795000  1.0
  H  H38  1  0.16958000  0.92253000  0.85918000  1.0
  H  H39  1  0.83042000  0.07747000  0.14081000  1.0
  H  H40  1  0.38666000  0.92004000  0.86525000  1.0
  H  H41  1  0.61334000  0.07995000  0.13474000  1.0
  H  H42  1  0.60072000  0.79312000  0.92103000  1.0
  H  H43  1  0.39929000  0.20687000  0.07897000  1.0
  H  H44  1  0.60581000  0.81890000  0.02776000  1.0
  H  H45  1  0.39418000  0.18109000  0.97224000  1.0
  H  H46  1  0.64769000  0.61760000  0.95650000  1.0
  H  H47  1  0.35232000  0.38240000  0.04349000  1.0
  H  H48  1  0.62559000  0.61105000  0.06983000  1.0
  H  H49  1  0.37441000  0.38896000  0.93017000  1.0
  C  C50  1  0.47037000  0.34182000  0.15302000  1.0
  C  C51  1  0.52964000  0.65818000  0.84697000  1.0
  C  C52  1  0.52716000  0.27921000  0.22332000  1.0
  C  C53  1  0.47285000  0.72080000  0.77668000  1.0
  C  C54  1  0.46042000  0.21675000  0.28636000  1.0
  C  C55  1  0.53958000  0.78325000  0.71363000  1.0
  C  C56  1  0.51620000  0.15654000  0.34939000  1.0
  C  C57  1  0.48380000  0.84347000  0.65060000  1.0
  C  C58  1  0.64096000  0.15657000  0.34849000  1.0
  C  C59  1  0.35904000  0.84343000  0.65151000  1.0
  C  C60  1  0.70794000  0.21896000  0.28570000  1.0
  C  C61  1  0.29207000  0.78104000  0.71429000  1.0
  C  C62  1  0.65085000  0.28051000  0.22416000  1.0
  C  C63  1  0.34916000  0.71949000  0.77583000  1.0
  C  C64  1  0.49803000  0.11690000  0.81717000  1.0
  C  C65  1  0.50195000  0.88310000  0.18283000  1.0
  C  C66  1  0.54978000  0.11112000  0.71023000  1.0
  C  C67  1  0.45022000  0.88890000  0.28977000  1.0
  C  C68  1  0.50296000  0.18962000  0.65459000  1.0
  C  C69  1  0.49704000  0.81039000  0.34541000  1.0
  C  C70  1  0.55250000  0.18339000  0.55520000  1.0
  C  C71  1  0.44749000  0.81662000  0.44480000  1.0
  C  C72  1  0.65209000  0.09730000  0.50756000  1.0
  C  C73  1  0.34791000  0.90271000  0.49244000  1.0
  C  C74  1  0.69923000  0.01805000  0.56341000  1.0
  C  C75  1  0.30077000  0.98196000  0.43658000  1.0
  C  C76  1  0.64853000  0.02571000  0.66262000  1.0
  C  C77  1  0.35146000  0.97430000  0.33738000  1.0
  C  C78  1  0.23745000  0.59130000  0.15046000  1.0
  C  C79  1  0.76256000  0.40869000  0.84954000  1.0
  C  C80  1  0.13099000  0.66559000  0.20564000  1.0
  C  C81  1  0.86901000  0.33440000  0.79436000  1.0
  C  C82  1  0.13855000  0.76643000  0.20850000  1.0
  C  C83  1  0.86145000  0.23355000  0.79151000  1.0
  C  C84  1  0.25660000  0.78620000  0.15523000  1.0
  C  C85  1  0.74340000  0.21379000  0.84478000  1.0
  C  C86  1  0.35630000  0.70853000  0.09894000  1.0
  C  C87  1  0.64370000  0.29147000  0.90107000  1.0
  C  C88  1  0.02661000  0.84895000  0.26248000  1.0
  C  C89  1  0.97339000  0.15104000  0.73752000  1.0
  C  C90  1  0.90175000  0.85632000  0.25806000  1.0
  C  C91  1  0.09825000  0.14367000  0.74194000  1.0
  C  C92  1  0.79600000  0.93607000  0.30580000  1.0
  C  C93  1  0.20400000  0.06393000  0.69420000  1.0
  C  C94  1  0.81316000  0.00949000  0.35978000  1.0
  C  C95  1  0.18684000  0.99051000  0.64022000  1.0
  C  C96  1  0.93728000  0.00251000  0.36513000  1.0
  C  C97  1  0.06272000  0.99749000  0.63487000  1.0
  C  C98  1  0.04312000  0.92324000  0.31646000  1.0
  C  C99  1  0.95688000  0.07676000  0.68354000  1.0
  C  C100  1  0.21352000  0.03120000  0.07521000  1.0
  C  C101  1  0.78648000  0.96879000  0.92479000  1.0
  C  C102  1  0.08783000  0.03619000  0.07823000  1.0
  C  C103  1  0.91217000  0.96379000  0.92178000  1.0
  C  C104  1  0.06604000  0.99767000  0.00017000  1.0
  C  C105  1  0.93395000  0.00231000  0.99983000  1.0
  C  C106  1  0.17682000  0.95447000  0.92254000  1.0
  C  C107  1  0.82318000  0.04552000  0.07746000  1.0
  C  C108  1  0.29960000  0.95209000  0.92514000  1.0
  C  C109  1  0.70040000  0.04791000  0.07485000  1.0
  N  N110  1  0.70371000  0.09101000  0.40807000  1.0
  N  N111  1  0.29629000  0.90900000  0.59193000  1.0
  N  N112  1  0.34855000  0.61198000  0.09581000  1.0
  N  N113  1  0.65145000  0.38802000  0.90419000  1.0
  N  N114  1  0.31877000  0.98989000  0.00000000  1.0
  N  N115  1  0.68122000  0.01011000  0.00000000  1.0
  O  O116  1  0.37577000  0.32023000  0.13529000  1.0
  O  O117  1  0.62425000  0.67977000  0.86470000  1.0
  O  O118  1  0.52126000  0.41249000  0.11411000  1.0
  O  O119  1  0.47875000  0.58751000  0.88589000  1.0
  O  O120  1  0.41577000  0.19785000  0.86019000  1.0
  O  O121  1  0.58422000  0.80216000  0.13981000  1.0
  O  O122  1  0.54366000  0.03674000  0.85870000  1.0
  O  O123  1  0.45634000  0.96326000  0.14129000  1.0
  O  O124  1  0.60064000  0.84720000  0.96336000  1.0
  O  O125  1  0.39935000  0.15279000  0.03665000  1.0
  O  O126  1  0.64427000  0.56987000  0.01233000  1.0
  O  O127  1  0.35573000  0.43014000  0.98766000  1.0
