# generated using pymatgen
data_NaH14C8NO5
_symmetry_space_group_name_H-M   'P 1'
_cell_length_a   5.58932000
_cell_length_b   6.15174000
_cell_length_c   31.79040000
_cell_angle_alpha   90.00050000
_cell_angle_beta   90.00040000
_cell_angle_gamma   71.42000000
_symmetry_Int_Tables_number   1
_chemical_formula_structural   NaH14C8NO5
_chemical_formula_sum   'Na4 H56 C32 N4 O20'
_cell_volume   1036.11069543
_cell_formula_units_Z   4
loop_
 _symmetry_equiv_pos_site_id
 _symmetry_equiv_pos_as_xyz
  1  'x, y, z'
loop_
 _atom_site_type_symbol
 _atom_site_label
 _atom_site_symmetry_multiplicity
 _atom_site_fract_x
 _atom_site_fract_y
 _atom_site_fract_z
 _atom_site_occupancy
  Na  Na0  1  0.77308000  0.91398000  0.52815000  1.0
  Na  Na1  1  0.72691000  0.58602000  0.02815000  1.0
  Na  Na2  1  0.22692000  0.08603000  0.47185000  1.0
  Na  Na3  1  0.27308000  0.41396000  0.97185000  1.0
  H  H4  1  0.03024000  0.32053000  0.66654000  1.0
  H  H5  1  0.46977000  0.17947000  0.16654000  1.0
  H  H6  1  0.96975000  0.67949000  0.33346000  1.0
  H  H7  1  0.53023000  0.82052000  0.83346000  1.0
  H  H8  1  0.04891000  0.43476000  0.61951000  1.0
  H  H9  1  0.45110000  0.06523000  0.11951000  1.0
  H  H10  1  0.95109000  0.56524000  0.38049000  1.0
  H  H11  1  0.54890000  0.93476000  0.88049000  1.0
  H  H12  1  0.59994000  0.31223000  0.64231000  1.0
  H  H13  1  0.90008000  0.18778000  0.14231000  1.0
  H  H14  1  0.40006000  0.68780000  0.35769000  1.0
  H  H15  1  0.09992000  0.81221000  0.85769000  1.0
  H  H16  1  0.85348000  0.81227000  0.64970000  1.0
  H  H17  1  0.64652000  0.68774000  0.14970000  1.0
  H  H18  1  0.14653000  0.18776000  0.35030000  1.0
  H  H19  1  0.35347000  0.31224000  0.85030000  1.0
  H  H20  1  0.69320000  0.12298000  0.70189000  1.0
  H  H21  1  0.80682000  0.37702000  0.20189000  1.0
  H  H22  1  0.30682000  0.87705000  0.29811000  1.0
  H  H23  1  0.19321000  0.62296000  0.79811000  1.0
  H  H24  1  0.31852000  0.14009000  0.74653000  1.0
  H  H25  1  0.18149000  0.35990000  0.24653000  1.0
  H  H26  1  0.68150000  0.85994000  0.25347000  1.0
  H  H27  1  0.81852000  0.64008000  0.75347000  1.0
  H  H28  1  0.11463000  0.83864000  0.73899000  1.0
  H  H29  1  0.38538000  0.66136000  0.23899000  1.0
  H  H30  1  0.88538000  0.16139000  0.26101000  1.0
  H  H31  1  0.61461000  0.33864000  0.76101000  1.0
  H  H32  1  0.28805000  0.51622000  0.68895000  1.0
  H  H33  1  0.21196000  0.98378000  0.18895000  1.0
  H  H34  1  0.71197000  0.48382000  0.31105000  1.0
  H  H35  1  0.78803000  0.01621000  0.81105000  1.0
  H  H36  1  0.28100000  0.65263000  0.52829000  1.0
  H  H37  1  0.21899000  0.84737000  0.02829000  1.0
  H  H38  1  0.71900000  0.34738000  0.47171000  1.0
  H  H39  1  0.78099000  0.15261000  0.97171000  1.0
  H  H40  1  0.21325000  0.60389000  0.48165000  1.0
  H  H41  1  0.28672000  0.89610000  0.98165000  1.0
  H  H42  1  0.78675000  0.39612000  0.51835000  1.0
  H  H43  1  0.71325000  0.10387000  0.01835000  1.0
  H  H44  1  0.77373000  0.91466000  0.44283000  1.0
  H  H45  1  0.72625000  0.58534000  0.94283000  1.0
  H  H46  1  0.22626000  0.08535000  0.55717000  1.0
  H  H47  1  0.27374000  0.41465000  0.05717000  1.0
  H  H48  1  0.65706000  0.71285000  0.44453000  1.0
  H  H49  1  0.84293000  0.78715000  0.94453000  1.0
  H  H50  1  0.34295000  0.28715000  0.55547000  1.0
  H  H51  1  0.15706000  0.21284000  0.05547000  1.0
  H  H52  1  0.14622000  0.82529000  0.59213000  1.0
  H  H53  1  0.35377000  0.67472000  0.09213000  1.0
  H  H54  1  0.85377000  0.17473000  0.40787000  1.0
  H  H55  1  0.64621000  0.32528000  0.90787000  1.0
  H  H56  1  0.01753000  0.08946000  0.60881000  1.0
  H  H57  1  0.48247000  0.41055000  0.10881000  1.0
  H  H58  1  0.98246000  0.91056000  0.39119000  1.0
  H  H59  1  0.51752000  0.58945000  0.89119000  1.0
  C  C60  1  0.60168000  0.52772000  0.59026000  1.0
  C  C61  1  0.89833000  0.97227000  0.09026000  1.0
  C  C62  1  0.39834000  0.47227000  0.40974000  1.0
  C  C63  1  0.10164000  0.02774000  0.90974000  1.0
  C  C64  1  0.68811000  0.44435000  0.63540000  1.0
  C  C65  1  0.81191000  0.05564000  0.13540000  1.0
  C  C66  1  0.31191000  0.55565000  0.36460000  1.0
  C  C67  1  0.18808000  0.94436000  0.86460000  1.0
  C  C68  1  0.58356000  0.64079000  0.66612000  1.0
  C  C69  1  0.91646000  0.85921000  0.16612000  1.0
  C  C70  1  0.41646000  0.35924000  0.33388000  1.0
  C  C71  1  0.08354000  0.14078000  0.83388000  1.0
  C  C72  1  0.69412000  0.81506000  0.66973000  1.0
  C  C73  1  0.80589000  0.68493000  0.16973000  1.0
  C  C74  1  0.30590000  0.18496000  0.33027000  1.0
  C  C75  1  0.19411000  0.31504000  0.83027000  1.0
  C  C76  1  0.60055000  0.99257000  0.69863000  1.0
  C  C77  1  0.89945000  0.50744000  0.19863000  1.0
  C  C78  1  0.39946000  0.00746000  0.30137000  1.0
  C  C79  1  0.10056000  0.49255000  0.80137000  1.0
  C  C80  1  0.39183000  0.00234000  0.72373000  1.0
  C  C81  1  0.10820000  0.49762000  0.22373000  1.0
  C  C82  1  0.60820000  0.99766000  0.27627000  1.0
  C  C83  1  0.89182000  0.50234000  0.77627000  1.0
  C  C84  1  0.27817000  0.83152000  0.71975000  1.0
  C  C85  1  0.22186000  0.66848000  0.21974000  1.0
  C  C86  1  0.72185000  0.16852000  0.28026000  1.0
  C  C87  1  0.77816000  0.33151000  0.78025000  1.0
  C  C88  1  0.37472000  0.65148000  0.69140000  1.0
  C  C89  1  0.12529000  0.84850000  0.19140000  1.0
  C  C90  1  0.62529000  0.34854000  0.30860000  1.0
  C  C91  1  0.87471000  0.15147000  0.80860000  1.0
  N  N92  1  0.96323000  0.33804000  0.63644000  1.0
  N  N93  1  0.53678000  0.16195000  0.13644000  1.0
  N  N94  1  0.03677000  0.66196000  0.36356000  1.0
  N  N95  1  0.46321000  0.83805000  0.86356000  1.0
  O  O96  1  0.37156000  0.54739000  0.58167000  1.0
  O  O97  1  0.12845000  0.95261000  0.08167000  1.0
  O  O98  1  0.62845000  0.45262000  0.41833000  1.0
  O  O99  1  0.87153000  0.04739000  0.91832000  1.0
  O  O100  1  0.75813000  0.57001000  0.56590000  1.0
  O  O101  1  0.74188000  0.92998000  0.06590000  1.0
  O  O102  1  0.24187000  0.42998000  0.43410000  1.0
  O  O103  1  0.25809000  0.07001000  0.93410000  1.0
  O  O104  1  0.19265000  0.72693000  0.50254000  1.0
  O  O105  1  0.30733000  0.77306000  0.00254000  1.0
  O  O106  1  0.80736000  0.27308000  0.49746000  1.0
  O  O107  1  0.69264000  0.22691000  0.99746000  1.0
  O  O108  1  0.64582000  0.86081000  0.45752000  1.0
  O  O109  1  0.85417000  0.63919000  0.95752000  1.0
  O  O110  1  0.35418000  0.13919000  0.54248000  1.0
  O  O111  1  0.14582000  0.36080000  0.04248000  1.0
  O  O112  1  0.02121000  0.97538000  0.58567000  1.0
  O  O113  1  0.47879000  0.52462000  0.08567000  1.0
  O  O114  1  0.97878000  0.02463000  0.41433000  1.0
  O  O115  1  0.52119000  0.47537000  0.91433000  1.0
