# generated using pymatgen
data_ZnH24C28N4O5
_symmetry_space_group_name_H-M   'P 1'
_cell_length_a   11.95960000
_cell_length_b   16.24510000
_cell_length_c   25.97210000
_cell_angle_alpha   75.71090000
_cell_angle_beta   86.40180000
_cell_angle_gamma   76.05510000
_symmetry_Int_Tables_number   1
_chemical_formula_structural   ZnH24C28N4O5
_chemical_formula_sum   'Zn6 H144 C168 N24 O30'
_cell_volume   4745.73392877
_cell_formula_units_Z   6
loop_
 _symmetry_equiv_pos_site_id
 _symmetry_equiv_pos_as_xyz
  1  'x, y, z'
loop_
 _atom_site_type_symbol
 _atom_site_label
 _atom_site_symmetry_multiplicity
 _atom_site_fract_x
 _atom_site_fract_y
 _atom_site_fract_z
 _atom_site_occupancy
  Zn  Zn0  1  0.21535000  0.13315000  0.64872000  1.0
  Zn  Zn1  1  0.78465000  0.86685000  0.35128000  1.0
  Zn  Zn2  1  0.39034000  0.60465000  0.68293000  1.0
  Zn  Zn3  1  0.60966000  0.39535000  0.31707000  1.0
  Zn  Zn4  1  0.75352000  0.26070000  0.99641000  1.0
  Zn  Zn5  1  0.24648000  0.73930000  0.00359000  1.0
  H  H6  1  0.32088000  0.08750000  0.75604000  1.0
  H  H7  1  0.67911000  0.91250000  0.24397000  1.0
  H  H8  1  0.44249000  0.96010000  0.81563000  1.0
  H  H9  1  0.55750000  0.03990000  0.18438000  1.0
  H  H10  1  0.50396000  0.83792000  0.68136000  1.0
  H  H11  1  0.49604000  0.16209000  0.31864000  1.0
  H  H12  1  0.38369000  0.97285000  0.62806000  1.0
  H  H13  1  0.61631000  0.02717000  0.37194000  1.0
  H  H14  1  0.52790000  0.70556000  0.75136000  1.0
  H  H15  1  0.47210000  0.29445000  0.24864000  1.0
  H  H16  1  0.64651000  0.75368000  0.73033000  1.0
  H  H17  1  0.35349000  0.24632000  0.26967000  1.0
  H  H18  1  0.45917000  0.83736000  0.85664000  1.0
  H  H19  1  0.54084000  0.16264000  0.14337000  1.0
  H  H20  1  0.61031000  0.79876000  0.86218000  1.0
  H  H21  1  0.38969000  0.20124000  0.13782000  1.0
  H  H22  1  0.51025000  0.68905000  0.91252000  1.0
  H  H23  1  0.48975000  0.31096000  0.08748000  1.0
  H  H24  1  0.42837000  0.69572000  0.85680000  1.0
  H  H25  1  0.57163000  0.30428000  0.14321000  1.0
  H  H26  1  0.74490000  0.68514000  0.81551000  1.0
  H  H27  1  0.25510000  0.31485000  0.18449000  1.0
  H  H28  1  0.70509000  0.60668000  0.78759000  1.0
  H  H29  1  0.29490000  0.39332000  0.21240000  1.0
  H  H30  1  0.79820000  0.50868000  0.84616000  1.0
  H  H31  1  0.20179000  0.49132000  0.15384000  1.0
  H  H32  1  0.84030000  0.36186000  0.90412000  1.0
  H  H33  1  0.15969000  0.63814000  0.09588000  1.0
  H  H34  1  0.52626000  0.40464000  0.98173000  1.0
  H  H35  1  0.47374000  0.59536000  0.01827000  1.0
  H  H36  1  0.46916000  0.55813000  0.92877000  1.0
  H  H37  1  0.53084000  0.44188000  0.07123000  1.0
  H  H38  1  0.36138000  0.23670000  0.67680000  1.0
  H  H39  1  0.63861000  0.76331000  0.32320000  1.0
  H  H40  1  0.45428000  0.35402000  0.63441000  1.0
  H  H41  1  0.54572000  0.64598000  0.36559000  1.0
  H  H42  1  0.32048000  0.34420000  0.48396000  1.0
  H  H43  1  0.67951000  0.65580000  0.51604000  1.0
  H  H44  1  0.23432000  0.22720000  0.53425000  1.0
  H  H45  1  0.76567000  0.77280000  0.46575000  1.0
  H  H46  1  0.53766000  0.40643000  0.45842000  1.0
  H  H47  1  0.46235000  0.59356000  0.54158000  1.0
  H  H48  1  0.38586000  0.44014000  0.45123000  1.0
  H  H49  1  0.61414000  0.55986000  0.54876000  1.0
  H  H50  1  0.51649000  0.44779000  0.59594000  1.0
  H  H51  1  0.48352000  0.55220000  0.40405000  1.0
  H  H52  1  0.61984000  0.41125000  0.54893000  1.0
  H  H53  1  0.38017000  0.58874000  0.45106000  1.0
  H  H54  1  0.25178000  0.79451000  0.64605000  1.0
  H  H55  1  0.74823000  0.20548000  0.35396000  1.0
  H  H56  1  0.15124000  0.91118000  0.68831000  1.0
  H  H57  1  0.84877000  0.08881000  0.31169000  1.0
  H  H58  1  0.23961000  0.72509000  0.84077000  1.0
  H  H59  1  0.76040000  0.27489000  0.15923000  1.0
  H  H60  1  0.33366000  0.61771000  0.79099000  1.0
  H  H61  1  0.66636000  0.38228000  0.20902000  1.0
  H  H62  1  0.20515000  0.82127000  0.87068000  1.0
  H  H63  1  0.79485000  0.17872000  0.12933000  1.0
  H  H64  1  0.23402000  0.92619000  0.84719000  1.0
  H  H65  1  0.76598000  0.07381000  0.15281000  1.0
  H  H66  1  0.13800000  0.02471000  0.76108000  1.0
  H  H67  1  0.86201000  0.97528000  0.23892000  1.0
  H  H68  1  0.04496000  0.98287000  0.72938000  1.0
  H  H69  1  0.95505000  0.01712000  0.27063000  1.0
  H  H70  1  0.90373000  0.98745000  0.80088000  1.0
  H  H71  1  0.09627000  0.01255000  0.19912000  1.0
  H  H72  1  0.94411000  0.08986000  0.77973000  1.0
  H  H73  1  0.05591000  0.91014000  0.22027000  1.0
  H  H74  1  0.09892000  0.92402000  0.92005000  1.0
  H  H75  1  0.90109000  0.07599000  0.07995000  1.0
  H  H76  1  0.00354000  0.88341000  0.88806000  1.0
  H  H77  1  0.99646000  0.11660000  0.11195000  1.0
  H  H78  1  0.82768000  0.15485000  0.82328000  1.0
  H  H79  1  0.17233000  0.84516000  0.17671000  1.0
  H  H80  1  0.74299000  0.25712000  0.87751000  1.0
  H  H81  1  0.25701000  0.74288000  0.12248000  1.0
  H  H82  1  0.97666000  0.13116000  0.99916000  1.0
  H  H83  1  0.02333000  0.86884000  0.00084000  1.0
  H  H84  1  0.07244000  0.02064000  0.95155000  1.0
  H  H85  1  0.92755000  0.97936000  0.04845000  1.0
  H  H86  1  0.26451000  0.46985000  0.68834000  1.0
  H  H87  1  0.73549000  0.53014000  0.31166000  1.0
  H  H88  1  0.13293000  0.43254000  0.63482000  1.0
  H  H89  1  0.86707000  0.56745000  0.36518000  1.0
  H  H90  1  0.15423000  0.67011000  0.51541000  1.0
  H  H91  1  0.84577000  0.32988000  0.48459000  1.0
  H  H92  1  0.28836000  0.69438000  0.57478000  1.0
  H  H93  1  0.71164000  0.30561000  0.42521000  1.0
  H  H94  1  0.92530000  0.62662000  0.49332000  1.0
  H  H95  1  0.07469000  0.37337000  0.50668000  1.0
  H  H96  1  0.06660000  0.63436000  0.47113000  1.0
  H  H97  1  0.93339000  0.36563000  0.52887000  1.0
  H  H98  1  0.03240000  0.41372000  0.59114000  1.0
  H  H99  1  0.96758000  0.58628000  0.40886000  1.0
  H  H100  1  0.90483000  0.49247000  0.56605000  1.0
  H  H101  1  0.09516000  0.50753000  0.43395000  1.0
  H  H102  1  0.01773000  0.42299000  0.71454000  1.0
  H  H103  1  0.98228000  0.57702000  0.28546000  1.0
  H  H104  1  0.99691000  0.47938000  0.79721000  1.0
  H  H105  1  0.00310000  0.52062000  0.20279000  1.0
  H  H106  1  0.11398000  0.21670000  0.89086000  1.0
  H  H107  1  0.88600000  0.78330000  0.10914000  1.0
  H  H108  1  0.14010000  0.16161000  0.80743000  1.0
  H  H109  1  0.85989000  0.83840000  0.19257000  1.0
  H  H110  1  0.23204000  0.42095000  0.85898000  1.0
  H  H111  1  0.76795000  0.57906000  0.14102000  1.0
  H  H112  1  0.29971000  0.54221000  0.88096000  1.0
  H  H113  1  0.70029000  0.45779000  0.11904000  1.0
  H  H114  1  0.98220000  0.61546000  0.96281000  1.0
  H  H115  1  0.01780000  0.38455000  0.03719000  1.0
  H  H116  1  0.91480000  0.49144000  0.94298000  1.0
  H  H117  1  0.08519000  0.50857000  0.05702000  1.0
  H  H118  1  0.21366000  0.94766000  0.51123000  1.0
  H  H119  1  0.78633000  0.05236000  0.48877000  1.0
  H  H120  1  0.11780000  0.83909000  0.48956000  1.0
  H  H121  1  0.88220000  0.16092000  0.51044000  1.0
  H  H122  1  0.87434000  0.87276000  0.61644000  1.0
  H  H123  1  0.12567000  0.12723000  0.38356000  1.0
  H  H124  1  0.96617000  0.98457000  0.63525000  1.0
  H  H125  1  0.03383000  0.01542000  0.36476000  1.0
  H  H126  1  0.93252000  0.63955000  0.60674000  1.0
  H  H127  1  0.06749000  0.36046000  0.39326000  1.0
  H  H128  1  0.74585000  0.60123000  0.64358000  1.0
  H  H129  1  0.25415000  0.39877000  0.35643000  1.0
  H  H130  1  0.55708000  0.85336000  0.55934000  1.0
  H  H131  1  0.44292000  0.14664000  0.44066000  1.0
  H  H132  1  0.74233000  0.89244000  0.52239000  1.0
  H  H133  1  0.25768000  0.10756000  0.47761000  1.0
  H  H134  1  0.45954000  0.42460000  0.84103000  1.0
  H  H135  1  0.54046000  0.57540000  0.15896000  1.0
  H  H136  1  0.50881000  0.28889000  0.91620000  1.0
  H  H137  1  0.49118000  0.71111000  0.08380000  1.0
  H  H138  1  0.58494000  0.13059000  0.80224000  1.0
  H  H139  1  0.41504000  0.86940000  0.19776000  1.0
  H  H140  1  0.53964000  0.26620000  0.72774000  1.0
  H  H141  1  0.46034000  0.73379000  0.27225000  1.0
  H  H142  1  0.69134000  0.97940000  0.95332000  1.0
  H  H143  1  0.30867000  0.02059000  0.04668000  1.0
  H  H144  1  0.60378000  0.84843000  0.98124000  1.0
  H  H145  1  0.39622000  0.15156000  0.01875000  1.0
  H  H146  1  0.28476000  0.00356000  0.90838000  1.0
  H  H147  1  0.71524000  0.99644000  0.09162000  1.0
  H  H148  1  0.37172000  0.13293000  0.87868000  1.0
  H  H149  1  0.62828000  0.86707000  0.12132000  1.0
  C  C150  1  0.36417000  0.03041000  0.74140000  1.0
  C  C151  1  0.63582000  0.96959000  0.25860000  1.0
  C  C152  1  0.43085000  0.95796000  0.77480000  1.0
  C  C153  1  0.56914000  0.04204000  0.22520000  1.0
  C  C154  1  0.48167000  0.88307000  0.75524000  1.0
  C  C155  1  0.51834000  0.11694000  0.24476000  1.0
  C  C156  1  0.46746000  0.89123000  0.70024000  1.0
  C  C157  1  0.53255000  0.10878000  0.29976000  1.0
  C  C158  1  0.39949000  0.96666000  0.66994000  1.0
  C  C159  1  0.60052000  0.03335000  0.33006000  1.0
  C  C160  1  0.59360000  0.73274000  0.76508000  1.0
  C  C161  1  0.40640000  0.26726000  0.23492000  1.0
  C  C162  1  0.53267000  0.79037000  0.84520000  1.0
  C  C163  1  0.46734000  0.20963000  0.15480000  1.0
  C  C164  1  0.51287000  0.69961000  0.86905000  1.0
  C  C165  1  0.48713000  0.30039000  0.13095000  1.0
  C  C166  1  0.67100000  0.66183000  0.80588000  1.0
  C  C167  1  0.32900000  0.33817000  0.19412000  1.0
  C  C168  1  0.62954000  0.54930000  0.88232000  1.0
  C  C169  1  0.37046000  0.45070000  0.11768000  1.0
  C  C170  1  0.73354000  0.48958000  0.87492000  1.0
  C  C171  1  0.26646000  0.51042000  0.12508000  1.0
  C  C172  1  0.75761000  0.40647000  0.90727000  1.0
  C  C173  1  0.24238000  0.59353000  0.09273000  1.0
  C  C174  1  0.58373000  0.43171000  0.95155000  1.0
  C  C175  1  0.41627000  0.56829000  0.04845000  1.0
  C  C176  1  0.55286000  0.51711000  0.92203000  1.0
  C  C177  1  0.44714000  0.48289000  0.07797000  1.0
  C  C178  1  0.35469000  0.26264000  0.63383000  1.0
  C  C179  1  0.64531000  0.73736000  0.36617000  1.0
  C  C180  1  0.40778000  0.32880000  0.60937000  1.0
  C  C181  1  0.59222000  0.67119000  0.39063000  1.0
  C  C182  1  0.39765000  0.36334000  0.55354000  1.0
  C  C183  1  0.60235000  0.63665000  0.44646000  1.0
  C  C184  1  0.33221000  0.32471000  0.52674000  1.0
  C  C185  1  0.66778000  0.67529000  0.47326000  1.0
  C  C186  1  0.28268000  0.25827000  0.55474000  1.0
  C  C187  1  0.71732000  0.74172000  0.44526000  1.0
  C  C188  1  0.45944000  0.45057000  0.46969000  1.0
  C  C189  1  0.54057000  0.54943000  0.53030000  1.0
  C  C190  1  0.53484000  0.45479000  0.55344000  1.0
  C  C191  1  0.46517000  0.54521000  0.44656000  1.0
  C  C192  1  0.24442000  0.78173000  0.68918000  1.0
  C  C193  1  0.75559000  0.21825000  0.31082000  1.0
  C  C194  1  0.18809000  0.84715000  0.71342000  1.0
  C  C195  1  0.81192000  0.15284000  0.28659000  1.0
  C  C196  1  0.18497000  0.83098000  0.76954000  1.0
  C  C197  1  0.81504000  0.16901000  0.23046000  1.0
  C  C198  1  0.23900000  0.74531000  0.79764000  1.0
  C  C199  1  0.76101000  0.25467000  0.20237000  1.0
  C  C200  1  0.29227000  0.68407000  0.77008000  1.0
  C  C201  1  0.70775000  0.31592000  0.22992000  1.0
  C  C202  1  0.16751000  0.88840000  0.84954000  1.0
  C  C203  1  0.83249000  0.11160000  0.15046000  1.0
  C  C204  1  0.07659000  0.98209000  0.76820000  1.0
  C  C205  1  0.92342000  0.01790000  0.23180000  1.0
  C  C206  1  0.97445000  0.02098000  0.80017000  1.0
  C  C207  1  0.02556000  0.97902000  0.19983000  1.0
  C  C208  1  0.06606000  0.92541000  0.88152000  1.0
  C  C209  1  0.93394000  0.07459000  0.11848000  1.0
  C  C210  1  0.95866000  0.07487000  0.88207000  1.0
  C  C211  1  0.04135000  0.92513000  0.11793000  1.0
  C  C212  1  0.86552000  0.14584000  0.86184000  1.0
  C  C213  1  0.13448000  0.85417000  0.13815000  1.0
  C  C214  1  0.81713000  0.20409000  0.89239000  1.0
  C  C215  1  0.18287000  0.79592000  0.10761000  1.0
  C  C216  1  0.94555000  0.13301000  0.96020000  1.0
  C  C217  1  0.05445000  0.86699000  0.03980000  1.0
  C  C218  1  0.99877000  0.07083000  0.93318000  1.0
  C  C219  1  0.00123000  0.92918000  0.06682000  1.0
  C  C220  1  0.23814000  0.51221000  0.64942000  1.0
  C  C221  1  0.76186000  0.48778000  0.35058000  1.0
  C  C222  1  0.16324000  0.49196000  0.61895000  1.0
  C  C223  1  0.83676000  0.50804000  0.38105000  1.0
  C  C224  1  0.13016000  0.54711000  0.56808000  1.0
  C  C225  1  0.86983000  0.45288000  0.43192000  1.0
  C  C226  1  0.17718000  0.62201000  0.55265000  1.0
  C  C227  1  0.82282000  0.37799000  0.44734000  1.0
  C  C228  1  0.25157000  0.63705000  0.58592000  1.0
  C  C229  1  0.74842000  0.36295000  0.41408000  1.0
  C  C230  1  0.01228000  0.58834000  0.48654000  1.0
  C  C231  1  0.98770000  0.41166000  0.51346000  1.0
  C  C232  1  0.99333000  0.46119000  0.55558000  1.0
  C  C233  1  0.00665000  0.53881000  0.44442000  1.0
  C  C234  1  0.09719000  0.25740000  0.70570000  1.0
  C  C235  1  0.90281000  0.74260000  0.29430000  1.0
  C  C236  1  0.08093000  0.28916000  0.75594000  1.0
  C  C237  1  0.91907000  0.71084000  0.24406000  1.0
  C  C238  1  0.04000000  0.37856000  0.75330000  1.0
  C  C239  1  0.96000000  0.62145000  0.24669000  1.0
  C  C240  1  0.02754000  0.40980000  0.79912000  1.0
  C  C241  1  0.97246000  0.59021000  0.20088000  1.0
  C  C242  1  0.05465000  0.35045000  0.84829000  1.0
  C  C243  1  0.94534000  0.64956000  0.15171000  1.0
  C  C244  1  0.09487000  0.26114000  0.85188000  1.0
  C  C245  1  0.90511000  0.73887000  0.14812000  1.0
  C  C246  1  0.10840000  0.23104000  0.80560000  1.0
  C  C247  1  0.89159000  0.76897000  0.19440000  1.0
  C  C248  1  0.06968000  0.44983000  0.90027000  1.0
  C  C249  1  0.93032000  0.55018000  0.09973000  1.0
  C  C250  1  0.17729000  0.46411000  0.88131000  1.0
  C  C251  1  0.82270000  0.53590000  0.11869000  1.0
  C  C252  1  0.21428000  0.53206000  0.89325000  1.0
  C  C253  1  0.78572000  0.46794000  0.10675000  1.0
  C  C254  1  0.14473000  0.58671000  0.92287000  1.0
  C  C255  1  0.85526000  0.41330000  0.07713000  1.0
  C  C256  1  0.03553000  0.57310000  0.93965000  1.0
  C  C257  1  0.96446000  0.42691000  0.06035000  1.0
  C  C258  1  0.99776000  0.50464000  0.92868000  1.0
  C  C259  1  0.00223000  0.49537000  0.07132000  1.0
  C  C260  1  0.19131000  0.65296000  0.94014000  1.0
  C  C261  1  0.80870000  0.34703000  0.05986000  1.0
  C  C262  1  0.15535000  0.03611000  0.58822000  1.0
  C  C263  1  0.84465000  0.96390000  0.41179000  1.0
  C  C264  1  0.09621000  0.97289000  0.57479000  1.0
  C  C265  1  0.90380000  0.02712000  0.42520000  1.0
  C  C266  1  0.13881000  0.93132000  0.53377000  1.0
  C  C267  1  0.86119000  0.06869000  0.46623000  1.0
  C  C268  1  0.08684000  0.87036000  0.52204000  1.0
  C  C269  1  0.91316000  0.12965000  0.47796000  1.0
  C  C270  1  0.99210000  0.84890000  0.55219000  1.0
  C  C271  1  0.00789000  0.15110000  0.44781000  1.0
  C  C272  1  0.94808000  0.88963000  0.59319000  1.0
  C  C273  1  0.05193000  0.11038000  0.40681000  1.0
  C  C274  1  0.99994000  0.95173000  0.60375000  1.0
  C  C275  1  0.00006000  0.04827000  0.39626000  1.0
  C  C276  1  0.84617000  0.76806000  0.56354000  1.0
  C  C277  1  0.15384000  0.23194000  0.43646000  1.0
  C  C278  1  0.84968000  0.68582000  0.59714000  1.0
  C  C279  1  0.15032000  0.31418000  0.40286000  1.0
  C  C280  1  0.74661000  0.66494000  0.61746000  1.0
  C  C281  1  0.25339000  0.33506000  0.38254000  1.0
  C  C282  1  0.64117000  0.72543000  0.60384000  1.0
  C  C283  1  0.35884000  0.27457000  0.39616000  1.0
  C  C284  1  0.63998000  0.80788000  0.57040000  1.0
  C  C285  1  0.36003000  0.19212000  0.42960000  1.0
  C  C286  1  0.74230000  0.83007000  0.55039000  1.0
  C  C287  1  0.25770000  0.16993000  0.44961000  1.0
  C  C288  1  0.52997000  0.70080000  0.62284000  1.0
  C  C289  1  0.47003000  0.29920000  0.37716000  1.0
  C  C290  1  0.47053000  0.43256000  0.73463000  1.0
  C  C291  1  0.52947000  0.56743000  0.26537000  1.0
  C  C292  1  0.49607000  0.35307000  0.78003000  1.0
  C  C293  1  0.50392000  0.64693000  0.21997000  1.0
  C  C294  1  0.48646000  0.35996000  0.83296000  1.0
  C  C295  1  0.51354000  0.64004000  0.16704000  1.0
  C  C296  1  0.51299000  0.28555000  0.87466000  1.0
  C  C297  1  0.48701000  0.71444000  0.12534000  1.0
  C  C298  1  0.54872000  0.20401000  0.86270000  1.0
  C  C299  1  0.45128000  0.79599000  0.13729000  1.0
  C  C300  1  0.55685000  0.19530000  0.81026000  1.0
  C  C301  1  0.44314000  0.80470000  0.18974000  1.0
  C  C302  1  0.53112000  0.27024000  0.76915000  1.0
  C  C303  1  0.46887000  0.72976000  0.23085000  1.0
  C  C304  1  0.53674000  0.06249000  0.91447000  1.0
  C  C305  1  0.46326000  0.93751000  0.08553000  1.0
  C  C306  1  0.60319000  0.98272000  0.94293000  1.0
  C  C307  1  0.39681000  0.01728000  0.05707000  1.0
  C  C308  1  0.55458000  0.91095000  0.95842000  1.0
  C  C309  1  0.44543000  0.08904000  0.04158000  1.0
  C  C310  1  0.43950000  0.91763000  0.94623000  1.0
  C  C311  1  0.56051000  0.08237000  0.05376000  1.0
  C  C312  1  0.37464000  0.99785000  0.91719000  1.0
  C  C313  1  0.62536000  0.00215000  0.08280000  1.0
  C  C314  1  0.42256000  0.07033000  0.90071000  1.0
  C  C315  1  0.57744000  0.92967000  0.09928000  1.0
  C  C316  1  0.38811000  0.84058000  0.96667000  1.0
  C  C317  1  0.61189000  0.15943000  0.03333000  1.0
  N  N318  1  0.34535000  0.03549000  0.68980000  1.0
  N  N319  1  0.65465000  0.96452000  0.31020000  1.0
  N  N320  1  0.53996000  0.80731000  0.78729000  1.0
  N  N321  1  0.46003000  0.19270000  0.21271000  1.0
  N  N322  1  0.60532000  0.63327000  0.85332000  1.0
  N  N323  1  0.39468000  0.36673000  0.14668000  1.0
  N  N324  1  0.68522000  0.37634000  0.94531000  1.0
  N  N325  1  0.31477000  0.62366000  0.05469000  1.0
  N  N326  1  0.29257000  0.22640000  0.60772000  1.0
  N  N327  1  0.70743000  0.77360000  0.39228000  1.0
  N  N328  1  0.44685000  0.43038000  0.52752000  1.0
  N  N329  1  0.55315000  0.56961000  0.47248000  1.0
  N  N330  1  0.29741000  0.70085000  0.71648000  1.0
  N  N331  1  0.70259000  0.29914000  0.28353000  1.0
  N  N332  1  0.13222000  0.89335000  0.79593000  1.0
  N  N333  1  0.86778000  0.10664000  0.20408000  1.0
  N  N334  1  0.00931000  0.01428000  0.85411000  1.0
  N  N335  1  0.99070000  0.98572000  0.14589000  1.0
  N  N336  1  0.85422000  0.19877000  0.94130000  1.0
  N  N337  1  0.14578000  0.80123000  0.05870000  1.0
  N  N338  1  0.28354000  0.58309000  0.63393000  1.0
  N  N339  1  0.71646000  0.41690000  0.36607000  1.0
  N  N340  1  0.05779000  0.52855000  0.53629000  1.0
  N  N341  1  0.94220000  0.47144000  0.46371000  1.0
  O  O342  1  0.14567000  0.17474000  0.71216000  1.0
  O  O343  1  0.85433000  0.82527000  0.28784000  1.0
  O  O344  1  0.06707000  0.30937000  0.66200000  1.0
  O  O345  1  0.93293000  0.69064000  0.33800000  1.0
  O  O346  1  0.03414000  0.37704000  0.89543000  1.0
  O  O347  1  0.96585000  0.62297000  0.10456000  1.0
  O  O348  1  0.12558000  0.70042000  0.96860000  1.0
  O  O349  1  0.87442000  0.29959000  0.03140000  1.0
  O  O350  1  0.29415000  0.65858000  0.92872000  1.0
  O  O351  1  0.70586000  0.34141000  0.07129000  1.0
  O  O352  1  0.11080000  0.07041000  0.62754000  1.0
  O  O353  1  0.88920000  0.92959000  0.37247000  1.0
  O  O354  1  0.24449000  0.05209000  0.56375000  1.0
  O  O355  1  0.75551000  0.94793000  0.43625000  1.0
  O  O356  1  0.94905000  0.78449000  0.54012000  1.0
  O  O357  1  0.05096000  0.21551000  0.45988000  1.0
  O  O358  1  0.54083000  0.62901000  0.65984000  1.0
  O  O359  1  0.45917000  0.37099000  0.34015000  1.0
  O  O360  1  0.43610000  0.74739000  0.60296000  1.0
  O  O361  1  0.56390000  0.25262000  0.39704000  1.0
  O  O362  1  0.41985000  0.50524000  0.74726000  1.0
  O  O363  1  0.58015000  0.49475000  0.25273000  1.0
  O  O364  1  0.49632000  0.42570000  0.68812000  1.0
  O  O365  1  0.50368000  0.57430000  0.31187000  1.0
  O  O366  1  0.58802000  0.13189000  0.90426000  1.0
  O  O367  1  0.41197000  0.86811000  0.09574000  1.0
  O  O368  1  0.27788000  0.85284000  0.96031000  1.0
  O  O369  1  0.72212000  0.14715000  0.03969000  1.0
  O  O370  1  0.44963000  0.76777000  0.98974000  1.0
  O  O371  1  0.55036000  0.23223000  0.01026000  1.0
