# generated using pymatgen
data_ZnH13C20N7O4
_symmetry_space_group_name_H-M   'P 1'
_cell_length_a   10.05430000
_cell_length_b   10.14770000
_cell_length_c   13.98710000
_cell_angle_alpha   81.70790000
_cell_angle_beta   79.28450000
_cell_angle_gamma   69.73960000
_symmetry_Int_Tables_number   1
_chemical_formula_structural   ZnH13C20N7O4
_chemical_formula_sum   'Zn2 H26 C40 N14 O8'
_cell_volume   1310.49290259
_cell_formula_units_Z   2
loop_
 _symmetry_equiv_pos_site_id
 _symmetry_equiv_pos_as_xyz
  1  'x, y, z'
loop_
 _atom_site_type_symbol
 _atom_site_label
 _atom_site_symmetry_multiplicity
 _atom_site_fract_x
 _atom_site_fract_y
 _atom_site_fract_z
 _atom_site_occupancy
  Zn  Zn0  1  0.86427000  0.39904000  0.97587000  1.0
  Zn  Zn1  1  0.13573000  0.60096000  0.02413000  1.0
  H  H2  1  0.89463000  0.93011000  0.96382000  1.0
  H  H3  1  0.10537000  0.06989000  0.03618000  1.0
  H  H4  1  0.56137000  0.80627000  0.88721000  1.0
  H  H5  1  0.43863000  0.19373000  0.11279000  1.0
  H  H6  1  0.52600000  0.24703000  0.86064000  1.0
  H  H7  1  0.47400000  0.75298000  0.13936000  1.0
  H  H8  1  0.55862000  0.50922000  0.07072000  1.0
  H  H9  1  0.44138000  0.49078000  0.92928000  1.0
  H  H10  1  0.41074000  0.50762000  0.23292000  1.0
  H  H11  1  0.58926000  0.49237000  0.76708000  1.0
  H  H12  1  0.80195000  0.27162000  0.35281000  1.0
  H  H13  1  0.19805000  0.72838000  0.64719000  1.0
  H  H14  1  0.93437000  0.28288000  0.18245000  1.0
  H  H15  1  0.06562000  0.71712000  0.81755000  1.0
  H  H16  1  0.57820000  0.32368000  0.46514000  1.0
  H  H17  1  0.42180000  0.67632000  0.53486000  1.0
  H  H18  1  0.13388000  0.54910000  0.49091000  1.0
  H  H19  1  0.86612000  0.45090000  0.50909000  1.0
  H  H20  1  0.91551000  0.60770000  0.61425000  1.0
  H  H21  1  0.08449000  0.39229000  0.38575000  1.0
  H  H22  1  0.79454000  0.57270000  0.78461000  1.0
  H  H23  1  0.20546000  0.42730000  0.21539000  1.0
  H  H24  1  0.16096000  0.26621000  0.86399000  1.0
  H  H25  1  0.83903000  0.73378000  0.13601000  1.0
  H  H26  1  0.29889000  0.28537000  0.69766000  1.0
  H  H27  1  0.70111000  0.71462000  0.30234000  1.0
  C  C28  1  0.71578000  0.10029000  0.91374000  1.0
  C  C29  1  0.28422000  0.89972000  0.08627000  1.0
  C  C30  1  0.79258000  0.95819000  0.93665000  1.0
  C  C31  1  0.20742000  0.04182000  0.06335000  1.0
  C  C32  1  0.73564000  0.85356000  0.92668000  1.0
  C  C33  1  0.26436000  0.14644000  0.07332000  1.0
  C  C34  1  0.60444000  0.88973000  0.89211000  1.0
  C  C35  1  0.39556000  0.11027000  0.10789000  1.0
  C  C36  1  0.53128000  0.03136000  0.86619000  1.0
  C  C37  1  0.46872000  0.96865000  0.13381000  1.0
  C  C38  1  0.58579000  0.13652000  0.87782000  1.0
  C  C39  1  0.41421000  0.86348000  0.12218000  1.0
  C  C40  1  0.76854000  0.21567000  0.93038000  1.0
  C  C41  1  0.23146000  0.78433000  0.06962000  1.0
  C  C42  1  0.81446000  0.70071000  0.95306000  1.0
  C  C43  1  0.18554000  0.29930000  0.04695000  1.0
  C  C44  1  0.60861000  0.45656000  0.13479000  1.0
  C  C45  1  0.39139000  0.54344000  0.86521000  1.0
  C  C46  1  0.52609000  0.45511000  0.22601000  1.0
  C  C47  1  0.47391000  0.54489000  0.77399000  1.0
  C  C48  1  0.59430000  0.38709000  0.30734000  1.0
  C  C49  1  0.40570000  0.61291000  0.69266000  1.0
  C  C50  1  0.74401000  0.32569000  0.29216000  1.0
  C  C51  1  0.25599000  0.67431000  0.70784000  1.0
  C  C52  1  0.81854000  0.33126000  0.19831000  1.0
  C  C53  1  0.18146000  0.66874000  0.80169000  1.0
  C  C54  1  0.51610000  0.37465000  0.40500000  1.0
  C  C55  1  0.48390000  0.62534000  0.59500000  1.0
  C  C56  1  0.19248000  0.46788000  0.54320000  1.0
  C  C57  1  0.80752000  0.53212000  0.45680000  1.0
  C  C58  1  0.11846000  0.44862000  0.64150000  1.0
  C  C59  1  0.88154000  0.55138000  0.35849000  1.0
  C  C60  1  0.97440000  0.53013000  0.66704000  1.0
  C  C61  1  0.02560000  0.46987000  0.33295000  1.0
  C  C62  1  0.90605000  0.51164000  0.76153000  1.0
  C  C63  1  0.09395000  0.48836000  0.23847000  1.0
  C  C64  1  0.11102000  0.33964000  0.80600000  1.0
  C  C65  1  0.88898000  0.66036000  0.19400000  1.0
  C  C66  1  0.18711000  0.35048000  0.71347000  1.0
  C  C67  1  0.81289000  0.64952000  0.28653000  1.0
  N  N68  1  0.39950000  0.07808000  0.82888000  1.0
  N  N69  1  0.60050000  0.92192000  0.17111000  1.0
  N  N70  1  0.34016000  0.99313000  0.82106000  1.0
  N  N71  1  0.65984000  0.00687000  0.17894000  1.0
  N  N72  1  0.27120000  0.92872000  0.80949000  1.0
  N  N73  1  0.72879000  0.07128000  0.19051000  1.0
  N  N74  1  0.75236000  0.39540000  0.12099000  1.0
  N  N75  1  0.24764000  0.60460000  0.87900000  1.0
  N  N76  1  0.37728000  0.41960000  0.42173000  1.0
  N  N77  1  0.62272000  0.58040000  0.57826000  1.0
  N  N78  1  0.32429000  0.39154000  0.51797000  1.0
  N  N79  1  0.67571000  0.60846000  0.48203000  1.0
  N  N80  1  0.97346000  0.41931000  0.83019000  1.0
  N  N81  1  0.02653000  0.58069000  0.16980000  1.0
  O  O82  1  0.88915000  0.18198000  0.96065000  1.0
  O  O83  1  0.11085000  0.81802000  0.03935000  1.0
  O  O84  1  0.69016000  0.34392000  0.91607000  1.0
  O  O85  1  0.30985000  0.65608000  0.08393000  1.0
  O  O86  1  0.94394000  0.66684000  0.96560000  1.0
  O  O87  1  0.05606000  0.33316000  0.03441000  1.0
  O  O88  1  0.74628000  0.61382000  0.95878000  1.0
  O  O89  1  0.25372000  0.38618000  0.04122000  1.0
