# generated using pymatgen
data_ZnH16C24N2(ClO)2
_symmetry_space_group_name_H-M   'P 1'
_cell_length_a   8.98449000
_cell_length_b   10.76240000
_cell_length_c   12.22330000
_cell_angle_alpha   65.01130000
_cell_angle_beta   89.69720000
_cell_angle_gamma   83.42410000
_symmetry_Int_Tables_number   1
_chemical_formula_structural   ZnH16C24N2(ClO)2
_chemical_formula_sum   'Zn2 H32 C48 N4 Cl4 O4'
_cell_volume   1063.02161838
_cell_formula_units_Z   2
loop_
 _symmetry_equiv_pos_site_id
 _symmetry_equiv_pos_as_xyz
  1  'x, y, z'
loop_
 _atom_site_type_symbol
 _atom_site_label
 _atom_site_symmetry_multiplicity
 _atom_site_fract_x
 _atom_site_fract_y
 _atom_site_fract_z
 _atom_site_occupancy
  Zn  Zn0  1  0.89796000  0.65583000  0.62436000  1.0
  Zn  Zn1  1  0.10204000  0.34417000  0.37564000  1.0
  H  H2  1  0.95128000  0.09504000  0.16672000  1.0
  H  H3  1  0.04872000  0.90496000  0.83328000  1.0
  H  H4  1  0.98248000  0.24509000  0.94961000  1.0
  H  H5  1  0.01752000  0.75491000  0.05039000  1.0
  H  H6  1  0.83236000  0.22706000  0.79073000  1.0
  H  H7  1  0.16764000  0.77295000  0.20927000  1.0
  H  H8  1  0.64616000  0.05489000  0.84730000  1.0
  H  H9  1  0.35385000  0.94512000  0.15270000  1.0
  H  H10  1  0.62257000  0.89789000  0.06170000  1.0
  H  H11  1  0.37743000  0.10210000  0.93830000  1.0
  H  H12  1  0.95589000  0.89733000  0.37528000  1.0
  H  H13  1  0.04411000  0.10267000  0.62472000  1.0
  H  H14  1  0.40574000  0.73016000  0.33797000  1.0
  H  H15  1  0.59426000  0.26984000  0.66203000  1.0
  H  H16  1  0.76767000  0.44681000  0.57540000  1.0
  H  H17  1  0.23233000  0.55319000  0.42460000  1.0
  H  H18  1  0.21327000  0.56567000  0.82843000  1.0
  H  H19  1  0.78673000  0.43433000  0.17157000  1.0
  H  H20  1  0.05968000  0.41452000  0.98701000  1.0
  H  H21  1  0.94031000  0.58548000  0.01299000  1.0
  H  H22  1  0.17903000  0.19963000  0.15589000  1.0
  H  H23  1  0.82097000  0.80037000  0.84411000  1.0
  H  H24  1  0.45623000  0.13376000  0.16299000  1.0
  H  H25  1  0.54377000  0.86624000  0.83701000  1.0
  H  H26  1  0.61090000  0.28438000  0.00718000  1.0
  H  H27  1  0.38910000  0.71562000  0.99282000  1.0
  H  H28  1  0.75477000  0.43142000  0.84207000  1.0
  H  H29  1  0.24523000  0.56858000  0.15793000  1.0
  H  H30  1  0.29810000  0.84610000  0.55865000  1.0
  H  H31  1  0.70191000  0.15390000  0.44135000  1.0
  H  H32  1  0.75915000  0.91314000  0.59193000  1.0
  H  H33  1  0.24085000  0.08686000  0.40807000  1.0
  C  C34  1  0.78556000  0.98524000  0.12872000  1.0
  C  C35  1  0.21444000  0.01476000  0.87128000  1.0
  C  C36  1  0.88580000  0.08528000  0.09651000  1.0
  C  C37  1  0.11420000  0.91472000  0.90349000  1.0
  C  C38  1  0.90163000  0.17063000  0.97537000  1.0
  C  C39  1  0.09838000  0.82937000  0.02463000  1.0
  C  C40  1  0.81633000  0.15992000  0.88502000  1.0
  C  C41  1  0.18367000  0.84008000  0.11498000  1.0
  C  C42  1  0.71376000  0.06384000  0.91685000  1.0
  C  C43  1  0.28624000  0.93616000  0.08315000  1.0
  C  C44  1  0.69877000  0.97611000  0.03769000  1.0
  C  C45  1  0.30123000  0.02389000  0.96231000  1.0
  C  C46  1  0.77886000  0.88712000  0.25349000  1.0
  C  C47  1  0.22114000  0.11288000  0.74650000  1.0
  C  C48  1  0.86362000  0.85043000  0.35787000  1.0
  C  C49  1  0.13638000  0.14957000  0.64213000  1.0
  C  C50  1  0.69691000  0.70745000  0.39966000  1.0
  C  C51  1  0.30308000  0.29255000  0.60034000  1.0
  C  C52  1  0.59785000  0.60129000  0.45155000  1.0
  C  C53  1  0.40216000  0.39871000  0.54845000  1.0
  C  C54  1  0.44701000  0.62879000  0.40839000  1.0
  C  C55  1  0.55299000  0.37121000  0.59161000  1.0
  C  C56  1  0.65011000  0.47069000  0.54355000  1.0
  C  C57  1  0.34989000  0.52931000  0.45645000  1.0
  C  C58  1  0.42249000  0.43530000  0.90693000  1.0
  C  C59  1  0.57750000  0.56470000  0.09307000  1.0
  C  C60  1  0.26653000  0.47142000  0.90195000  1.0
  C  C61  1  0.73347000  0.52858000  0.09805000  1.0
  C  C62  1  0.18054000  0.38589000  0.99132000  1.0
  C  C63  1  0.81946000  0.61411000  0.00868000  1.0
  C  C64  1  0.24728000  0.26439000  0.08538000  1.0
  C  C65  1  0.75272000  0.73561000  0.91462000  1.0
  C  C66  1  0.40233000  0.22797000  0.08972000  1.0
  C  C67  1  0.59767000  0.77203000  0.91028000  1.0
  C  C68  1  0.48983000  0.31244000  0.00166000  1.0
  C  C69  1  0.51017000  0.68756000  0.99834000  1.0
  C  C70  1  0.51633000  0.52513000  0.81978000  1.0
  C  C71  1  0.48366000  0.47487000  0.18022000  1.0
  C  C72  1  0.66653000  0.51636000  0.79944000  1.0
  C  C73  1  0.33347000  0.48364000  0.20056000  1.0
  C  C74  1  0.56592000  0.72017000  0.67300000  1.0
  C  C75  1  0.43408000  0.27983000  0.32700000  1.0
  C  C76  1  0.53302000  0.86204000  0.58445000  1.0
  C  C77  1  0.46698000  0.13796000  0.41555000  1.0
  C  C78  1  0.38654000  0.91322000  0.53279000  1.0
  C  C79  1  0.61345000  0.08679000  0.46721000  1.0
  C  C80  1  0.64577000  0.95043000  0.55113000  1.0
  C  C81  1  0.35423000  0.04957000  0.44887000  1.0
  N  N82  1  0.81103000  0.73745000  0.44841000  1.0
  N  N83  1  0.18897000  0.26255000  0.55159000  1.0
  N  N84  1  0.69556000  0.63932000  0.70722000  1.0
  N  N85  1  0.30444000  0.36068000  0.29278000  1.0
  Cl  Cl86  1  0.02852000  0.80815000  0.64880000  1.0
  Cl  Cl87  1  0.97148000  0.19185000  0.35120000  1.0
  Cl  Cl88  1  0.01230000  0.44110000  0.69313000  1.0
  Cl  Cl89  1  0.98770000  0.55890000  0.30687000  1.0
  O  O90  1  0.67143000  0.79688000  0.28140000  1.0
  O  O91  1  0.32857000  0.20312000  0.71860000  1.0
  O  O92  1  0.45241000  0.65443000  0.73746000  1.0
  O  O93  1  0.54759000  0.34557000  0.26254000  1.0
