# generated using pymatgen
data_VPH9C12N2O5
_symmetry_space_group_name_H-M   'P 1'
_cell_length_a   6.34936000
_cell_length_b   9.79872000
_cell_length_c   9.93301000
_cell_angle_alpha   77.46000000
_cell_angle_beta   89.99970000
_cell_angle_gamma   89.99920000
_symmetry_Int_Tables_number   1
_chemical_formula_structural   VPH9C12N2O5
_chemical_formula_sum   'V2 P2 H18 C24 N4 O10'
_cell_volume   603.24587038
_cell_formula_units_Z   2
loop_
 _symmetry_equiv_pos_site_id
 _symmetry_equiv_pos_as_xyz
  1  'x, y, z'
loop_
 _atom_site_type_symbol
 _atom_site_label
 _atom_site_symmetry_multiplicity
 _atom_site_fract_x
 _atom_site_fract_y
 _atom_site_fract_z
 _atom_site_occupancy
  V  V0  1  0.25000000  0.79648000  0.06870000  1.0
  V  V1  1  0.75000000  0.20352000  0.93130000  1.0
  P  P2  1  0.75000000  0.88274000  0.09395000  1.0
  P  P3  1  0.25000000  0.11726000  0.90605000  1.0
  H  H4  1  0.74999000  0.06001000  0.18984000  1.0
  H  H5  1  0.25000000  0.93999000  0.81016000  1.0
  H  H6  1  0.25000000  0.50752000  0.99185000  1.0
  H  H7  1  0.74998000  0.49247000  0.00816000  1.0
  H  H8  1  0.24999000  0.25743000  0.11486000  1.0
  H  H9  1  0.74999000  0.74257000  0.88514000  1.0
  H  H10  1  0.25000000  0.19819000  0.37555000  1.0
  H  H11  1  0.75000000  0.80181000  0.62446000  1.0
  H  H12  1  0.25000000  0.28466000  0.59705000  1.0
  H  H13  1  0.75001000  0.71534000  0.40295000  1.0
  H  H14  1  0.25000000  0.48114000  0.71472000  1.0
  H  H15  1  0.75001000  0.51886000  0.28527000  1.0
  H  H16  1  0.25001000  0.74642000  0.69766000  1.0
  H  H17  1  0.75001000  0.25358000  0.30234000  1.0
  H  H18  1  0.25000000  0.98574000  0.54592000  1.0
  H  H19  1  0.75001000  0.01426000  0.45408000  1.0
  H  H20  1  0.25000000  0.00977000  0.28555000  1.0
  H  H21  1  0.75000000  0.99023000  0.71445000  1.0
  C  C22  1  0.25000000  0.47834000  0.10409000  1.0
  C  C23  1  0.74998000  0.52166000  0.89592000  1.0
  C  C24  1  0.25000000  0.33804000  0.17463000  1.0
  C  C25  1  0.74999000  0.66195000  0.82537000  1.0
  C  C26  1  0.25000000  0.30611000  0.31745000  1.0
  C  C27  1  0.75000000  0.69389000  0.68255000  1.0
  C  C28  1  0.25000000  0.41509000  0.38962000  1.0
  C  C29  1  0.75001000  0.58491000  0.61037000  1.0
  C  C30  1  0.25001000  0.39209000  0.53709000  1.0
  C  C31  1  0.75001000  0.60791000  0.46290000  1.0
  C  C32  1  0.25001000  0.50139000  0.60231000  1.0
  C  C33  1  0.75000000  0.49861000  0.39768000  1.0
  C  C34  1  0.25001000  0.64297000  0.52504000  1.0
  C  C35  1  0.75000000  0.35703000  0.47496000  1.0
  C  C36  1  0.25001000  0.76075000  0.58546000  1.0
  C  C37  1  0.75001000  0.23925000  0.41454000  1.0
  C  C38  1  0.25000000  0.89359000  0.50103000  1.0
  C  C39  1  0.75000000  0.10641000  0.49896000  1.0
  C  C40  1  0.25000000  0.90817000  0.35706000  1.0
  C  C41  1  0.75000000  0.09183000  0.64294000  1.0
  C  C42  1  0.25000000  0.66844000  0.37896000  1.0
  C  C43  1  0.75000000  0.33157000  0.62104000  1.0
  C  C44  1  0.25000000  0.55401000  0.31057000  1.0
  C  C45  1  0.75000000  0.44600000  0.68943000  1.0
  N  N46  1  0.25000000  0.58426000  0.16983000  1.0
  N  N47  1  0.74999000  0.41574000  0.83017000  1.0
  N  N48  1  0.25000000  0.79868000  0.29819000  1.0
  N  N49  1  0.75000000  0.20133000  0.70181000  1.0
  O  O50  1  0.25000000  0.77392000  0.91000000  1.0
  O  O51  1  0.74999000  0.22607000  0.09000000  1.0
  O  O52  1  0.74999000  0.95599000  0.22369000  1.0
  O  O53  1  0.24999000  0.04401000  0.77631000  1.0
  O  O54  1  0.55702000  0.78747000  0.10418000  1.0
  O  O55  1  0.94298000  0.78747000  0.10418000  1.0
  O  O56  1  0.44298000  0.21253000  0.89582000  1.0
  O  O57  1  0.05702000  0.21253000  0.89582000  1.0
  O  O58  1  0.75000000  0.99930000  0.96147000  1.0
  O  O59  1  0.25000000  0.00070000  0.03853000  1.0
