# generated using pymatgen
data_CuH12C18S2IN6
_symmetry_space_group_name_H-M   'P 1'
_cell_length_a   8.31617000
_cell_length_b   10.70520000
_cell_length_c   11.88150000
_cell_angle_alpha   99.05410000
_cell_angle_beta   107.50800000
_cell_angle_gamma   96.78880000
_symmetry_Int_Tables_number   1
_chemical_formula_structural   CuH12C18S2IN6
_chemical_formula_sum   'Cu2 H24 C36 S4 I2 N12'
_cell_volume   980.68350471
_cell_formula_units_Z   2
loop_
 _symmetry_equiv_pos_site_id
 _symmetry_equiv_pos_as_xyz
  1  'x, y, z'
loop_
 _atom_site_type_symbol
 _atom_site_label
 _atom_site_symmetry_multiplicity
 _atom_site_fract_x
 _atom_site_fract_y
 _atom_site_fract_z
 _atom_site_occupancy
  Cu  Cu0  1  0.38707000  0.92533000  0.90118000  1.0
  Cu  Cu1  1  0.61292000  0.07467000  0.09883000  1.0
  H  H2  1  0.27207000  0.70866000  0.00073000  1.0
  H  H3  1  0.72793000  0.29134000  0.99928000  1.0
  H  H4  1  0.49365000  0.50795000  0.69086000  1.0
  H  H5  1  0.50635000  0.49206000  0.30914000  1.0
  H  H6  1  0.49521000  0.18543000  0.61453000  1.0
  H  H7  1  0.50480000  0.81458000  0.38547000  1.0
  H  H8  1  0.36401000  0.36608000  0.80223000  1.0
  H  H9  1  0.63600000  0.63393000  0.19777000  1.0
  H  H10  1  0.57369000  0.33130000  0.48739000  1.0
  H  H11  1  0.42631000  0.66870000  0.51261000  1.0
  H  H12  1  0.51170000  0.74436000  0.74521000  1.0
  H  H13  1  0.48829000  0.25565000  0.25479000  1.0
  H  H14  1  0.06946000  0.15622000  0.00808000  1.0
  H  H15  1  0.93054000  0.84378000  0.99192000  1.0
  H  H16  1  0.19050000  0.26190000  0.87104000  1.0
  H  H17  1  0.80951000  0.73810000  0.12897000  1.0
  H  H18  1  0.90076000  0.15569000  0.55627000  1.0
  H  H19  1  0.09924000  0.84431000  0.44373000  1.0
  H  H20  1  0.79704000  0.00493000  0.67498000  1.0
  H  H21  1  0.20296000  0.99507000  0.32502000  1.0
  H  H22  1  0.41216000  0.09329000  0.73314000  1.0
  H  H23  1  0.58784000  0.90670000  0.26686000  1.0
  H  H24  1  0.00885000  0.90468000  0.81179000  1.0
  H  H25  1  0.99115000  0.09533000  0.18821000  1.0
  C  C26  1  0.30657000  0.52676000  0.91067000  1.0
  C  C27  1  0.69343000  0.47324000  0.08933000  1.0
  C  C28  1  0.14320000  0.45301000  0.14740000  1.0
  C  C29  1  0.85680000  0.54699000  0.85260000  1.0
  C  C30  1  0.31914000  0.66053000  0.93235000  1.0
  C  C31  1  0.68086000  0.33947000  0.06765000  1.0
  C  C32  1  0.23034000  0.45277000  0.98254000  1.0
  C  C33  1  0.76966000  0.54723000  0.01746000  1.0
  C  C34  1  0.17506000  0.35872000  0.43477000  1.0
  C  C35  1  0.82494000  0.64128000  0.56523000  1.0
  C  C36  1  0.43953000  0.54727000  0.75876000  1.0
  C  C37  1  0.56047000  0.45274000  0.24124000  1.0
  C  C38  1  0.23001000  0.21913000  0.56369000  1.0
  C  C39  1  0.76999000  0.78087000  0.43631000  1.0
  C  C40  1  0.39985000  0.23396000  0.56250000  1.0
  C  C41  1  0.60015000  0.76604000  0.43750000  1.0
  C  C42  1  0.36768000  0.46946000  0.82094000  1.0
  C  C43  1  0.63231000  0.53054000  0.17906000  1.0
  C  C44  1  0.44361000  0.31505000  0.49148000  1.0
  C  C45  1  0.55640000  0.68495000  0.50852000  1.0
  C  C46  1  0.44965000  0.67959000  0.78796000  1.0
  C  C47  1  0.55034000  0.32042000  0.21203000  1.0
  C  C48  1  0.11081000  0.26009000  0.02746000  1.0
  C  C49  1  0.88920000  0.73991000  0.97255000  1.0
  C  C50  1  0.17929000  0.31902000  0.95161000  1.0
  C  C51  1  0.82071000  0.68098000  0.04839000  1.0
  C  C52  1  0.16400000  0.13448000  0.63292000  1.0
  C  C53  1  0.83600000  0.86552000  0.36708000  1.0
  C  C54  1  0.98826000  0.10987000  0.61818000  1.0
  C  C55  1  0.01173000  0.89013000  0.38182000  1.0
  C  C56  1  0.93166000  0.02679000  0.68260000  1.0
  C  C57  1  0.06834000  0.97321000  0.31740000  1.0
  C  C58  1  0.27366000  0.07592000  0.71434000  1.0
  C  C59  1  0.72634000  0.92408000  0.28567000  1.0
  C  C60  1  0.04952000  0.97104000  0.76068000  1.0
  C  C61  1  0.95048000  0.02896000  0.23932000  1.0
  S  S62  1  0.13125000  0.55494000  0.27771000  1.0
  S  S63  1  0.86875000  0.44506000  0.72228000  1.0
  S  S64  1  0.01219000  0.43556000  0.35539000  1.0
  S  S65  1  0.98781000  0.56444000  0.64460000  1.0
  I  I66  1  0.30737000  0.97473000  0.10246000  1.0
  I  I67  1  0.69263000  0.02527000  0.89755000  1.0
  N  N68  1  0.20953000  0.52035000  0.08164000  1.0
  N  N69  1  0.79047000  0.47964000  0.91836000  1.0
  N  N70  1  0.09330000  0.32632000  0.12785000  1.0
  N  N71  1  0.90670000  0.67367000  0.87216000  1.0
  N  N72  1  0.38885000  0.73602000  0.87284000  1.0
  N  N73  1  0.61114000  0.26399000  0.12716000  1.0
  N  N74  1  0.11763000  0.28300000  0.49907000  1.0
  N  N75  1  0.88237000  0.71700000  0.50093000  1.0
  N  N76  1  0.33219000  0.37814000  0.42591000  1.0
  N  N77  1  0.66781000  0.62187000  0.57409000  1.0
  N  N78  1  0.21938000  0.99631000  0.77802000  1.0
  N  N79  1  0.78062000  0.00369000  0.22199000  1.0
