# generated using pymatgen
data_AlH12(C4O)6
_symmetry_space_group_name_H-M   'P 1'
_cell_length_a   3.96438000
_cell_length_b   29.02275460
_cell_length_c   29.02130000
_cell_angle_alpha   59.99697421
_cell_angle_beta   89.99260000
_cell_angle_gamma   89.99530018
_symmetry_Int_Tables_number   1
_chemical_formula_structural   AlH12(C4O)6
_chemical_formula_sum   'Al2 H24 C48 O12'
_cell_volume   2891.66617141
_cell_formula_units_Z   2
loop_
 _symmetry_equiv_pos_site_id
 _symmetry_equiv_pos_as_xyz
  1  'x, y, z'
loop_
 _atom_site_type_symbol
 _atom_site_label
 _atom_site_symmetry_multiplicity
 _atom_site_fract_x
 _atom_site_fract_y
 _atom_site_fract_z
 _atom_site_occupancy
  Al  Al0  1  0.99579000  0.50000000  0.99997000  1.0
  Al  Al1  1  0.00488000  0.16666000  0.66669000  1.0
  H  H2  1  0.71006000  0.30840000  0.51986000  1.0
  H  H3  1  0.69079000  0.35933000  0.42045000  1.0
  H  H4  1  0.31026000  0.22018000  0.42053000  1.0
  H  H5  1  0.29535000  0.17154000  0.51997000  1.0
  H  H6  1  0.30947000  0.44647000  0.24623000  1.0
  H  H7  1  0.29060000  0.49498000  0.14680000  1.0
  H  H8  1  0.70479000  0.35818000  0.14670000  1.0
  H  H9  1  0.68950000  0.30737000  0.24614000  1.0
  H  H10  1  0.70987000  0.17174000  0.80842000  1.0
  H  H11  1  0.69070000  0.22023000  0.85934000  1.0
  H  H12  1  0.31040000  0.35932000  0.72018000  1.0
  H  H13  1  0.29541000  0.30852000  0.67154000  1.0
  H  H14  1  0.30953000  0.30730000  0.94647000  1.0
  H  H15  1  0.29070000  0.35821000  0.99497000  1.0
  H  H16  1  0.70493000  0.49510000  0.85817000  1.0
  H  H17  1  0.68964000  0.44648000  0.80735000  1.0
  H  H18  1  0.70975000  0.01987000  0.67174000  1.0
  H  H19  1  0.69062000  0.92046000  0.72019000  1.0
  H  H20  1  0.31035000  0.92048000  0.85933000  1.0
  H  H21  1  0.29531000  0.01993000  0.80854000  1.0
  H  H22  1  0.30946000  0.74624000  0.80731000  1.0
  H  H23  1  0.29052000  0.64683000  0.85820000  1.0
  H  H24  1  0.70475000  0.64669000  0.99510000  1.0
  H  H25  1  0.68953000  0.74613000  0.94650000  1.0
  C  C26  1  0.49598000  0.58191000  0.95912000  1.0
  C  C27  1  0.49600000  0.45894000  0.08190000  1.0
  C  C28  1  0.49608000  0.45914000  0.95892000  1.0
  C  C29  1  0.50465000  0.20747000  0.58477000  1.0
  C  C30  1  0.50459000  0.20777000  0.70750000  1.0
  C  C31  1  0.50459000  0.08474000  0.70781000  1.0
  C  C32  1  0.50296000  0.23708000  0.52568000  1.0
  C  C33  1  0.61846000  0.28978000  0.49766000  1.0
  C  C34  1  0.60964000  0.31794000  0.44245000  1.0
  C  C35  1  0.50051000  0.29302000  0.41394000  1.0
  C  C36  1  0.39233000  0.23954000  0.44251000  1.0
  C  C37  1  0.38595000  0.21242000  0.49773000  1.0
  C  C38  1  0.49998000  0.32119000  0.35762000  1.0
  C  C39  1  0.49989000  0.34549000  0.30905000  1.0
  C  C40  1  0.49950000  0.37364000  0.25273000  1.0
  C  C41  1  0.39060000  0.42709000  0.22421000  1.0
  C  C42  1  0.38200000  0.45414000  0.16900000  1.0
  C  C43  1  0.49748000  0.42945000  0.14099000  1.0
  C  C44  1  0.61424000  0.37682000  0.16895000  1.0
  C  C45  1  0.60763000  0.34873000  0.22416000  1.0
  C  C46  1  0.50290000  0.23725000  0.73710000  1.0
  C  C47  1  0.61836000  0.21257000  0.78980000  1.0
  C  C48  1  0.60960000  0.23962000  0.81795000  1.0
  C  C49  1  0.50057000  0.29305000  0.79303000  1.0
  C  C50  1  0.39239000  0.31797000  0.73955000  1.0
  C  C51  1  0.38596000  0.28987000  0.71243000  1.0
  C  C52  1  0.50005000  0.32120000  0.82118000  1.0
  C  C53  1  0.49994000  0.34547000  0.84548000  1.0
  C  C54  1  0.49953000  0.37363000  0.87363000  1.0
  C  C55  1  0.39064000  0.34869000  0.92708000  1.0
  C  C56  1  0.38205000  0.37685000  0.95412000  1.0
  C  C57  1  0.49754000  0.42954000  0.92944000  1.0
  C  C58  1  0.61434000  0.45421000  0.87682000  1.0
  C  C59  1  0.60773000  0.42710000  0.84872000  1.0
  C  C60  1  0.50284000  0.02566000  0.73727000  1.0
  C  C61  1  0.61826000  0.99766000  0.71257000  1.0
  C  C62  1  0.60951000  0.94245000  0.73960000  1.0
  C  C63  1  0.50050000  0.91393000  0.79303000  1.0
  C  C64  1  0.39232000  0.94248000  0.81796000  1.0
  C  C65  1  0.38587000  0.99769000  0.78989000  1.0
  C  C66  1  0.50002000  0.85761000  0.82119000  1.0
  C  C67  1  0.49991000  0.80904000  0.84548000  1.0
  C  C68  1  0.49950000  0.75273000  0.87364000  1.0
  C  C69  1  0.39058000  0.72423000  0.84870000  1.0
  C  C70  1  0.38194000  0.66902000  0.87684000  1.0
  C  C71  1  0.49743000  0.64099000  0.92954000  1.0
  C  C72  1  0.61420000  0.66894000  0.95422000  1.0
  C  C73  1  0.60764000  0.72416000  0.92712000  1.0
  O  O74  1  0.26074000  0.44862000  0.99285000  1.0
  O  O75  1  0.26072000  0.55851000  0.94860000  1.0
  O  O76  1  0.26067000  0.49286000  0.05849000  1.0
  O  O77  1  0.73033000  0.49321000  0.94846000  1.0
  O  O78  1  0.73025000  0.44847000  0.05829000  1.0
  O  O79  1  0.73025000  0.55830000  0.99319000  1.0
  O  O80  1  0.27045000  0.10838000  0.71826000  1.0
  O  O81  1  0.27050000  0.17338000  0.60841000  1.0
  O  O82  1  0.27044000  0.21822000  0.67341000  1.0
  O  O83  1  0.74005000  0.10812000  0.67390000  1.0
  O  O84  1  0.74001000  0.17386000  0.71803000  1.0
  O  O85  1  0.74005000  0.21800000  0.60815000  1.0
