# generated using pymatgen
data_Cu2H32C45(IN2)2
_symmetry_space_group_name_H-M   'P 1'
_cell_length_a   7.01662000
_cell_length_b   19.75730486
_cell_length_c   19.76620000
_cell_angle_alpha   88.21463477
_cell_angle_beta   79.78680000
_cell_angle_gamma   79.78745855
_symmetry_Int_Tables_number   1
_chemical_formula_structural   Cu2H32C45(IN2)2
_chemical_formula_sum   'Cu4 H64 C90 I4 N8'
_cell_volume   2654.03435807
_cell_formula_units_Z   2
loop_
 _symmetry_equiv_pos_site_id
 _symmetry_equiv_pos_as_xyz
  1  'x, y, z'
loop_
 _atom_site_type_symbol
 _atom_site_label
 _atom_site_symmetry_multiplicity
 _atom_site_fract_x
 _atom_site_fract_y
 _atom_site_fract_z
 _atom_site_occupancy
  Cu  Cu0  1  0.32073000  0.55399000  0.05405000  1.0
  Cu  Cu1  1  0.92894000  0.44591000  0.94600000  1.0
  Cu  Cu2  1  0.62468000  0.05404000  0.44603000  1.0
  Cu  Cu3  1  0.12489000  0.94596000  0.55399000  1.0
  H  H4  1  0.31067000  0.57014000  0.20586000  1.0
  H  H5  1  0.07454000  0.55915000  0.31327000  1.0
  H  H6  1  0.68273000  0.50296000  0.18609000  1.0
  H  H7  1  0.93335000  0.51586000  0.08550000  1.0
  H  H8  1  0.60499000  0.43808000  0.27698000  1.0
  H  H9  1  0.35081000  0.42409000  0.37599000  1.0
  H  H10  1  0.51918000  0.58531000  0.48187000  1.0
  H  H11  1  0.76890000  0.60113000  0.38228000  1.0
  H  H12  1  0.08704000  0.42972000  0.79417000  1.0
  H  H13  1  0.94741000  0.44067000  0.68670000  1.0
  H  H14  1  0.37232000  0.49709000  0.81388000  1.0
  H  H15  1  0.53533000  0.48410000  0.91445000  1.0
  H  H16  1  0.32076000  0.56191000  0.72309000  1.0
  H  H17  1  0.15132000  0.57602000  0.62415000  1.0
  H  H18  1  0.58639000  0.41498000  0.51801000  1.0
  H  H19  1  0.75248000  0.39897000  0.61757000  1.0
  H  H20  1  0.48336000  0.20598000  0.42986000  1.0
  H  H21  1  0.61245000  0.31338000  0.44096000  1.0
  H  H22  1  0.13089000  0.18596000  0.49721000  1.0
  H  H23  1  0.98050000  0.08543000  0.48418000  1.0
  H  H24  1  0.11786000  0.27703000  0.56215000  1.0
  H  H25  1  0.27317000  0.37610000  0.57611000  1.0
  H  H26  1  0.99927000  0.48191000  0.41489000  1.0
  H  H27  1  0.84910000  0.38225000  0.39908000  1.0
  H  H28  1  0.11880000  0.79406000  0.57029000  1.0
  H  H29  1  0.36595000  0.68660000  0.55932000  1.0
  H  H30  1  0.81363000  0.81388000  0.50270000  1.0
  H  H31  1  0.54998000  0.91446000  0.51567000  1.0
  H  H32  1  0.95604000  0.72303000  0.43800000  1.0
  H  H33  1  0.22479000  0.62417000  0.42406000  1.0
  H  H34  1  0.89627000  0.51815000  0.58528000  1.0
  H  H35  1  0.63031000  0.61762000  0.60108000  1.0
  H  H36  1  0.16307000  0.70594000  0.07036000  1.0
  H  H37  1  0.30296000  0.81338000  0.05918000  1.0
  H  H38  1  0.87770000  0.68602000  0.00259000  1.0
  H  H39  1  0.71447000  0.58546000  0.01578000  1.0
  H  H40  1  0.92961000  0.77695000  0.93779000  1.0
  H  H41  1  0.09919000  0.87592000  0.92387000  1.0
  H  H42  1  0.66426000  0.98197000  0.08494000  1.0
  H  H43  1  0.49794000  0.88242000  0.10080000  1.0
  H  H44  1  0.93927000  0.29397000  0.92976000  1.0
  H  H45  1  0.17539000  0.18657000  0.94091000  1.0
  H  H46  1  0.56638000  0.31398000  0.99740000  1.0
  H  H47  1  0.31577000  0.41451000  0.98426000  1.0
  H  H48  1  0.64468000  0.22304000  0.06216000  1.0
  H  H49  1  0.89939000  0.12411000  0.07594000  1.0
  H  H50  1  0.73122000  0.01816000  0.91477000  1.0
  H  H51  1  0.48097000  0.11766000  0.89914000  1.0
  H  H52  1  0.13118000  0.92957000  0.70580000  1.0
  H  H53  1  0.88408000  0.94065000  0.81322000  1.0
  H  H54  1  0.43640000  0.99731000  0.68605000  1.0
  H  H55  1  0.69992000  0.98424000  0.58550000  1.0
  H  H56  1  0.29353000  0.06193000  0.77684000  1.0
  H  H57  1  0.02510000  0.07590000  0.87576000  1.0
  H  H58  1  0.35461000  0.91492000  0.98181000  1.0
  H  H59  1  0.62031000  0.89904000  0.88228000  1.0
  H  H60  1  0.76603000  0.07024000  0.29428000  1.0
  H  H61  1  0.63728000  0.05922000  0.18683000  1.0
  H  H62  1  0.11872000  0.00286000  0.31399000  1.0
  H  H63  1  0.26874000  0.01584000  0.41455000  1.0
  H  H64  1  0.13185000  0.93796000  0.22294000  1.0
  H  H65  1  0.97697000  0.92395000  0.12382000  1.0
  H  H66  1  0.25146000  0.08515000  0.01814000  1.0
  H  H67  1  0.40120000  0.10104000  0.11783000  1.0
  C  C68  1  0.16857000  0.55567000  0.20397000  1.0
  C  C69  1  0.03486000  0.54971000  0.26390000  1.0
  C  C70  1  0.85411000  0.52981000  0.26016000  1.0
  C  C71  1  0.81936000  0.51784000  0.19418000  1.0
  C  C72  1  0.95950000  0.52528000  0.13690000  1.0
  C  C73  1  0.70581000  0.52115000  0.32116000  1.0
  C  C74  1  0.58459000  0.47163000  0.32143000  1.0
  C  C75  1  0.44005000  0.46358000  0.37797000  1.0
  C  C76  1  0.41049000  0.50493000  0.43641000  1.0
  C  C77  1  0.53475000  0.55343000  0.43661000  1.0
  C  C78  1  0.67870000  0.56180000  0.38040000  1.0
  C  C79  1  0.92863000  0.44421000  0.79601000  1.0
  C  C80  1  0.84891000  0.45017000  0.73605000  1.0
  C  C81  1  0.64454000  0.47013000  0.73981000  1.0
  C  C82  1  0.53187000  0.48215000  0.80578000  1.0
  C  C83  1  0.62217000  0.47469000  0.86306000  1.0
  C  C84  1  0.54850000  0.47887000  0.67881000  1.0
  C  C85  1  0.37818000  0.52842000  0.67860000  1.0
  C  C86  1  0.28201000  0.53654000  0.62208000  1.0
  C  C87  1  0.35199000  0.49526000  0.56359000  1.0
  C  C88  1  0.52497000  0.44678000  0.56332000  1.0
  C  C89  1  0.62114000  0.43831000  0.61952000  1.0
  C  C90  1  0.62732000  0.20404000  0.44437000  1.0
  C  C91  1  0.70126000  0.26397000  0.45042000  1.0
  C  C92  1  0.88571000  0.26016000  0.47035000  1.0
  C  C93  1  0.98624000  0.19413000  0.48230000  1.0
  C  C94  1  0.90318000  0.13687000  0.47479000  1.0
  C  C95  1  0.97320000  0.32115000  0.47903000  1.0
  C  C96  1  0.09399000  0.32146000  0.52858000  1.0
  C  C97  1  0.18208000  0.37802000  0.53660000  1.0
  C  C98  1  0.15338000  0.43645000  0.49524000  1.0
  C  C99  1  0.02886000  0.43665000  0.44678000  1.0
  C  C100  1  0.94116000  0.38039000  0.43839000  1.0
  C  C101  1  0.27530000  0.79594000  0.55572000  1.0
  C  C102  1  0.41501000  0.73598000  0.54976000  1.0
  C  C103  1  0.61560000  0.73975000  0.52977000  1.0
  C  C104  1  0.66221000  0.80576000  0.51770000  1.0
  C  C105  1  0.51460000  0.86304000  0.52515000  1.0
  C  C106  1  0.77278000  0.67879000  0.52111000  1.0
  C  C107  1  0.94335000  0.67860000  0.47159000  1.0
  C  C108  1  0.09622000  0.62211000  0.46355000  1.0
  C  C109  1  0.08484000  0.56366000  0.50489000  1.0
  C  C110  1  0.91221000  0.56340000  0.55338000  1.0
  C  C111  1  0.75967000  0.61955000  0.56176000  1.0
  C  C112  1  0.32147000  0.70403000  0.05574000  1.0
  C  C113  1  0.40133000  0.76400000  0.04964000  1.0
  C  C114  1  0.60569000  0.76019000  0.02962000  1.0
  C  C115  1  0.71820000  0.69416000  0.01761000  1.0
  C  C116  1  0.62775000  0.63689000  0.02519000  1.0
  C  C117  1  0.70187000  0.82118000  0.02088000  1.0
  C  C118  1  0.87226000  0.82140000  0.97137000  1.0
  C  C119  1  0.96851000  0.87793000  0.96334000  1.0
  C  C120  1  0.89857000  0.93641000  0.00465000  1.0
  C  C121  1  0.72554000  0.93667000  0.05308000  1.0
  C  C122  1  0.62928000  0.88047000  0.06148000  1.0
  C  C123  1  0.08115000  0.29590000  0.94436000  1.0
  C  C124  1  0.21487000  0.23597000  0.95043000  1.0
  C  C125  1  0.39544000  0.23978000  0.97043000  1.0
  C  C126  1  0.42999000  0.30581000  0.98241000  1.0
  C  C127  1  0.28985000  0.36307000  0.97486000  1.0
  C  C128  1  0.54400000  0.17883000  0.97908000  1.0
  C  C129  1  0.66525000  0.17861000  0.02856000  1.0
  C  C130  1  0.81008000  0.12210000  0.03649000  1.0
  C  C131  1  0.83987000  0.06365000  0.99512000  1.0
  C  C132  1  0.71550000  0.06342000  0.94668000  1.0
  C  C133  1  0.57132000  0.11960000  0.93839000  1.0
  C  C134  1  0.97468000  0.94420000  0.70393000  1.0
  C  C135  1  0.83498000  0.95023000  0.76388000  1.0
  C  C136  1  0.63440000  0.97022000  0.76013000  1.0
  C  C137  1  0.58779000  0.98227000  0.69416000  1.0
  C  C138  1  0.73535000  0.97478000  0.63689000  1.0
  C  C139  1  0.47733000  0.97892000  0.82110000  1.0
  C  C140  1  0.30662000  0.02841000  0.82130000  1.0
  C  C141  1  0.15391000  0.03647000  0.87782000  1.0
  C  C142  1  0.16557000  0.99521000  0.93629000  1.0
  C  C143  1  0.33837000  0.94676000  0.93654000  1.0
  C  C144  1  0.49079000  0.93834000  0.88035000  1.0
  C  C145  1  0.62209000  0.05573000  0.29615000  1.0
  C  C146  1  0.54831000  0.04975000  0.23619000  1.0
  C  C147  1  0.36392000  0.02979000  0.23991000  1.0
  C  C148  1  0.26331000  0.01779000  0.30588000  1.0
  C  C149  1  0.34617000  0.02526000  0.36317000  1.0
  C  C150  1  0.27676000  0.02108000  0.17888000  1.0
  C  C151  1  0.15592000  0.97153000  0.17853000  1.0
  C  C152  1  0.06813000  0.96345000  0.12193000  1.0
  C  C153  1  0.09711000  0.00480000  0.06352000  1.0
  C  C154  1  0.22162000  0.05329000  0.06338000  1.0
  C  C155  1  0.30912000  0.06171000  0.11965000  1.0
  C  C156  1  0.25021000  0.50008000  0.50003000  1.0
  C  C157  1  0.00033000  0.00002000  0.99988000  1.0
  I  I158  1  0.12499000  0.55028000  0.94967000  1.0
  I  I159  1  0.62482000  0.44968000  0.05030000  1.0
  I  I160  1  0.92492000  0.94965000  0.44968000  1.0
  I  I161  1  0.32458000  0.05031000  0.55039000  1.0
  N  N162  1  0.13350000  0.54386000  0.14060000  1.0
  N  N163  1  0.81842000  0.45606000  0.85936000  1.0
  N  N164  1  0.72557000  0.14062000  0.45614000  1.0
  N  N165  1  0.32209000  0.85932000  0.54381000  1.0
  N  N166  1  0.43151000  0.64063000  0.04393000  1.0
  N  N167  1  0.11603000  0.35931000  0.95617000  1.0
  N  N168  1  0.92784000  0.95607000  0.64057000  1.0
  N  N169  1  0.52377000  0.04389000  0.35950000  1.0
