# generated using pymatgen
data_Zr6H41C50N5O32
_symmetry_space_group_name_H-M   'P 1'
_cell_length_a   14.66709397
_cell_length_b   14.77182640
_cell_length_c   14.77390000
_cell_angle_alpha   90.31242003
_cell_angle_beta   119.72018725
_cell_angle_gamma   119.71641274
_symmetry_Int_Tables_number   1
_chemical_formula_structural   Zr6H41C50N5O32
_chemical_formula_sum   'Zr6 H41 C50 N5 O32'
_cell_volume   2276.43352241
_cell_formula_units_Z   1
loop_
 _symmetry_equiv_pos_site_id
 _symmetry_equiv_pos_as_xyz
  1  'x, y, z'
loop_
 _atom_site_type_symbol
 _atom_site_label
 _atom_site_symmetry_multiplicity
 _atom_site_fract_x
 _atom_site_fract_y
 _atom_site_fract_z
 _atom_site_occupancy
  Zr  Zr0  1  0.49717000  0.88105000  0.37508000  1.0
  Zr  Zr1  1  0.49959000  0.12172000  0.61532000  1.0
  Zr  Zr2  1  0.73817000  0.11932000  0.61375000  1.0
  Zr  Zr3  1  0.25775000  0.88304000  0.37667000  1.0
  Zr  Zr4  1  0.49764000  0.12048000  0.37657000  1.0
  Zr  Zr5  1  0.49726000  0.88284000  0.61446000  1.0
  H  H6  1  0.68697000  0.09420000  0.40078000  1.0
  H  H7  1  0.31094000  0.09813000  0.40395000  1.0
  H  H8  1  0.68718000  0.09514000  0.77711000  1.0
  H  H9  1  0.30894000  0.71996000  0.40215000  1.0
  H  H10  1  0.49016000  0.85112000  0.07309000  1.0
  H  H11  1  0.48733000  0.14025000  0.08167000  1.0
  H  H12  1  0.49130000  0.85815000  0.90347000  1.0
  H  H13  1  0.51165000  0.59039000  0.35584000  1.0
  H  H14  1  0.50682000  0.59725000  0.64394000  1.0
  H  H15  1  0.51204000  0.42042000  0.36209000  1.0
  H  H16  1  0.22686000  0.14327000  0.07318000  1.0
  H  H17  1  0.94464000  0.85181000  0.07999000  1.0
  H  H18  1  0.05002000  0.13493000  0.90164000  1.0
  H  H19  1  0.22726000  0.59031000  0.64848000  1.0
  H  H20  1  0.94462000  0.59889000  0.35913000  1.0
  H  H21  1  0.05052000  0.41828000  0.63973000  1.0
  H  H22  1  0.05519000  0.07562000  0.37960000  1.0
  H  H23  1  0.16937000  0.16693000  0.51793000  1.0
  H  H24  1  0.00782000  0.16387000  0.51662000  1.0
  H  H25  1  0.89487000  0.07220000  0.37852000  1.0
  H  H26  1  0.05005000  0.08790000  0.67572000  1.0
  H  H27  1  0.96738000  0.94392000  0.64880000  1.0
  H  H28  1  0.21162000  0.09105000  0.67560000  1.0
  H  H29  1  0.12815000  0.94724000  0.64978000  1.0
  H  H30  1  0.93440000  0.87058000  0.34007000  1.0
  H  H31  1  0.96363000  0.81492000  0.44805000  1.0
  H  H32  1  0.80556000  0.81311000  0.45291000  1.0
  H  H33  1  0.77252000  0.86381000  0.34140000  1.0
  H  H34  1  0.92913000  0.58207000  0.07588000  1.0
  H  H35  1  0.23282000  0.59667000  0.08378000  1.0
  H  H36  1  0.76833000  0.41223000  0.90734000  1.0
  H  H37  1  0.47691000  0.16416000  0.83340000  1.0
  H  H38  1  0.46935000  0.21258000  0.93669000  1.0
  H  H39  1  0.51757000  0.35973000  0.67806000  1.0
  H  H40  1  0.52377000  0.46968000  0.73323000  1.0
  H  H41  1  0.67156000  0.82428000  0.83969000  1.0
  H  H42  1  0.72672000  0.77720000  0.95040000  1.0
  H  H43  1  0.67120000  0.35959000  0.33224000  1.0
  H  H44  1  0.72716000  0.47141000  0.28649000  1.0
  H  H45  1  0.02283000  0.35756000  0.83821000  1.0
  H  H46  1  0.18124000  0.46754000  0.94242000  1.0
  C  C47  1  0.49017000  0.99615000  0.18798000  1.0
  C  C48  1  0.50754000  0.31186000  0.50186000  1.0
  C  C49  1  0.49152000  0.00044000  0.79768000  1.0
  C  C50  1  0.50511000  0.70159000  0.49796000  1.0
  C  C51  1  0.80338000  0.99408000  0.50003000  1.0
  C  C52  1  0.19061000  0.70061000  0.18897000  1.0
  C  C53  1  0.19274000  0.99881000  0.50154000  1.0
  C  C54  1  0.80663000  0.30921000  0.79870000  1.0
  C  C55  1  0.80178000  0.30945000  0.49651000  1.0
  C  C56  1  0.80124000  0.99383000  0.79540000  1.0
  C  C57  1  0.19556000  0.70378000  0.50286000  1.0
  C  C58  1  0.19547000  0.00030000  0.18917000  1.0
  C  C59  1  0.48998000  0.00202000  0.89684000  1.0
  C  C60  1  0.48862000  0.99618000  0.08617000  1.0
  C  C61  1  0.48814000  0.08392000  0.94644000  1.0
  C  C62  1  0.48985000  0.91511000  0.03707000  1.0
  C  C63  1  0.48764000  0.07834000  0.04151000  1.0
  C  C64  1  0.49052000  0.91937000  0.94391000  1.0
  C  C65  1  0.50920000  0.41263000  0.50519000  1.0
  C  C66  1  0.50899000  0.60255000  0.50036000  1.0
  C  C67  1  0.50809000  0.46242000  0.58752000  1.0
  C  C68  1  0.51096000  0.55403000  0.41956000  1.0
  C  C69  1  0.50825000  0.55780000  0.58249000  1.0
  C  C70  1  0.51103000  0.46055000  0.42331000  1.0
  C  C71  1  0.89868000  0.98966000  0.89369000  1.0
  C  C72  1  0.09400000  0.99727000  0.08581000  1.0
  C  C73  1  0.86586000  0.90673000  0.94327000  1.0
  C  C74  1  0.12648000  0.07817000  0.03614000  1.0
  C  C75  1  0.96655000  0.91358000  0.03989000  1.0
  C  C76  1  0.02896000  0.07313000  0.94169000  1.0
  C  C77  1  0.89894000  0.41138000  0.49582000  1.0
  C  C78  1  0.09417000  0.60358000  0.50327000  1.0
  C  C79  1  0.86591000  0.46253000  0.41447000  1.0
  C  C80  1  0.12681000  0.55392000  0.58414000  1.0
  C  C81  1  0.96664000  0.55877000  0.42085000  1.0
  C  C82  1  0.02932000  0.45933000  0.57896000  1.0
  C  C83  1  0.07624000  0.08710000  0.46301000  1.0
  C  C84  1  0.96922000  0.08500000  0.46231000  1.0
  C  C85  1  0.90649000  0.99062000  0.50185000  1.0
  C  C86  1  0.01131000  0.01009000  0.61972000  1.0
  C  C87  1  0.11810000  0.01195000  0.61994000  1.0
  C  C88  1  0.08657000  0.99359000  0.50236000  1.0
  C  C89  1  0.95620000  0.88239000  0.42356000  1.0
  C  C90  1  0.85005000  0.87994000  0.42470000  1.0
  C  C91  1  0.90792000  0.40844000  0.89913000  1.0
  C  C92  1  0.09077000  0.59921000  0.08844000  1.0
  C  C93  1  0.04160000  0.45994000  0.94943000  1.0
  C  C94  1  0.95907000  0.54772000  0.03980000  1.0
  C  C95  1  0.13030000  0.55559000  0.04399000  1.0
  C  C96  1  0.87079000  0.45414000  0.94686000  1.0
  N  N97  1  0.48941000  0.16791000  0.90770000  1.0
  N  N98  1  0.50331000  0.42063000  0.66853000  1.0
  N  N99  1  0.74258000  0.82046000  0.90097000  1.0
  N  N100  1  0.74274000  0.42200000  0.32988000  1.0
  N  N101  1  0.08707000  0.42009000  0.91162000  1.0
  O  O102  1  0.49288000  0.92036000  0.22811000  1.0
  O  O103  1  0.50660000  0.26929000  0.57787000  1.0
  O  O104  1  0.49226000  0.07725000  0.75594000  1.0
  O  O105  1  0.50141000  0.73859000  0.41908000  1.0
  O  O106  1  0.84136000  0.07403000  0.57445000  1.0
  O  O107  1  0.15239000  0.73905000  0.22937000  1.0
  O  O108  1  0.15786000  0.92506000  0.42324000  1.0
  O  O109  1  0.84152000  0.26701000  0.75631000  1.0
  O  O110  1  0.68278000  0.26603000  0.41913000  1.0
  O  O111  1  0.68226000  0.91966000  0.75526000  1.0
  O  O112  1  0.31224000  0.74154000  0.57799000  1.0
  O  O113  1  0.31200000  0.07883000  0.23020000  1.0
  O  O114  1  0.83866000  0.07092000  0.75616000  1.0
  O  O115  1  0.15850000  0.74349000  0.42628000  1.0
  O  O116  1  0.15846000  0.92488000  0.23011000  1.0
  O  O117  1  0.83940000  0.26848000  0.57186000  1.0
  O  O118  1  0.68652000  0.91996000  0.42260000  1.0
  O  O119  1  0.68925000  0.26919000  0.75892000  1.0
  O  O120  1  0.30893000  0.07776000  0.57655000  1.0
  O  O121  1  0.30777000  0.74097000  0.22844000  1.0
  O  O122  1  0.50358000  0.74116000  0.57396000  1.0
  O  O123  1  0.49075000  0.07314000  0.22873000  1.0
  O  O124  1  0.50537000  0.27071000  0.42384000  1.0
  O  O125  1  0.49351000  0.92443000  0.75860000  1.0
  O  O126  1  0.36227000  0.80011000  0.42831000  1.0
  O  O127  1  0.63362000  0.06885000  0.69697000  1.0
  O  O128  1  0.36410000  0.07061000  0.42966000  1.0
  O  O129  1  0.63300000  0.06752000  0.42749000  1.0
  O  O130  1  0.59879000  0.15023000  0.54535000  1.0
  O  O131  1  0.39811000  0.95197000  0.34699000  1.0
  O  O132  1  0.39829000  0.95313000  0.54567000  1.0
  O  O133  1  0.59731000  0.95132000  0.54426000  1.0
