# generated using pymatgen
data_ZnH12C20S2N2(O2F3)2
_symmetry_space_group_name_H-M   'P 1'
_cell_length_a   7.06632000
_cell_length_b   8.91053000
_cell_length_c   10.76140000
_cell_angle_alpha   76.19980000
_cell_angle_beta   70.90870000
_cell_angle_gamma   66.64550000
_symmetry_Int_Tables_number   1
_chemical_formula_structural   ZnH12C20S2N2(O2F3)2
_chemical_formula_sum   'Zn1 H12 C20 S2 N2 O4 F6'
_cell_volume   583.21036796
_cell_formula_units_Z   1
loop_
 _symmetry_equiv_pos_site_id
 _symmetry_equiv_pos_as_xyz
  1  'x, y, z'
loop_
 _atom_site_type_symbol
 _atom_site_label
 _atom_site_symmetry_multiplicity
 _atom_site_fract_x
 _atom_site_fract_y
 _atom_site_fract_z
 _atom_site_occupancy
  Zn  Zn0  1  0.79398000  0.99992000  0.00004000  1.0
  H  H1  1  0.00456000  0.15375000  0.41348000  1.0
  H  H2  1  0.57168000  0.84642000  0.58629000  1.0
  H  H3  1  0.24909000  0.75299000  0.97331000  1.0
  H  H4  1  0.97564000  0.24740000  0.02665000  1.0
  H  H5  1  0.85989000  0.27279000  0.59024000  1.0
  H  H6  1  0.72304000  0.72729000  0.40980000  1.0
  H  H7  1  0.61164000  0.75269000  0.97303000  1.0
  H  H8  1  0.33787000  0.24711000  0.02710000  1.0
  H  H9  1  0.19927000  0.93023000  0.24909000  1.0
  H  H10  1  0.37874000  0.06971000  0.75078000  1.0
  H  H11  1  0.29060000  0.62878000  0.37748000  1.0
  H  H12  1  0.29648000  0.37117000  0.62255000  1.0
  C  C13  1  0.05680000  0.02169000  0.44474000  1.0
  C  C14  1  0.52330000  0.97844000  0.55504000  1.0
  C  C15  1  0.02714000  0.95267000  0.57666000  1.0
  C  C16  1  0.55637000  0.04751000  0.42315000  1.0
  C  C17  1  0.27118000  0.86251000  0.98516000  1.0
  C  C18  1  0.11888000  0.13773000  0.01493000  1.0
  C  C19  1  0.74776000  0.29491000  0.79540000  1.0
  C  C20  1  0.83760000  0.70495000  0.20468000  1.0
  C  C21  1  0.92805000  0.02893000  0.69907000  1.0
  C  C22  1  0.65602000  0.97107000  0.30081000  1.0
  C  C23  1  0.66941000  0.48384000  0.76473000  1.0
  C  C24  1  0.91733000  0.51602000  0.23544000  1.0
  C  C25  1  0.84482000  0.20460000  0.68891000  1.0
  C  C26  1  0.73804000  0.79538000  0.31111000  1.0
  C  C27  1  0.46842000  0.86241000  0.98503000  1.0
  C  C28  1  0.31609000  0.13759000  0.01493000  1.0
  C  C29  1  0.16153000  0.90185000  0.35627000  1.0
  C  C30  1  0.41961000  0.09813000  0.64361000  1.0
  C  C31  1  0.21044000  0.74323000  0.42145000  1.0
  C  C32  1  0.37486000  0.25679000  0.57852000  1.0
  S  S33  1  0.12941000  0.73957000  0.58958000  1.0
  S  S34  1  0.45803000  0.26062000  0.41038000  1.0
  N  N35  1  0.09841000  0.00013000  0.00009000  1.0
  N  N36  1  0.48889000  0.99997000  0.99994000  1.0
  O  O37  1  0.70956000  0.24778000  0.92029000  1.0
  O  O38  1  0.87731000  0.75204000  0.07979000  1.0
  O  O39  1  0.92352000  0.93139000  0.80760000  1.0
  O  O40  1  0.66289000  0.06847000  0.19222000  1.0
  F  F41  1  0.45405000  0.55018000  0.81896000  1.0
  F  F42  1  0.82227000  0.45002000  0.18097000  1.0
  F  F43  1  0.70586000  0.54193000  0.63286000  1.0
  F  F44  1  0.87987000  0.45791000  0.36732000  1.0
  F  F45  1  0.76624000  0.54919000  0.81839000  1.0
  F  F46  1  0.13301000  0.45030000  0.18210000  1.0
