# generated using pymatgen
data_CoH13C14N2O5
_symmetry_space_group_name_H-M   'P 1'
_cell_length_a   8.13924000
_cell_length_b   13.29640000
_cell_length_c   14.51910000
_cell_angle_alpha   90.00020000
_cell_angle_beta   90.00000000
_cell_angle_gamma   106.52700000
_symmetry_Int_Tables_number   1
_chemical_formula_structural   CoH13C14N2O5
_chemical_formula_sum   'Co4 H52 C56 N8 O20'
_cell_volume   1506.37782031
_cell_formula_units_Z   4
loop_
 _symmetry_equiv_pos_site_id
 _symmetry_equiv_pos_as_xyz
  1  'x, y, z'
loop_
 _atom_site_type_symbol
 _atom_site_label
 _atom_site_symmetry_multiplicity
 _atom_site_fract_x
 _atom_site_fract_y
 _atom_site_fract_z
 _atom_site_occupancy
  Co  Co0  1  0.67522000  0.63164000  0.91129000  1.0
  Co  Co1  1  0.82480000  0.36837000  0.41129000  1.0
  Co  Co2  1  0.32482000  0.36838000  0.08872000  1.0
  Co  Co3  1  0.17519000  0.63163000  0.58871000  1.0
  H  H4  1  0.01709000  0.68262000  0.88654000  1.0
  H  H5  1  0.48290000  0.31738000  0.38653000  1.0
  H  H6  1  0.98292000  0.31738000  0.11347000  1.0
  H  H7  1  0.51703000  0.68260000  0.61345000  1.0
  H  H8  1  0.93568000  0.75648000  0.83054000  1.0
  H  H9  1  0.56427000  0.24351000  0.33052000  1.0
  H  H10  1  0.06433000  0.24352000  0.16947000  1.0
  H  H11  1  0.43566000  0.75648000  0.66946000  1.0
  H  H12  1  0.87453000  0.30750000  0.69333000  1.0
  H  H13  1  0.62546000  0.69250000  0.19333000  1.0
  H  H14  1  0.12542000  0.69250000  0.30668000  1.0
  H  H15  1  0.37461000  0.30752000  0.80667000  1.0
  H  H16  1  0.76804000  0.42052000  0.95936000  1.0
  H  H17  1  0.73191000  0.57947000  0.45935000  1.0
  H  H18  1  0.23198000  0.57950000  0.04066000  1.0
  H  H19  1  0.26804000  0.42051000  0.54064000  1.0
  H  H20  1  0.00536000  0.28585000  0.89617000  1.0
  H  H21  1  0.49464000  0.71415000  0.39617000  1.0
  H  H22  1  0.99464000  0.71415000  0.10383000  1.0
  H  H23  1  0.50537000  0.28584000  0.60383000  1.0
  H  H24  1  0.80409000  0.24745000  0.94833000  1.0
  H  H25  1  0.69592000  0.75255000  0.44832000  1.0
  H  H26  1  0.19592000  0.75255000  0.05168000  1.0
  H  H27  1  0.30409000  0.24745000  0.55167000  1.0
  H  H28  1  0.68638000  0.12854000  0.81008000  1.0
  H  H29  1  0.81360000  0.87146000  0.31007000  1.0
  H  H30  1  0.31360000  0.87146000  0.18993000  1.0
  H  H31  1  0.18638000  0.12854000  0.68992000  1.0
  H  H32  1  0.85404000  0.09450000  0.86887000  1.0
  H  H33  1  0.64593000  0.90549000  0.36886000  1.0
  H  H34  1  0.14594000  0.90550000  0.13114000  1.0
  H  H35  1  0.35405000  0.09450000  0.63113000  1.0
  H  H36  1  0.89642000  0.16262000  0.76279000  1.0
  H  H37  1  0.60355000  0.83736000  0.26279000  1.0
  H  H38  1  0.10355000  0.83737000  0.23722000  1.0
  H  H39  1  0.39643000  0.16262000  0.73721000  1.0
  H  H40  1  0.39488000  0.71965000  0.87452000  1.0
  H  H41  1  0.10517000  0.28035000  0.37453000  1.0
  H  H42  1  0.60517000  0.28035000  0.12546000  1.0
  H  H43  1  0.89484000  0.71965000  0.62547000  1.0
  H  H44  1  0.30483000  0.87773000  0.90222000  1.0
  H  H45  1  0.19517000  0.12226000  0.40222000  1.0
  H  H46  1  0.69516000  0.12225000  0.09778000  1.0
  H  H47  1  0.80482000  0.87774000  0.59778000  1.0
  H  H48  1  0.75738000  0.98963000  0.07359000  1.0
  H  H49  1  0.74255000  0.01034000  0.57353000  1.0
  H  H50  1  0.24256000  0.01034000  0.92646000  1.0
  H  H51  1  0.25737000  0.98962000  0.42641000  1.0
  H  H52  1  0.82751000  0.82482000  0.03596000  1.0
  H  H53  1  0.67248000  0.17518000  0.53593000  1.0
  H  H54  1  0.17249000  0.17518000  0.96406000  1.0
  H  H55  1  0.32747000  0.82479000  0.46403000  1.0
  C  C56  1  0.66590000  0.60095000  0.71643000  1.0
  C  C57  1  0.83411000  0.39906000  0.21642000  1.0
  C  C58  1  0.33415000  0.39909000  0.28359000  1.0
  C  C59  1  0.16590000  0.60095000  0.78356000  1.0
  C  C60  1  0.73549000  0.51551000  0.75290000  1.0
  C  C61  1  0.76452000  0.48450000  0.25290000  1.0
  C  C62  1  0.26456000  0.48452000  0.24711000  1.0
  C  C63  1  0.23551000  0.51551000  0.74709000  1.0
  C  C64  1  0.83209000  0.36182000  0.73726000  1.0
  C  C65  1  0.66791000  0.63818000  0.23725000  1.0
  C  C66  1  0.16792000  0.63819000  0.26275000  1.0
  C  C67  1  0.33214000  0.36183000  0.76274000  1.0
  C  C68  1  0.82137000  0.34810000  0.83272000  1.0
  C  C69  1  0.67863000  0.65189000  0.33272000  1.0
  C  C70  1  0.17864000  0.65190000  0.16729000  1.0
  C  C71  1  0.32139000  0.34811000  0.66728000  1.0
  C  C72  1  0.77356000  0.42454000  0.88435000  1.0
  C  C73  1  0.72642000  0.57545000  0.38434000  1.0
  C  C74  1  0.22646000  0.57547000  0.11566000  1.0
  C  C75  1  0.27358000  0.42454000  0.61565000  1.0
  C  C76  1  0.82333000  0.46531000  0.59492000  1.0
  C  C77  1  0.67669000  0.53469000  0.09491000  1.0
  C  C78  1  0.17669000  0.53471000  0.40509000  1.0
  C  C79  1  0.32336000  0.46533000  0.90508000  1.0
  C  C80  1  0.86699000  0.25937000  0.88064000  1.0
  C  C81  1  0.63301000  0.74062000  0.38064000  1.0
  C  C82  1  0.13302000  0.74063000  0.11937000  1.0
  C  C83  1  0.36700000  0.25937000  0.61936000  1.0
  C  C84  1  0.82350000  0.15591000  0.82737000  1.0
  C  C85  1  0.67648000  0.84408000  0.32736000  1.0
  C  C86  1  0.17648000  0.84409000  0.17264000  1.0
  C  C87  1  0.32351000  0.15591000  0.67263000  1.0
  C  C88  1  0.47316000  0.78255000  0.91671000  1.0
  C  C89  1  0.02687000  0.21745000  0.41672000  1.0
  C  C90  1  0.52686000  0.21744000  0.08328000  1.0
  C  C91  1  0.97313000  0.78255000  0.58328000  1.0
  C  C92  1  0.42371000  0.87234000  0.93343000  1.0
  C  C93  1  0.07628000  0.12764000  0.43342000  1.0
  C  C94  1  0.57628000  0.12764000  0.06659000  1.0
  C  C95  1  0.92370000  0.87234000  0.56657000  1.0
  C  C96  1  0.52404000  0.95161000  0.99047000  1.0
  C  C97  1  0.97592000  0.04836000  0.49044000  1.0
  C  C98  1  0.47593000  0.04836000  0.00956000  1.0
  C  C99  1  0.02403000  0.95161000  0.50953000  1.0
  C  C100  1  0.67219000  0.93287000  0.02831000  1.0
  C  C101  1  0.82777000  0.06711000  0.52826000  1.0
  C  C102  1  0.32778000  0.06711000  0.97173000  1.0
  C  C103  1  0.17218000  0.93286000  0.47169000  1.0
  C  C104  1  0.71313000  0.84076000  0.00804000  1.0
  C  C105  1  0.78687000  0.15923000  0.50802000  1.0
  C  C106  1  0.28687000  0.15923000  0.99198000  1.0
  C  C107  1  0.21310000  0.84075000  0.49196000  1.0
  C  C108  1  0.79262000  0.44726000  0.69628000  1.0
  C  C109  1  0.70739000  0.55274000  0.19627000  1.0
  C  C110  1  0.20742000  0.55276000  0.30374000  1.0
  C  C111  1  0.29265000  0.44727000  0.80372000  1.0
  N  N112  1  0.73089000  0.50515000  0.84555000  1.0
  N  N113  1  0.76910000  0.49485000  0.34554000  1.0
  N  N114  1  0.26913000  0.49487000  0.15447000  1.0
  N  N115  1  0.23091000  0.50515000  0.65445000  1.0
  N  N116  1  0.61576000  0.76588000  0.95268000  1.0
  N  N117  1  0.88428000  0.23412000  0.45269000  1.0
  N  N118  1  0.38427000  0.23411000  0.04732000  1.0
  N  N119  1  0.11572000  0.76587000  0.54732000  1.0
  O  O120  1  0.65175000  0.67081000  0.77492000  1.0
  O  O121  1  0.84827000  0.32921000  0.27492000  1.0
  O  O122  1  0.34831000  0.32924000  0.22509000  1.0
  O  O123  1  0.15170000  0.67078000  0.72506000  1.0
  O  O124  1  0.62285000  0.59909000  0.63295000  1.0
  O  O125  1  0.87714000  0.40092000  0.13294000  1.0
  O  O126  1  0.37719000  0.40095000  0.36706000  1.0
  O  O127  1  0.12288000  0.59910000  0.86705000  1.0
  O  O128  1  0.92685000  0.55102000  0.56842000  1.0
  O  O129  1  0.57320000  0.44898000  0.06839000  1.0
  O  O130  1  0.07318000  0.44901000  0.43160000  1.0
  O  O131  1  0.42688000  0.55105000  0.93157000  1.0
  O  O132  1  0.74824000  0.38973000  0.54229000  1.0
  O  O133  1  0.75176000  0.61028000  0.04228000  1.0
  O  O134  1  0.25177000  0.61031000  0.45773000  1.0
  O  O135  1  0.24827000  0.38975000  0.95772000  1.0
  O  O136  1  0.94287000  0.73230000  0.89345000  1.0
  O  O137  1  0.55707000  0.26767000  0.39343000  1.0
  O  O138  1  0.05713000  0.26770000  0.10657000  1.0
  O  O139  1  0.44282000  0.73228000  0.60656000  1.0
