# generated using pymatgen
data_ZnH25C34N2ClO6
_symmetry_space_group_name_H-M   'P 1'
_cell_length_a   14.62770000
_cell_length_b   16.04940000
_cell_length_c   27.92030000
_cell_angle_alpha   89.98360000
_cell_angle_beta   90.06520000
_cell_angle_gamma   89.94410000
_symmetry_Int_Tables_number   1
_chemical_formula_structural   ZnH25C34N2ClO6
_chemical_formula_sum   'Zn2 H50 C68 N4 Cl2 O12'
_cell_volume   6554.72416549
_cell_formula_units_Z   2
loop_
 _symmetry_equiv_pos_site_id
 _symmetry_equiv_pos_as_xyz
  1  'x, y, z'
loop_
 _atom_site_type_symbol
 _atom_site_label
 _atom_site_symmetry_multiplicity
 _atom_site_fract_x
 _atom_site_fract_y
 _atom_site_fract_z
 _atom_site_occupancy
  Zn  Zn0  1  0.40665000  0.49936000  0.50028000  1.0
  Zn  Zn1  1  0.59464000  0.49956000  0.50019000  1.0
  H  H2  1  0.36547000  0.43993000  0.35717000  1.0
  H  H3  1  0.34457000  0.43328000  0.26818000  1.0
  H  H4  1  0.42610000  0.28828000  0.12324000  1.0
  H  H5  1  0.35606000  0.47239000  0.64939000  1.0
  H  H6  1  0.35083000  0.47405000  0.73961000  1.0
  H  H7  1  0.54171000  0.30191000  0.88110000  1.0
  H  H8  1  0.51513000  0.29539000  0.96863000  1.0
  H  H9  1  0.60253000  0.55653000  0.25018000  1.0
  H  H10  1  0.43912000  0.70451000  0.12296000  1.0
  H  H11  1  0.39191000  0.70218000  0.96500000  1.0
  H  H12  1  0.64125000  0.53012000  0.65406000  1.0
  H  H13  1  0.40418000  0.70105000  0.87640000  1.0
  H  H14  1  0.42760000  0.70628000  0.03434000  1.0
  H  H15  1  0.39708000  0.92648000  0.55543000  1.0
  H  H16  1  0.56890000  0.92577000  0.56825000  1.0
  H  H17  1  0.39722000  0.07243000  0.55573000  1.0
  H  H18  1  0.56940000  0.07166000  0.56858000  1.0
  H  H19  1  0.64351000  0.07185000  0.51875000  1.0
  H  H20  1  0.35239000  0.07304000  0.49701000  1.0
  H  H21  1  0.64313000  0.92580000  0.51844000  1.0
  H  H22  1  0.35195000  0.92699000  0.49677000  1.0
  H  H23  1  0.45903000  0.07309000  0.42565000  1.0
  H  H24  1  0.57851000  0.07288000  0.43447000  1.0
  H  H25  1  0.45926000  0.92724000  0.42514000  1.0
  H  H26  1  0.57864000  0.92700000  0.43431000  1.0
  H  H27  1  0.08033000  0.37055000  0.51940000  1.0
  H  H28  1  0.92003000  0.36979000  0.51780000  1.0
  H  H29  1  0.92029000  0.59763000  0.54986000  1.0
  H  H30  1  0.08026000  0.59886000  0.54909000  1.0
  H  H31  1  0.92141000  0.49578000  0.57374000  1.0
  H  H32  1  0.08123000  0.49771000  0.57390000  1.0
  H  H33  1  0.92464000  0.62062000  0.46283000  1.0
  H  H34  1  0.07883000  0.61937000  0.46137000  1.0
  H  H35  1  0.92193000  0.38520000  0.45509000  1.0
  H  H36  1  0.08123000  0.38353000  0.45651000  1.0
  H  H37  1  0.76791000  0.50291000  0.70216000  1.0
  H  H38  1  0.74001000  0.61071000  0.70206000  1.0
  H  H39  1  0.80568000  0.56792000  0.74963000  1.0
  H  H40  1  0.64653000  0.58976000  0.77745000  1.0
  H  H41  1  0.67385000  0.48302000  0.77703000  1.0
  H  H42  1  0.32032000  0.21015000  0.09081000  1.0
  H  H43  1  0.25361000  0.26547000  0.04823000  1.0
  H  H44  1  0.29456000  0.16383000  0.03480000  1.0
  H  H45  1  0.38540000  0.26832000  0.99123000  1.0
  H  H46  1  0.45496000  0.21502000  0.03271000  1.0
  H  H47  1  0.74090000  0.57624000  0.28197000  1.0
  H  H48  1  0.67518000  0.66819000  0.29074000  1.0
  H  H49  1  0.77016000  0.64647000  0.32838000  1.0
  H  H50  1  0.63038000  0.61449000  0.37365000  1.0
  H  H51  1  0.69049000  0.52297000  0.36326000  1.0
  C  C52  1  0.49878000  0.33740000  0.50000000  1.0
  C  C53  1  0.50162000  0.49978000  0.40713000  1.0
  C  C54  1  0.49886000  0.66164000  0.49980000  1.0
  C  C55  1  0.50236000  0.50013000  0.59334000  1.0
  C  C56  1  0.45614000  0.41679000  0.17986000  1.0
  C  C57  1  0.45240000  0.57286000  0.18035000  1.0
  C  C58  1  0.55201000  0.52966000  0.27424000  1.0
  C  C59  1  0.56601000  0.53223000  0.32385000  1.0
  C  C60  1  0.41769000  0.46425000  0.33317000  1.0
  C  C61  1  0.40553000  0.46111000  0.28382000  1.0
  C  C62  1  0.47318000  0.49469000  0.25464000  1.0
  C  C63  1  0.44247000  0.49558000  0.10207000  1.0
  C  C64  1  0.44380000  0.41911000  0.12724000  1.0
  C  C65  1  0.43098000  0.34553000  0.10236000  1.0
  C  C66  1  0.44415000  0.57166000  0.12751000  1.0
  C  C67  1  0.49665000  0.49889000  0.35342000  1.0
  C  C68  1  0.49939000  0.50116000  0.64706000  1.0
  C  C69  1  0.46054000  0.41995000  0.97451000  1.0
  C  C70  1  0.42845000  0.57255000  0.97388000  1.0
  C  C71  1  0.44897000  0.49686000  0.94924000  1.0
  C  C72  1  0.49684000  0.35189000  0.94938000  1.0
  C  C73  1  0.51343000  0.35534000  0.90011000  1.0
  C  C74  1  0.49372000  0.42702000  0.87422000  1.0
  C  C75  1  0.46196000  0.49893000  0.89850000  1.0
  C  C76  1  0.44542000  0.57350000  0.87276000  1.0
  C  C77  1  0.45731000  0.57680000  0.82020000  1.0
  C  C78  1  0.50911000  0.42803000  0.82191000  1.0
  C  C79  1  0.41426000  0.48622000  0.72038000  1.0
  C  C80  1  0.41688000  0.48532000  0.67061000  1.0
  C  C81  1  0.57841000  0.51794000  0.67371000  1.0
  C  C82  1  0.57742000  0.51926000  0.72378000  1.0
  C  C83  1  0.49355000  0.50288000  0.74628000  1.0
  C  C84  1  0.44088000  0.41685000  0.02587000  1.0
  C  C85  1  0.43925000  0.49488000  0.05101000  1.0
  C  C86  1  0.43271000  0.57257000  0.02615000  1.0
  C  C87  1  0.42553000  0.34258000  0.05196000  1.0
  C  C88  1  0.43829000  0.64653000  0.10265000  1.0
  C  C89  1  0.41077000  0.64450000  0.94698000  1.0
  C  C90  1  0.41787000  0.64479000  0.89710000  1.0
  C  C91  1  0.43182000  0.64659000  0.05277000  1.0
  C  C92  1  0.40775000  0.04788000  0.51941000  1.0
  C  C93  1  0.57830000  0.04715000  0.53213000  1.0
  C  C94  1  0.57806000  0.95075000  0.53192000  1.0
  C  C95  1  0.40756000  0.95150000  0.51920000  1.0
  C  C96  1  0.49926000  0.75173000  0.49922000  1.0
  C  C97  1  0.50006000  0.08116000  0.50017000  1.0
  C  C98  1  0.49959000  0.91789000  0.49972000  1.0
  C  C99  1  0.51383000  0.95170000  0.44825000  1.0
  C  C100  1  0.51383000  0.04813000  0.44847000  1.0
  C  C101  1  0.49959000  0.82747000  0.49933000  1.0
  C  C102  1  0.50020000  0.17159000  0.50008000  1.0
  C  C103  1  0.49986000  0.24731000  0.50001000  1.0
  C  C104  1  0.94808000  0.40917000  0.48924000  1.0
  C  C105  1  0.05367000  0.40892000  0.48998000  1.0
  C  C106  1  0.94803000  0.53468000  0.54458000  1.0
  C  C107  1  0.05355000  0.53543000  0.54445000  1.0
  C  C108  1  0.91265000  0.49919000  0.49635000  1.0
  C  C109  1  0.08898000  0.49904000  0.49649000  1.0
  C  C110  1  0.05462000  0.55566000  0.45500000  1.0
  C  C111  1  0.94720000  0.55672000  0.45538000  1.0
  C  C112  1  0.18815000  0.49930000  0.49747000  1.0
  C  C113  1  0.81343000  0.49946000  0.49719000  1.0
  C  C114  1  0.66169000  0.53701000  0.75342000  1.0
  C  C115  1  0.74849000  0.55569000  0.72511000  1.0
  C  C116  1  0.39827000  0.26014000  0.02962000  1.0
  C  C117  1  0.31197000  0.22291000  0.05243000  1.0
  C  C118  1  0.65114000  0.57182000  0.34474000  1.0
  C  C119  1  0.71229000  0.61806000  0.30934000  1.0
  N  N120  1  0.46113000  0.49466000  0.20328000  1.0
  N  N121  1  0.48702000  0.50270000  0.79800000  1.0
  N  N122  1  0.26706000  0.49938000  0.50014000  1.0
  N  N123  1  0.73450000  0.49931000  0.49979000  1.0
  Cl  Cl124  1  0.89457000  0.52995000  0.40012000  1.0
  Cl  Cl125  1  0.10521000  0.52520000  0.39989000  1.0
  O  O126  1  0.42217000  0.37219000  0.49142000  1.0
  O  O127  1  0.57461000  0.37363000  0.50866000  1.0
  O  O128  1  0.42637000  0.51401000  0.42868000  1.0
  O  O129  1  0.57827000  0.48547000  0.42717000  1.0
  O  O130  1  0.42281000  0.62654000  0.50897000  1.0
  O  O131  1  0.57495000  0.62571000  0.49115000  1.0
  O  O132  1  0.42729000  0.48431000  0.57194000  1.0
  O  O133  1  0.57869000  0.51495000  0.57314000  1.0
  O  O134  1  0.46264000  0.35107000  0.20232000  1.0
  O  O135  1  0.53923000  0.36772000  0.79966000  1.0
  O  O136  1  0.45279000  0.63806000  0.20350000  1.0
  O  O137  1  0.44259000  0.63997000  0.79640000  1.0
