# generated using pymatgen
data_Nd2H18C9(NO)12
_symmetry_space_group_name_H-M   'P 1'
_cell_length_a   9.46867000
_cell_length_b   10.20860000
_cell_length_c   14.30510000
_cell_angle_alpha   69.47240000
_cell_angle_beta   75.23420000
_cell_angle_gamma   86.63020000
_symmetry_Int_Tables_number   1
_chemical_formula_structural   Nd2H18C9(NO)12
_chemical_formula_sum   'Nd4 H36 C18 N24 O24'
_cell_volume   1251.47744473
_cell_formula_units_Z   2
loop_
 _symmetry_equiv_pos_site_id
 _symmetry_equiv_pos_as_xyz
  1  'x, y, z'
loop_
 _atom_site_type_symbol
 _atom_site_label
 _atom_site_symmetry_multiplicity
 _atom_site_fract_x
 _atom_site_fract_y
 _atom_site_fract_z
 _atom_site_occupancy
  Nd  Nd0  1  0.62199000  0.94308000  0.36687000  1.0
  Nd  Nd1  1  0.37801000  0.05692000  0.63313000  1.0
  Nd  Nd2  1  0.87950000  0.80863000  0.11454000  1.0
  Nd  Nd3  1  0.12050000  0.19137000  0.88546000  1.0
  H  H4  1  0.16748000  0.82130000  0.45576000  1.0
  H  H5  1  0.83252000  0.17870000  0.54424000  1.0
  H  H6  1  0.07507000  0.97728000  0.41817000  1.0
  H  H7  1  0.92493000  0.02272000  0.58183000  1.0
  H  H8  1  0.34661000  0.71691000  0.27679000  1.0
  H  H9  1  0.65339000  0.28310000  0.72321000  1.0
  H  H10  1  0.40959000  0.54592000  0.30795000  1.0
  H  H11  1  0.59040000  0.45408000  0.69204000  1.0
  H  H12  1  0.99696000  0.16042000  0.25093000  1.0
  H  H13  1  0.00304000  0.83957000  0.74908000  1.0
  H  H14  1  0.85914000  0.25493000  0.19902000  1.0
  H  H15  1  0.14086000  0.74507000  0.80098000  1.0
  H  H16  1  0.60677000  0.25575000  0.35132000  1.0
  H  H17  1  0.39323000  0.74425000  0.64868000  1.0
  H  H18  1  0.56365000  0.25312000  0.24991000  1.0
  H  H19  1  0.43635000  0.74688000  0.75009000  1.0
  H  H20  1  0.81203000  0.73869000  0.50319000  1.0
  H  H21  1  0.18797000  0.26131000  0.49681000  1.0
  H  H22  1  0.72879000  0.63078000  0.47286000  1.0
  H  H23  1  0.27121000  0.36922000  0.52714000  1.0
  H  H24  1  0.69214000  0.99006000  0.97072000  1.0
  H  H25  1  0.30786000  0.00994000  0.02928000  1.0
  H  H26  1  0.61142000  0.00109000  0.08323000  1.0
  H  H27  1  0.38858000  0.99891000  0.91676000  1.0
  H  H28  1  0.17916000  0.67479000  0.04391000  1.0
  H  H29  1  0.82084000  0.32521000  0.95610000  1.0
  H  H30  1  0.20654000  0.84198000  0.01894000  1.0
  H  H31  1  0.79346000  0.15803000  0.98106000  1.0
  H  H32  1  0.06246000  0.84680000  0.25505000  1.0
  H  H33  1  0.93754000  0.15320000  0.74495000  1.0
  H  H34  1  0.92066000  0.75500000  0.33123000  1.0
  H  H35  1  0.07934000  0.24500000  0.66877000  1.0
  H  H36  1  0.81360000  0.51524000  0.19339000  1.0
  H  H37  1  0.18640000  0.48476000  0.80661000  1.0
  H  H38  1  0.98113000  0.50856000  0.18923000  1.0
  H  H39  1  0.01888000  0.49144000  0.81077000  1.0
  C  C40  1  0.27229000  0.96768000  0.30905000  1.0
  C  C41  1  0.72771000  0.03232000  0.69095000  1.0
  C  C42  1  0.18513000  0.93572000  0.41773000  1.0
  C  C43  1  0.81487000  0.06428000  0.58227000  1.0
  C  C44  1  0.24801000  0.98354000  0.48808000  1.0
  C  C45  1  0.75199000  0.01646000  0.51192000  1.0
  C  C46  1  0.39874000  0.63480000  0.42353000  1.0
  C  C47  1  0.60125000  0.36520000  0.57647000  1.0
  C  C48  1  0.42617000  0.64806000  0.31346000  1.0
  C  C49  1  0.57383000  0.35194000  0.68654000  1.0
  C  C50  1  0.57781000  0.70570000  0.24710000  1.0
  C  C51  1  0.42218000  0.29430000  0.75289000  1.0
  C  C52  1  0.07236000  0.31674000  0.10228000  1.0
  C  C53  1  0.92765000  0.68326000  0.89773000  1.0
  C  C54  1  0.96396000  0.20662000  0.17798000  1.0
  C  C55  1  0.03604000  0.79338000  0.82202000  1.0
  C  C56  1  0.93017000  0.08490000  0.15036000  1.0
  C  C57  1  0.06983000  0.91510000  0.84965000  1.0
  N  N58  1  0.41739000  0.99467000  0.27037000  1.0
  N  N59  1  0.58261000  0.00533000  0.72963000  1.0
  N  N60  1  0.44303000  0.01224000  0.16947000  1.0
  N  N61  1  0.55697000  0.98777000  0.83052000  1.0
  N  N62  1  0.31951000  0.99615000  0.14870000  1.0
  N  N63  1  0.68049000  0.00386000  0.85130000  1.0
  N  N64  1  0.20994000  0.96763000  0.23452000  1.0
  N  N65  1  0.79006000  0.03237000  0.76548000  1.0
  N  N66  1  0.43991000  0.72922000  0.45833000  1.0
  N  N67  1  0.56008000  0.27079000  0.54167000  1.0
  N  N68  1  0.39567000  0.67248000  0.56230000  1.0
  N  N69  1  0.60433000  0.32752000  0.43770000  1.0
  N  N70  1  0.33095000  0.55028000  0.58966000  1.0
  N  N71  1  0.66905000  0.44972000  0.41034000  1.0
  N  N72  1  0.33047000  0.52398000  0.50399000  1.0
  N  N73  1  0.66952000  0.47602000  0.49601000  1.0
  N  N74  1  0.13183000  0.33549000  0.00246000  1.0
  N  N75  1  0.86817000  0.66450000  0.99754000  1.0
  N  N76  1  0.20671000  0.46030000  0.96257000  1.0
  N  N77  1  0.79329000  0.53970000  0.03743000  1.0
  N  N78  1  0.19365000  0.51156000  0.03623000  1.0
  N  N79  1  0.80635000  0.48844000  0.96378000  1.0
  N  N80  1  0.11042000  0.42393000  0.12562000  1.0
  N  N81  1  0.88958000  0.57607000  0.87438000  1.0
  O  O82  1  0.65404000  0.77923000  0.27521000  1.0
  O  O83  1  0.34596000  0.22078000  0.72480000  1.0
  O  O84  1  0.38421000  0.01945000  0.46391000  1.0
  O  O85  1  0.61579000  0.98055000  0.53609000  1.0
  O  O86  1  0.16483000  0.98603000  0.57217000  1.0
  O  O87  1  0.83517000  0.01397000  0.42783000  1.0
  O  O88  1  0.62542000  0.68348000  0.16414000  1.0
  O  O89  1  0.37458000  0.31652000  0.83587000  1.0
  O  O90  1  0.81479000  0.01064000  0.20651000  1.0
  O  O91  1  0.18520000  0.98936000  0.79349000  1.0
  O  O92  1  0.01259000  0.05034000  0.07781000  1.0
  O  O93  1  0.98741000  0.94966000  0.92219000  1.0
  O  O94  1  0.61917000  0.20444000  0.29980000  1.0
  O  O95  1  0.38083000  0.79556000  0.70020000  1.0
  O  O96  1  0.76735000  0.73366000  0.45041000  1.0
  O  O97  1  0.23265000  0.26634000  0.54959000  1.0
  O  O98  1  0.70819000  0.99165000  0.03764000  1.0
  O  O99  1  0.29181000  0.00835000  0.96236000  1.0
  O  O100  1  0.13907000  0.75986000  0.06062000  1.0
  O  O101  1  0.86094000  0.24013000  0.93939000  1.0
  O  O102  1  0.99229000  0.77140000  0.26450000  1.0
  O  O103  1  0.00771000  0.22860000  0.73550000  1.0
  O  O104  1  0.88934000  0.55760000  0.21047000  1.0
  O  O105  1  0.11066000  0.44240000  0.78953000  1.0
