# generated using pymatgen
data_Co3H52C78(N7O8)2
_symmetry_space_group_name_H-M   'P 1'
_cell_length_a   16.04890000
_cell_length_b   16.93930000
_cell_length_c   26.68030000
_cell_angle_alpha   100.74100000
_cell_angle_beta   90.00000000
_cell_angle_gamma   89.99940000
_symmetry_Int_Tables_number   1
_chemical_formula_structural   Co3H52C78(N7O8)2
_chemical_formula_sum   'Co6 H104 C156 N28 O32'
_cell_volume   7126.15095898
_cell_formula_units_Z   2
loop_
 _symmetry_equiv_pos_site_id
 _symmetry_equiv_pos_as_xyz
  1  'x, y, z'
loop_
 _atom_site_type_symbol
 _atom_site_label
 _atom_site_symmetry_multiplicity
 _atom_site_fract_x
 _atom_site_fract_y
 _atom_site_fract_z
 _atom_site_occupancy
  Co  Co0  1  0.01786000  0.65611000  0.93363000  1.0
  Co  Co1  1  0.51786000  0.84390000  0.56636000  1.0
  Co  Co2  1  0.98214000  0.34390000  0.06637000  1.0
  Co  Co3  1  0.48215000  0.15610000  0.43364000  1.0
  Co  Co4  1  0.00000000  0.50002000  0.99999000  1.0
  Co  Co5  1  0.50000000  0.00000000  0.50000000  1.0
  H  H6  1  0.87605000  0.83644000  0.82522000  1.0
  H  H7  1  0.37605000  0.66357000  0.67478000  1.0
  H  H8  1  0.12395000  0.16357000  0.17478000  1.0
  H  H9  1  0.62395000  0.33642000  0.32523000  1.0
  H  H10  1  0.92514000  0.70781000  0.84748000  1.0
  H  H11  1  0.42513000  0.79219000  0.65250000  1.0
  H  H12  1  0.07485000  0.29219000  0.15251000  1.0
  H  H13  1  0.57486000  0.20780000  0.34750000  1.0
  H  H14  1  0.05488000  0.82773000  0.97320000  1.0
  H  H15  1  0.55486000  0.67226000  0.52678000  1.0
  H  H16  1  0.94513000  0.17228000  0.02679000  1.0
  H  H17  1  0.44513000  0.32771000  0.47322000  1.0
  H  H18  1  0.01183000  0.96100000  0.95690000  1.0
  H  H19  1  0.51183000  0.53901000  0.54310000  1.0
  H  H20  1  0.98817000  0.03901000  0.04309000  1.0
  H  H21  1  0.48817000  0.46098000  0.45691000  1.0
  H  H22  1  0.87824000  0.20968000  0.95148000  1.0
  H  H23  1  0.37825000  0.29031000  0.54852000  1.0
  H  H24  1  0.12177000  0.79032000  0.04852000  1.0
  H  H25  1  0.62175000  0.70967000  0.45148000  1.0
  H  H26  1  0.77518000  0.30605000  0.92785000  1.0
  H  H27  1  0.27519000  0.19395000  0.57215000  1.0
  H  H28  1  0.22482000  0.69395000  0.07215000  1.0
  H  H29  1  0.72479000  0.80605000  0.42786000  1.0
  H  H30  1  0.67675000  0.26217000  0.85545000  1.0
  H  H31  1  0.17676000  0.23782000  0.64454000  1.0
  H  H32  1  0.32324000  0.73783000  0.14455000  1.0
  H  H33  1  0.82323000  0.76217000  0.35546000  1.0
  H  H34  1  0.78236000  0.02569000  0.83150000  1.0
  H  H35  1  0.28237000  0.47430000  0.66850000  1.0
  H  H36  1  0.21764000  0.97431000  0.16850000  1.0
  H  H37  1  0.71764000  0.52569000  0.33150000  1.0
  H  H38  1  0.52900000  0.01791000  0.62069000  1.0
  H  H39  1  0.02901000  0.48210000  0.87930000  1.0
  H  H40  1  0.47099000  0.98208000  0.37931000  1.0
  H  H41  1  0.97098000  0.51790000  0.12070000  1.0
  H  H42  1  0.57796000  0.10066000  0.70202000  1.0
  H  H43  1  0.07797000  0.39934000  0.79797000  1.0
  H  H44  1  0.42205000  0.89932000  0.29798000  1.0
  H  H45  1  0.92203000  0.60066000  0.20203000  1.0
  H  H46  1  0.64857000  0.87910000  0.74939000  1.0
  H  H47  1  0.14858000  0.62089000  0.75060000  1.0
  H  H48  1  0.35143000  0.12090000  0.25062000  1.0
  H  H49  1  0.85144000  0.37910000  0.24940000  1.0
  H  H50  1  0.59502000  0.80575000  0.66654000  1.0
  H  H51  1  0.09503000  0.69426000  0.83344000  1.0
  H  H52  1  0.40497000  0.19425000  0.33347000  1.0
  H  H53  1  0.90497000  0.30574000  0.16656000  1.0
  H  H54  1  0.64940000  0.88220000  0.37684000  1.0
  H  H55  1  0.14941000  0.61779000  0.12316000  1.0
  H  H56  1  0.35058000  0.11780000  0.62316000  1.0
  H  H57  1  0.85059000  0.38223000  0.87684000  1.0
  H  H58  1  0.73087000  0.82799000  0.29710000  1.0
  H  H59  1  0.23088000  0.67200000  0.20290000  1.0
  H  H60  1  0.26912000  0.17201000  0.70290000  1.0
  H  H61  1  0.76913000  0.32800000  0.79710000  1.0
  H  H62  1  0.78056000  0.06893000  0.27647000  1.0
  H  H63  1  0.28057000  0.43107000  0.22352000  1.0
  H  H64  1  0.21944000  0.93107000  0.72353000  1.0
  H  H65  1  0.71943000  0.56893000  0.77647000  1.0
  H  H66  1  0.69818000  0.12297000  0.35615000  1.0
  H  H67  1  0.19818000  0.37703000  0.14385000  1.0
  H  H68  1  0.30181000  0.87704000  0.64384000  1.0
  H  H69  1  0.80181000  0.62297000  0.85614000  1.0
  H  H70  1  0.18777000  0.45435000  0.97851000  1.0
  H  H71  1  0.68778000  0.04567000  0.52148000  1.0
  H  H72  1  0.81224000  0.54567000  0.02149000  1.0
  H  H73  1  0.31223000  0.95433000  0.47852000  1.0
  H  H74  1  0.33023000  0.40093000  0.99339000  1.0
  H  H75  1  0.83023000  0.09908000  0.50659000  1.0
  H  H76  1  0.66978000  0.59907000  0.00660000  1.0
  H  H77  1  0.16979000  0.90092000  0.49341000  1.0
  H  H78  1  0.43724000  0.63363000  0.99296000  1.0
  H  H79  1  0.93722000  0.86639000  0.50705000  1.0
  H  H80  1  0.56278000  0.36638000  0.00704000  1.0
  H  H81  1  0.06278000  0.13362000  0.49296000  1.0
  H  H82  1  0.29483000  0.68695000  0.97778000  1.0
  H  H83  1  0.79483000  0.81306000  0.52222000  1.0
  H  H84  1  0.70517000  0.31306000  0.02221000  1.0
  H  H85  1  0.20518000  0.18694000  0.47779000  1.0
  H  H86  1  0.86072000  0.62000000  0.10777000  1.0
  H  H87  1  0.36071000  0.88001000  0.39221000  1.0
  H  H88  1  0.13929000  0.38000000  0.89222000  1.0
  H  H89  1  0.63928000  0.11999000  0.60778000  1.0
  H  H90  1  0.79104000  0.69717000  0.18683000  1.0
  H  H91  1  0.29103000  0.80283000  0.31316000  1.0
  H  H92  1  0.20895000  0.30283000  0.81317000  1.0
  H  H93  1  0.70895000  0.19716000  0.68683000  1.0
  H  H94  1  0.88468000  0.91827000  0.15198000  1.0
  H  H95  1  0.38466000  0.58173000  0.34802000  1.0
  H  H96  1  0.11533000  0.08173000  0.84802000  1.0
  H  H97  1  0.61534000  0.41826000  0.65197000  1.0
  H  H98  1  0.95182000  0.84142000  0.07223000  1.0
  H  H99  1  0.45182000  0.65859000  0.42777000  1.0
  H  H100  1  0.04818000  0.15859000  0.92777000  1.0
  H  H101  1  0.54819000  0.34141000  0.57223000  1.0
  H  H102  1  0.87879000  0.97505000  0.84394000  1.0
  H  H103  1  0.37879000  0.52495000  0.65606000  1.0
  H  H104  1  0.12120000  0.02496000  0.15606000  1.0
  H  H105  1  0.62121000  0.47502000  0.34394000  1.0
  H  H106  1  0.67407000  0.00096000  0.80191000  1.0
  H  H107  1  0.17409000  0.49903000  0.69808000  1.0
  H  H108  1  0.32592000  0.99903000  0.19809000  1.0
  H  H109  1  0.82593000  0.50097000  0.30192000  1.0
  C  C110  1  0.89591000  0.05380000  0.91140000  1.0
  C  C111  1  0.39592000  0.44620000  0.58860000  1.0
  C  C112  1  0.10409000  0.94621000  0.08859000  1.0
  C  C113  1  0.60409000  0.55378000  0.41141000  1.0
  C  C114  1  0.93934000  0.91007000  0.88981000  1.0
  C  C115  1  0.43933000  0.58993000  0.61019000  1.0
  C  C116  1  0.06067000  0.08993000  0.11019000  1.0
  C  C117  1  0.56067000  0.41006000  0.38982000  1.0
  C  C118  1  0.91643000  0.83718000  0.85823000  1.0
  C  C119  1  0.41642000  0.66282000  0.64176000  1.0
  C  C120  1  0.08357000  0.16282000  0.14177000  1.0
  C  C121  1  0.58358000  0.33717000  0.35824000  1.0
  C  C122  1  0.94354000  0.76547000  0.87028000  1.0
  C  C123  1  0.44352000  0.73453000  0.62970000  1.0
  C  C124  1  0.05646000  0.23453000  0.12971000  1.0
  C  C125  1  0.55648000  0.26545000  0.37030000  1.0
  C  C126  1  0.01597000  0.83206000  0.94048000  1.0
  C  C127  1  0.51595000  0.66795000  0.55951000  1.0
  C  C128  1  0.98404000  0.16795000  0.05952000  1.0
  C  C129  1  0.48404000  0.33204000  0.44049000  1.0
  C  C130  1  0.99159000  0.90684000  0.93150000  1.0
  C  C131  1  0.49158000  0.59316000  0.56849000  1.0
  C  C132  1  0.00841000  0.09316000  0.06849000  1.0
  C  C133  1  0.50841000  0.40683000  0.43151000  1.0
  C  C134  1  0.83682000  0.11086000  0.89343000  1.0
  C  C135  1  0.33684000  0.38913000  0.60658000  1.0
  C  C136  1  0.16318000  0.88914000  0.10657000  1.0
  C  C137  1  0.66317000  0.61085000  0.39343000  1.0
  C  C138  1  0.83463000  0.19048000  0.92024000  1.0
  C  C139  1  0.33464000  0.30951000  0.57976000  1.0
  C  C140  1  0.16537000  0.80952000  0.07976000  1.0
  C  C141  1  0.66536000  0.69047000  0.42025000  1.0
  C  C142  1  0.77701000  0.24448000  0.90672000  1.0
  C  C143  1  0.27702000  0.25551000  0.59328000  1.0
  C  C144  1  0.22300000  0.75552000  0.09328000  1.0
  C  C145  1  0.72298000  0.74449000  0.40673000  1.0
  C  C146  1  0.72155000  0.22029000  0.86657000  1.0
  C  C147  1  0.22156000  0.27971000  0.63343000  1.0
  C  C148  1  0.27845000  0.77971000  0.13343000  1.0
  C  C149  1  0.77843000  0.72029000  0.36658000  1.0
  C  C150  1  0.72297000  0.14099000  0.83930000  1.0
  C  C151  1  0.22298000  0.35900000  0.66070000  1.0
  C  C152  1  0.27703000  0.85901000  0.16071000  1.0
  C  C153  1  0.77702000  0.64099000  0.33931000  1.0
  C  C154  1  0.78084000  0.08710000  0.85312000  1.0
  C  C155  1  0.28086000  0.41289000  0.64688000  1.0
  C  C156  1  0.21916000  0.91290000  0.14688000  1.0
  C  C157  1  0.71914000  0.58710000  0.35312000  1.0
  C  C158  1  0.55464000  0.98895000  0.65048000  1.0
  C  C159  1  0.05465000  0.51106000  0.84951000  1.0
  C  C160  1  0.44536000  0.01104000  0.34952000  1.0
  C  C161  1  0.94534000  0.48894000  0.15049000  1.0
  C  C162  1  0.58274000  0.03565000  0.69573000  1.0
  C  C163  1  0.08275000  0.46435000  0.80426000  1.0
  C  C164  1  0.41726000  0.96434000  0.30427000  1.0
  C  C165  1  0.91726000  0.53565000  0.19575000  1.0
  C  C166  1  0.61831000  0.99699000  0.73274000  1.0
  C  C167  1  0.11832000  0.50301000  0.76725000  1.0
  C  C168  1  0.38169000  0.00301000  0.26727000  1.0
  C  C169  1  0.88169000  0.49699000  0.23275000  1.0
  C  C170  1  0.62166000  0.91247000  0.72205000  1.0
  C  C171  1  0.12168000  0.58753000  0.77794000  1.0
  C  C172  1  0.37833000  0.08752000  0.27796000  1.0
  C  C173  1  0.87833000  0.41248000  0.22206000  1.0
  C  C174  1  0.59169000  0.87115000  0.67581000  1.0
  C  C175  1  0.09171000  0.62885000  0.82417000  1.0
  C  C176  1  0.40831000  0.12884000  0.32419000  1.0
  C  C177  1  0.90830000  0.37115000  0.17583000  1.0
  C  C178  1  0.66557000  0.11917000  0.79455000  1.0
  C  C179  1  0.16557000  0.38082000  0.70545000  1.0
  C  C180  1  0.33443000  0.88083000  0.20545000  1.0
  C  C181  1  0.83443000  0.61917000  0.29456000  1.0
  C  C182  1  0.61326000  0.03607000  0.41500000  1.0
  C  C183  1  0.11326000  0.46392000  0.08500000  1.0
  C  C184  1  0.38674000  0.96393000  0.58499000  1.0
  C  C185  1  0.88674000  0.53610000  0.91499000  1.0
  C  C186  1  0.66870000  0.00556000  0.37077000  1.0
  C  C187  1  0.16870000  0.49443000  0.12923000  1.0
  C  C188  1  0.33129000  0.99444000  0.62922000  1.0
  C  C189  1  0.83129000  0.50558000  0.87076000  1.0
  C  C190  1  0.67887000  0.92229000  0.35459000  1.0
  C  C191  1  0.17887000  0.57771000  0.14541000  1.0
  C  C192  1  0.32112000  0.07771000  0.64541000  1.0
  C  C193  1  0.82112000  0.42230000  0.85459000  1.0
  C  C194  1  0.72332000  0.89231000  0.31073000  1.0
  C  C195  1  0.22332000  0.60769000  0.18927000  1.0
  C  C196  1  0.27668000  0.10769000  0.68928000  1.0
  C  C197  1  0.77667000  0.39232000  0.81072000  1.0
  C  C198  1  0.75896000  0.94561000  0.28202000  1.0
  C  C199  1  0.25896000  0.55439000  0.21798000  1.0
  C  C200  1  0.24103000  0.05439000  0.71798000  1.0
  C  C201  1  0.74103000  0.44561000  0.78201000  1.0
  C  C202  1  0.75148000  0.02888000  0.29897000  1.0
  C  C203  1  0.25148000  0.47112000  0.20104000  1.0
  C  C204  1  0.24851000  0.97112000  0.70103000  1.0
  C  C205  1  0.74850000  0.52888000  0.79896000  1.0
  C  C206  1  0.70599000  0.05856000  0.34284000  1.0
  C  C207  1  0.20600000  0.44144000  0.15716000  1.0
  C  C208  1  0.29399000  0.94144000  0.65715000  1.0
  C  C209  1  0.79399000  0.55857000  0.84283000  1.0
  C  C210  1  0.15160000  0.60604000  0.96538000  1.0
  C  C211  1  0.65160000  0.89397000  0.53462000  1.0
  C  C212  1  0.84840000  0.39398000  0.03462000  1.0
  C  C213  1  0.34841000  0.10603000  0.46538000  1.0
  C  C214  1  0.23337000  0.57384000  0.97732000  1.0
  C  C215  1  0.73337000  0.92618000  0.52268000  1.0
  C  C216  1  0.76663000  0.42617000  0.02268000  1.0
  C  C217  1  0.26664000  0.07382000  0.47732000  1.0
  C  C218  1  0.24253000  0.49309000  0.98194000  1.0
  C  C219  1  0.74252000  0.00692000  0.51805000  1.0
  C  C220  1  0.75748000  0.50692000  0.01805000  1.0
  C  C221  1  0.25748000  0.99308000  0.48195000  1.0
  C  C222  1  0.32122000  0.46357000  0.99013000  1.0
  C  C223  1  0.82122000  0.03644000  0.50985000  1.0
  C  C224  1  0.67879000  0.53643000  0.00986000  1.0
  C  C225  1  0.17879000  0.96356000  0.49015000  1.0
  C  C226  1  0.39155000  0.51391000  0.99356000  1.0
  C  C227  1  0.89154000  0.98611000  0.50644000  1.0
  C  C228  1  0.60847000  0.48610000  0.00643000  1.0
  C  C229  1  0.10847000  0.01390000  0.49357000  1.0
  C  C230  1  0.38215000  0.59540000  0.98976000  1.0
  C  C231  1  0.88214000  0.90461000  0.51023000  1.0
  C  C232  1  0.61787000  0.40461000  0.01023000  1.0
  C  C233  1  0.11786000  0.09539000  0.48977000  1.0
  C  C234  1  0.30375000  0.62454000  0.98156000  1.0
  C  C235  1  0.80375000  0.87547000  0.51843000  1.0
  C  C236  1  0.69626000  0.37547000  0.01843000  1.0
  C  C237  1  0.19626000  0.12453000  0.48157000  1.0
  C  C238  1  0.95198000  0.67754000  0.03969000  1.0
  C  C239  1  0.45198000  0.82248000  0.46030000  1.0
  C  C240  1  0.04802000  0.32248000  0.96031000  1.0
  C  C241  1  0.54802000  0.17752000  0.53969000  1.0
  C  C242  1  0.91097000  0.72611000  0.08596000  1.0
  C  C243  1  0.41096000  0.77391000  0.41403000  1.0
  C  C244  1  0.08903000  0.27391000  0.91404000  1.0
  C  C245  1  0.58903000  0.22609000  0.58596000  1.0
  C  C246  1  0.86526000  0.68513000  0.11792000  1.0
  C  C247  1  0.36525000  0.81488000  0.38207000  1.0
  C  C248  1  0.13475000  0.31488000  0.88208000  1.0
  C  C249  1  0.63474000  0.18512000  0.61792000  1.0
  C  C250  1  0.82673000  0.72728000  0.16117000  1.0
  C  C251  1  0.32672000  0.77273000  0.33882000  1.0
  C  C252  1  0.17327000  0.27272000  0.83883000  1.0
  C  C253  1  0.67328000  0.22727000  0.66117000  1.0
  C  C254  1  0.83454000  0.81126000  0.17391000  1.0
  C  C255  1  0.33453000  0.68875000  0.32609000  1.0
  C  C256  1  0.16547000  0.18875000  0.82609000  1.0
  C  C257  1  0.66547000  0.31125000  0.67391000  1.0
  C  C258  1  0.88014000  0.85302000  0.14193000  1.0
  C  C259  1  0.38013000  0.64699000  0.35807000  1.0
  C  C260  1  0.11986000  0.14699000  0.85808000  1.0
  C  C261  1  0.61987000  0.35301000  0.64192000  1.0
  C  C262  1  0.91733000  0.81043000  0.09802000  1.0
  C  C263  1  0.41732000  0.68958000  0.40198000  1.0
  C  C264  1  0.08267000  0.18958000  0.90198000  1.0
  C  C265  1  0.58267000  0.31042000  0.59802000  1.0
  N  N266  1  0.99222000  0.76216000  0.91106000  1.0
  N  N267  1  0.49220000  0.73785000  0.58893000  1.0
  N  N268  1  0.00779000  0.23785000  0.08894000  1.0
  N  N269  1  0.50779000  0.26215000  0.41107000  1.0
  N  N270  1  0.90723000  0.98111000  0.87836000  1.0
  N  N271  1  0.40724000  0.51889000  0.62164000  1.0
  N  N272  1  0.09277000  0.01888000  0.12163000  1.0
  N  N273  1  0.59277000  0.48110000  0.37837000  1.0
  N  N274  1  0.65243000  0.03707000  0.77847000  1.0
  N  N275  1  0.15243000  0.46292000  0.72152000  1.0
  N  N276  1  0.34757000  0.96292000  0.22153000  1.0
  N  N277  1  0.84757000  0.53708000  0.27848000  1.0
  N  N278  1  0.55829000  0.90787000  0.63986000  1.0
  N  N279  1  0.05831000  0.59213000  0.86013000  1.0
  N  N280  1  0.44171000  0.09211000  0.36014000  1.0
  N  N281  1  0.94170000  0.40787000  0.13988000  1.0
  N  N282  1  0.46843000  0.47742000  0.00046000  1.0
  N  N283  1  0.96843000  0.02258000  0.49954000  1.0
  N  N284  1  0.53158000  0.52258000  0.99953000  1.0
  N  N285  1  0.03158000  0.97742000  0.50047000  1.0
  N  N286  1  0.79264000  0.84490000  0.21893000  1.0
  N  N287  1  0.29263000  0.65510000  0.28107000  1.0
  N  N288  1  0.20736000  0.15510000  0.78107000  1.0
  N  N289  1  0.70736000  0.34490000  0.71893000  1.0
  N  N290  1  0.80315000  0.91932000  0.23594000  1.0
  N  N291  1  0.30315000  0.58069000  0.26406000  1.0
  N  N292  1  0.19685000  0.08069000  0.76406000  1.0
  N  N293  1  0.69684000  0.41931000  0.73594000  1.0
  O  O294  1  0.92995000  0.06961000  0.95351000  1.0
  O  O295  1  0.42995000  0.43038000  0.54649000  1.0
  O  O296  1  0.07006000  0.93039000  0.04648000  1.0
  O  O297  1  0.57005000  0.56961000  0.45352000  1.0
  O  O298  1  0.63435000  0.17032000  0.77314000  1.0
  O  O299  1  0.13435000  0.32967000  0.72685000  1.0
  O  O300  1  0.36565000  0.82967000  0.22686000  1.0
  O  O301  1  0.86563000  0.67032000  0.27315000  1.0
  O  O302  1  0.59533000  0.11124000  0.42305000  1.0
  O  O303  1  0.09532000  0.38876000  0.07696000  1.0
  O  O304  1  0.40467000  0.88876000  0.57695000  1.0
  O  O305  1  0.90468000  0.61126000  0.92304000  1.0
  O  O306  1  0.58449000  0.98549000  0.44020000  1.0
  O  O307  1  0.08449000  0.51451000  0.05981000  1.0
  O  O308  1  0.41551000  0.01450000  0.55979000  1.0
  O  O309  1  0.91551000  0.48551000  0.94019000  1.0
  O  O310  1  0.14582000  0.67661000  0.95542000  1.0
  O  O311  1  0.64583000  0.82340000  0.54457000  1.0
  O  O312  1  0.85417000  0.32341000  0.04458000  1.0
  O  O313  1  0.35417000  0.17660000  0.45543000  1.0
  O  O314  1  0.08545000  0.56168000  0.96150000  1.0
  O  O315  1  0.58546000  0.93833000  0.53850000  1.0
  O  O316  1  0.91454000  0.43834000  0.03850000  1.0
  O  O317  1  0.41454000  0.06166000  0.46150000  1.0
  O  O318  1  0.94689000  0.60163000  0.03654000  1.0
  O  O319  1  0.44690000  0.89838000  0.46346000  1.0
  O  O320  1  0.05311000  0.39839000  0.96346000  1.0
  O  O321  1  0.55310000  0.10161000  0.53653000  1.0
  O  O322  1  0.98759000  0.71424000  0.00811000  1.0
  O  O323  1  0.48758000  0.78577000  0.49188000  1.0
  O  O324  1  0.01243000  0.28577000  0.99188000  1.0
  O  O325  1  0.51242000  0.21422000  0.50812000  1.0
