# generated using pymatgen
data_CdH5C10N3O4
_symmetry_space_group_name_H-M   'P 1'
_cell_length_a   7.48036000
_cell_length_b   12.12660061
_cell_length_c   13.17948584
_cell_angle_alpha   84.98742458
_cell_angle_beta   73.51130131
_cell_angle_gamma   72.05562194
_symmetry_Int_Tables_number   1
_chemical_formula_structural   CdH5C10N3O4
_chemical_formula_sum   'Cd4 H20 C40 N12 O16'
_cell_volume   1090.59990886
_cell_formula_units_Z   4
loop_
 _symmetry_equiv_pos_site_id
 _symmetry_equiv_pos_as_xyz
  1  'x, y, z'
loop_
 _atom_site_type_symbol
 _atom_site_label
 _atom_site_symmetry_multiplicity
 _atom_site_fract_x
 _atom_site_fract_y
 _atom_site_fract_z
 _atom_site_occupancy
  Cd  Cd0  1  0.76765000  0.01496000  0.35204000  1.0
  Cd  Cd1  1  0.13453000  0.98494000  0.64825000  1.0
  Cd  Cd2  1  0.53326000  0.48516000  0.85192000  1.0
  Cd  Cd3  1  0.86974000  0.51493000  0.14811000  1.0
  H  H4  1  0.45996000  0.22344000  0.06669000  1.0
  H  H5  1  0.75052000  0.77595000  0.93341000  1.0
  H  H6  1  0.43417000  0.27650000  0.56662000  1.0
  H  H7  1  0.27609000  0.72363000  0.43323000  1.0
  H  H8  1  0.05443000  0.12838000  0.37480000  1.0
  H  H9  1  0.55757000  0.87212000  0.62546000  1.0
  H  H10  1  0.93378000  0.37185000  0.87447000  1.0
  H  H11  1  0.17922000  0.62815000  0.12546000  1.0
  H  H12  1  0.28036000  0.17722000  0.45625000  1.0
  H  H13  1  0.91355000  0.82319000  0.54354000  1.0
  H  H14  1  0.20814000  0.32286000  0.95627000  1.0
  H  H15  1  0.48631000  0.67707000  0.04387000  1.0
  H  H16  1  0.36034000  0.36645000  0.40712000  1.0
  H  H17  1  0.13374000  0.63380000  0.59201000  1.0
  H  H18  1  0.47677000  0.13346000  0.90747000  1.0
  H  H19  1  0.51705000  0.86645000  0.09261000  1.0
  H  H20  1  0.20583000  0.49692000  0.28018000  1.0
  H  H21  1  0.98306000  0.50303000  0.71891000  1.0
  H  H22  1  0.45241000  0.00271000  0.78075000  1.0
  H  H23  1  0.23549000  0.99714000  0.21948000  1.0
  C  C24  1  0.55119000  0.12759000  0.18041000  1.0
  C  C25  1  0.85941000  0.87210000  0.81992000  1.0
  C  C26  1  0.42986000  0.37257000  0.68020000  1.0
  C  C27  1  0.48136000  0.62756000  0.31978000  1.0
  C  C28  1  0.67535000  0.20142000  0.17885000  1.0
  C  C29  1  0.05586000  0.79836000  0.82137000  1.0
  C  C30  1  0.62764000  0.29867000  0.67877000  1.0
  C  C31  1  0.60386000  0.70151000  0.32129000  1.0
  C  C32  1  0.69600000  0.30163000  0.12007000  1.0
  C  C33  1  0.11808000  0.69810000  0.88004000  1.0
  C  C34  1  0.74810000  0.19832000  0.62010000  1.0
  C  C35  1  0.56559000  0.80179000  0.38002000  1.0
  C  C36  1  0.60531000  0.36402000  0.03789000  1.0
  C  C37  1  0.00781000  0.63549000  0.96214000  1.0
  C  C38  1  0.71952000  0.13581000  0.53803000  1.0
  C  C39  1  0.39265000  0.86428000  0.46213000  1.0
  C  C40  1  0.87759000  0.26541000  0.22861000  1.0
  C  C41  1  0.37184000  0.73470000  0.77161000  1.0
  C  C42  1  0.89382000  0.23461000  0.72845000  1.0
  C  C43  1  0.85586000  0.76551000  0.27156000  1.0
  C  C44  1  0.00933000  0.28696000  0.28319000  1.0
  C  C45  1  0.57966000  0.71325000  0.71681000  1.0
  C  C46  1  0.04694000  0.21303000  0.78316000  1.0
  C  C47  1  0.04214000  0.78706000  0.21680000  1.0
  C  C48  1  0.08892000  0.20979000  0.35513000  1.0
  C  C49  1  0.65374000  0.79056000  0.64487000  1.0
  C  C50  1  0.04936000  0.29030000  0.85504000  1.0
  C  C51  1  0.19367000  0.70973000  0.14498000  1.0
  C  C52  1  0.21482000  0.23782000  0.40165000  1.0
  C  C53  1  0.85411000  0.76254000  0.59814000  1.0
  C  C54  1  0.20309000  0.26225000  0.90169000  1.0
  C  C55  1  0.36608000  0.73777000  0.09837000  1.0
  C  C56  1  0.26006000  0.34166000  0.37451000  1.0
  C  C57  1  0.97615000  0.65855000  0.62489000  1.0
  C  C58  1  0.35187000  0.15825000  0.87476000  1.0
  C  C59  1  0.38413000  0.84172000  0.12529000  1.0
  C  C60  1  0.17400000  0.41492000  0.30285000  1.0
  C  C61  1  0.89189000  0.58516000  0.69651000  1.0
  C  C62  1  0.33892000  0.08489000  0.80321000  1.0
  C  C63  1  0.22640000  0.91508000  0.19689000  1.0
  N  N64  1  0.79124000  0.17959000  0.24692000  1.0
  N  N65  1  0.21789000  0.82038000  0.75330000  1.0
  N  N66  1  0.72187000  0.32053000  0.74676000  1.0
  N  N67  1  0.78787000  0.67966000  0.25322000  1.0
  N  N68  1  0.82449000  0.33894000  0.15199000  1.0
  N  N69  1  0.31583000  0.66107000  0.84817000  1.0
  N  N70  1  0.91397000  0.16099000  0.65196000  1.0
  N  N71  1  0.72610000  0.83906000  0.34815000  1.0
  N  N72  1  0.05119000  0.38906000  0.25867000  1.0
  N  N73  1  0.69915000  0.61104000  0.74102000  1.0
  N  N74  1  0.19050000  0.11079000  0.75887000  1.0
  N  N75  1  0.05945000  0.88922000  0.24119000  1.0
  O  O76  1  0.54657000  0.04551000  0.24431000  1.0
  O  O77  1  0.83647000  0.95431000  0.75615000  1.0
  O  O78  1  0.34318000  0.45469000  0.74407000  1.0
  O  O79  1  0.54089000  0.54533000  0.25604000  1.0
  O  O80  1  0.44205000  0.15029000  0.11394000  1.0
  O  O81  1  0.70658000  0.84918000  0.88628000  1.0
  O  O82  1  0.34344000  0.34984000  0.61374000  1.0
  O  O83  1  0.30560000  0.65038000  0.38609000  1.0
  O  O84  1  0.49170000  0.32330000  0.00604000  1.0
  O  O85  1  0.82159000  0.67600000  0.99386000  1.0
  O  O86  1  0.56516000  0.17648000  0.50624000  1.0
  O  O87  1  0.24717000  0.82356000  0.49389000  1.0
  O  O88  1  0.64745000  0.45587000  0.99839000  1.0
  O  O89  1  0.10241000  0.54378000  0.00171000  1.0
  O  O90  1  0.85337000  0.04395000  0.49848000  1.0
  O  O91  1  0.39523000  0.95615000  0.50163000  1.0
