# generated using pymatgen
data_Hf3H10C34(BrO)16
_symmetry_space_group_name_H-M   'P 1'
_cell_length_a   15.51320000
_cell_length_b   17.36080000
_cell_length_c   17.59870000
_cell_angle_alpha   86.49100000
_cell_angle_beta   89.95620000
_cell_angle_gamma   89.72400000
_symmetry_Int_Tables_number   1
_chemical_formula_structural   Hf3H10C34(BrO)16
_chemical_formula_sum   'Hf6 H20 C68 Br32 O32'
_cell_volume   4730.76794806
_cell_formula_units_Z   2
loop_
 _symmetry_equiv_pos_site_id
 _symmetry_equiv_pos_as_xyz
  1  'x, y, z'
loop_
 _atom_site_type_symbol
 _atom_site_label
 _atom_site_symmetry_multiplicity
 _atom_site_fract_x
 _atom_site_fract_y
 _atom_site_fract_z
 _atom_site_occupancy
  Hf  Hf0  1  0.01231000  0.14295000  0.99207000  1.0
  Hf  Hf1  1  0.01774000  0.99379000  0.86672000  1.0
  Hf  Hf2  1  0.00745000  0.00961000  0.14828000  1.0
  Hf  Hf3  1  0.00040000  0.85547000  0.02380000  1.0
  Hf  Hf4  1  0.84975000  0.00417000  0.00301000  1.0
  Hf  Hf5  1  0.16951000  0.99610000  0.01149000  1.0
  H  H6  1  0.14405000  0.11054000  0.89009000  1.0
  H  H7  1  0.88418000  0.88653000  0.89965000  1.0
  H  H8  1  0.12063000  0.88046000  0.13567000  1.0
  H  H9  1  0.88771000  0.12632000  0.10835000  1.0
  H  H10  1  0.06830000  0.88774000  0.77732000  1.0
  H  H11  1  0.01000000  0.82537000  0.87017000  1.0
  H  H12  1  0.94960000  0.75242000  0.12696000  1.0
  H  H13  1  0.05148000  0.94040000  0.28391000  1.0
  H  H14  1  0.95689000  0.11554000  0.24371000  1.0
  H  H15  1  0.96073000  0.28200000  0.04961000  1.0
  H  H16  1  0.96464000  0.23495000  0.87488000  1.0
  H  H17  1  0.02024000  0.14637000  0.82237000  1.0
  H  H18  1  0.95216000  0.92292000  0.27375000  1.0
  H  H19  1  0.06088000  0.26905000  0.06778000  1.0
  H  H20  1  0.08405000  0.10580000  0.76235000  1.0
  H  H21  1  0.05337000  0.75440000  0.91935000  1.0
  H  H22  1  0.66450000  0.50372000  0.96205000  1.0
  H  H23  1  0.35116000  0.49851000  0.97655000  1.0
  H  H24  1  0.35592000  0.01500000  0.50970000  1.0
  H  H25  1  0.67194000  0.99900000  0.50308000  1.0
  C  C26  1  0.80758000  0.18742000  0.97533000  1.0
  C  C27  1  0.23173000  0.99308000  0.83858000  1.0
  C  C28  1  0.81337000  0.00845000  0.82422000  1.0
  C  C29  1  0.21759000  0.18012000  0.00468000  1.0
  C  C30  1  0.22063000  0.00931000  0.18450000  1.0
  C  C31  1  0.79127000  0.82630000  0.02089000  1.0
  C  C32  1  0.20562000  0.81378000  0.01184000  1.0
  C  C33  1  0.79552000  0.00639000  0.17690000  1.0
  C  C34  1  0.55401000  0.43228000  0.94368000  1.0
  C  C35  1  0.46355000  0.43114000  0.95749000  1.0
  C  C36  1  0.42092000  0.50052000  0.96931000  1.0
  C  C37  1  0.46152000  0.57142000  0.97472000  1.0
  C  C38  1  0.55264000  0.57099000  0.97530000  1.0
  C  C39  1  0.59467000  0.50239000  0.95985000  1.0
  C  C40  1  0.47032000  0.00717000  0.57815000  1.0
  C  C41  1  0.56164000  0.00191000  0.57600000  1.0
  C  C42  1  0.60175000  0.00164000  0.50464000  1.0
  C  C43  1  0.55756000  0.00619000  0.43513000  1.0
  C  C44  1  0.46642000  0.01223000  0.43665000  1.0
  C  C45  1  0.42611000  0.01201000  0.50829000  1.0
  C  C46  1  0.28824000  0.07648000  0.29483000  1.0
  C  C47  1  0.29224000  0.01916000  0.24159000  1.0
  C  C48  1  0.36089000  0.96619000  0.24763000  1.0
  C  C49  1  0.40938000  0.95911000  0.31526000  1.0
  C  C50  1  0.41017000  0.01767000  0.36720000  1.0
  C  C51  1  0.35146000  0.07963000  0.35176000  1.0
  C  C52  1  0.65972000  0.93869000  0.34745000  1.0
  C  C53  1  0.61253000  0.00537000  0.36491000  1.0
  C  C54  1  0.62639000  0.07304000  0.31775000  1.0
  C  C55  1  0.68451000  0.07392000  0.25637000  1.0
  C  C56  1  0.72666000  0.00634000  0.23774000  1.0
  C  C57  1  0.71172000  0.93837000  0.28243000  1.0
  C  C58  1  0.36145000  0.06974000  0.66505000  1.0
  C  C59  1  0.41711000  0.00743000  0.64964000  1.0
  C  C60  1  0.41619000  0.94402000  0.70376000  1.0
  C  C61  1  0.36580000  0.94334000  0.77050000  1.0
  C  C62  1  0.30339000  0.00056000  0.77937000  1.0
  C  C63  1  0.30539000  0.06513000  0.72759000  1.0
  C  C64  1  0.63406000  0.06797000  0.68300000  1.0
  C  C65  1  0.62172000  0.00077000  0.64296000  1.0
  C  C66  1  0.67744000  0.93758000  0.66175000  1.0
  C  C67  1  0.73889000  0.94025000  0.72012000  1.0
  C  C68  1  0.74755000  0.00648000  0.76092000  1.0
  C  C69  1  0.69610000  0.07077000  0.74067000  1.0
  C  C70  1  0.31575000  0.71742000  0.06528000  1.0
  C  C71  1  0.27047000  0.74975000  0.00222000  1.0
  C  C72  1  0.28295000  0.71890000  0.93144000  1.0
  C  C73  1  0.34712000  0.66310000  0.92181000  1.0
  C  C74  1  0.40114000  0.63763000  0.98313000  1.0
  C  C75  1  0.38290000  0.66462000  0.05541000  1.0
  C  C76  1  0.66104000  0.76951000  0.95705000  1.0
  C  C77  1  0.72111000  0.76522000  0.01715000  1.0
  C  C78  1  0.72113000  0.69765000  0.06600000  1.0
  C  C79  1  0.66376000  0.63678000  0.05513000  1.0
  C  C80  1  0.60782000  0.63860000  0.99166000  1.0
  C  C81  1  0.61083000  0.70495000  0.94174000  1.0
  C  C82  1  0.27427000  0.29846000  0.93148000  1.0
  C  C83  1  0.28256000  0.24469000  0.99426000  1.0
  C  C84  1  0.35131000  0.25226000  0.04511000  1.0
  C  C85  1  0.40945000  0.31376000  0.03414000  1.0
  C  C86  1  0.40490000  0.36409000  0.96852000  1.0
  C  C87  1  0.33666000  0.35518000  0.91721000  1.0
  C  C88  1  0.65181000  0.23128000  0.95382000  1.0
  C  C89  1  0.74082000  0.24783000  0.95235000  1.0
  C  C90  1  0.76298000  0.32226000  0.91885000  1.0
  C  C91  1  0.70039000  0.37941000  0.90524000  1.0
  C  C92  1  0.61117000  0.36723000  0.92502000  1.0
  C  C93  1  0.59052000  0.28738000  0.92802000  1.0
  Br  Br94  1  0.35639000  0.16903000  0.40775000  1.0
  Br  Br95  1  0.19947000  0.15145000  0.28552000  1.0
  Br  Br96  1  0.46422000  0.86354000  0.34000000  1.0
  Br  Br97  1  0.39126000  0.90509000  0.16656000  1.0
  Br  Br98  1  0.76219000  0.84595000  0.25031000  1.0
  Br  Br99  1  0.66031000  0.84878000  0.41387000  1.0
  Br  Br100  1  0.71215000  0.16754000  0.19998000  1.0
  Br  Br101  1  0.57051000  0.16532000  0.34188000  1.0
  Br  Br102  1  0.23866000  0.15285000  0.75229000  1.0
  Br  Br103  1  0.35822000  0.16048000  0.60003000  1.0
  Br  Br104  1  0.38610000  0.86787000  0.85020000  1.0
  Br  Br105  1  0.47773000  0.85349000  0.68343000  1.0
  Br  Br106  1  0.71718000  0.16319000  0.78904000  1.0
  Br  Br107  1  0.57088000  0.15832000  0.65401000  1.0
  Br  Br108  1  0.81387000  0.85564000  0.74424000  1.0
  Br  Br109  1  0.67482000  0.84767000  0.60628000  1.0
  Br  Br110  1  0.44533000  0.62332000  0.14078000  1.0
  Br  Br111  1  0.27404000  0.73630000  0.16358000  1.0
  Br  Br112  1  0.35706000  0.61930000  0.82634000  1.0
  Br  Br113  1  0.20624000  0.74820000  0.85035000  1.0
  Br  Br114  1  0.55262000  0.70358000  0.84762000  1.0
  Br  Br115  1  0.64762000  0.86065000  0.89374000  1.0
  Br  Br116  1  0.66347000  0.54865000  0.12488000  1.0
  Br  Br117  1  0.79824000  0.68767000  0.15015000  1.0
  Br  Br118  1  0.33669000  0.41441000  0.82336000  1.0
  Br  Br119  1  0.17854000  0.29397000  0.86521000  1.0
  Br  Br120  1  0.49645000  0.32881000  0.10719000  1.0
  Br  Br121  1  0.36326000  0.18091000  0.12988000  1.0
  Br  Br122  1  0.49292000  0.25044000  0.87720000  1.0
  Br  Br123  1  0.60415000  0.13669000  0.99320000  1.0
  Br  Br124  1  0.72793000  0.46811000  0.83963000  1.0
  Br  Br125  1  0.87694000  0.34778000  0.88488000  1.0
  O  O126  1  0.88476000  0.21040000  0.98419000  1.0
  O  O127  1  0.78462000  0.11757000  0.98381000  1.0
  O  O128  1  0.15624000  0.98692000  0.81131000  1.0
  O  O129  1  0.25178000  0.99456000  0.90825000  1.0
  O  O130  1  0.89137000  0.01156000  0.80405000  1.0
  O  O131  1  0.78317000  0.00469000  0.89166000  1.0
  O  O132  1  0.13941000  0.20212000  0.01215000  1.0
  O  O133  1  0.24425000  0.11175000  0.00170000  1.0
  O  O134  1  0.01437000  0.20103000  0.88399000  1.0
  O  O135  1  0.00358000  0.24565000  0.07143000  1.0
  O  O136  1  0.02790000  0.09936000  0.78720000  1.0
  O  O137  1  0.01767000  0.89326000  0.80911000  1.0
  O  O138  1  0.94672000  0.05865000  0.94243000  1.0
  O  O139  1  0.10623000  0.07865000  0.92289000  1.0
  O  O140  1  0.14525000  0.00227000  0.21124000  1.0
  O  O141  1  0.24220000  0.00582000  0.11501000  1.0
  O  O142  1  0.86733000  0.79964000  0.02242000  1.0
  O  O143  1  0.76992000  0.89724000  0.01820000  1.0
  O  O144  1  0.12789000  0.79320000  0.01319000  1.0
  O  O145  1  0.23605000  0.88110000  0.01740000  1.0
  O  O146  1  0.87165000  0.00011000  0.20292000  1.0
  O  O147  1  0.77239000  0.01379000  0.10777000  1.0
  O  O148  1  0.00896000  0.91919000  0.24998000  1.0
  O  O149  1  0.00730000  0.09208000  0.22215000  1.0
  O  O150  1  0.00184000  0.78098000  0.11418000  1.0
  O  O151  1  0.00179000  0.78702000  0.91719000  1.0
  O  O152  1  0.09184000  0.91684000  0.09981000  1.0
  O  O153  1  0.93564000  0.94556000  0.07180000  1.0
  O  O154  1  0.07919000  0.06201000  0.06337000  1.0
  O  O155  1  0.91945000  0.91813000  0.93113000  1.0
  O  O156  1  0.92324000  0.09187000  0.08001000  1.0
  O  O157  1  0.07804000  0.93796000  0.95709000  1.0
