# generated using pymatgen
data_NdH10(C3O2)4
_symmetry_space_group_name_H-M   'P 1'
_cell_length_a   6.20968000
_cell_length_b   10.10120000
_cell_length_c   10.23350000
_cell_angle_alpha   102.46800000
_cell_angle_beta   101.77600000
_cell_angle_gamma   92.14140000
_symmetry_Int_Tables_number   1
_chemical_formula_structural   NdH10(C3O2)4
_chemical_formula_sum   'Nd2 H20 C24 O16'
_cell_volume   611.33871812
_cell_formula_units_Z   2
loop_
 _symmetry_equiv_pos_site_id
 _symmetry_equiv_pos_as_xyz
  1  'x, y, z'
loop_
 _atom_site_type_symbol
 _atom_site_label
 _atom_site_symmetry_multiplicity
 _atom_site_fract_x
 _atom_site_fract_y
 _atom_site_fract_z
 _atom_site_occupancy
  Nd  Nd0  1  0.49238000  0.75402000  0.51226000  1.0
  Nd  Nd1  1  0.50762000  0.24598000  0.48774000  1.0
  H  H2  1  0.92224000  0.85891000  0.45297000  1.0
  H  H3  1  0.07776000  0.14109000  0.54703000  1.0
  H  H4  1  0.15363000  0.48952000  0.41051000  1.0
  H  H5  1  0.84636000  0.51048000  0.58949000  1.0
  H  H6  1  0.02006000  0.61619000  0.45072000  1.0
  H  H7  1  0.97993000  0.38381000  0.54928000  1.0
  H  H8  1  0.77096000  0.96122000  0.39122000  1.0
  H  H9  1  0.22904000  0.03878000  0.60878000  1.0
  H  H10  1  0.25720000  0.02548000  0.83782000  1.0
  H  H11  1  0.74280000  0.97452000  0.16218000  1.0
  H  H12  1  0.34999000  0.08269000  0.09414000  1.0
  H  H13  1  0.65000000  0.91731000  0.90585000  1.0
  H  H14  1  0.07548000  0.68735000  0.09594000  1.0
  H  H15  1  0.92451000  0.31265000  0.90406000  1.0
  H  H16  1  0.96323000  0.63307000  0.83989000  1.0
  H  H17  1  0.03676000  0.36693000  0.16011000  1.0
  H  H18  1  0.67097000  0.68754000  0.20075000  1.0
  H  H19  1  0.32902000  0.31246000  0.79925000  1.0
  H  H20  1  0.62390000  0.72246000  0.96214000  1.0
  H  H21  1  0.37610000  0.27754000  0.03786000  1.0
  C  C22  1  0.04766000  0.79250000  0.67005000  1.0
  C  C23  1  0.95234000  0.20750000  0.32995000  1.0
  C  C24  1  0.10476000  0.82574000  0.82266000  1.0
  C  C25  1  0.89523000  0.17426000  0.17734000  1.0
  C  C26  1  0.21495000  0.95219000  0.89445000  1.0
  C  C27  1  0.78506000  0.04780000  0.10555000  1.0
  C  C28  1  0.26819000  0.98407000  0.03677000  1.0
  C  C29  1  0.73181000  0.01593000  0.96323000  1.0
  C  C30  1  0.22029000  0.88828000  0.10946000  1.0
  C  C31  1  0.77971000  0.11172000  0.89054000  1.0
  C  C32  1  0.11073000  0.76132000  0.03814000  1.0
  C  C33  1  0.88926000  0.23869000  0.96186000  1.0
  C  C34  1  0.04943000  0.73125000  0.89568000  1.0
  C  C35  1  0.95056000  0.26875000  0.10432000  1.0
  C  C36  1  0.29249000  0.92215000  0.26238000  1.0
  C  C37  1  0.70751000  0.07784000  0.73762000  1.0
  C  C38  1  0.54794000  0.45795000  0.27426000  1.0
  C  C39  1  0.45207000  0.54205000  0.72574000  1.0
  C  C40  1  0.52464000  0.48002000  0.13278000  1.0
  C  C41  1  0.47536000  0.51998000  0.86722000  1.0
  C  C42  1  0.59629000  0.60594000  0.11256000  1.0
  C  C43  1  0.40370000  0.39406000  0.88744000  1.0
  C  C44  1  0.57071000  0.62541000  0.98015000  1.0
  C  C45  1  0.42929000  0.37459000  0.01985000  1.0
  O  O46  1  0.15595000  0.85571000  0.60402000  1.0
  O  O47  1  0.84406000  0.14430000  0.39599000  1.0
  O  O48  1  0.89057000  0.70122000  0.60622000  1.0
  O  O49  1  0.10943000  0.29878000  0.39377000  1.0
  O  O50  1  0.37155000  0.04335000  0.32196000  1.0
  O  O51  1  0.62845000  0.95665000  0.67805000  1.0
  O  O52  1  0.27615000  0.82806000  0.32552000  1.0
  O  O53  1  0.72386000  0.17194000  0.67448000  1.0
  O  O54  1  0.59642000  0.56172000  0.37466000  1.0
  O  O55  1  0.40358000  0.43827000  0.62534000  1.0
  O  O56  1  0.51894000  0.33746000  0.28943000  1.0
  O  O57  1  0.48108000  0.66253000  0.71056000  1.0
  O  O58  1  0.14995000  0.58754000  0.41393000  1.0
  O  O59  1  0.85005000  0.41246000  0.58607000  1.0
  O  O60  1  0.77015000  0.86727000  0.40433000  1.0
  O  O61  1  0.22985000  0.13273000  0.59567000  1.0
