# generated using pymatgen
data_FeH8C10(SN3)2
_symmetry_space_group_name_H-M   'P 1'
_cell_length_a   8.23822000
_cell_length_b   9.06865826
_cell_length_c   9.39925000
_cell_angle_alpha   118.83596570
_cell_angle_beta   90.81480000
_cell_angle_gamma   90.12259760
_symmetry_Int_Tables_number   1
_chemical_formula_structural   FeH8C10(SN3)2
_chemical_formula_sum   'Fe2 H16 C20 S4 N12'
_cell_volume   615.04788348
_cell_formula_units_Z   2
loop_
 _symmetry_equiv_pos_site_id
 _symmetry_equiv_pos_as_xyz
  1  'x, y, z'
loop_
 _atom_site_type_symbol
 _atom_site_label
 _atom_site_symmetry_multiplicity
 _atom_site_fract_x
 _atom_site_fract_y
 _atom_site_fract_z
 _atom_site_occupancy
  Fe  Fe0  1  0.00965000  0.49368000  0.98894000  1.0
  Fe  Fe1  1  0.51058000  0.00501000  0.01135000  1.0
  H  H2  1  0.24736000  0.29631000  0.08328000  1.0
  H  H3  1  0.74449000  0.20256000  0.91613000  1.0
  H  H4  1  0.74339000  0.71291000  0.91663000  1.0
  H  H5  1  0.24805000  0.78630000  0.08383000  1.0
  H  H6  1  0.23977000  0.99543000  0.49245000  1.0
  H  H7  1  0.75540000  0.50750000  0.50685000  1.0
  H  H8  1  0.75492000  0.00034000  0.50742000  1.0
  H  H9  1  0.24017000  0.49838000  0.49302000  1.0
  H  H10  1  0.03349000  0.21480000  0.64738000  1.0
  H  H11  1  0.54448000  0.28491000  0.35202000  1.0
  H  H12  1  0.45701000  0.94230000  0.65535000  1.0
  H  H13  1  0.96792000  0.55876000  0.34411000  1.0
  H  H14  1  0.96730000  0.78669000  0.34487000  1.0
  H  H15  1  0.45747000  0.71467000  0.65624000  1.0
  H  H16  1  0.54431000  0.06721000  0.35228000  1.0
  H  H17  1  0.03367000  0.43268000  0.64765000  1.0
  C  C18  1  0.24748000  0.23157000  0.95156000  1.0
  C  C19  1  0.74922000  0.26800000  0.04784000  1.0
  C  C20  1  0.74838000  0.77966000  0.04835000  1.0
  C  C21  1  0.24806000  0.71983000  0.95210000  1.0
  C  C22  1  0.24313000  0.06358000  0.62465000  1.0
  C  C23  1  0.75475000  0.43736000  0.37471000  1.0
  C  C24  1  0.75427000  0.93807000  0.37527000  1.0
  C  C25  1  0.24348000  0.56199000  0.62522000  1.0
  C  C26  1  0.13063000  0.18708000  0.70974000  1.0
  C  C27  1  0.63981000  0.31286000  0.28981000  1.0
  C  C28  1  0.36030000  0.03196000  0.71334000  1.0
  C  C29  1  0.86930000  0.46876000  0.28596000  1.0
  C  C30  1  0.86868000  0.81809000  0.28663000  1.0
  C  C31  1  0.36073000  0.68249000  0.71408000  1.0
  C  C32  1  0.63944000  0.97713000  0.29016000  1.0
  C  C33  1  0.13095000  0.52288000  0.71010000  1.0
  C  C34  1  0.28772000  0.61889000  0.23865000  1.0
  C  C35  1  0.78187000  0.88209000  0.76492000  1.0
  C  C36  1  0.22237000  0.11890000  0.23791000  1.0
  C  C37  1  0.71569000  0.37941000  0.75874000  1.0
  S  S38  1  0.45849000  0.66805000  0.33679000  1.0
  S  S39  1  0.95141000  0.83492000  0.67073000  1.0
  S  S40  1  0.04717000  0.16165000  0.32211000  1.0
  S  S41  1  0.53918000  0.33619000  0.67098000  1.0
  N  N42  1  0.13839000  0.28088000  0.87404000  1.0
  N  N43  1  0.64293000  0.21854000  0.12564000  1.0
  N  N44  1  0.35558000  0.10931000  0.87685000  1.0
  N  N45  1  0.85976000  0.39106000  0.12229000  1.0
  N  N46  1  0.85888000  0.73184000  0.12305000  1.0
  N  N47  1  0.35618000  0.76823000  0.87765000  1.0
  N  N48  1  0.64234000  0.90688000  0.12591000  1.0
  N  N49  1  0.13886000  0.59287000  0.87432000  1.0
  N  N50  1  0.16302000  0.58109000  0.16309000  1.0
  N  N51  1  0.65814000  0.91860000  0.83774000  1.0
  N  N52  1  0.34983000  0.08560000  0.17207000  1.0
  N  N53  1  0.84417000  0.41320000  0.82715000  1.0
