# generated using pymatgen
data_Al2H17C24N3O10
_symmetry_space_group_name_H-M   'P 1'
_cell_length_a   6.66521000
_cell_length_b   16.94620000
_cell_length_c   19.72440000
_cell_angle_alpha   72.01500000
_cell_angle_beta   89.36030000
_cell_angle_gamma   89.68430000
_symmetry_Int_Tables_number   1
_chemical_formula_structural   Al2H17C24N3O10
_chemical_formula_sum   'Al4 H34 C48 N6 O20'
_cell_volume   2118.87397903
_cell_formula_units_Z   2
loop_
 _symmetry_equiv_pos_site_id
 _symmetry_equiv_pos_as_xyz
  1  'x, y, z'
loop_
 _atom_site_type_symbol
 _atom_site_label
 _atom_site_symmetry_multiplicity
 _atom_site_fract_x
 _atom_site_fract_y
 _atom_site_fract_z
 _atom_site_occupancy
  Al  Al0  1  0.12292000  0.49974000  0.50030000  1.0
  Al  Al1  1  0.62219000  0.49973000  0.49819000  1.0
  Al  Al2  1  0.60880000  0.00152000  0.99867000  1.0
  Al  Al3  1  0.10846000  0.99819000  0.99971000  1.0
  H  H4  1  0.57317000  0.20353000  0.81590000  1.0
  H  H5  1  0.06188000  0.80296000  0.19511000  1.0
  H  H6  1  0.02500000  0.18155000  0.79232000  1.0
  H  H7  1  0.52291000  0.80956000  0.19753000  1.0
  H  H8  1  0.16511000  0.41364000  0.32115000  1.0
  H  H9  1  0.08347000  0.58341000  0.67757000  1.0
  H  H10  1  0.59371000  0.31161000  0.40772000  1.0
  H  H11  1  0.65573000  0.68705000  0.59360000  1.0
  H  H12  1  0.42851000  0.20568000  0.36380000  1.0
  H  H13  1  0.81490000  0.79372000  0.63839000  1.0
  H  H14  1  0.42413000  0.12201000  0.28092000  1.0
  H  H15  1  0.81098000  0.87817000  0.72062000  1.0
  H  H16  1  0.57460000  0.08488000  0.17923000  1.0
  H  H17  1  0.65245000  0.91579000  0.82109000  1.0
  H  H18  1  0.13882000  0.18599000  0.08966000  1.0
  H  H19  1  0.08879000  0.81171000  0.90847000  1.0
  H  H20  1  0.32129000  0.37455000  0.22079000  1.0
  H  H21  1  0.92180000  0.62133000  0.77738000  1.0
  H  H22  1  0.47665000  0.32191000  0.13486000  1.0
  H  H23  1  0.37853000  0.24515000  0.10847000  1.0
  H  H24  1  0.75981000  0.67348000  0.86247000  1.0
  H  H25  1  0.85351000  0.75080000  0.88918000  1.0
  H  H26  1  0.40768000  0.26095000  0.70767000  1.0
  H  H27  1  0.50318000  0.34813000  0.64552000  1.0
  H  H28  1  0.90532000  0.73678000  0.29753000  1.0
  H  H29  1  0.01218000  0.65566000  0.36487000  1.0
  H  H30  1  0.16194000  0.35924000  0.68432000  1.0
  H  H31  1  0.07611000  0.30104000  0.76504000  1.0
  H  H32  1  0.66381000  0.63841000  0.30844000  1.0
  H  H33  1  0.56669000  0.69147000  0.22902000  1.0
  H  H34  1  0.37282000  0.40333000  0.48585000  1.0
  H  H35  1  0.86740000  0.59459000  0.51478000  1.0
  H  H36  1  0.35472000  0.10667000  0.95637000  1.0
  H  H37  1  0.85201000  0.89481000  0.04616000  1.0
  C  C38  1  0.36630000  0.58239000  0.57979000  1.0
  C  C39  1  0.88254000  0.41628000  0.41957000  1.0
  C  C40  1  0.37885000  0.61056000  0.38638000  1.0
  C  C41  1  0.86397000  0.38886000  0.61265000  1.0
  C  C42  1  0.71617000  0.21967000  0.78711000  1.0
  C  C43  1  0.20998000  0.78202000  0.21724000  1.0
  C  C44  1  0.87808000  0.17439000  0.81794000  1.0
  C  C45  1  0.36955000  0.82272000  0.17942000  1.0
  C  C46  1  0.70466000  0.28560000  0.71991000  1.0
  C  C47  1  0.20721000  0.71544000  0.28452000  1.0
  C  C48  1  0.87282000  0.32775000  0.68401000  1.0
  C  C49  1  0.37896000  0.67182000  0.31546000  1.0
  C  C50  1  0.03967000  0.37267000  0.32090000  1.0
  C  C51  1  0.20806000  0.62444000  0.67864000  1.0
  C  C52  1  0.88030000  0.36678000  0.36902000  1.0
  C  C53  1  0.36920000  0.63090000  0.63109000  1.0
  C  C54  1  0.71656000  0.31496000  0.37004000  1.0
  C  C55  1  0.53152000  0.68307000  0.63089000  1.0
  C  C56  1  0.71216000  0.26638000  0.32403000  1.0
  C  C57  1  0.53190000  0.73173000  0.67694000  1.0
  C  C58  1  0.87281000  0.27297000  0.27397000  1.0
  C  C59  1  0.36898000  0.72473000  0.72621000  1.0
  C  C60  1  0.03756000  0.32770000  0.27169000  1.0
  C  C61  1  0.20618000  0.66934000  0.72785000  1.0
  C  C62  1  0.55099000  0.21012000  0.32562000  1.0
  C  C63  1  0.69070000  0.78883000  0.67598000  1.0
  C  C64  1  0.54860000  0.16394000  0.27992000  1.0
  C  C65  1  0.68841000  0.83547000  0.72135000  1.0
  C  C66  1  0.70619000  0.17030000  0.22837000  1.0
  C  C67  1  0.52828000  0.82875000  0.77205000  1.0
  C  C68  1  0.87073000  0.22521000  0.22613000  1.0
  C  C69  1  0.36627000  0.77287000  0.77378000  1.0
  C  C70  1  0.03067000  0.23165000  0.17554000  1.0
  C  C71  1  0.20384000  0.76592000  0.82352000  1.0
  C  C72  1  0.19611000  0.28753000  0.17427000  1.0
  C  C73  1  0.04084000  0.70909000  0.82428000  1.0
  C  C74  1  0.19513000  0.33352000  0.22107000  1.0
  C  C75  1  0.04617000  0.66294000  0.77764000  1.0
  C  C76  1  0.70083000  0.12554000  0.17930000  1.0
  C  C77  1  0.52843000  0.87422000  0.82063000  1.0
  C  C78  1  0.85733000  0.13216000  0.13022000  1.0
  C  C79  1  0.36936000  0.86714000  0.86883000  1.0
  C  C80  1  0.02151000  0.18376000  0.12911000  1.0
  C  C81  1  0.20798000  0.81435000  0.86960000  1.0
  C  C82  1  0.35123000  0.88926000  0.11123000  1.0
  C  C83  1  0.86866000  0.10936000  0.88717000  1.0
  C  C84  1  0.37147000  0.91547000  0.92062000  1.0
  C  C85  1  0.85008000  0.08447000  0.07800000  1.0
  N  N86  1  0.34908000  0.29531000  0.12473000  1.0
  N  N87  1  0.88572000  0.70075000  0.87310000  1.0
  N  N88  1  0.51155000  0.30694000  0.69565000  1.0
  N  N89  1  0.01951000  0.69592000  0.31440000  1.0
  N  N90  1  0.06724000  0.31291000  0.71130000  1.0
  N  N91  1  0.56924000  0.68517000  0.28210000  1.0
  O  O92  1  0.55004000  0.57858000  0.40934000  1.0
  O  O93  1  0.03292000  0.41004000  0.58060000  1.0
  O  O94  1  0.19691000  0.55535000  0.56731000  1.0
  O  O95  1  0.71447000  0.42808000  0.44647000  1.0
  O  O96  1  0.21357000  0.59278000  0.42228000  1.0
  O  O97  1  0.69272000  0.41688000  0.58647000  1.0
  O  O98  1  0.05080000  0.44343000  0.43311000  1.0
  O  O99  1  0.53254000  0.57123000  0.55126000  1.0
  O  O100  1  0.37229000  0.44785000  0.50713000  1.0
  O  O101  1  0.87210000  0.55151000  0.49185000  1.0
  O  O102  1  0.20577000  0.92201000  0.95138000  1.0
  O  O103  1  0.67922000  0.05794000  0.06673000  1.0
  O  O104  1  0.51699000  0.91101000  0.07722000  1.0
  O  O105  1  0.03634000  0.07395000  0.90949000  1.0
  O  O106  1  0.53943000  0.94532000  0.93058000  1.0
  O  O107  1  0.01539000  0.07503000  0.04831000  1.0
  O  O108  1  0.70148000  0.09295000  0.92109000  1.0
  O  O109  1  0.17916000  0.91983000  0.08966000  1.0
  O  O110  1  0.35681000  0.05120000  0.98998000  1.0
  O  O111  1  0.85760000  0.94807000  0.00927000  1.0
