# generated using pymatgen
data_CoH3(CO2)3
_symmetry_space_group_name_H-M   'P 1'
_cell_length_a   7.46054000
_cell_length_b   8.01539000
_cell_length_c   8.01534000
_cell_angle_alpha   66.70850000
_cell_angle_beta   62.66950000
_cell_angle_gamma   62.67050000
_symmetry_Int_Tables_number   1
_chemical_formula_structural   CoH3(CO2)3
_chemical_formula_sum   'Co2 H6 C6 O12'
_cell_volume   367.78214893
_cell_formula_units_Z   2
loop_
 _symmetry_equiv_pos_site_id
 _symmetry_equiv_pos_as_xyz
  1  'x, y, z'
loop_
 _atom_site_type_symbol
 _atom_site_label
 _atom_site_symmetry_multiplicity
 _atom_site_fract_x
 _atom_site_fract_y
 _atom_site_fract_z
 _atom_site_occupancy
  Co  Co0  1  0.00000000  0.00000000  0.00000000  1.0
  Co  Co1  1  0.50000000  0.50000000  0.50000000  1.0
  H  H2  1  0.34691000  0.74678000  0.74678000  1.0
  H  H3  1  0.65310000  0.25321000  0.25322000  1.0
  H  H4  1  0.82480000  0.66042000  0.16802000  1.0
  H  H5  1  0.17523000  0.83199000  0.33956000  1.0
  H  H6  1  0.17520000  0.33959000  0.83198000  1.0
  H  H7  1  0.82476000  0.16800000  0.66044000  1.0
  C  C8  1  0.20128000  0.74527000  0.74527000  1.0
  C  C9  1  0.79872000  0.25473000  0.25473000  1.0
  C  C10  1  0.73098000  0.75850000  0.26702000  1.0
  C  C11  1  0.26902000  0.73297000  0.24150000  1.0
  C  C12  1  0.26902000  0.24150000  0.73298000  1.0
  C  C13  1  0.73098000  0.26703000  0.75850000  1.0
  O  O14  1  0.77155000  0.90894000  0.22894000  1.0
  O  O15  1  0.41930000  0.57867000  0.28093000  1.0
  O  O16  1  0.58067000  0.71909000  0.42130000  1.0
  O  O17  1  0.22845000  0.77103000  0.09107000  1.0
  O  O18  1  0.22845000  0.09106000  0.77106000  1.0
  O  O19  1  0.58071000  0.42133000  0.71906000  1.0
  O  O20  1  0.41933000  0.28091000  0.57870000  1.0
  O  O21  1  0.77155000  0.22896000  0.90893000  1.0
  O  O22  1  0.01708000  0.84201000  0.84201000  1.0
  O  O23  1  0.22025000  0.64404000  0.64404000  1.0
  O  O24  1  0.77975000  0.35596000  0.35595000  1.0
  O  O25  1  0.98292000  0.15799000  0.15799000  1.0
