# generated using pymatgen
data_LaH21(C9O2)3
_symmetry_space_group_name_H-M   'P 1'
_cell_length_a   7.82846000
_cell_length_b   13.36778321
_cell_length_c   13.36920000
_cell_angle_alpha   116.28255313
_cell_angle_beta   101.25500000
_cell_angle_gamma   101.25705533
_symmetry_Int_Tables_number   1
_chemical_formula_structural   LaH21(C9O2)3
_chemical_formula_sum   'La2 H42 C54 O12'
_cell_volume   1165.51226416
_cell_formula_units_Z   2
loop_
 _symmetry_equiv_pos_site_id
 _symmetry_equiv_pos_as_xyz
  1  'x, y, z'
loop_
 _atom_site_type_symbol
 _atom_site_label
 _atom_site_symmetry_multiplicity
 _atom_site_fract_x
 _atom_site_fract_y
 _atom_site_fract_z
 _atom_site_occupancy
  La  La0  1  0.00627000  0.00004000  0.00004000  1.0
  La  La1  1  0.50623000  0.00000000  0.99996000  1.0
  H  H2  1  0.61243000  0.17679000  0.82384000  1.0
  H  H3  1  0.43576000  0.64708000  0.82322000  1.0
  H  H4  1  0.78854000  0.17606000  0.35301000  1.0
  H  H5  1  0.93553000  0.82305000  0.64699000  1.0
  H  H6  1  0.28859000  0.35295000  0.17616000  1.0
  H  H7  1  0.11253000  0.82386000  0.17678000  1.0
  H  H8  1  0.79336000  0.03557000  0.64828000  1.0
  H  H9  1  0.75794000  0.61275000  0.96441000  1.0
  H  H10  1  0.14496000  0.35163000  0.38726000  1.0
  H  H11  1  0.25771000  0.96437000  0.61274000  1.0
  H  H12  1  0.64508000  0.38729000  0.35172000  1.0
  H  H13  1  0.29353000  0.64834000  0.03559000  1.0
  H  H14  1  0.52891000  0.25814000  0.71350000  1.0
  H  H15  1  0.27086000  0.45535000  0.74192000  1.0
  H  H16  1  0.81530000  0.28653000  0.54470000  1.0
  H  H17  1  0.77060000  0.74183000  0.45530000  1.0
  H  H18  1  0.31541000  0.54464000  0.28650000  1.0
  H  H19  1  0.02895000  0.71344000  0.25809000  1.0
  H  H20  1  0.36652000  0.29338000  0.56053000  1.0
  H  H21  1  0.07327000  0.26715000  0.70675000  1.0
  H  H22  1  0.80620000  0.43960000  0.73298000  1.0
  H  H23  1  0.57322000  0.70662000  0.26702000  1.0
  H  H24  1  0.30599000  0.73285000  0.43947000  1.0
  H  H25  1  0.86651000  0.56040000  0.29325000  1.0
  H  H26  1  0.35369000  0.17473000  0.35143000  1.0
  H  H27  1  0.17905000  0.17678000  0.82552000  1.0
  H  H28  1  0.00250000  0.64868000  0.82327000  1.0
  H  H29  1  0.67924000  0.82542000  0.17673000  1.0
  H  H30  1  0.50225000  0.82329000  0.64857000  1.0
  H  H31  1  0.85354000  0.35127000  0.17449000  1.0
  H  H32  1  0.50929000  0.02144000  0.29865000  1.0
  H  H33  1  0.48794000  0.27733000  0.97879000  1.0
  H  H34  1  0.21075000  0.70139000  0.72265000  1.0
  H  H35  1  0.98811000  0.97875000  0.27737000  1.0
  H  H36  1  0.71064000  0.72279000  0.70135000  1.0
  H  H37  1  0.00915000  0.29854000  0.02121000  1.0
  H  H38  1  0.67499000  0.98684000  0.45195000  1.0
  H  H39  1  0.68826000  0.46516000  0.01326000  1.0
  H  H40  1  0.22311000  0.54794000  0.53481000  1.0
  H  H41  1  0.18830000  0.01313000  0.46519000  1.0
  H  H42  1  0.72304000  0.53489000  0.54806000  1.0
  H  H43  1  0.17500000  0.45190000  0.98674000  1.0
  C  C44  1  0.79704000  0.08564000  0.86083000  1.0
  C  C45  1  0.71157000  0.77522000  0.91437000  1.0
  C  C46  1  0.93603000  0.13919000  0.22479000  1.0
  C  C47  1  0.21124000  0.91440000  0.77521000  1.0
  C  C48  1  0.43622000  0.22481000  0.13917000  1.0
  C  C49  1  0.29720000  0.86085000  0.08563000  1.0
  C  C50  1  0.69926000  0.12535000  0.78779000  1.0
  C  C51  1  0.57405000  0.66244000  0.87461000  1.0
  C  C52  1  0.91139000  0.21214000  0.33761000  1.0
  C  C53  1  0.07377000  0.87453000  0.66239000  1.0
  C  C54  1  0.41147000  0.33756000  0.21221000  1.0
  C  C55  1  0.19944000  0.78783000  0.12539000  1.0
  C  C56  1  0.70904000  0.09214000  0.67846000  1.0
  C  C57  1  0.61706000  0.58633000  0.90785000  1.0
  C  C58  1  0.03059000  0.32146000  0.41373000  1.0
  C  C59  1  0.11686000  0.90773000  0.58627000  1.0
  C  C60  1  0.53059000  0.41368000  0.32154000  1.0
  C  C61  1  0.20921000  0.67848000  0.09215000  1.0
  C  C62  1  0.61305000  0.11901000  0.59346000  1.0
  C  C63  1  0.49420000  0.47448000  0.88104000  1.0
  C  C64  1  0.01967000  0.40648000  0.52557000  1.0
  C  C65  1  0.99409000  0.88090000  0.47441000  1.0
  C  C66  1  0.51959000  0.52555000  0.40654000  1.0
  C  C67  1  0.11316000  0.59344000  0.11896000  1.0
  C  C68  1  0.52463000  0.20566000  0.62270000  1.0
  C  C69  1  0.31911000  0.41705000  0.79442000  1.0
  C  C70  1  0.90199000  0.37731000  0.58303000  1.0
  C  C71  1  0.81897000  0.79428000  0.41697000  1.0
  C  C72  1  0.40192000  0.58296000  0.37730000  1.0
  C  C73  1  0.02469000  0.62263000  0.20558000  1.0
  C  C74  1  0.43337000  0.22570000  0.53636000  1.0
  C  C75  1  0.20779000  0.31067000  0.77443000  1.0
  C  C76  1  0.89723000  0.46371000  0.68943000  1.0
  C  C77  1  0.70779000  0.77428000  0.31057000  1.0
  C  C78  1  0.39701000  0.68934000  0.46364000  1.0
  C  C79  1  0.93336000  0.53624000  0.22557000  1.0
  C  C80  1  0.42656000  0.15954000  0.41909000  1.0
  C  C81  1  0.26710000  0.25963000  0.84070000  1.0
  C  C82  1  0.00771000  0.58099000  0.74046000  1.0
  C  C83  1  0.76725000  0.84053000  0.25954000  1.0
  C  C84  1  0.50747000  0.74045000  0.58092000  1.0
  C  C85  1  0.92640000  0.41893000  0.15930000  1.0
  C  C86  1  0.51364000  0.07342000  0.38936000  1.0
  C  C87  1  0.44028000  0.31605000  0.92680000  1.0
  C  C88  1  0.12442000  0.61066000  0.68400000  1.0
  C  C89  1  0.94042000  0.92666000  0.31600000  1.0
  C  C90  1  0.62429000  0.68406000  0.61065000  1.0
  C  C91  1  0.01348000  0.38925000  0.07320000  1.0
  C  C92  1  0.60704000  0.05401000  0.47553000  1.0
  C  C93  1  0.55314000  0.42159000  0.94611000  1.0
  C  C94  1  0.13161000  0.52441000  0.57843000  1.0
  C  C95  1  0.05318000  0.94598000  0.42157000  1.0
  C  C96  1  0.63151000  0.57848000  0.52447000  1.0
  C  C97  1  0.10703000  0.47548000  0.05389000  1.0
  O  O98  1  0.76303000  0.10387000  0.95801000  1.0
  O  O99  1  0.65937000  0.85417000  0.89607000  1.0
  O  O100  1  0.80491000  0.04192000  0.14585000  1.0
  O  O101  1  0.15906000  0.89607000  0.85415000  1.0
  O  O102  1  0.30502000  0.14586000  0.04198000  1.0
  O  O103  1  0.26330000  0.95810000  0.10393000  1.0
  O  O104  1  0.91532000  0.03478000  0.83155000  1.0
  O  O105  1  0.88066000  0.79684000  0.96536000  1.0
  O  O106  1  0.08345000  0.16862000  0.20313000  1.0
  O  O107  1  0.38031000  0.96548000  0.79687000  1.0
  O  O108  1  0.58377000  0.20322000  0.16844000  1.0
  O  O109  1  0.41530000  0.83148000  0.03464000  1.0
