# generated using pymatgen
data_Dy2CuH14C10S(N2O9)2
_symmetry_space_group_name_H-M   'P 1'
_cell_length_a   6.99621000
_cell_length_b   10.22160000
_cell_length_c   15.41330000
_cell_angle_alpha   80.87930000
_cell_angle_beta   80.20500000
_cell_angle_gamma   77.80830000
_symmetry_Int_Tables_number   1
_chemical_formula_structural   Dy2CuH14C10S(N2O9)2
_chemical_formula_sum   'Dy4 Cu2 H28 C20 S2 N8 O36'
_cell_volume   1053.04462686
_cell_formula_units_Z   2
loop_
 _symmetry_equiv_pos_site_id
 _symmetry_equiv_pos_as_xyz
  1  'x, y, z'
loop_
 _atom_site_type_symbol
 _atom_site_label
 _atom_site_symmetry_multiplicity
 _atom_site_fract_x
 _atom_site_fract_y
 _atom_site_fract_z
 _atom_site_occupancy
  Dy  Dy0  1  0.35226000  0.21434000  0.26463000  1.0
  Dy  Dy1  1  0.64774000  0.78566000  0.73537000  1.0
  Dy  Dy2  1  0.74083000  0.81075000  0.37060000  1.0
  Dy  Dy3  1  0.25917000  0.18925000  0.62940000  1.0
  Cu  Cu4  1  0.38984000  0.36770000  0.96981000  1.0
  Cu  Cu5  1  0.61016000  0.63230000  0.03019000  1.0
  H  H6  1  0.95081000  0.71763000  0.14074000  1.0
  H  H7  1  0.04919000  0.28238000  0.85926000  1.0
  H  H8  1  0.85349000  0.92486000  0.00752000  1.0
  H  H9  1  0.14651000  0.07514000  0.99249000  1.0
  H  H10  1  0.69690000  0.30997000  0.29675000  1.0
  H  H11  1  0.30309000  0.69003000  0.70325000  1.0
  H  H12  1  0.67089000  0.38034000  0.19509000  1.0
  H  H13  1  0.32910000  0.61966000  0.80491000  1.0
  H  H14  1  0.03645000  0.20686000  0.15499000  1.0
  H  H15  1  0.96354000  0.79314000  0.84501000  1.0
  H  H16  1  0.14425000  0.05880000  0.18779000  1.0
  H  H17  1  0.85574000  0.94119000  0.81221000  1.0
  H  H18  1  0.00857000  0.14238000  0.39096000  1.0
  H  H19  1  0.99143000  0.85762000  0.60904000  1.0
  H  H20  1  0.19908000  0.06961000  0.43720000  1.0
  H  H21  1  0.80092000  0.93038000  0.56279000  1.0
  H  H22  1  0.51484000  0.70086000  0.25187000  1.0
  H  H23  1  0.48517000  0.29914000  0.74812000  1.0
  H  H24  1  0.39071000  0.72634000  0.34592000  1.0
  H  H25  1  0.60929000  0.27366000  0.65408000  1.0
  H  H26  1  0.13078000  0.85580000  0.28026000  1.0
  H  H27  1  0.86922000  0.14420000  0.71973000  1.0
  H  H28  1  0.09397000  0.93646000  0.36257000  1.0
  H  H29  1  0.90603000  0.06353000  0.63743000  1.0
  H  H30  1  0.85418000  0.64507000  0.55698000  1.0
  H  H31  1  0.14582000  0.35493000  0.44302000  1.0
  H  H32  1  0.94722000  0.60066000  0.45910000  1.0
  H  H33  1  0.05278000  0.39934000  0.54090000  1.0
  C  C34  1  0.06699000  0.50560000  0.29559000  1.0
  C  C35  1  0.93301000  0.49440000  0.70441000  1.0
  C  C36  1  0.11355000  0.51976000  0.19821000  1.0
  C  C37  1  0.88645000  0.48024000  0.80179000  1.0
  C  C38  1  0.05104000  0.62282000  0.13202000  1.0
  C  C39  1  0.94896000  0.37719000  0.86798000  1.0
  C  C40  1  0.15001000  0.57481000  0.05382000  1.0
  C  C41  1  0.84998000  0.42520000  0.94618000  1.0
  C  C42  1  0.15103000  0.62378000  0.95917000  1.0
  C  C43  1  0.84897000  0.37622000  0.04083000  1.0
  C  C44  1  0.64789000  0.16812000  0.88090000  1.0
  C  C45  1  0.35211000  0.83188000  0.11910000  1.0
  C  C46  1  0.64851000  0.12105000  0.97619000  1.0
  C  C47  1  0.35150000  0.87895000  0.02381000  1.0
  C  C48  1  0.74438000  0.01062000  0.02863000  1.0
  C  C49  1  0.25563000  0.98938000  0.97137000  1.0
  C  C50  1  0.66248000  0.03596000  0.11564000  1.0
  C  C51  1  0.33752000  0.96404000  0.88436000  1.0
  C  C52  1  0.68932000  0.96103000  0.20279000  1.0
  C  C53  1  0.31068000  0.03897000  0.79721000  1.0
  S  S54  1  0.63821000  0.14311000  0.44835000  1.0
  S  S55  1  0.36179000  0.85689000  0.55165000  1.0
  N  N56  1  0.24216000  0.41589000  0.16108000  1.0
  N  N57  1  0.75783000  0.58411000  0.83892000  1.0
  N  N58  1  0.26288000  0.45129000  0.07386000  1.0
  N  N59  1  0.73711000  0.54871000  0.92614000  1.0
  N  N60  1  0.52100000  0.20348000  0.03054000  1.0
  N  N61  1  0.47901000  0.79652000  0.96946000  1.0
  N  N62  1  0.52742000  0.15402000  0.11487000  1.0
  N  N63  1  0.47258000  0.84598000  0.88513000  1.0
  O  O64  1  0.95878000  0.59995000  0.33501000  1.0
  O  O65  1  0.04122000  0.40005000  0.66499000  1.0
  O  O66  1  0.14592000  0.39135000  0.33627000  1.0
  O  O67  1  0.85407000  0.60865000  0.66373000  1.0
  O  O68  1  0.04897000  0.73501000  0.93447000  1.0
  O  O69  1  0.95104000  0.26499000  0.06553000  1.0
  O  O70  1  0.26332000  0.54184000  0.90556000  1.0
  O  O71  1  0.73669000  0.45817000  0.09444000  1.0
  O  O72  1  0.52555000  0.28068000  0.86176000  1.0
  O  O73  1  0.47445000  0.71932000  0.13825000  1.0
  O  O74  1  0.75709000  0.10342000  0.82230000  1.0
  O  O75  1  0.24290000  0.89657000  0.17770000  1.0
  O  O76  1  0.81684000  0.85441000  0.21362000  1.0
  O  O77  1  0.18316000  0.14559000  0.78638000  1.0
  O  O78  1  0.57562000  0.00612000  0.27196000  1.0
  O  O79  1  0.42437000  0.99388000  0.72804000  1.0
  O  O80  1  0.61132000  0.32857000  0.24993000  1.0
  O  O81  1  0.38867000  0.67143000  0.75007000  1.0
  O  O82  1  0.10584000  0.15180000  0.20479000  1.0
  O  O83  1  0.89416000  0.84819000  0.79520000  1.0
  O  O84  1  0.14706000  0.08817000  0.37985000  1.0
  O  O85  1  0.85294000  0.91183000  0.62015000  1.0
  O  O86  1  0.46461000  0.17686000  0.40072000  1.0
  O  O87  1  0.53539000  0.82314000  0.59927000  1.0
  O  O88  1  0.57131000  0.16757000  0.54244000  1.0
  O  O89  1  0.42869000  0.83243000  0.45756000  1.0
  O  O90  1  0.78592000  0.22664000  0.40545000  1.0
  O  O91  1  0.21408000  0.77336000  0.59455000  1.0
  O  O92  1  0.73146000  0.99592000  0.44778000  1.0
  O  O93  1  0.26854000  0.00407000  0.55222000  1.0
  O  O94  1  0.52551000  0.70330000  0.31521000  1.0
  O  O95  1  0.47450000  0.29670000  0.68479000  1.0
  O  O96  1  0.06566000  0.85451000  0.34318000  1.0
  O  O97  1  0.93435000  0.14548000  0.65682000  1.0
  O  O98  1  0.85217000  0.66780000  0.49116000  1.0
  O  O99  1  0.14783000  0.33220000  0.50884000  1.0
