# generated using pymatgen
data_Zn2H12C42N12ClO28
_symmetry_space_group_name_H-M   'P 1'
_cell_length_a   16.58400000
_cell_length_b   17.89260000
_cell_length_c   28.84710000
_cell_angle_alpha   89.19030000
_cell_angle_beta   89.90650000
_cell_angle_gamma   89.97810000
_symmetry_Int_Tables_number   1
_chemical_formula_structural   Zn2H12C42N12ClO28
_chemical_formula_sum   'Zn4 H24 C84 N24 Cl2 O56'
_cell_volume   8558.95864025
_cell_formula_units_Z   2
loop_
 _symmetry_equiv_pos_site_id
 _symmetry_equiv_pos_as_xyz
  1  'x, y, z'
loop_
 _atom_site_type_symbol
 _atom_site_label
 _atom_site_symmetry_multiplicity
 _atom_site_fract_x
 _atom_site_fract_y
 _atom_site_fract_z
 _atom_site_occupancy
  Zn  Zn0  1  0.41764000  0.50097000  0.50105000  1.0
  Zn  Zn1  1  0.58534000  0.49896000  0.49838000  1.0
  Zn  Zn2  1  0.58396000  0.50174000  0.12052000  1.0
  Zn  Zn3  1  0.41592000  0.50444000  0.11892000  1.0
  H  H4  1  0.71495000  0.59501000  0.45657000  1.0
  H  H5  1  0.71593000  0.39729000  0.53449000  1.0
  H  H6  1  0.28918000  0.55201000  0.43549000  1.0
  H  H7  1  0.28579000  0.45242000  0.56672000  1.0
  H  H8  1  0.38331000  0.73415000  0.52677000  1.0
  H  H9  1  0.62927000  0.74152000  0.47840000  1.0
  H  H10  1  0.37674000  0.26582000  0.46878000  1.0
  H  H11  1  0.62303000  0.25706000  0.51610000  1.0
  H  H12  1  0.41974000  0.39642000  0.22374000  1.0
  H  H13  1  0.36202000  0.28969000  0.26723000  1.0
  H  H14  1  0.42086000  0.39330000  0.39671000  1.0
  H  H15  1  0.36199000  0.28815000  0.35377000  1.0
  H  H16  1  0.62595000  0.47520000  0.97126000  1.0
  H  H17  1  0.36946000  0.51523000  0.97234000  1.0
  H  H18  1  0.62156000  0.53105000  0.64603000  1.0
  H  H19  1  0.37508000  0.45432000  0.64861000  1.0
  H  H20  1  0.28713000  0.59538000  0.16453000  1.0
  H  H21  1  0.28414000  0.41337000  0.07605000  1.0
  H  H22  1  0.71102000  0.55368000  0.18651000  1.0
  H  H23  1  0.71695000  0.44594000  0.05946000  1.0
  H  H24  1  0.63446000  0.74726000  0.10451000  1.0
  H  H25  1  0.37878000  0.73485000  0.13068000  1.0
  H  H26  1  0.62649000  0.26104000  0.14241000  1.0
  H  H27  1  0.36981000  0.26679000  0.11905000  1.0
  C  C28  1  0.50973000  0.64436000  0.50485000  1.0
  C  C29  1  0.49269000  0.51508000  0.41058000  1.0
  C  C30  1  0.50303000  0.35510000  0.49345000  1.0
  C  C31  1  0.49894000  0.48918000  0.58935000  1.0
  C  C32  1  0.50831000  0.64813000  0.11294000  1.0
  C  C33  1  0.49195000  0.51906000  0.20915000  1.0
  C  C34  1  0.50073000  0.35742000  0.12918000  1.0
  C  C35  1  0.49748000  0.49102000  0.02982000  1.0
  C  C36  1  0.75007000  0.55141000  0.47391000  1.0
  C  C37  1  0.83370000  0.55361000  0.47376000  1.0
  C  C38  1  0.88015000  0.49693000  0.49561000  1.0
  C  C39  1  0.83423000  0.43931000  0.51696000  1.0
  C  C40  1  0.75063000  0.44125000  0.51717000  1.0
  C  C41  1  0.96468000  0.49792000  0.49643000  1.0
  C  C42  1  0.03807000  0.49864000  0.49812000  1.0
  C  C43  1  0.12256000  0.49995000  0.49931000  1.0
  C  C44  1  0.16972000  0.52820000  0.46208000  1.0
  C  C45  1  0.25322000  0.52967000  0.46419000  1.0
  C  C46  1  0.25143000  0.47419000  0.53731000  1.0
  C  C47  1  0.16780000  0.47322000  0.53764000  1.0
  C  C48  1  0.50674000  0.72800000  0.50299000  1.0
  C  C49  1  0.43614000  0.76544000  0.51535000  1.0
  C  C50  1  0.43333000  0.84281000  0.51342000  1.0
  C  C51  1  0.49889000  0.88723000  0.49746000  1.0
  C  C52  1  0.56871000  0.84655000  0.48450000  1.0
  C  C53  1  0.57348000  0.76933000  0.48797000  1.0
  C  C54  1  0.49516000  0.96546000  0.49495000  1.0
  C  C55  1  0.49232000  0.03358000  0.49341000  1.0
  C  C56  1  0.49432000  0.11189000  0.49285000  1.0
  C  C57  1  0.42830000  0.15695000  0.47832000  1.0
  C  C58  1  0.43013000  0.23441000  0.47905000  1.0
  C  C59  1  0.50017000  0.27145000  0.49257000  1.0
  C  C60  1  0.56753000  0.22948000  0.50588000  1.0
  C  C61  1  0.56372000  0.15215000  0.50690000  1.0
  C  C62  1  0.48924000  0.52012000  0.26113000  1.0
  C  C63  1  0.45465000  0.45768000  0.28514000  1.0
  C  C64  1  0.52037000  0.57995000  0.28511000  1.0
  C  C65  1  0.42078000  0.39596000  0.26151000  1.0
  C  C66  1  0.38817000  0.33636000  0.28589000  1.0
  C  C67  1  0.48938000  0.51810000  0.35858000  1.0
  C  C68  1  0.52039000  0.57891000  0.33445000  1.0
  C  C69  1  0.45484000  0.45667000  0.33482000  1.0
  C  C70  1  0.42106000  0.39423000  0.35889000  1.0
  C  C71  1  0.38822000  0.33550000  0.33490000  1.0
  C  C72  1  0.49765000  0.49417000  0.97792000  1.0
  C  C73  1  0.56934000  0.48504000  0.95319000  1.0
  C  C74  1  0.56863000  0.48749000  0.90516000  1.0
  C  C75  1  0.49788000  0.50293000  0.87915000  1.0
  C  C76  1  0.42719000  0.51456000  0.90588000  1.0
  C  C77  1  0.42605000  0.50813000  0.95379000  1.0
  C  C78  1  0.49752000  0.50530000  0.83056000  1.0
  C  C79  1  0.49665000  0.50468000  0.78833000  1.0
  C  C80  1  0.49687000  0.50136000  0.73982000  1.0
  C  C81  1  0.56499000  0.52212000  0.71275000  1.0
  C  C82  1  0.56698000  0.51604000  0.66494000  1.0
  C  C83  1  0.49853000  0.49202000  0.64121000  1.0
  C  C84  1  0.42929000  0.47270000  0.66628000  1.0
  C  C85  1  0.42948000  0.47600000  0.71425000  1.0
  C  C86  1  0.25161000  0.55529000  0.14511000  1.0
  C  C87  1  0.16801000  0.55664000  0.14666000  1.0
  C  C88  1  0.12120000  0.50259000  0.12360000  1.0
  C  C89  1  0.16658000  0.44941000  0.09876000  1.0
  C  C90  1  0.25004000  0.45316000  0.09658000  1.0
  C  C91  1  0.03664000  0.50196000  0.12502000  1.0
  C  C92  1  0.96323000  0.50183000  0.12545000  1.0
  C  C93  1  0.87866000  0.50112000  0.12474000  1.0
  C  C94  1  0.83089000  0.53006000  0.16098000  1.0
  C  C95  1  0.74730000  0.52999000  0.15876000  1.0
  C  C96  1  0.75058000  0.47032000  0.08795000  1.0
  C  C97  1  0.83419000  0.47134000  0.08749000  1.0
  C  C98  1  0.50666000  0.73149000  0.11659000  1.0
  C  C99  1  0.57676000  0.77405000  0.11123000  1.0
  C  C100  1  0.57247000  0.85131000  0.11371000  1.0
  C  C101  1  0.50022000  0.88998000  0.12445000  1.0
  C  C102  1  0.43165000  0.84393000  0.13168000  1.0
  C  C103  1  0.43384000  0.76718000  0.12641000  1.0
  C  C104  1  0.49687000  0.96810000  0.12733000  1.0
  C  C105  1  0.49413000  0.03605000  0.12899000  1.0
  C  C106  1  0.49465000  0.11435000  0.13025000  1.0
  C  C107  1  0.56630000  0.15526000  0.13874000  1.0
  C  C108  1  0.56918000  0.23263000  0.13761000  1.0
  C  C109  1  0.49838000  0.27372000  0.13070000  1.0
  C  C110  1  0.42574000  0.23592000  0.12404000  1.0
  C  C111  1  0.42479000  0.15852000  0.12256000  1.0
  N  N112  1  0.70953000  0.49648000  0.49591000  1.0
  N  N113  1  0.29317000  0.50238000  0.50120000  1.0
  N  N114  1  0.29155000  0.50494000  0.11978000  1.0
  N  N115  1  0.70821000  0.49991000  0.12283000  1.0
  N  N116  1  0.87370000  0.37489000  0.54015000  1.0
  N  N117  1  0.87268000  0.61766000  0.44985000  1.0
  N  N118  1  0.12755000  0.44263000  0.57953000  1.0
  N  N119  1  0.13173000  0.55709000  0.41916000  1.0
  N  N120  1  0.64054000  0.88613000  0.46623000  1.0
  N  N121  1  0.35773000  0.87848000  0.52892000  1.0
  N  N122  1  0.63628000  0.11225000  0.52380000  1.0
  N  N123  1  0.35345000  0.12185000  0.46138000  1.0
  N  N124  1  0.35055000  0.53523000  0.88287000  1.0
  N  N125  1  0.64607000  0.47301000  0.88147000  1.0
  N  N126  1  0.35503000  0.45181000  0.73841000  1.0
  N  N127  1  0.63776000  0.55251000  0.73525000  1.0
  N  N128  1  0.12689000  0.38745000  0.07426000  1.0
  N  N129  1  0.12945000  0.61656000  0.17363000  1.0
  N  N130  1  0.87490000  0.44016000  0.04645000  1.0
  N  N131  1  0.86842000  0.56162000  0.20279000  1.0
  N  N132  1  0.35369000  0.87663000  0.14589000  1.0
  N  N133  1  0.64765000  0.89338000  0.10436000  1.0
  N  N134  1  0.34676000  0.12290000  0.11175000  1.0
  N  N135  1  0.64244000  0.11550000  0.14934000  1.0
  Cl  Cl136  1  0.55890000  0.65376000  0.36425000  1.0
  Cl  Cl137  1  0.55844000  0.65642000  0.25533000  1.0
  O  O138  1  0.44473000  0.61071000  0.51586000  1.0
  O  O139  1  0.57677000  0.61370000  0.49496000  1.0
  O  O140  1  0.55969000  0.49709000  0.42867000  1.0
  O  O141  1  0.42731000  0.52847000  0.43208000  1.0
  O  O142  1  0.57064000  0.38475000  0.50307000  1.0
  O  O143  1  0.43765000  0.38982000  0.48470000  1.0
  O  O144  1  0.43213000  0.47404000  0.56971000  1.0
  O  O145  1  0.56547000  0.50303000  0.56908000  1.0
  O  O146  1  0.57685000  0.61636000  0.11480000  1.0
  O  O147  1  0.44026000  0.61607000  0.10868000  1.0
  O  O148  1  0.42473000  0.52490000  0.18833000  1.0
  O  O149  1  0.56052000  0.50971000  0.19038000  1.0
  O  O150  1  0.43313000  0.39134000  0.13063000  1.0
  O  O151  1  0.56990000  0.38758000  0.12622000  1.0
  O  O152  1  0.56573000  0.49268000  0.04996000  1.0
  O  O153  1  0.42877000  0.48784000  0.04946000  1.0
  O  O154  1  0.93971000  0.35522000  0.52457000  1.0
  O  O155  1  0.83672000  0.34587000  0.57295000  1.0
  O  O156  1  0.93814000  0.63868000  0.46534000  1.0
  O  O157  1  0.83581000  0.64488000  0.41648000  1.0
  O  O158  1  0.06015000  0.46783000  0.58883000  1.0
  O  O159  1  0.16525000  0.39463000  0.60178000  1.0
  O  O160  1  0.06887000  0.52626000  0.40668000  1.0
  O  O161  1  0.16690000  0.60919000  0.39921000  1.0
  O  O162  1  0.62948000  0.94621000  0.44544000  1.0
  O  O163  1  0.70665000  0.85551000  0.47270000  1.0
  O  O164  1  0.36300000  0.94061000  0.54693000  1.0
  O  O165  1  0.29466000  0.84274000  0.52314000  1.0
  O  O166  1  0.62593000  0.05349000  0.54607000  1.0
  O  O167  1  0.70217000  0.14178000  0.51494000  1.0
  O  O168  1  0.35851000  0.05774000  0.44614000  1.0
  O  O169  1  0.29094000  0.15972000  0.46319000  1.0
  O  O170  1  0.35504000  0.57345000  0.84690000  1.0
  O  O171  1  0.28761000  0.51386000  0.90199000  1.0
  O  O172  1  0.64350000  0.44135000  0.84369000  1.0
  O  O173  1  0.70797000  0.49305000  0.90181000  1.0
  O  O174  1  0.36244000  0.42090000  0.77676000  1.0
  O  O175  1  0.29067000  0.46378000  0.71786000  1.0
  O  O176  1  0.62756000  0.59053000  0.77025000  1.0
  O  O177  1  0.70335000  0.53855000  0.71672000  1.0
  O  O178  1  0.06364000  0.36302000  0.09132000  1.0
  O  O179  1  0.16130000  0.36489000  0.03913000  1.0
  O  O180  1  0.06485000  0.64141000  0.15878000  1.0
  O  O181  1  0.16601000  0.63685000  0.20854000  1.0
  O  O182  1  0.93852000  0.47021000  0.03401000  1.0
  O  O183  1  0.84080000  0.38702000  0.02790000  1.0
  O  O184  1  0.93271000  0.53337000  0.21575000  1.0
  O  O185  1  0.83152000  0.61311000  0.22144000  1.0
  O  O186  1  0.35583000  0.93260000  0.17047000  1.0
  O  O187  1  0.29197000  0.84420000  0.13277000  1.0
  O  O188  1  0.64167000  0.95326000  0.08273000  1.0
  O  O189  1  0.71105000  0.86441000  0.11836000  1.0
  O  O190  1  0.34847000  0.06413000  0.08980000  1.0
  O  O191  1  0.28525000  0.15574000  0.12501000  1.0
  O  O192  1  0.63795000  0.05863000  0.17404000  1.0
  O  O193  1  0.70500000  0.14337000  0.13328000  1.0
