# generated using pymatgen
data_NiH20C28N2O5
_symmetry_space_group_name_H-M   'P 1'
_cell_length_a   10.08150000
_cell_length_b   11.23330000
_cell_length_c   11.52050000
_cell_angle_alpha   102.13000000
_cell_angle_beta   105.27200000
_cell_angle_gamma   107.41900000
_symmetry_Int_Tables_number   1
_chemical_formula_structural   NiH20C28N2O5
_chemical_formula_sum   'Ni2 H40 C56 N4 O10'
_cell_volume   1140.16741906
_cell_formula_units_Z   2
loop_
 _symmetry_equiv_pos_site_id
 _symmetry_equiv_pos_as_xyz
  1  'x, y, z'
loop_
 _atom_site_type_symbol
 _atom_site_label
 _atom_site_symmetry_multiplicity
 _atom_site_fract_x
 _atom_site_fract_y
 _atom_site_fract_z
 _atom_site_occupancy
  Ni  Ni0  1  0.70505000  0.66009000  0.68768000  1.0
  Ni  Ni1  1  0.29511000  0.34003000  0.31233000  1.0
  H  H2  1  0.60042000  0.67884000  0.45160000  1.0
  H  H3  1  0.39960000  0.32173000  0.54878000  1.0
  H  H4  1  0.64904000  0.56264000  0.44793000  1.0
  H  H5  1  0.35065000  0.43769000  0.55214000  1.0
  H  H6  1  0.21970000  0.45819000  0.67685000  1.0
  H  H7  1  0.78073000  0.54179000  0.32320000  1.0
  H  H8  1  0.02959000  0.41874000  0.77646000  1.0
  H  H9  1  0.97052000  0.58116000  0.22319000  1.0
  H  H10  1  0.36895000  0.63443000  0.14504000  1.0
  H  H11  1  0.63063000  0.36518000  0.85489000  1.0
  H  H12  1  0.55959000  0.66876000  0.04324000  1.0
  H  H13  1  0.44038000  0.33111000  0.95710000  1.0
  H  H14  1  0.11794000  0.53819000  0.13207000  1.0
  H  H15  1  0.88177000  0.46142000  0.86761000  1.0
  H  H16  1  0.91589000  0.44249000  0.54235000  1.0
  H  H17  1  0.08405000  0.55767000  0.45735000  1.0
  H  H18  1  0.05958000  0.30384000  0.49191000  1.0
  H  H19  1  0.94030000  0.69623000  0.50788000  1.0
  H  H20  1  0.73196000  0.97202000  0.51944000  1.0
  H  H21  1  0.26809000  0.02831000  0.48095000  1.0
  H  H22  1  0.59345000  0.11227000  0.57160000  1.0
  H  H23  1  0.40676000  0.88824000  0.42883000  1.0
  H  H24  1  0.10677000  0.11526000  0.47585000  1.0
  H  H25  1  0.89294000  0.88480000  0.52387000  1.0
  H  H26  1  0.00415000  0.61505000  0.73624000  1.0
  H  H27  1  0.99615000  0.38497000  0.26370000  1.0
  H  H28  1  0.27161000  0.76552000  0.83748000  1.0
  H  H29  1  0.72869000  0.23457000  0.16254000  1.0
  H  H30  1  0.33575000  0.00966000  0.91991000  1.0
  H  H31  1  0.66434000  0.99040000  0.08031000  1.0
  H  H32  1  0.23820000  0.19721000  0.96286000  1.0
  H  H33  1  0.76173000  0.80273000  0.03740000  1.0
  H  H34  1  0.02754000  0.26552000  0.94388000  1.0
  H  H35  1  0.97228000  0.73435000  0.05616000  1.0
  H  H36  1  0.74379000  0.20297000  0.86805000  1.0
  H  H37  1  0.25609000  0.79690000  0.13160000  1.0
  H  H38  1  0.49177000  0.02388000  0.75639000  1.0
  H  H39  1  0.50802000  0.97583000  0.24342000  1.0
  H  H40  1  0.47126000  0.79120000  0.67505000  1.0
  H  H41  1  0.52884000  0.20852000  0.32510000  1.0
  C  C42  1  0.51882000  0.59598000  0.79512000  1.0
  C  C43  1  0.48128000  0.40400000  0.20494000  1.0
  C  C44  1  0.40204000  0.57061000  0.85313000  1.0
  C  C45  1  0.59818000  0.42931000  0.14707000  1.0
  C  C46  1  0.25181000  0.49907000  0.77900000  1.0
  C  C47  1  0.74844000  0.50085000  0.22104000  1.0
  C  C48  1  0.14489000  0.47805000  0.83554000  1.0
  C  C49  1  0.85517000  0.52176000  0.16426000  1.0
  C  C50  1  0.18382000  0.53089000  0.96762000  1.0
  C  C51  1  0.81607000  0.46884000  0.03218000  1.0
  C  C52  1  0.33540000  0.59894000  0.04193000  1.0
  C  C53  1  0.66441000  0.40073000  0.95803000  1.0
  C  C54  1  0.44249000  0.61823000  0.98529000  1.0
  C  C55  1  0.55752000  0.38158000  0.01488000  1.0
  C  C56  1  0.07380000  0.51722000  0.02933000  1.0
  C  C57  1  0.92602000  0.48246000  0.97036000  1.0
  C  C58  1  0.67318000  0.37239000  0.61514000  1.0
  C  C59  1  0.32692000  0.62789000  0.38481000  1.0
  C  C60  1  0.74945000  0.28738000  0.56620000  1.0
  C  C61  1  0.25060000  0.71289000  0.43377000  1.0
  C  C62  1  0.87763000  0.33953000  0.53803000  1.0
  C  C63  1  0.12233000  0.66067000  0.46182000  1.0
  C  C64  1  0.95691000  0.26237000  0.50943000  1.0
  C  C65  1  0.04297000  0.73777000  0.49038000  1.0
  C  C66  1  0.91118000  0.13044000  0.50845000  1.0
  C  C67  1  0.08871000  0.86975000  0.49146000  1.0
  C  C68  1  0.77501000  0.07549000  0.52578000  1.0
  C  C69  1  0.22503000  0.92478000  0.47439000  1.0
  C  C70  1  0.69624000  0.15297000  0.55429000  1.0
  C  C71  1  0.30386000  0.84736000  0.44592000  1.0
  C  C72  1  0.00890000  0.06036000  0.49391000  1.0
  C  C73  1  0.99088000  0.93973000  0.50589000  1.0
  C  C74  1  0.95777000  0.89459000  0.80585000  1.0
  C  C75  1  0.04225000  0.10527000  0.19419000  1.0
  C  C76  1  0.03605000  0.72082000  0.77319000  1.0
  C  C77  1  0.96407000  0.27914000  0.22677000  1.0
  C  C78  1  0.18582000  0.80682000  0.82987000  1.0
  C  C79  1  0.81436000  0.19320000  0.17017000  1.0
  C  C80  1  0.22067000  0.94073000  0.87499000  1.0
  C  C81  1  0.77945000  0.05931000  0.12516000  1.0
  C  C82  1  0.10475000  0.98861000  0.86458000  1.0
  C  C83  1  0.89525000  0.01131000  0.13553000  1.0
  C  C84  1  0.12619000  0.12381000  0.91281000  1.0
  C  C85  1  0.87377000  0.87611000  0.08734000  1.0
  C  C86  1  0.00826000  0.16239000  0.90348000  1.0
  C  C87  1  0.99163000  0.83748000  0.09660000  1.0
  C  C88  1  0.85867000  0.06919000  0.84329000  1.0
  C  C89  1  0.14125000  0.93062000  0.15665000  1.0
  C  C90  1  0.73145000  0.10115000  0.83090000  1.0
  C  C91  1  0.26842000  0.89868000  0.16896000  1.0
  C  C92  1  0.59222000  0.00217000  0.77050000  1.0
  C  C93  1  0.40768000  0.99760000  0.22940000  1.0
  C  C94  1  0.57901000  0.87138000  0.72345000  1.0
  C  C95  1  0.42106000  0.12837000  0.27659000  1.0
  C  C96  1  0.83492000  0.93507000  0.79386000  1.0
  C  C97  1  0.16507000  0.06475000  0.20614000  1.0
  N  N98  1  0.92467000  0.76324000  0.76096000  1.0
  N  N99  1  0.07540000  0.23664000  0.23901000  1.0
  N  N100  1  0.69749000  0.83831000  0.73558000  1.0
  N  N101  1  0.30257000  0.16148000  0.26445000  1.0
  O  O102  1  0.48243000  0.58215000  0.67505000  1.0
  O  O103  1  0.51741000  0.41808000  0.32508000  1.0
  O  O104  1  0.65403000  0.63634000  0.86384000  1.0
  O  O105  1  0.34611000  0.36342000  0.13607000  1.0
  O  O106  1  0.74261000  0.49660000  0.63937000  1.0
  O  O107  1  0.25746000  0.50366000  0.36035000  1.0
  O  O108  1  0.55459000  0.31769000  0.63302000  1.0
  O  O109  1  0.44560000  0.68271000  0.36713000  1.0
  O  O110  1  0.68575000  0.65723000  0.49630000  1.0
  O  O111  1  0.31421000  0.34316000  0.50388000  1.0
