# generated using pymatgen
data_YbH12C20S2N4O9
_symmetry_space_group_name_H-M   'P 1'
_cell_length_a   9.65801000
_cell_length_b   10.44940000
_cell_length_c   12.09930000
_cell_angle_alpha   96.75360000
_cell_angle_beta   91.82980000
_cell_angle_gamma   115.67600000
_symmetry_Int_Tables_number   1
_chemical_formula_structural   YbH12C20S2N4O9
_chemical_formula_sum   'Yb2 H24 C40 S4 N8 O18'
_cell_volume   1088.16385068
_cell_formula_units_Z   2
loop_
 _symmetry_equiv_pos_site_id
 _symmetry_equiv_pos_as_xyz
  1  'x, y, z'
loop_
 _atom_site_type_symbol
 _atom_site_label
 _atom_site_symmetry_multiplicity
 _atom_site_fract_x
 _atom_site_fract_y
 _atom_site_fract_z
 _atom_site_occupancy
  Yb  Yb0  1  0.45151000  0.74913000  0.60593000  1.0
  Yb  Yb1  1  0.54849000  0.25087000  0.39406000  1.0
  H  H2  1  0.23139000  0.15859000  0.08303000  1.0
  H  H3  1  0.76861000  0.84142000  0.91697000  1.0
  H  H4  1  0.68513000  0.09725000  0.72543000  1.0
  H  H5  1  0.31488000  0.90276000  0.27457000  1.0
  H  H6  1  0.67929000  0.29948000  0.85394000  1.0
  H  H7  1  0.32070000  0.70052000  0.14606000  1.0
  H  H8  1  0.46337000  0.24822000  0.97725000  1.0
  H  H9  1  0.53664000  0.75178000  0.02274000  1.0
  H  H10  1  0.92596000  0.54431000  0.93882000  1.0
  H  H11  1  0.07404000  0.45570000  0.06118000  1.0
  H  H12  1  0.94567000  0.36859000  0.78360000  1.0
  H  H13  1  0.05434000  0.63142000  0.21641000  1.0
  H  H14  1  0.15578000  0.46008000  0.65876000  1.0
  H  H15  1  0.84423000  0.53992000  0.34125000  1.0
  H  H16  1  0.83934000  0.76962000  0.19911000  1.0
  H  H17  1  0.16067000  0.23039000  0.80089000  1.0
  H  H18  1  0.70216000  0.80449000  0.36250000  1.0
  H  H19  1  0.29785000  0.19550000  0.63750000  1.0
  H  H20  1  0.02856000  0.25197000  0.42200000  1.0
  H  H21  1  0.97143000  0.74803000  0.57800000  1.0
  H  H22  1  0.18146000  0.66500000  0.44750000  1.0
  H  H23  1  0.81852000  0.33499000  0.55250000  1.0
  H  H24  1  0.22779000  0.53472000  0.42935000  1.0
  H  H25  1  0.77221000  0.46527000  0.57065000  1.0
  C  C26  1  0.59099000  0.07766000  0.77823000  1.0
  C  C27  1  0.40900000  0.92234000  0.22178000  1.0
  C  C28  1  0.58809000  0.19104000  0.85140000  1.0
  C  C29  1  0.41191000  0.80896000  0.14860000  1.0
  C  C30  1  0.46873000  0.16265000  0.91909000  1.0
  C  C31  1  0.53127000  0.83735000  0.08091000  1.0
  C  C32  1  0.35472000  0.02014000  0.91332000  1.0
  C  C33  1  0.64528000  0.97987000  0.08668000  1.0
  C  C34  1  0.23189000  0.97350000  0.98321000  1.0
  C  C35  1  0.76811000  0.02650000  0.01679000  1.0
  C  C36  1  0.12893000  0.82909000  0.98355000  1.0
  C  C37  1  0.87107000  0.17092000  0.01645000  1.0
  C  C38  1  0.13029000  0.72064000  0.89974000  1.0
  C  C39  1  0.86971000  0.27937000  0.10026000  1.0
  C  C40  1  0.01868000  0.57649000  0.88405000  1.0
  C  C41  1  0.98132000  0.42352000  0.11595000  1.0
  C  C42  1  0.02765000  0.48157000  0.79808000  1.0
  C  C43  1  0.97236000  0.51845000  0.20192000  1.0
  C  C44  1  0.14635000  0.53204000  0.72759000  1.0
  C  C45  1  0.85366000  0.46796000  0.27242000  1.0
  C  C46  1  0.24761000  0.76352000  0.82476000  1.0
  C  C47  1  0.75239000  0.23648000  0.17524000  1.0
  C  C48  1  0.36452000  0.91172000  0.83527000  1.0
  C  C49  1  0.63547000  0.08827000  0.16474000  1.0
  C  C50  1  0.07795000  0.95192000  0.11834000  1.0
  C  C51  1  0.92206000  0.04809000  0.88166000  1.0
  C  C52  1  0.00918000  0.98896000  0.21567000  1.0
  C  C53  1  0.99082000  0.01104000  0.78433000  1.0
  C  C54  1  0.87905000  0.87551000  0.24824000  1.0
  C  C55  1  0.12095000  0.12449000  0.75175000  1.0
  C  C56  1  0.80196000  0.89471000  0.33897000  1.0
  C  C57  1  0.19805000  0.10529000  0.66103000  1.0
  C  C58  1  0.85575000  0.03166000  0.40030000  1.0
  C  C59  1  0.14425000  0.96833000  0.59969000  1.0
  C  C60  1  0.98536000  0.14634000  0.37230000  1.0
  C  C61  1  0.01464000  0.85366000  0.62770000  1.0
  C  C62  1  0.06239000  0.12643000  0.28118000  1.0
  C  C63  1  0.93761000  0.87357000  0.71882000  1.0
  C  C64  1  0.54299000  0.54452000  0.45510000  1.0
  C  C65  1  0.45700000  0.45546000  0.54490000  1.0
  S  S66  1  0.23256000  0.28342000  0.26104000  1.0
  S  S67  1  0.76744000  0.71657000  0.73896000  1.0
  S  S68  1  0.75303000  0.06876000  0.50857000  1.0
  S  S69  1  0.24697000  0.93123000  0.49142000  1.0
  N  N70  1  0.48196000  0.94245000  0.76875000  1.0
  N  N71  1  0.51804000  0.05754000  0.23125000  1.0
  N  N72  1  0.25369000  0.66868000  0.73990000  1.0
  N  N73  1  0.74631000  0.33132000  0.26010000  1.0
  N  N74  1  0.03549000  0.81672000  0.06854000  1.0
  N  N75  1  0.96451000  0.18329000  0.93147000  1.0
  N  N76  1  0.19508000  0.04897000  0.06720000  1.0
  N  N77  1  0.80492000  0.95103000  0.93280000  1.0
  O  O78  1  0.35983000  0.24191000  0.27639000  1.0
  O  O79  1  0.64016000  0.75808000  0.72360000  1.0
  O  O80  1  0.24190000  0.39803000  0.34641000  1.0
  O  O81  1  0.75812000  0.60197000  0.65360000  1.0
  O  O82  1  0.21905000  0.31096000  0.14630000  1.0
  O  O83  1  0.78095000  0.68904000  0.85371000  1.0
  O  O84  1  0.63547000  0.09809000  0.44960000  1.0
  O  O85  1  0.36453000  0.90191000  0.55038000  1.0
  O  O86  1  0.68011000  0.94049000  0.56315000  1.0
  O  O87  1  0.31987000  0.05951000  0.43684000  1.0
  O  O88  1  0.86297000  0.19514000  0.58436000  1.0
  O  O89  1  0.13702000  0.80486000  0.41563000  1.0
  O  O90  1  0.54641000  0.66762000  0.45881000  1.0
  O  O91  1  0.45358000  0.33236000  0.54119000  1.0
  O  O92  1  0.60315000  0.48832000  0.38601000  1.0
  O  O93  1  0.39685000  0.51166000  0.61398000  1.0
  O  O94  1  0.22877000  0.61238000  0.48487000  1.0
  O  O95  1  0.77122000  0.38762000  0.51513000  1.0
