# generated using pymatgen
data_H14Pb(C3O)6
_symmetry_space_group_name_H-M   'P 1'
_cell_length_a   9.92524000
_cell_length_b   9.98838000
_cell_length_c   37.84410000
_cell_angle_alpha   90.00020000
_cell_angle_beta   90.00030000
_cell_angle_gamma   96.33670000
_symmetry_Int_Tables_number   1
_chemical_formula_structural   H14Pb(C3O)6
_chemical_formula_sum   'H112 Pb8 C144 O48'
_cell_volume   3728.83166653
_cell_formula_units_Z   8
loop_
 _symmetry_equiv_pos_site_id
 _symmetry_equiv_pos_as_xyz
  1  'x, y, z'
loop_
 _atom_site_type_symbol
 _atom_site_label
 _atom_site_symmetry_multiplicity
 _atom_site_fract_x
 _atom_site_fract_y
 _atom_site_fract_z
 _atom_site_occupancy
  H  H0  1  0.96995000  0.32462000  0.30131000  1.0
  H  H1  1  0.06295000  0.14067000  0.26847000  1.0
  H  H2  1  0.10683000  0.93075000  0.29959000  1.0
  H  H3  1  0.09375000  0.81861000  0.44028000  1.0
  H  H4  1  0.91481000  0.70439000  0.47802000  1.0
  H  H5  1  0.68681000  0.62783000  0.45294000  1.0
  H  H6  1  0.51609000  0.61210000  0.31642000  1.0
  H  H7  1  0.40850000  0.77557000  0.27992000  1.0
  H  H8  1  0.37725000  0.00196000  0.30387000  1.0
  H  H9  1  0.43429000  0.18051000  0.43957000  1.0
  H  H10  1  0.62241000  0.31447000  0.47046000  1.0
  H  H11  1  0.84134000  0.37933000  0.43977000  1.0
  H  H12  1  0.10442000  0.79993000  0.34786000  1.0
  H  H13  1  0.17474000  0.88896000  0.38432000  1.0
  H  H14  1  0.53539000  0.61114000  0.40862000  1.0
  H  H15  1  0.60657000  0.54841000  0.37051000  1.0
  H  H16  1  0.33723000  0.09044000  0.38686000  1.0
  H  H17  1  0.39966000  0.15889000  0.34680000  1.0
  H  H18  1  0.89982000  0.41598000  0.35389000  1.0
  H  H19  1  0.98089000  0.37278000  0.39276000  1.0
  H  H20  1  0.15194000  0.23407000  0.41707000  1.0
  H  H21  1  0.17899000  0.06115000  0.41684000  1.0
  H  H22  1  0.76840000  0.56762000  0.33185000  1.0
  H  H23  1  0.94619000  0.61670000  0.33225000  1.0
  H  H24  1  0.34720000  0.76006000  0.42384000  1.0
  H  H25  1  0.33140000  0.93578000  0.42451000  1.0
  H  H26  1  0.75094000  0.37311000  0.31200000  1.0
  H  H27  1  0.58191000  0.37033000  0.32856000  1.0
  H  H28  1  0.03005000  0.17537000  0.80131000  1.0
  H  H29  1  0.93704000  0.35932000  0.76847000  1.0
  H  H30  1  0.89318000  0.56925000  0.79958000  1.0
  H  H31  1  0.90626000  0.68140000  0.94028000  1.0
  H  H32  1  0.08520000  0.79562000  0.97802000  1.0
  H  H33  1  0.31320000  0.87217000  0.95294000  1.0
  H  H34  1  0.48390000  0.88789000  0.81641000  1.0
  H  H35  1  0.59147000  0.72443000  0.77991000  1.0
  H  H36  1  0.62273000  0.49802000  0.80386000  1.0
  H  H37  1  0.56571000  0.31950000  0.93957000  1.0
  H  H38  1  0.37759000  0.18555000  0.97046000  1.0
  H  H39  1  0.15866000  0.12068000  0.93977000  1.0
  H  H40  1  0.89559000  0.70008000  0.84785000  1.0
  H  H41  1  0.82527000  0.61105000  0.88431000  1.0
  H  H42  1  0.46462000  0.88885000  0.90862000  1.0
  H  H43  1  0.39344000  0.95159000  0.87051000  1.0
  H  H44  1  0.66277000  0.40956000  0.88686000  1.0
  H  H45  1  0.60034000  0.34111000  0.84679000  1.0
  H  H46  1  0.10017000  0.08401000  0.85389000  1.0
  H  H47  1  0.01911000  0.12722000  0.89276000  1.0
  H  H48  1  0.84805000  0.26592000  0.91706000  1.0
  H  H49  1  0.82100000  0.43884000  0.91683000  1.0
  H  H50  1  0.23161000  0.93239000  0.83185000  1.0
  H  H51  1  0.05382000  0.88330000  0.83225000  1.0
  H  H52  1  0.65284000  0.73995000  0.92384000  1.0
  H  H53  1  0.66863000  0.56423000  0.92450000  1.0
  H  H54  1  0.24906000  0.12688000  0.81200000  1.0
  H  H55  1  0.41809000  0.12966000  0.82856000  1.0
  H  H56  1  0.03005000  0.67538000  0.69869000  1.0
  H  H57  1  0.93704000  0.85932000  0.73154000  1.0
  H  H58  1  0.89317000  0.06925000  0.70042000  1.0
  H  H59  1  0.90625000  0.18139000  0.55972000  1.0
  H  H60  1  0.08518000  0.29561000  0.52198000  1.0
  H  H61  1  0.31319000  0.37216000  0.54706000  1.0
  H  H62  1  0.48389000  0.38789000  0.68359000  1.0
  H  H63  1  0.59147000  0.22443000  0.72009000  1.0
  H  H64  1  0.62273000  0.99803000  0.69614000  1.0
  H  H65  1  0.56571000  0.81950000  0.56043000  1.0
  H  H66  1  0.37759000  0.68554000  0.52954000  1.0
  H  H67  1  0.15866000  0.62068000  0.56023000  1.0
  H  H68  1  0.89558000  0.20008000  0.65215000  1.0
  H  H69  1  0.82526000  0.11105000  0.61569000  1.0
  H  H70  1  0.46461000  0.38885000  0.59138000  1.0
  H  H71  1  0.39343000  0.45159000  0.62949000  1.0
  H  H72  1  0.66277000  0.90956000  0.61314000  1.0
  H  H73  1  0.60033000  0.84111000  0.65321000  1.0
  H  H74  1  0.10018000  0.58402000  0.64611000  1.0
  H  H75  1  0.01911000  0.62723000  0.60724000  1.0
  H  H76  1  0.84804000  0.76592000  0.58294000  1.0
  H  H77  1  0.82099000  0.93885000  0.58317000  1.0
  H  H78  1  0.23160000  0.43238000  0.66816000  1.0
  H  H79  1  0.05382000  0.38330000  0.66776000  1.0
  H  H80  1  0.65283000  0.23995000  0.57616000  1.0
  H  H81  1  0.66863000  0.06423000  0.57550000  1.0
  H  H82  1  0.24905000  0.62689000  0.68800000  1.0
  H  H83  1  0.41809000  0.62968000  0.67145000  1.0
  H  H84  1  0.96995000  0.82462000  0.19869000  1.0
  H  H85  1  0.06296000  0.64067000  0.23153000  1.0
  H  H86  1  0.10683000  0.43074000  0.20041000  1.0
  H  H87  1  0.09374000  0.31860000  0.05972000  1.0
  H  H88  1  0.91480000  0.20438000  0.02198000  1.0
  H  H89  1  0.68680000  0.12782000  0.04706000  1.0
  H  H90  1  0.51611000  0.11211000  0.18358000  1.0
  H  H91  1  0.40852000  0.27557000  0.22008000  1.0
  H  H92  1  0.37727000  0.50197000  0.19613000  1.0
  H  H93  1  0.43429000  0.68051000  0.06043000  1.0
  H  H94  1  0.62241000  0.81447000  0.02954000  1.0
  H  H95  1  0.84134000  0.87933000  0.06023000  1.0
  H  H96  1  0.10442000  0.29992000  0.15214000  1.0
  H  H97  1  0.17474000  0.38895000  0.11568000  1.0
  H  H98  1  0.53539000  0.11114000  0.09138000  1.0
  H  H99  1  0.60655000  0.04841000  0.12949000  1.0
  H  H100  1  0.33723000  0.59044000  0.11314000  1.0
  H  H101  1  0.39966000  0.65889000  0.15320000  1.0
  H  H102  1  0.89983000  0.91598000  0.14611000  1.0
  H  H103  1  0.98089000  0.87278000  0.10724000  1.0
  H  H104  1  0.15195000  0.73407000  0.08293000  1.0
  H  H105  1  0.17901000  0.56116000  0.08316000  1.0
  H  H106  1  0.76840000  0.06760000  0.16815000  1.0
  H  H107  1  0.94618000  0.11667000  0.16775000  1.0
  H  H108  1  0.34718000  0.26005000  0.07616000  1.0
  H  H109  1  0.33139000  0.43577000  0.07550000  1.0
  H  H110  1  0.75093000  0.87312000  0.18800000  1.0
  H  H111  1  0.58190000  0.87033000  0.17144000  1.0
  Pb  Pb112  1  0.75127000  0.99460000  0.46660000  1.0
  Pb  Pb113  1  0.72870000  0.97786000  0.28413000  1.0
  Pb  Pb114  1  0.24874000  0.50540000  0.96660000  1.0
  Pb  Pb115  1  0.27129000  0.52213000  0.78413000  1.0
  Pb  Pb116  1  0.24874000  0.00542000  0.53340000  1.0
  Pb  Pb117  1  0.27128000  0.02213000  0.71587000  1.0
  Pb  Pb118  1  0.75128000  0.49459000  0.03340000  1.0
  Pb  Pb119  1  0.72871000  0.47786000  0.21587000  1.0
  C  C120  1  0.00032000  0.10557000  0.36918000  1.0
  C  C121  1  0.96854000  0.22235000  0.35176000  1.0
  C  C122  1  0.99340000  0.23465000  0.31542000  1.0
  C  C123  1  0.04583000  0.13128000  0.29682000  1.0
  C  C124  1  0.07119000  0.01379000  0.31437000  1.0
  C  C125  1  0.04953000  0.99853000  0.35084000  1.0
  C  C126  1  0.84365000  0.75590000  0.37871000  1.0
  C  C127  1  0.97142000  0.80319000  0.39267000  1.0
  C  C128  1  0.99561000  0.78308000  0.42860000  1.0
  C  C129  1  0.89432000  0.71811000  0.45008000  1.0
  C  C130  1  0.76690000  0.67562000  0.43592000  1.0
  C  C131  1  0.73876000  0.69323000  0.39999000  1.0
  C  C132  1  0.50427000  0.86358000  0.37676000  1.0
  C  C133  1  0.53308000  0.73924000  0.36290000  1.0
  C  C134  1  0.49625000  0.70832000  0.32791000  1.0
  C  C135  1  0.43536000  0.80035000  0.30718000  1.0
  C  C136  1  0.41714000  0.92713000  0.32075000  1.0
  C  C137  1  0.45144000  0.96168000  0.35581000  1.0
  C  C138  1  0.66441000  0.21960000  0.37246000  1.0
  C  C139  1  0.54205000  0.17644000  0.38977000  1.0
  C  C140  1  0.52816000  0.21186000  0.42528000  1.0
  C  C141  1  0.63441000  0.28762000  0.44288000  1.0
  C  C142  1  0.75712000  0.32399000  0.42559000  1.0
  C  C143  1  0.77501000  0.29035000  0.39008000  1.0
  C  C144  1  0.08084000  0.87016000  0.36881000  1.0
  C  C145  1  0.60002000  0.64152000  0.38572000  1.0
  C  C146  1  0.42692000  0.09930000  0.36965000  1.0
  C  C147  1  0.90949000  0.33210000  0.37215000  1.0
  C  C148  1  0.10614000  0.13164000  0.42419000  1.0
  C  C149  1  0.09062000  0.12503000  0.46431000  1.0
  C  C150  1  0.84741000  0.64866000  0.32437000  1.0
  C  C151  1  0.84691000  0.65909000  0.28416000  1.0
  C  C152  1  0.39905000  0.85953000  0.43139000  1.0
  C  C153  1  0.41413000  0.86271000  0.47140000  1.0
  C  C154  1  0.65376000  0.30973000  0.31548000  1.0
  C  C155  1  0.60175000  0.27683000  0.27838000  1.0
  C  C156  1  0.99968000  0.39443000  0.86918000  1.0
  C  C157  1  0.03146000  0.27764000  0.85176000  1.0
  C  C158  1  0.00660000  0.26535000  0.81542000  1.0
  C  C159  1  0.95417000  0.36871000  0.79682000  1.0
  C  C160  1  0.92881000  0.48622000  0.81437000  1.0
  C  C161  1  0.95048000  0.50147000  0.85084000  1.0
  C  C162  1  0.15636000  0.74410000  0.87871000  1.0
  C  C163  1  0.02860000  0.69682000  0.89266000  1.0
  C  C164  1  0.00440000  0.71692000  0.92860000  1.0
  C  C165  1  0.10569000  0.78190000  0.95008000  1.0
  C  C166  1  0.23312000  0.82439000  0.93592000  1.0
  C  C167  1  0.26125000  0.80677000  0.89998000  1.0
  C  C168  1  0.49575000  0.63643000  0.87676000  1.0
  C  C169  1  0.46692000  0.76076000  0.86290000  1.0
  C  C170  1  0.50374000  0.79167000  0.82791000  1.0
  C  C171  1  0.56462000  0.69964000  0.80717000  1.0
  C  C172  1  0.58285000  0.57286000  0.82075000  1.0
  C  C173  1  0.54856000  0.53832000  0.85580000  1.0
  C  C174  1  0.33558000  0.28040000  0.87245000  1.0
  C  C175  1  0.45795000  0.32356000  0.88977000  1.0
  C  C176  1  0.47184000  0.28815000  0.92528000  1.0
  C  C177  1  0.36558000  0.21238000  0.94288000  1.0
  C  C178  1  0.24288000  0.17601000  0.92559000  1.0
  C  C179  1  0.22499000  0.20966000  0.89008000  1.0
  C  C180  1  0.91917000  0.62984000  0.86880000  1.0
  C  C181  1  0.39999000  0.85848000  0.88572000  1.0
  C  C182  1  0.57308000  0.40070000  0.86965000  1.0
  C  C183  1  0.09050000  0.16790000  0.87215000  1.0
  C  C184  1  0.89386000  0.36836000  0.92419000  1.0
  C  C185  1  0.90937000  0.37498000  0.96430000  1.0
  C  C186  1  0.15259000  0.85135000  0.82437000  1.0
  C  C187  1  0.15310000  0.84092000  0.78416000  1.0
  C  C188  1  0.60098000  0.64048000  0.93139000  1.0
  C  C189  1  0.58590000  0.63730000  0.97139000  1.0
  C  C190  1  0.34623000  0.19026000  0.81548000  1.0
  C  C191  1  0.39824000  0.22316000  0.77838000  1.0
  C  C192  1  0.99967000  0.89442000  0.63082000  1.0
  C  C193  1  0.03146000  0.77765000  0.64825000  1.0
  C  C194  1  0.00660000  0.76535000  0.68458000  1.0
  C  C195  1  0.95416000  0.86871000  0.70318000  1.0
  C  C196  1  0.92880000  0.98621000  0.68563000  1.0
  C  C197  1  0.95047000  0.00147000  0.64916000  1.0
  C  C198  1  0.15635000  0.24410000  0.62129000  1.0
  C  C199  1  0.02859000  0.19681000  0.60734000  1.0
  C  C200  1  0.00439000  0.21691000  0.57140000  1.0
  C  C201  1  0.10568000  0.28189000  0.54992000  1.0
  C  C202  1  0.23311000  0.32438000  0.56408000  1.0
  C  C203  1  0.26125000  0.30677000  0.60002000  1.0
  C  C204  1  0.49575000  0.13643000  0.62324000  1.0
  C  C205  1  0.46692000  0.26076000  0.63710000  1.0
  C  C206  1  0.50374000  0.29168000  0.67209000  1.0
  C  C207  1  0.56462000  0.19964000  0.69283000  1.0
  C  C208  1  0.58285000  0.07286000  0.67925000  1.0
  C  C209  1  0.54856000  0.03833000  0.64420000  1.0
  C  C210  1  0.33558000  0.78041000  0.62755000  1.0
  C  C211  1  0.45795000  0.82357000  0.61023000  1.0
  C  C212  1  0.47184000  0.78815000  0.57472000  1.0
  C  C213  1  0.36558000  0.71238000  0.55712000  1.0
  C  C214  1  0.24288000  0.67602000  0.57441000  1.0
  C  C215  1  0.22499000  0.70967000  0.60992000  1.0
  C  C216  1  0.91916000  0.12984000  0.63120000  1.0
  C  C217  1  0.39998000  0.35848000  0.61428000  1.0
  C  C218  1  0.57308000  0.90070000  0.63035000  1.0
  C  C219  1  0.09051000  0.66790000  0.62785000  1.0
  C  C220  1  0.89384000  0.86836000  0.57581000  1.0
  C  C221  1  0.90937000  0.87499000  0.53570000  1.0
  C  C222  1  0.15260000  0.35134000  0.67563000  1.0
  C  C223  1  0.15310000  0.34090000  0.71584000  1.0
  C  C224  1  0.60098000  0.14048000  0.56861000  1.0
  C  C225  1  0.58589000  0.13731000  0.52861000  1.0
  C  C226  1  0.34623000  0.69027000  0.68452000  1.0
  C  C227  1  0.39824000  0.72318000  0.72162000  1.0
  C  C228  1  0.00033000  0.60557000  0.13082000  1.0
  C  C229  1  0.96854000  0.72235000  0.14824000  1.0
  C  C230  1  0.99340000  0.73465000  0.18457000  1.0
  C  C231  1  0.04584000  0.63128000  0.20318000  1.0
  C  C232  1  0.07120000  0.51378000  0.18563000  1.0
  C  C233  1  0.04953000  0.49852000  0.14916000  1.0
  C  C234  1  0.84365000  0.25589000  0.12129000  1.0
  C  C235  1  0.97141000  0.30318000  0.10733000  1.0
  C  C236  1  0.99561000  0.28307000  0.07140000  1.0
  C  C237  1  0.89431000  0.21809000  0.04992000  1.0
  C  C238  1  0.76689000  0.17560000  0.06408000  1.0
  C  C239  1  0.73876000  0.19322000  0.10001000  1.0
  C  C240  1  0.50426000  0.36358000  0.12324000  1.0
  C  C241  1  0.53309000  0.23925000  0.13710000  1.0
  C  C242  1  0.49626000  0.20833000  0.17209000  1.0
  C  C243  1  0.43538000  0.30037000  0.19282000  1.0
  C  C244  1  0.41715000  0.42714000  0.17925000  1.0
  C  C245  1  0.45144000  0.46168000  0.14419000  1.0
  C  C246  1  0.66442000  0.71960000  0.12754000  1.0
  C  C247  1  0.54205000  0.67644000  0.11023000  1.0
  C  C248  1  0.52816000  0.71186000  0.07472000  1.0
  C  C249  1  0.63442000  0.78763000  0.05712000  1.0
  C  C250  1  0.75712000  0.82399000  0.07441000  1.0
  C  C251  1  0.77501000  0.79034000  0.10992000  1.0
  C  C252  1  0.08084000  0.37016000  0.13119000  1.0
  C  C253  1  0.60002000  0.14151000  0.11428000  1.0
  C  C254  1  0.42692000  0.59931000  0.13035000  1.0
  C  C255  1  0.90950000  0.83210000  0.12785000  1.0
  C  C256  1  0.10615000  0.63164000  0.07581000  1.0
  C  C257  1  0.09062000  0.62503000  0.03569000  1.0
  C  C258  1  0.84740000  0.14864000  0.17563000  1.0
  C  C259  1  0.84689000  0.15906000  0.21584000  1.0
  C  C260  1  0.39903000  0.35952000  0.06861000  1.0
  C  C261  1  0.41411000  0.36270000  0.02860000  1.0
  C  C262  1  0.65376000  0.80973000  0.18452000  1.0
  C  C263  1  0.60175000  0.77683000  0.22162000  1.0
  O  O264  1  0.98088000  0.09891000  0.40577000  1.0
  O  O265  1  0.20453000  0.12501000  0.48001000  1.0
  O  O266  1  0.97669000  0.12478000  0.47886000  1.0
  O  O267  1  0.82530000  0.77061000  0.34227000  1.0
  O  O268  1  0.85202000  0.54410000  0.26957000  1.0
  O  O269  1  0.84494000  0.76947000  0.26836000  1.0
  O  O270  1  0.52548000  0.88507000  0.41298000  1.0
  O  O271  1  0.29912000  0.85710000  0.48693000  1.0
  O  O272  1  0.52801000  0.86712000  0.48609000  1.0
  O  O273  1  0.67062000  0.19254000  0.33633000  1.0
  O  O274  1  0.58190000  0.38280000  0.26105000  1.0
  O  O275  1  0.58191000  0.15778000  0.26712000  1.0
  O  O276  1  0.01912000  0.40109000  0.90577000  1.0
  O  O277  1  0.79546000  0.37498000  0.98001000  1.0
  O  O278  1  0.02331000  0.37528000  0.97886000  1.0
  O  O279  1  0.17470000  0.72940000  0.84226000  1.0
  O  O280  1  0.14799000  0.95592000  0.76957000  1.0
  O  O281  1  0.15507000  0.73054000  0.76836000  1.0
  O  O282  1  0.47456000  0.61494000  0.91298000  1.0
  O  O283  1  0.70091000  0.64292000  0.98693000  1.0
  O  O284  1  0.47202000  0.63286000  0.98609000  1.0
  O  O285  1  0.32938000  0.30745000  0.83633000  1.0
  O  O286  1  0.41810000  0.11719000  0.76105000  1.0
  O  O287  1  0.41805000  0.34220000  0.76712000  1.0
  O  O288  1  0.01910000  0.90109000  0.59423000  1.0
  O  O289  1  0.79545000  0.87500000  0.51999000  1.0
  O  O290  1  0.02330000  0.87529000  0.52114000  1.0
  O  O291  1  0.17470000  0.22939000  0.65774000  1.0
  O  O292  1  0.14799000  0.45589000  0.73044000  1.0
  O  O293  1  0.15505000  0.23052000  0.73164000  1.0
  O  O294  1  0.47455000  0.11494000  0.58702000  1.0
  O  O295  1  0.70091000  0.14294000  0.51307000  1.0
  O  O296  1  0.47201000  0.13286000  0.51391000  1.0
  O  O297  1  0.32938000  0.80746000  0.66367000  1.0
  O  O298  1  0.41810000  0.61721000  0.73895000  1.0
  O  O299  1  0.41808000  0.84222000  0.73288000  1.0
  O  O300  1  0.98089000  0.59890000  0.09423000  1.0
  O  O301  1  0.20453000  0.62501000  0.01999000  1.0
  O  O302  1  0.97669000  0.62476000  0.02114000  1.0
  O  O303  1  0.82531000  0.27059000  0.15774000  1.0
  O  O304  1  0.85200000  0.04407000  0.23043000  1.0
  O  O305  1  0.84492000  0.26943000  0.23164000  1.0
  O  O306  1  0.52546000  0.38507000  0.08702000  1.0
  O  O307  1  0.29910000  0.35709000  0.01307000  1.0
  O  O308  1  0.52799000  0.36712000  0.01391000  1.0
  O  O309  1  0.67062000  0.69255000  0.16367000  1.0
  O  O310  1  0.58189000  0.88279000  0.23895000  1.0
  O  O311  1  0.58194000  0.65779000  0.23288000  1.0
