# generated using pymatgen
data_ZnMo2H8C8S2N2O7
_symmetry_space_group_name_H-M   'P 1'
_cell_length_a   7.35287000
_cell_length_b   10.13090000
_cell_length_c   10.37300000
_cell_angle_alpha   105.46500000
_cell_angle_beta   102.64600000
_cell_angle_gamma   104.88400000
_symmetry_Int_Tables_number   1
_chemical_formula_structural   ZnMo2H8C8S2N2O7
_chemical_formula_sum   'Zn2 Mo4 H16 C16 S4 N4 O14'
_cell_volume   684.61176852
_cell_formula_units_Z   2
loop_
 _symmetry_equiv_pos_site_id
 _symmetry_equiv_pos_as_xyz
  1  'x, y, z'
loop_
 _atom_site_type_symbol
 _atom_site_label
 _atom_site_symmetry_multiplicity
 _atom_site_fract_x
 _atom_site_fract_y
 _atom_site_fract_z
 _atom_site_occupancy
  Zn  Zn0  1  0.99118000  0.68306000  0.75425000  1.0
  Zn  Zn1  1  0.00883000  0.31694000  0.24576000  1.0
  Mo  Mo2  1  0.83567000  0.36109000  0.52297000  1.0
  Mo  Mo3  1  0.16433000  0.63891000  0.47704000  1.0
  Mo  Mo4  1  0.51932000  0.46253000  0.33794000  1.0
  Mo  Mo5  1  0.48068000  0.53746000  0.66206000  1.0
  H  H6  1  0.76710000  0.97227000  0.50798000  1.0
  H  H7  1  0.23288000  0.02771000  0.49200000  1.0
  H  H8  1  0.66630000  0.82469000  0.56179000  1.0
  H  H9  1  0.33371000  0.17529000  0.43820000  1.0
  H  H10  1  0.85471000  0.82033000  0.48305000  1.0
  H  H11  1  0.14528000  0.17965000  0.51694000  1.0
  H  H12  1  0.27006000  0.23569000  0.01262000  1.0
  H  H13  1  0.72992000  0.76432000  0.98737000  1.0
  H  H14  1  0.44166000  0.11458000  0.19728000  1.0
  H  H15  1  0.55833000  0.88544000  0.80273000  1.0
  H  H16  1  0.18084000  0.51389000  0.91112000  1.0
  H  H17  1  0.81919000  0.48613000  0.08890000  1.0
  H  H18  1  0.18057000  0.53859000  0.08923000  1.0
  H  H19  1  0.81945000  0.46141000  0.91077000  1.0
  H  H20  1  0.40598000  0.56451000  0.05107000  1.0
  H  H21  1  0.59406000  0.43551000  0.94894000  1.0
  C  C22  1  0.28504000  0.73381000  0.04619000  1.0
  C  C23  1  0.71496000  0.26621000  0.95380000  1.0
  C  C24  1  0.80311000  0.89302000  0.55368000  1.0
  C  C25  1  0.19688000  0.10697000  0.44631000  1.0
  C  C26  1  0.95337000  0.96691000  0.69428000  1.0
  C  C27  1  0.04661000  0.03308000  0.30572000  1.0
  C  C28  1  0.18291000  0.14025000  0.92078000  1.0
  C  C29  1  0.81706000  0.85973000  0.07921000  1.0
  C  C30  1  0.15828000  0.99703000  0.90461000  1.0
  C  C31  1  0.84171000  0.00300000  0.09539000  1.0
  C  C32  1  0.24579000  0.93334000  0.00172000  1.0
  C  C33  1  0.75420000  0.06666000  0.99828000  1.0
  C  C34  1  0.37514000  0.99929000  0.13602000  1.0
  C  C35  1  0.62484000  0.00072000  0.86397000  1.0
  C  C36  1  0.26115000  0.57836000  0.02195000  1.0
  C  C37  1  0.73888000  0.42165000  0.97806000  1.0
  S  S38  1  0.04358000  0.15322000  0.77293000  1.0
  S  S39  1  0.95639000  0.84677000  0.22706000  1.0
  S  S40  1  0.43342000  0.87176000  0.20086000  1.0
  S  S41  1  0.56657000  0.12825000  0.79913000  1.0
  N  N42  1  0.02986000  0.90104000  0.77532000  1.0
  N  N43  1  0.97012000  0.09895000  0.22468000  1.0
  N  N44  1  0.19639000  0.78309000  0.95310000  1.0
  N  N45  1  0.80360000  0.21692000  0.04689000  1.0
  O  O46  1  0.58116000  0.42035000  0.52870000  1.0
  O  O47  1  0.41885000  0.57964000  0.47130000  1.0
  O  O48  1  0.68398000  0.34975000  0.32481000  1.0
  O  O49  1  0.31603000  0.65025000  0.67520000  1.0
  O  O50  1  0.94465000  0.62028000  0.53523000  1.0
  O  O51  1  0.05536000  0.37972000  0.46478000  1.0
  O  O52  1  0.61466000  0.59225000  0.27046000  1.0
  O  O53  1  0.38534000  0.40776000  0.72955000  1.0
  O  O54  1  0.28893000  0.34616000  0.21680000  1.0
  O  O55  1  0.71107000  0.65383000  0.78320000  1.0
  O  O56  1  0.93378000  0.46282000  0.70698000  1.0
  O  O57  1  0.06623000  0.53719000  0.29302000  1.0
  O  O58  1  0.74797000  0.18243000  0.50908000  1.0
  O  O59  1  0.25203000  0.81756000  0.49092000  1.0
