# generated using pymatgen
data_ZnP2H10C4(N3O4)2
_symmetry_space_group_name_H-M   'P 1'
_cell_length_a   8.43927000
_cell_length_b   9.52087000
_cell_length_c   15.58160000
_cell_angle_alpha   90.00010000
_cell_angle_beta   90.00000000
_cell_angle_gamma   89.99980000
_symmetry_Int_Tables_number   1
_chemical_formula_structural   ZnP2H10C4(N3O4)2
_chemical_formula_sum   'Zn4 P8 H40 C16 N24 O32'
_cell_volume   1251.96897886
_cell_formula_units_Z   4
loop_
 _symmetry_equiv_pos_site_id
 _symmetry_equiv_pos_as_xyz
  1  'x, y, z'
loop_
 _atom_site_type_symbol
 _atom_site_label
 _atom_site_symmetry_multiplicity
 _atom_site_fract_x
 _atom_site_fract_y
 _atom_site_fract_z
 _atom_site_occupancy
  Zn  Zn0  1  0.50000000  0.21320000  0.25000000  1.0
  Zn  Zn1  1  0.00000000  0.28680000  0.75000000  1.0
  Zn  Zn2  1  0.50000000  0.78681000  0.75000000  1.0
  Zn  Zn3  1  0.00000000  0.71320000  0.25000000  1.0
  P  P4  1  0.70807000  0.20386000  0.05366000  1.0
  P  P5  1  0.79193000  0.29614000  0.55366000  1.0
  P  P6  1  0.29193000  0.20386000  0.44634000  1.0
  P  P7  1  0.20807000  0.29614000  0.94634000  1.0
  P  P8  1  0.29193000  0.79614000  0.94634000  1.0
  P  P9  1  0.20807000  0.70386000  0.44634000  1.0
  P  P10  1  0.70807000  0.79614000  0.55366000  1.0
  P  P11  1  0.79193000  0.70386000  0.05366000  1.0
  H  H12  1  0.02535000  0.95992000  0.10295000  1.0
  H  H13  1  0.47465000  0.54009000  0.60295000  1.0
  H  H14  1  0.97465000  0.95992000  0.39705000  1.0
  H  H15  1  0.52535000  0.54008000  0.89705000  1.0
  H  H16  1  0.97465000  0.04008000  0.89705000  1.0
  H  H17  1  0.52535000  0.45991000  0.39705000  1.0
  H  H18  1  0.02535000  0.04009000  0.60295000  1.0
  H  H19  1  0.47465000  0.45992000  0.10295000  1.0
  H  H20  1  0.34730000  0.88910000  0.30511000  1.0
  H  H21  1  0.15270000  0.61091000  0.80511000  1.0
  H  H22  1  0.65270000  0.88910000  0.19489000  1.0
  H  H23  1  0.84730000  0.61090000  0.69489000  1.0
  H  H24  1  0.65270000  0.11090000  0.69489000  1.0
  H  H25  1  0.84730000  0.38910000  0.19489000  1.0
  H  H26  1  0.34730000  0.11090000  0.80512000  1.0
  H  H27  1  0.15270000  0.38909000  0.30511000  1.0
  H  H28  1  0.22127000  0.16351000  0.11145000  1.0
  H  H29  1  0.27873000  0.33649000  0.61145000  1.0
  H  H30  1  0.77873000  0.16351000  0.38855000  1.0
  H  H31  1  0.72127000  0.33649000  0.88855000  1.0
  H  H32  1  0.77873000  0.83649000  0.88855000  1.0
  H  H33  1  0.72127000  0.66351000  0.38855000  1.0
  H  H34  1  0.22127000  0.83649000  0.61145000  1.0
  H  H35  1  0.27873000  0.66351000  0.11145000  1.0
  H  H36  1  0.73944000  0.96996000  0.05599000  1.0
  H  H37  1  0.76056000  0.53004000  0.55599000  1.0
  H  H38  1  0.26056000  0.96996000  0.44401000  1.0
  H  H39  1  0.23944000  0.53004000  0.94401000  1.0
  H  H40  1  0.26056000  0.03004000  0.94401000  1.0
  H  H41  1  0.23944000  0.46996000  0.44401000  1.0
  H  H42  1  0.73944000  0.03004000  0.55599000  1.0
  H  H43  1  0.76056000  0.46996000  0.05599000  1.0
  H  H44  1  0.50855000  0.20008000  0.95684000  1.0
  H  H45  1  0.99145000  0.29992000  0.45684000  1.0
  H  H46  1  0.49145000  0.20008000  0.54316000  1.0
  H  H47  1  0.00855000  0.29992000  0.04316000  1.0
  H  H48  1  0.49145000  0.79992000  0.04316000  1.0
  H  H49  1  0.00855000  0.70008000  0.54316000  1.0
  H  H50  1  0.50855000  0.79992000  0.45684000  1.0
  H  H51  1  0.99145000  0.70008000  0.95684000  1.0
  C  C52  1  0.12271000  0.96778000  0.14791000  1.0
  C  C53  1  0.37729000  0.53223000  0.64791000  1.0
  C  C54  1  0.87729000  0.96778000  0.35209000  1.0
  C  C55  1  0.62271000  0.53222000  0.85209000  1.0
  C  C56  1  0.87729000  0.03222000  0.85209000  1.0
  C  C57  1  0.62271000  0.46778000  0.35209000  1.0
  C  C58  1  0.12271000  0.03223000  0.64791000  1.0
  C  C59  1  0.37729000  0.46778000  0.14791000  1.0
  C  C60  1  0.28845000  0.93417000  0.24956000  1.0
  C  C61  1  0.21155000  0.56583000  0.74956000  1.0
  C  C62  1  0.71155000  0.93417000  0.25045000  1.0
  C  C63  1  0.78845000  0.56583000  0.75044000  1.0
  C  C64  1  0.71154000  0.06583000  0.75044000  1.0
  C  C65  1  0.78845000  0.43417000  0.25044000  1.0
  C  C66  1  0.28845000  0.06583000  0.74956000  1.0
  C  C67  1  0.21155000  0.43417000  0.24955000  1.0
  N  N68  1  0.15993000  0.87662000  0.21034000  1.0
  N  N69  1  0.34007000  0.62338000  0.71034000  1.0
  N  N70  1  0.84007000  0.87662000  0.28966000  1.0
  N  N71  1  0.65993000  0.62338000  0.78966000  1.0
  N  N72  1  0.84007000  0.12338000  0.78966000  1.0
  N  N73  1  0.65993000  0.37662000  0.28965000  1.0
  N  N74  1  0.15993000  0.12338000  0.71035000  1.0
  N  N75  1  0.34007000  0.37662000  0.21034000  1.0
  N  N76  1  0.33077000  0.05555000  0.21420000  1.0
  N  N77  1  0.16923000  0.44444000  0.71420000  1.0
  N  N78  1  0.66922000  0.05555000  0.28580000  1.0
  N  N79  1  0.83077000  0.44444000  0.78580000  1.0
  N  N80  1  0.66922000  0.94445000  0.78580000  1.0
  N  N81  1  0.83078000  0.55555000  0.28580000  1.0
  N  N82  1  0.33077000  0.94444000  0.71420000  1.0
  N  N83  1  0.16923000  0.55556000  0.21420000  1.0
  N  N84  1  0.22421000  0.07488000  0.15015000  1.0
  N  N85  1  0.27579000  0.42512000  0.65015000  1.0
  N  N86  1  0.77579000  0.07488000  0.34986000  1.0
  N  N87  1  0.72420000  0.42512000  0.84985000  1.0
  N  N88  1  0.77579000  0.92512000  0.84985000  1.0
  N  N89  1  0.72420000  0.57487000  0.34985000  1.0
  N  N90  1  0.22421000  0.92512000  0.65014000  1.0
  N  N91  1  0.27579000  0.57488000  0.15015000  1.0
  O  O92  1  0.57925000  0.21240000  0.12029000  1.0
  O  O93  1  0.92076000  0.28760000  0.62029000  1.0
  O  O94  1  0.42076000  0.21240000  0.37971000  1.0
  O  O95  1  0.07924000  0.28760000  0.87971000  1.0
  O  O96  1  0.42076000  0.78760000  0.87971000  1.0
  O  O97  1  0.07925000  0.71240000  0.37971000  1.0
  O  O98  1  0.57924000  0.78760000  0.62029000  1.0
  O  O99  1  0.92075000  0.71240000  0.12029000  1.0
  O  O100  1  0.80433000  0.06123000  0.05664000  1.0
  O  O101  1  0.69567000  0.43877000  0.55664000  1.0
  O  O102  1  0.19567000  0.06123000  0.44336000  1.0
  O  O103  1  0.30433000  0.43877000  0.94336000  1.0
  O  O104  1  0.19567000  0.93877000  0.94336000  1.0
  O  O105  1  0.30433000  0.56123000  0.44336000  1.0
  O  O106  1  0.80432000  0.93877000  0.55664000  1.0
  O  O107  1  0.69567000  0.56123000  0.05664000  1.0
  O  O108  1  0.83448000  0.32012000  0.05735000  1.0
  O  O109  1  0.66552000  0.17988000  0.55735000  1.0
  O  O110  1  0.16552000  0.32012000  0.44265000  1.0
  O  O111  1  0.33448000  0.17988000  0.94265000  1.0
  O  O112  1  0.16552000  0.67988000  0.94264000  1.0
  O  O113  1  0.33448000  0.82012000  0.44265000  1.0
  O  O114  1  0.83447000  0.67988000  0.55736000  1.0
  O  O115  1  0.66552000  0.82012000  0.05735000  1.0
  O  O116  1  0.63058000  0.21298000  0.96014000  1.0
  O  O117  1  0.86942000  0.28702000  0.46014000  1.0
  O  O118  1  0.36942000  0.21298000  0.53986000  1.0
  O  O119  1  0.13058000  0.28702000  0.03986000  1.0
  O  O120  1  0.36942000  0.78702000  0.03986000  1.0
  O  O121  1  0.13058000  0.71298000  0.53986000  1.0
  O  O122  1  0.63058000  0.78702000  0.46014000  1.0
  O  O123  1  0.86942000  0.71298000  0.96014000  1.0
