# generated using pymatgen
data_CuH10C12(N2O5)2
_symmetry_space_group_name_H-M   'P 1'
_cell_length_a   5.45157000
_cell_length_b   9.73139000
_cell_length_c   14.03710000
_cell_angle_alpha   89.99990000
_cell_angle_beta   85.43500000
_cell_angle_gamma   89.99940000
_symmetry_Int_Tables_number   1
_chemical_formula_structural   CuH10C12(N2O5)2
_chemical_formula_sum   'Cu2 H20 C24 N8 O20'
_cell_volume   742.32477456
_cell_formula_units_Z   2
loop_
 _symmetry_equiv_pos_site_id
 _symmetry_equiv_pos_as_xyz
  1  'x, y, z'
loop_
 _atom_site_type_symbol
 _atom_site_label
 _atom_site_symmetry_multiplicity
 _atom_site_fract_x
 _atom_site_fract_y
 _atom_site_fract_z
 _atom_site_occupancy
  Cu  Cu0  1  0.50000000  0.00000000  0.50000000  1.0
  Cu  Cu1  1  0.00000000  0.50000000  0.00000000  1.0
  H  H2  1  0.11328000  0.08724000  0.40830000  1.0
  H  H3  1  0.38673000  0.58724000  0.09170000  1.0
  H  H4  1  0.88672000  0.91276000  0.59170000  1.0
  H  H5  1  0.61327000  0.41276000  0.90830000  1.0
  H  H6  1  0.36970000  0.17217000  0.38676000  1.0
  H  H7  1  0.13032000  0.67217000  0.11323000  1.0
  H  H8  1  0.63030000  0.82783000  0.61324000  1.0
  H  H9  1  0.86969000  0.32783000  0.88677000  1.0
  H  H10  1  0.74368000  0.87749000  0.32575000  1.0
  H  H11  1  0.75632000  0.37749000  0.17425000  1.0
  H  H12  1  0.25632000  0.12251000  0.67426000  1.0
  H  H13  1  0.24368000  0.62251000  0.82575000  1.0
  H  H14  1  0.10175000  0.78137000  0.49356000  1.0
  H  H15  1  0.39825000  0.28137000  0.00644000  1.0
  H  H16  1  0.89825000  0.21863000  0.50644000  1.0
  H  H17  1  0.60176000  0.71863000  0.99357000  1.0
  H  H18  1  0.33122000  0.51699000  0.25683000  1.0
  H  H19  1  0.16879000  0.01699000  0.24317000  1.0
  H  H20  1  0.66878000  0.48301000  0.74317000  1.0
  H  H21  1  0.83121000  0.98301000  0.75683000  1.0
  C  C22  1  0.55950000  0.69511000  0.27888000  1.0
  C  C23  1  0.94050000  0.19510000  0.22111000  1.0
  C  C24  1  0.44049000  0.30489000  0.72112000  1.0
  C  C25  1  0.05950000  0.80490000  0.77889000  1.0
  C  C26  1  0.58857000  0.80777000  0.33887000  1.0
  C  C27  1  0.91143000  0.30777000  0.16112000  1.0
  C  C28  1  0.41143000  0.19222000  0.66113000  1.0
  C  C29  1  0.08857000  0.69223000  0.83888000  1.0
  C  C30  1  0.23188000  0.75568000  0.43344000  1.0
  C  C31  1  0.26812000  0.25567000  0.06656000  1.0
  C  C32  1  0.76812000  0.24432000  0.56656000  1.0
  C  C33  1  0.73188000  0.74433000  0.93344000  1.0
  C  C34  1  0.19664000  0.64122000  0.37689000  1.0
  C  C35  1  0.30336000  0.14121000  0.12311000  1.0
  C  C36  1  0.80335000  0.35878000  0.62311000  1.0
  C  C37  1  0.69664000  0.85878000  0.87690000  1.0
  C  C38  1  0.36017000  0.60797000  0.29948000  1.0
  C  C39  1  0.13983000  0.10796000  0.20051000  1.0
  C  C40  1  0.63983000  0.39204000  0.70051000  1.0
  C  C41  1  0.86017000  0.89204000  0.79949000  1.0
  C  C42  1  0.74211000  0.66922000  0.19413000  1.0
  C  C43  1  0.75790000  0.16922000  0.30586000  1.0
  C  C44  1  0.25790000  0.33078000  0.80587000  1.0
  C  C45  1  0.24210000  0.83078000  0.69414000  1.0
  N  N46  1  0.42870000  0.83723000  0.41422000  1.0
  N  N47  1  0.07130000  0.33723000  0.08578000  1.0
  N  N48  1  0.57131000  0.16277000  0.58578000  1.0
  N  N49  1  0.92871000  0.66277000  0.91422000  1.0
  N  N50  1  0.97539000  0.55725000  0.39693000  1.0
  N  N51  1  0.52463000  0.05726000  0.10307000  1.0
  N  N52  1  0.02460000  0.44275000  0.60307000  1.0
  N  N53  1  0.47537000  0.94274000  0.89694000  1.0
  O  O54  1  0.94851000  0.72847000  0.19431000  1.0
  O  O55  1  0.55149000  0.22847000  0.30570000  1.0
  O  O56  1  0.05149000  0.27153000  0.80569000  1.0
  O  O57  1  0.44850000  0.77153000  0.69431000  1.0
  O  O58  1  0.67615000  0.58757000  0.12944000  1.0
  O  O59  1  0.82386000  0.08757000  0.37056000  1.0
  O  O60  1  0.32385000  0.41243000  0.87056000  1.0
  O  O61  1  0.17613000  0.91243000  0.62945000  1.0
  O  O62  1  0.95225000  0.45418000  0.34664000  1.0
  O  O63  1  0.54778000  0.95419000  0.15336000  1.0
  O  O64  1  0.04774000  0.54582000  0.65334000  1.0
  O  O65  1  0.45221000  0.04581000  0.84664000  1.0
  O  O66  1  0.82227000  0.59576000  0.46140000  1.0
  O  O67  1  0.67774000  0.09577000  0.03860000  1.0
  O  O68  1  0.17774000  0.40423000  0.53860000  1.0
  O  O69  1  0.32226000  0.90424000  0.96141000  1.0
  O  O70  1  0.26228000  0.12034000  0.43874000  1.0
  O  O71  1  0.23773000  0.62034000  0.06126000  1.0
  O  O72  1  0.73772000  0.87966000  0.56126000  1.0
  O  O73  1  0.76227000  0.37966000  0.93874000  1.0
