# generated using pymatgen
data_AlH6C21Br6NO6
_symmetry_space_group_name_H-M   'P 1'
_cell_length_a   4.16744000
_cell_length_b   13.55050962
_cell_length_c   13.55030000
_cell_angle_alpha   59.99753528
_cell_angle_beta   89.99880000
_cell_angle_gamma   90.00029995
_symmetry_Int_Tables_number   1
_chemical_formula_structural   AlH6C21Br6NO6
_chemical_formula_sum   'Al1 H6 C21 Br6 N1 O6'
_cell_volume   662.66455296
_cell_formula_units_Z   1
loop_
 _symmetry_equiv_pos_site_id
 _symmetry_equiv_pos_as_xyz
  1  'x, y, z'
loop_
 _atom_site_type_symbol
 _atom_site_label
 _atom_site_symmetry_multiplicity
 _atom_site_fract_x
 _atom_site_fract_y
 _atom_site_fract_z
 _atom_site_occupancy
  Al  Al0  1  0.00000000  1.00000000  0.50001000  1.0
  H  H1  1  0.76380000  0.12715000  0.97132000  1.0
  H  H2  1  0.23620000  0.40154000  0.97129000  1.0
  H  H3  1  0.23620000  0.12716000  0.90155000  1.0
  H  H4  1  0.76379000  0.40155000  0.62715000  1.0
  H  H5  1  0.23623000  0.47131000  0.62716000  1.0
  H  H6  1  0.76379000  0.47129000  0.90155000  1.0
  C  C7  1  0.49998000  0.08710000  0.58711000  1.0
  C  C8  1  0.49999000  0.82580000  0.58710000  1.0
  C  C9  1  0.50000000  0.08711000  0.32580000  1.0
  C  C10  1  0.63593000  0.10581000  0.13393000  1.0
  C  C11  1  0.64754000  0.16576000  0.01547000  1.0
  C  C12  1  0.50000000  0.27285000  0.95430000  1.0
  C  C13  1  0.35246000  0.31878000  0.01546000  1.0
  C  C14  1  0.36406000  0.26028000  0.13392000  1.0
  C  C15  1  0.50001000  0.15146000  0.19710000  1.0
  C  C16  1  0.35247000  0.16576000  0.81879000  1.0
  C  C17  1  0.36405000  0.10581000  0.76028000  1.0
  C  C18  1  0.50000000  0.15145000  0.65146000  1.0
  C  C19  1  0.63596000  0.26027000  0.60581000  1.0
  C  C20  1  0.64755000  0.31878000  0.66576000  1.0
  C  C21  1  0.50001000  0.27285000  0.77285000  1.0
  C  C22  1  0.35248000  0.51547000  0.66576000  1.0
  C  C23  1  0.36406000  0.63393000  0.60580000  1.0
  C  C24  1  0.49999000  0.69710000  0.65146000  1.0
  C  C25  1  0.63594000  0.63392000  0.76027000  1.0
  C  C26  1  0.64755000  0.51546000  0.81878000  1.0
  C  C27  1  0.50002000  0.45430000  0.77285000  1.0
  Br  Br28  1  0.19150000  0.33431000  0.20958000  1.0
  Br  Br29  1  0.80843000  0.95611000  0.20959000  1.0
  Br  Br30  1  0.19150000  0.95611000  0.83433000  1.0
  Br  Br31  1  0.80847000  0.33432000  0.45611000  1.0
  Br  Br32  1  0.19155000  0.70958000  0.45610000  1.0
  Br  Br33  1  0.80844000  0.70957000  0.83432000  1.0
  N  N34  1  0.50002000  0.33333333  0.83333667  1.0
  O  O35  1  0.26312000  0.02184000  0.37459000  1.0
  O  O36  1  0.26309000  0.10358000  0.52184000  1.0
  O  O37  1  0.26307000  0.87458000  0.60360000  1.0
  O  O38  1  0.73692000  0.10360000  0.37459000  1.0
  O  O39  1  0.73688000  0.87459000  0.52183000  1.0
  O  O40  1  0.73689000  0.02182000  0.60359000  1.0
