# generated using pymatgen
data_ZnH29C29I5N3O7
_symmetry_space_group_name_H-M   'P 1'
_cell_length_a   14.58520000
_cell_length_b   15.91280000
_cell_length_c   19.31090000
_cell_angle_alpha   89.87760000
_cell_angle_beta   89.90890000
_cell_angle_gamma   89.86780000
_symmetry_Int_Tables_number   1
_chemical_formula_structural   ZnH29C29I5N3O7
_chemical_formula_sum   'Zn2 H58 C58 I10 N6 O14'
_cell_volume   4481.86546027
_cell_formula_units_Z   2
loop_
 _symmetry_equiv_pos_site_id
 _symmetry_equiv_pos_as_xyz
  1  'x, y, z'
loop_
 _atom_site_type_symbol
 _atom_site_label
 _atom_site_symmetry_multiplicity
 _atom_site_fract_x
 _atom_site_fract_y
 _atom_site_fract_z
 _atom_site_occupancy
  Zn  Zn0  1  0.40469000  0.50133000  0.49608000  1.0
  Zn  Zn1  1  0.59818000  0.50201000  0.49707000  1.0
  H  H2  1  0.06693000  0.58986000  0.42921000  1.0
  H  H3  1  0.91876000  0.61665000  0.45071000  1.0
  H  H4  1  0.91002000  0.38840000  0.44487000  1.0
  H  H5  1  0.05255000  0.36907000  0.48450000  1.0
  H  H6  1  0.41607000  0.60896000  0.84843000  1.0
  H  H7  1  0.57446000  0.37992000  0.84507000  1.0
  H  H8  1  0.42538000  0.61439000  0.27573000  1.0
  H  H9  1  0.57655000  0.38265000  0.28092000  1.0
  H  H10  1  0.51308000  0.06099000  0.40689000  1.0
  H  H11  1  0.63448000  0.08361000  0.49563000  1.0
  H  H12  1  0.45922000  0.92059000  0.40428000  1.0
  H  H13  1  0.61243000  0.94298000  0.45895000  1.0
  H  H14  1  0.63043000  0.91971000  0.54733000  1.0
  H  H15  1  0.36221000  0.94384000  0.45595000  1.0
  H  H16  1  0.60509000  0.06066000  0.58255000  1.0
  H  H17  1  0.39695000  0.08440000  0.42517000  1.0
  H  H18  1  0.83759000  0.50208000  0.30292000  1.0
  H  H19  1  0.80176000  0.43191000  0.36911000  1.0
  H  H20  1  0.95757000  0.40158000  0.26437000  1.0
  H  H21  1  0.93239000  0.33311000  0.33361000  1.0
  H  H22  1  0.77233000  0.31090000  0.28665000  1.0
  H  H23  1  0.85652000  0.28339000  0.22418000  1.0
  H  H24  1  0.79624000  0.37985000  0.21673000  1.0
  H  H25  1  0.17496000  0.52140000  0.37431000  1.0
  H  H26  1  0.06736000  0.51221000  0.33011000  1.0
  H  H27  1  0.23704000  0.40094000  0.30866000  1.0
  H  H28  1  0.13224000  0.39051000  0.26349000  1.0
  H  H29  1  0.15195000  0.53666000  0.21316000  1.0
  H  H30  1  0.24808000  0.47279000  0.19284000  1.0
  H  H31  1  0.25609000  0.54805000  0.25987000  1.0
  H  H32  1  0.95617000  0.52312000  0.72569000  1.0
  H  H33  1  0.94507000  0.41472000  0.70361000  1.0
  H  H34  1  0.78348000  0.53566000  0.72799000  1.0
  H  H35  1  0.77448000  0.42762000  0.70889000  1.0
  H  H36  1  0.85629000  0.39162000  0.82092000  1.0
  H  H37  1  0.75585000  0.45175000  0.83669000  1.0
  H  H38  1  0.86514000  0.50028000  0.84060000  1.0
  H  H39  1  0.18034000  0.61347000  0.62371000  1.0
  H  H40  1  0.20887000  0.50636000  0.64338000  1.0
  H  H41  1  0.12821000  0.52002000  0.75764000  1.0
  H  H42  1  0.22706000  0.58273000  0.74909000  1.0
  H  H43  1  0.13276000  0.71096000  0.72730000  1.0
  H  H44  1  0.09775000  0.66316000  0.80617000  1.0
  H  H45  1  0.03024000  0.65130000  0.73021000  1.0
  H  H46  1  0.83192000  0.72080000  0.59522000  1.0
  H  H47  1  0.79951000  0.67404000  0.51572000  1.0
  H  H48  1  0.94361000  0.81303000  0.53274000  1.0
  H  H49  1  0.91287000  0.76702000  0.45286000  1.0
  H  H50  1  0.74908000  0.81758000  0.46884000  1.0
  H  H51  1  0.82769000  0.90292000  0.46915000  1.0
  H  H52  1  0.78076000  0.86524000  0.54816000  1.0
  H  H53  1  0.13049000  0.77441000  0.51177000  1.0
  H  H54  1  0.07530000  0.73146000  0.43819000  1.0
  H  H55  1  0.27585000  0.69977000  0.48086000  1.0
  H  H56  1  0.22296000  0.65444000  0.40798000  1.0
  H  H57  1  0.19856000  0.79759000  0.35510000  1.0
  H  H58  1  0.31620000  0.78211000  0.37574000  1.0
  H  H59  1  0.24621000  0.84525000  0.43002000  1.0
  C  C60  1  0.50078000  0.66308000  0.49913000  1.0
  C  C61  1  0.49324000  0.48983000  0.93018000  1.0
  C  C62  1  0.45673000  0.55958000  0.17597000  1.0
  C  C63  1  0.53718000  0.42675000  0.17907000  1.0
  C  C64  1  0.45757000  0.56263000  0.24800000  1.0
  C  C65  1  0.54271000  0.43169000  0.25095000  1.0
  C  C66  1  0.50181000  0.49923000  0.28527000  1.0
  C  C67  1  0.49559000  0.49126000  0.13949000  1.0
  C  C68  1  0.43603000  0.95529000  0.45016000  1.0
  C  C69  1  0.58666000  0.95496000  0.51155000  1.0
  C  C70  1  0.58600000  0.04889000  0.52840000  1.0
  C  C71  1  0.45686000  0.04932000  0.44359000  1.0
  C  C72  1  0.49855000  0.25053000  0.50255000  1.0
  C  C73  1  0.48727000  0.91970000  0.51429000  1.0
  C  C74  1  0.48845000  0.08444000  0.51486000  1.0
  C  C75  1  0.49801000  0.50035000  0.63064000  1.0
  C  C76  1  0.42275000  0.05112000  0.57367000  1.0
  C  C77  1  0.43780000  0.95302000  0.58134000  1.0
  C  C78  1  0.49080000  0.17533000  0.51131000  1.0
  C  C79  1  0.49027000  0.82895000  0.51106000  1.0
  C  C80  1  0.49816000  0.75358000  0.50344000  1.0
  C  C81  1  0.95074000  0.59372000  0.49874000  1.0
  C  C82  1  0.05665000  0.58599000  0.48560000  1.0
  C  C83  1  0.94667000  0.44869000  0.44450000  1.0
  C  C84  1  0.05017000  0.42895000  0.45586000  1.0
  C  C85  1  0.91310000  0.50099000  0.50876000  1.0
  C  C86  1  0.09050000  0.49602000  0.50739000  1.0
  C  C87  1  0.05560000  0.47296000  0.58302000  1.0
  C  C88  1  0.94627000  0.46276000  0.57859000  1.0
  C  C89  1  0.18922000  0.49492000  0.50376000  1.0
  C  C90  1  0.81414000  0.50278000  0.50778000  1.0
  C  C91  1  0.50270000  0.34087000  0.49664000  1.0
  C  C92  1  0.50341000  0.50294000  0.36290000  1.0
  C  C93  1  0.45563000  0.56339000  0.74715000  1.0
  C  C94  1  0.53927000  0.43250000  0.74524000  1.0
  C  C95  1  0.45099000  0.55992000  0.81922000  1.0
  C  C96  1  0.54052000  0.43077000  0.81730000  1.0
  C  C97  1  0.49468000  0.49385000  0.85418000  1.0
  C  C98  1  0.49782000  0.49898000  0.70879000  1.0
  C  C99  1  0.49369000  0.48803000  0.06320000  1.0
  C  C100  1  0.86135000  0.45220000  0.33805000  1.0
  C  C101  1  0.90142000  0.37877000  0.29754000  1.0
  C  C102  1  0.82767000  0.33598000  0.25389000  1.0
  C  C103  1  0.12798000  0.47740000  0.34826000  1.0
  C  C104  1  0.17811000  0.43636000  0.28822000  1.0
  C  C105  1  0.21013000  0.50205000  0.23565000  1.0
  C  C106  1  0.91092000  0.47649000  0.70177000  1.0
  C  C107  1  0.81711000  0.47434000  0.73555000  1.0
  C  C108  1  0.82411000  0.45340000  0.81266000  1.0
  C  C109  1  0.16079000  0.55804000  0.65421000  1.0
  C  C110  1  0.15584000  0.57593000  0.73123000  1.0
  C  C111  1  0.10086000  0.65455000  0.74979000  1.0
  C  C112  1  0.85657000  0.70498000  0.54301000  1.0
  C  C113  1  0.88638000  0.78404000  0.50449000  1.0
  C  C114  1  0.80667000  0.84590000  0.49707000  1.0
  C  C115  1  0.13033000  0.72027000  0.47636000  1.0
  C  C116  1  0.22314000  0.71073000  0.44117000  1.0
  C  C117  1  0.24716000  0.78819000  0.39796000  1.0
  I  I118  1  0.40403000  0.67183000  0.69692000  1.0
  I  I119  1  0.59641000  0.32927000  0.69216000  1.0
  I  I120  1  0.28169000  0.09072000  0.54409000  1.0
  I  I121  1  0.44605000  0.12405000  0.66801000  1.0
  I  I122  1  0.89291000  0.32365000  0.57726000  1.0
  I  I123  1  0.13331000  0.35350000  0.61477000  1.0
  I  I124  1  0.39928000  0.66515000  0.12550000  1.0
  I  I125  1  0.58630000  0.31404000  0.13456000  1.0
  I  I126  1  0.31174000  0.88053000  0.60051000  1.0
  I  I127  1  0.52474000  0.91373000  0.67005000  1.0
  N  N128  1  0.57248000  0.46827000  0.96213000  1.0
  N  N129  1  0.41276000  0.50486000  0.96283000  1.0
  N  N130  1  0.57296000  0.46897000  0.03049000  1.0
  N  N131  1  0.41285000  0.50244000  0.03134000  1.0
  N  N132  1  0.26789000  0.49840000  0.49653000  1.0
  N  N133  1  0.73526000  0.50566000  0.50156000  1.0
  O  O134  1  0.42545000  0.62624000  0.51270000  1.0
  O  O135  1  0.57681000  0.62908000  0.48282000  1.0
  O  O136  1  0.42300000  0.48135000  0.60167000  1.0
  O  O137  1  0.57309000  0.51978000  0.60174000  1.0
  O  O138  1  0.42833000  0.37733000  0.47928000  1.0
  O  O139  1  0.57934000  0.37530000  0.50977000  1.0
  O  O140  1  0.42914000  0.52549000  0.39192000  1.0
  O  O141  1  0.57833000  0.48291000  0.39209000  1.0
  O  O142  1  0.92734000  0.49323000  0.38279000  1.0
  O  O143  1  0.10074000  0.41137000  0.39564000  1.0
  O  O144  1  0.89872000  0.50104000  0.62959000  1.0
  O  O145  1  0.06917000  0.53292000  0.63165000  1.0
  O  O146  1  0.93111000  0.64675000  0.55425000  1.0
  O  O147  1  0.10762000  0.64848000  0.51894000  1.0
