# generated using pymatgen
data_Zn2H13C29N5O8
_symmetry_space_group_name_H-M   'P 1'
_cell_length_a   9.79626000
_cell_length_b   10.99340000
_cell_length_c   14.42870000
_cell_angle_alpha   84.21220000
_cell_angle_beta   88.89020000
_cell_angle_gamma   88.21780000
_symmetry_Int_Tables_number   1
_chemical_formula_structural   Zn2H13C29N5O8
_chemical_formula_sum   'Zn2 H13 C29 N5 O8'
_cell_volume   1545.01226739
_cell_formula_units_Z   1
loop_
 _symmetry_equiv_pos_site_id
 _symmetry_equiv_pos_as_xyz
  1  'x, y, z'
loop_
 _atom_site_type_symbol
 _atom_site_label
 _atom_site_symmetry_multiplicity
 _atom_site_fract_x
 _atom_site_fract_y
 _atom_site_fract_z
 _atom_site_occupancy
  Zn  Zn0  1  0.63991000  0.49350000  0.50260000  1.0
  Zn  Zn1  1  0.36141000  0.50138000  0.51280000  1.0
  H  H2  1  0.27959000  0.88555000  0.55688000  1.0
  H  H3  1  0.89475000  0.56418000  0.28648000  1.0
  H  H4  1  0.14668000  0.56294000  0.29326000  1.0
  H  H5  1  0.27622000  0.11245000  0.54684000  1.0
  H  H6  1  0.75883000  0.11609000  0.37178000  1.0
  H  H7  1  0.81942000  0.11250000  0.48772000  1.0
  H  H8  1  0.76075000  0.89143000  0.38191000  1.0
  H  H9  1  0.85245000  0.51464000  0.64373000  1.0
  H  H10  1  0.86642000  0.99144000  0.61887000  1.0
  H  H11  1  0.75888000  0.86647000  0.64932000  1.0
  H  H12  1  0.93916000  0.84571000  0.65585000  1.0
  H  H13  1  0.84896000  0.76142000  0.51383000  1.0
  H  H14  1  0.96270000  0.88167000  0.48273000  1.0
  C  C15  1  0.48863000  0.73142000  0.51668000  1.0
  C  C16  1  0.52162000  0.46170000  0.79001000  1.0
  C  C17  1  0.60548000  0.93401000  0.48608000  1.0
  C  C18  1  0.49021000  0.86694000  0.51327000  1.0
  C  C19  1  0.37132000  0.93514000  0.53507000  1.0
  C  C20  1  0.36934000  0.06241000  0.52933000  1.0
  C  C21  1  0.48607000  0.12966000  0.50133000  1.0
  C  C22  1  0.60286000  0.06171000  0.47987000  1.0
  C  C23  1  0.74815000  0.07119000  0.44297000  1.0
  C  C24  1  0.75325000  0.92627000  0.45085000  1.0
  C  C25  1  0.07849000  0.49083000  0.43428000  1.0
  C  C26  1  0.51063000  0.52763000  0.32338000  1.0
  C  C27  1  0.06064000  0.51749000  0.58642000  1.0
  C  C28  1  0.91753000  0.50896000  0.58196000  1.0
  C  C29  1  0.93739000  0.48667000  0.42920000  1.0
  C  C30  1  0.93657000  0.47963000  0.32431000  1.0
  C  C31  1  0.10292000  0.48045000  0.33034000  1.0
  C  C32  1  0.48341000  0.26528000  0.49783000  1.0
  C  C33  1  0.52308000  0.46269000  0.69012000  1.0
  C  C34  1  0.50505000  0.52172000  0.22440000  1.0
  C  C35  1  0.50555000  0.50850000  0.14094000  1.0
  C  C36  1  0.50761000  0.49402000  0.04981000  1.0
  C  C37  1  0.51141000  0.48094000  0.96588000  1.0
  C  C38  1  0.51638000  0.46969000  0.87424000  1.0
  C  C39  1  0.17494000  0.37203000  0.30340000  1.0
  C  C40  1  0.86160000  0.86052000  0.51434000  1.0
  C  C41  1  0.85613000  0.89282000  0.61500000  1.0
  C  C42  1  0.11484000  0.54204000  0.67364000  1.0
  C  C43  1  0.87823000  0.37425000  0.28913000  1.0
  N  N44  1  0.14504000  0.50669000  0.51112000  1.0
  N  N45  1  0.85363000  0.49374000  0.50200000  1.0
  N  N46  1  0.22846000  0.28381000  0.28004000  1.0
  N  N47  1  0.14592000  0.56568000  0.74726000  1.0
  N  N48  1  0.83503000  0.28870000  0.25973000  1.0
  O  O49  1  0.60346000  0.67519000  0.50774000  1.0
  O  O50  1  0.37311000  0.68026000  0.52705000  1.0
  O  O51  1  0.62965000  0.52201000  0.35825000  1.0
  O  O52  1  0.39721000  0.53643000  0.36760000  1.0
  O  O53  1  0.59910000  0.31640000  0.49622000  1.0
  O  O54  1  0.36720000  0.32111000  0.49795000  1.0
  O  O55  1  0.63912000  0.47165000  0.64851000  1.0
  O  O56  1  0.40806000  0.45641000  0.65193000  1.0
