# generated using pymatgen
data_NdH8(CO)9
_symmetry_space_group_name_H-M   'P 1'
_cell_length_a   7.81765000
_cell_length_b   8.52312000
_cell_length_c   9.69708000
_cell_angle_alpha   68.36850000
_cell_angle_beta   76.55780000
_cell_angle_gamma   76.22310000
_symmetry_Int_Tables_number   1
_chemical_formula_structural   NdH8(CO)9
_chemical_formula_sum   'Nd2 H16 C18 O18'
_cell_volume   575.80170947
_cell_formula_units_Z   2
loop_
 _symmetry_equiv_pos_site_id
 _symmetry_equiv_pos_as_xyz
  1  'x, y, z'
loop_
 _atom_site_type_symbol
 _atom_site_label
 _atom_site_symmetry_multiplicity
 _atom_site_fract_x
 _atom_site_fract_y
 _atom_site_fract_z
 _atom_site_occupancy
  Nd  Nd0  1  0.25206000  0.27509000  0.45241000  1.0
  Nd  Nd1  1  0.74794000  0.72491000  0.54759000  1.0
  H  H2  1  0.01298000  0.31330000  0.23093000  1.0
  H  H3  1  0.98703000  0.68669000  0.76907000  1.0
  H  H4  1  0.88712000  0.38699000  0.35883000  1.0
  H  H5  1  0.11289000  0.61301000  0.64116000  1.0
  H  H6  1  0.84254000  0.59759000  0.02220000  1.0
  H  H7  1  0.15747000  0.40241000  0.97780000  1.0
  H  H8  1  0.68745000  0.74222000  0.19111000  1.0
  H  H9  1  0.31255000  0.25778000  0.80888000  1.0
  H  H10  1  0.99021000  0.97616000  0.75928000  1.0
  H  H11  1  0.00980000  0.02385000  0.24071000  1.0
  H  H12  1  0.63658000  0.29198000  0.00203000  1.0
  H  H13  1  0.36341000  0.70802000  0.99797000  1.0
  H  H14  1  0.32689000  0.91497000  0.48267000  1.0
  H  H15  1  0.67310000  0.08503000  0.51733000  1.0
  H  H16  1  0.13042000  0.88682000  0.57016000  1.0
  H  H17  1  0.86958000  0.11317000  0.42984000  1.0
  C  C18  1  0.52993000  0.03156000  0.25207000  1.0
  C  C19  1  0.47006000  0.96844000  0.74794000  1.0
  C  C20  1  0.65027000  0.01853000  0.11088000  1.0
  C  C21  1  0.34973000  0.98147000  0.88910000  1.0
  C  C22  1  0.72265000  0.85608000  0.09920000  1.0
  C  C23  1  0.27735000  0.14392000  0.90080000  1.0
  C  C24  1  0.84128000  0.84175000  0.97145000  1.0
  C  C25  1  0.15871000  0.15824000  0.02857000  1.0
  C  C26  1  0.89336000  0.98661000  0.85732000  1.0
  C  C27  1  0.10664000  0.01341000  0.14268000  1.0
  C  C28  1  0.81927000  0.14877000  0.86843000  1.0
  C  C29  1  0.18073000  0.85123000  0.13158000  1.0
  C  C30  1  0.69500000  0.16560000  0.99405000  1.0
  C  C31  1  0.30498000  0.83440000  0.00596000  1.0
  C  C32  1  0.87395000  0.30370000  0.74280000  1.0
  C  C33  1  0.12605000  0.69631000  0.25721000  1.0
  C  C34  1  0.42504000  0.52776000  0.55872000  1.0
  C  C35  1  0.57498000  0.47223000  0.44127000  1.0
  O  O36  1  0.42519000  0.17065000  0.24958000  1.0
  O  O37  1  0.57479000  0.82935000  0.75042000  1.0
  O  O38  1  0.20985000  0.97375000  0.52083000  1.0
  O  O39  1  0.79015000  0.02623000  0.47918000  1.0
  O  O40  1  0.53939000  0.89817000  0.37100000  1.0
  O  O41  1  0.46061000  0.10183000  0.62901000  1.0
  O  O42  1  0.98284000  0.29072000  0.34075000  1.0
  O  O43  1  0.01717000  0.70927000  0.65925000  1.0
  O  O44  1  0.91508000  0.68317000  0.95522000  1.0
  O  O45  1  0.08492000  0.31684000  0.04477000  1.0
  O  O46  1  0.99901000  0.27987000  0.63797000  1.0
  O  O47  1  0.00100000  0.72015000  0.36205000  1.0
  O  O48  1  0.79159000  0.45033000  0.74584000  1.0
  O  O49  1  0.20840000  0.54968000  0.25417000  1.0
  O  O50  1  0.27604000  0.47868000  0.57871000  1.0
  O  O51  1  0.72398000  0.52131000  0.42128000  1.0
  O  O52  1  0.45761000  0.61568000  0.62558000  1.0
  O  O53  1  0.54239000  0.38432000  0.37441000  1.0
