# generated using pymatgen
data_Tb2Zn3H36C30(N2O5)6
_symmetry_space_group_name_H-M   'P 1'
_cell_length_a   10.81900000
_cell_length_b   12.59140000
_cell_length_c   12.59140000
_cell_angle_alpha   90.85830000
_cell_angle_beta   114.34000000
_cell_angle_gamma   114.34000000
_symmetry_Int_Tables_number   1
_chemical_formula_structural   Tb2Zn3H36C30(N2O5)6
_chemical_formula_sum   'Tb2 Zn3 H36 C30 N12 O30'
_cell_volume   1388.15946158
_cell_formula_units_Z   1
loop_
 _symmetry_equiv_pos_site_id
 _symmetry_equiv_pos_as_xyz
  1  'x, y, z'
loop_
 _atom_site_type_symbol
 _atom_site_label
 _atom_site_symmetry_multiplicity
 _atom_site_fract_x
 _atom_site_fract_y
 _atom_site_fract_z
 _atom_site_occupancy
  Tb  Tb0  1  0.50000000  0.79277000  0.20723000  1.0
  Tb  Tb1  1  0.50000000  0.20723000  0.79277000  1.0
  Zn  Zn2  1  0.50000000  0.00000000  0.00000000  1.0
  Zn  Zn3  1  0.50000000  0.50000000  0.00000000  1.0
  Zn  Zn4  1  0.50000000  0.00000000  0.50000000  1.0
  H  H5  1  0.38880000  0.14577000  0.26353000  1.0
  H  H6  1  0.95275000  0.56737000  0.05697000  1.0
  H  H7  1  0.23320000  0.89688000  0.80677000  1.0
  H  H8  1  0.23438000  0.21981000  0.00268000  1.0
  H  H9  1  0.27838000  0.34789000  0.78999000  1.0
  H  H10  1  0.04725000  0.43263000  0.94303000  1.0
  H  H11  1  0.65470000  0.52490000  0.23254000  1.0
  H  H12  1  0.04725000  0.94303000  0.43263000  1.0
  H  H13  1  0.76562000  0.99732000  0.78019000  1.0
  H  H14  1  0.77856000  0.75766000  0.60140000  1.0
  H  H15  1  0.99077000  0.71037000  0.11970000  1.0
  H  H16  1  0.76681000  0.19323000  0.10313000  1.0
  H  H17  1  0.77856000  0.60140000  0.75766000  1.0
  H  H18  1  0.72162000  0.21000000  0.65210000  1.0
  H  H19  1  0.23319000  0.80677000  0.89687000  1.0
  H  H20  1  0.61120000  0.73647000  0.85423000  1.0
  H  H21  1  0.22144000  0.24234000  0.39860000  1.0
  H  H22  1  0.22144000  0.39860000  0.24234000  1.0
  H  H23  1  0.65470000  0.23254000  0.52490000  1.0
  H  H24  1  0.76680000  0.10312000  0.19323000  1.0
  H  H25  1  0.27838000  0.78999000  0.34790000  1.0
  H  H26  1  0.95275000  0.05697000  0.56737000  1.0
  H  H27  1  0.14544000  0.16781000  0.49164000  1.0
  H  H28  1  0.34529000  0.47510000  0.76746000  1.0
  H  H29  1  0.61120000  0.85423000  0.73647000  1.0
  H  H30  1  0.00923000  0.88029000  0.28963000  1.0
  H  H31  1  0.14545000  0.49164000  0.16781000  1.0
  H  H32  1  0.00923000  0.28963000  0.88029000  1.0
  H  H33  1  0.99077000  0.11971000  0.71037000  1.0
  H  H34  1  0.76562000  0.78020000  0.99732000  1.0
  H  H35  1  0.85455000  0.83219000  0.50836000  1.0
  H  H36  1  0.34529000  0.76746000  0.47510000  1.0
  H  H37  1  0.38880000  0.26353000  0.14577000  1.0
  H  H38  1  0.85456000  0.50836000  0.83219000  1.0
  H  H39  1  0.23438000  0.00268000  0.21981000  1.0
  H  H40  1  0.72162000  0.65210000  0.21001000  1.0
  C  C41  1  0.67390000  0.93986000  0.80113000  1.0
  C  C42  1  0.81333000  0.84253000  0.57265000  1.0
  C  C43  1  0.32830000  0.49278000  0.13914000  1.0
  C  C44  1  0.99344000  0.33714000  0.94366000  1.0
  C  C45  1  0.32830000  0.13914000  0.49278000  1.0
  C  C46  1  0.82275000  0.89778000  0.29394000  1.0
  C  C47  1  0.81333000  0.57265000  0.84253000  1.0
  C  C48  1  0.98018000  0.91505000  0.78906000  1.0
  C  C49  1  0.18666000  0.15747000  0.42735000  1.0
  C  C50  1  0.01982000  0.21094000  0.08495000  1.0
  C  C51  1  0.17725000  0.70606000  0.10222000  1.0
  C  C52  1  0.00656000  0.66286000  0.05634000  1.0
  C  C53  1  0.57047000  0.77618000  0.99906000  1.0
  C  C54  1  0.01982000  0.08495000  0.21094000  1.0
  C  C55  1  0.98018000  0.78906000  0.91505000  1.0
  C  C56  1  0.17725000  0.10222000  0.70606000  1.0
  C  C57  1  0.85610000  0.01327000  0.01327000  1.0
  C  C58  1  0.67170000  0.50722000  0.86086000  1.0
  C  C59  1  0.42953000  0.22381000  0.00094000  1.0
  C  C60  1  0.18667000  0.42735000  0.15747000  1.0
  C  C61  1  0.14390000  0.98673000  0.98673000  1.0
  C  C62  1  0.42953000  0.00094000  0.22382000  1.0
  C  C63  1  0.67170000  0.86086000  0.50722000  1.0
  C  C64  1  0.00656000  0.05634000  0.66286000  1.0
  C  C65  1  0.32610000  0.19887000  0.06014000  1.0
  C  C66  1  0.32610000  0.06014000  0.19887000  1.0
  C  C67  1  0.82275000  0.29394000  0.89778000  1.0
  C  C68  1  0.67390000  0.80113000  0.93986000  1.0
  C  C69  1  0.57047000  0.99906000  0.77619000  1.0
  C  C70  1  0.99344000  0.94366000  0.33714000  1.0
  N  N71  1  0.06766000  0.06401000  0.32320000  1.0
  N  N72  1  0.93234000  0.67680000  0.93599000  1.0
  N  N73  1  0.73727000  0.92044000  0.92044000  1.0
  N  N74  1  0.91780000  0.80161000  0.80161000  1.0
  N  N75  1  0.09151000  0.87801000  0.01142000  1.0
  N  N76  1  0.26273000  0.07957000  0.07956000  1.0
  N  N77  1  0.09151000  0.01142000  0.87802000  1.0
  N  N78  1  0.90850000  0.12199000  0.98858000  1.0
  N  N79  1  0.08220000  0.19839000  0.19839000  1.0
  N  N80  1  0.06766000  0.32320000  0.06401000  1.0
  N  N81  1  0.90849000  0.98858000  0.12199000  1.0
  N  N82  1  0.93234000  0.93599000  0.67680000  1.0
  O  O83  1  0.34049000  0.43879000  0.06123000  1.0
  O  O84  1  0.50273000  0.01131000  0.67194000  1.0
  O  O85  1  0.57514000  0.79339000  0.40457000  1.0
  O  O86  1  0.57514000  0.40457000  0.79339000  1.0
  O  O87  1  0.43923000  0.13746000  0.95504000  1.0
  O  O88  1  0.69271000  0.56703000  0.17989000  1.0
  O  O89  1  0.73757000  0.78420000  0.25986000  1.0
  O  O90  1  0.56077000  0.86254000  0.04496000  1.0
  O  O91  1  0.50273000  0.67194000  0.01131000  1.0
  O  O92  1  0.65951000  0.93876000  0.56121000  1.0
  O  O93  1  0.26243000  0.74014000  0.21580000  1.0
  O  O94  1  0.43923000  0.95504000  0.13746000  1.0
  O  O95  1  0.69271000  0.17989000  0.56703000  1.0
  O  O96  1  0.23396000  0.03217000  0.70394000  1.0
  O  O97  1  0.49727000  0.32807000  0.98869000  1.0
  O  O98  1  0.70599000  0.13577000  0.13577000  1.0
  O  O99  1  0.42486000  0.59544000  0.20661000  1.0
  O  O100  1  0.30729000  0.43297000  0.82011000  1.0
  O  O101  1  0.56077000  0.04496000  0.86254000  1.0
  O  O102  1  0.34049000  0.06124000  0.43879000  1.0
  O  O103  1  0.42486000  0.20661000  0.59544000  1.0
  O  O104  1  0.76605000  0.96783000  0.29607000  1.0
  O  O105  1  0.23396000  0.70393000  0.03217000  1.0
  O  O106  1  0.29401000  0.86423000  0.86423000  1.0
  O  O107  1  0.30728000  0.82011000  0.43297000  1.0
  O  O108  1  0.73757000  0.25986000  0.78420000  1.0
  O  O109  1  0.65951000  0.56121000  0.93876000  1.0
  O  O110  1  0.49727000  0.98869000  0.32806000  1.0
  O  O111  1  0.26243000  0.21580000  0.74014000  1.0
  O  O112  1  0.76605000  0.29607000  0.96783000  1.0
