# generated using pymatgen
data_ZnH8C10(NO2)2
_symmetry_space_group_name_H-M   'P 1'
_cell_length_a   6.34007000
_cell_length_b   8.69746000
_cell_length_c   9.37178000
_cell_angle_alpha   82.35240000
_cell_angle_beta   79.62040000
_cell_angle_gamma   82.45360000
_symmetry_Int_Tables_number   1
_chemical_formula_structural   ZnH8C10(NO2)2
_chemical_formula_sum   'Zn2 H16 C20 N4 O8'
_cell_volume   500.74135725
_cell_formula_units_Z   2
loop_
 _symmetry_equiv_pos_site_id
 _symmetry_equiv_pos_as_xyz
  1  'x, y, z'
loop_
 _atom_site_type_symbol
 _atom_site_label
 _atom_site_symmetry_multiplicity
 _atom_site_fract_x
 _atom_site_fract_y
 _atom_site_fract_z
 _atom_site_occupancy
  Zn  Zn0  1  0.24824000  0.08098000  0.45804000  1.0
  Zn  Zn1  1  0.75175000  0.91902000  0.54196000  1.0
  H  H2  1  0.31845000  0.96092000  0.76893000  1.0
  H  H3  1  0.68155000  0.03908000  0.23108000  1.0
  H  H4  1  0.74190000  0.47903000  0.76962000  1.0
  H  H5  1  0.25811000  0.52096000  0.23038000  1.0
  H  H6  1  0.10243000  0.55869000  0.65344000  1.0
  H  H7  1  0.89758000  0.44131000  0.34655000  1.0
  H  H8  1  0.39005000  0.64585000  0.76898000  1.0
  H  H9  1  0.60997000  0.35414000  0.23101000  1.0
  H  H10  1  0.32652000  0.83647000  0.02616000  1.0
  H  H11  1  0.67347000  0.16354000  0.97384000  1.0
  H  H12  1  0.79702000  0.22636000  0.65349000  1.0
  H  H13  1  0.20296000  0.77363000  0.34651000  1.0
  H  H14  1  0.00331000  0.70288000  0.15836000  1.0
  H  H15  1  0.99669000  0.29714000  0.84164000  1.0
  H  H16  1  0.69402000  0.69624000  0.03067000  1.0
  H  H17  1  0.30597000  0.30376000  0.96934000  1.0
  C  C18  1  0.83035000  0.82796000  0.83351000  1.0
  C  C19  1  0.16964000  0.17204000  0.16650000  1.0
  C  C20  1  0.18541000  0.90340000  0.83436000  1.0
  C  C21  1  0.81459000  0.09659000  0.16564000  1.0
  C  C22  1  0.61243000  0.44126000  0.72559000  1.0
  C  C23  1  0.38758000  0.55873000  0.27441000  1.0
  C  C24  1  0.25501000  0.48705000  0.66222000  1.0
  C  C25  1  0.74500000  0.51295000  0.33777000  1.0
  C  C26  1  0.41435000  0.53450000  0.72419000  1.0
  C  C27  1  0.58567000  0.46550000  0.27579000  1.0
  C  C28  1  0.18637000  0.83303000  0.97523000  1.0
  C  C29  1  0.81362000  0.16697000  0.02477000  1.0
  C  C30  1  0.64581000  0.30265000  0.66422000  1.0
  C  C31  1  0.35418000  0.69734000  0.33579000  1.0
  C  C32  1  0.00750000  0.75847000  0.04698000  1.0
  C  C33  1  0.99251000  0.24154000  0.95302000  1.0
  C  C34  1  0.83363000  0.75502000  0.97724000  1.0
  C  C35  1  0.16637000  0.24499000  0.02276000  1.0
  C  C36  1  0.28619000  0.34403000  0.60079000  1.0
  C  C37  1  0.71381000  0.65597000  0.39921000  1.0
  N  N38  1  0.48715000  0.25657000  0.60575000  1.0
  N  N39  1  0.51284000  0.74342000  0.39425000  1.0
  N  N40  1  0.01447000  0.90008000  0.76726000  1.0
  N  N41  1  0.98552000  0.09992000  0.23274000  1.0
  O  O42  1  0.52068000  0.12280000  0.54274000  1.0
  O  O43  1  0.47931000  0.87720000  0.45726000  1.0
  O  O44  1  0.14752000  0.29034000  0.54272000  1.0
  O  O45  1  0.85248000  0.70967000  0.45728000  1.0
  O  O46  1  0.67713000  0.83316000  0.76040000  1.0
  O  O47  1  0.32287000  0.16684000  0.23960000  1.0
  O  O48  1  0.01326000  0.97004000  0.63038000  1.0
  O  O49  1  0.98673000  0.02997000  0.36962000  1.0
