# generated using pymatgen
data_RbH13(C4O3)3
_symmetry_space_group_name_H-M   'P 1'
_cell_length_a   8.19478000
_cell_length_b   9.66999000
_cell_length_c   9.68769000
_cell_angle_alpha   116.89200000
_cell_angle_beta   95.01470000
_cell_angle_gamma   98.58250000
_symmetry_Int_Tables_number   1
_chemical_formula_structural   RbH13(C4O3)3
_chemical_formula_sum   'Rb2 H26 C24 O18'
_cell_volume   666.47501727
_cell_formula_units_Z   2
loop_
 _symmetry_equiv_pos_site_id
 _symmetry_equiv_pos_as_xyz
  1  'x, y, z'
loop_
 _atom_site_type_symbol
 _atom_site_label
 _atom_site_symmetry_multiplicity
 _atom_site_fract_x
 _atom_site_fract_y
 _atom_site_fract_z
 _atom_site_occupancy
  Rb  Rb0  1  0.77817000  0.44119000  0.18142000  1.0
  Rb  Rb1  1  0.22183000  0.55881000  0.81858000  1.0
  H  H2  1  0.15407000  0.63300000  0.48853000  1.0
  H  H3  1  0.84593000  0.36700000  0.51147000  1.0
  H  H4  1  0.27000000  0.17451000  0.82268000  1.0
  H  H5  1  0.73000000  0.82549000  0.17732000  1.0
  H  H6  1  0.66666667  0.41449000  0.72722000  1.0
  H  H7  1  0.33333333  0.58552000  0.27278000  1.0
  H  H8  1  0.75857000  0.65884000  0.95442000  1.0
  H  H9  1  0.24143000  0.34116000  0.04559000  1.0
  H  H10  1  0.91655000  0.68844000  0.08304000  1.0
  H  H11  1  0.08345000  0.31156000  0.91696000  1.0
  H  H12  1  0.82629000  0.80533000  0.46953000  1.0
  H  H13  1  0.17371000  0.19467000  0.53047000  1.0
  H  H14  1  0.58458000  0.69249000  0.50805000  1.0
  H  H15  1  0.41542000  0.30752000  0.49195000  1.0
  H  H16  1  0.49673000  0.80764000  0.77327000  1.0
  H  H17  1  0.50327000  0.19237000  0.22674000  1.0
  H  H18  1  0.48016000  0.90949000  0.57603000  1.0
  H  H19  1  0.51984000  0.09051000  0.42397000  1.0
  H  H20  1  0.71805000  0.02712000  0.53677000  1.0
  H  H21  1  0.28195000  0.97289000  0.46322000  1.0
  H  H22  1  0.99633000  0.05797000  0.69022000  1.0
  H  H23  1  0.00367000  0.94203000  0.30977000  1.0
  H  H24  1  0.99325000  0.09463000  0.96329000  1.0
  H  H25  1  0.00676000  0.90537000  0.03671000  1.0
  H  H26  1  0.72454000  0.96258000  0.00737000  1.0
  H  H27  1  0.27547000  0.03742000  0.99263000  1.0
  C  C28  1  0.84380000  0.81852000  0.58893000  1.0
  C  C29  1  0.15620000  0.18148000  0.41107000  1.0
  C  C30  1  0.67783000  0.73769000  0.61569000  1.0
  C  C31  1  0.32217000  0.26231000  0.38432000  1.0
  C  C32  1  0.61029000  0.86416000  0.75114000  1.0
  C  C33  1  0.38972000  0.13584000  0.24886000  1.0
  C  C34  1  0.56542000  0.98036000  0.68895000  1.0
  C  C35  1  0.43458000  0.01963000  0.31105000  1.0
  C  C36  1  0.73156000  0.06181000  0.66298000  1.0
  C  C37  1  0.26844000  0.93819000  0.33702000  1.0
  C  C38  1  0.88015000  0.99952000  0.70672000  1.0
  C  C39  1  0.11985000  0.00048000  0.29327000  1.0
  C  C40  1  0.99271000  0.74758000  0.60669000  1.0
  C  C41  1  0.00729000  0.25242000  0.39331000  1.0
  C  C42  1  0.69601000  0.58841000  0.62768000  1.0
  C  C43  1  0.30399000  0.41159000  0.37232000  1.0
  C  C44  1  0.47538000  0.09783000  0.80143000  1.0
  C  C45  1  0.52462000  0.90217000  0.19857000  1.0
  C  C46  1  0.76286000  0.24163000  0.74443000  1.0
  C  C47  1  0.23714000  0.75837000  0.25557000  1.0
  C  C48  1  0.88472000  0.02449000  0.87138000  1.0
  C  C49  1  0.11528000  0.97551000  0.12862000  1.0
  C  C50  1  0.74383000  0.95446000  0.89461000  1.0
  C  C51  1  0.25618000  0.04555000  0.10539000  1.0
  O  O52  1  0.06063000  0.69020000  0.47675000  1.0
  O  O53  1  0.93937000  0.30980000  0.52325000  1.0
  O  O54  1  0.04526000  0.74347000  0.72748000  1.0
  O  O55  1  0.95474000  0.25653000  0.27252000  1.0
  O  O56  1  0.73074000  0.47871000  0.50550000  1.0
  O  O57  1  0.26926000  0.52129000  0.49450000  1.0
  O  O58  1  0.67156000  0.57678000  0.75109000  1.0
  O  O59  1  0.32844000  0.42321000  0.24891000  1.0
  O  O60  1  0.53968000  0.19648000  0.93779000  1.0
  O  O61  1  0.46032000  0.80352000  0.06221000  1.0
  O  O62  1  0.31763000  0.08378000  0.74037000  1.0
  O  O63  1  0.68237000  0.91622000  0.25963000  1.0
  O  O64  1  0.88748000  0.33234000  0.84473000  1.0
  O  O65  1  0.11252000  0.66766000  0.15527000  1.0
  O  O66  1  0.64239000  0.29133000  0.69175000  1.0
  O  O67  1  0.35761000  0.70867000  0.30825000  1.0
  O  O68  1  0.79410000  0.68261000  0.06457000  1.0
  O  O69  1  0.20590000  0.31739000  0.93543000  1.0
