# generated using pymatgen
data_CuH8C13SN2O5
_symmetry_space_group_name_H-M   'P 1'
_cell_length_a   7.12428000
_cell_length_b   19.66630000
_cell_length_c   21.06590000
_cell_angle_alpha   90.00190000
_cell_angle_beta   90.00070000
_cell_angle_gamma   89.99840000
_symmetry_Int_Tables_number   1
_chemical_formula_structural   CuH8C13SN2O5
_chemical_formula_sum   'Cu8 H64 C104 S8 N16 O40'
_cell_volume   2951.50591226
_cell_formula_units_Z   8
loop_
 _symmetry_equiv_pos_site_id
 _symmetry_equiv_pos_as_xyz
  1  'x, y, z'
loop_
 _atom_site_type_symbol
 _atom_site_label
 _atom_site_symmetry_multiplicity
 _atom_site_fract_x
 _atom_site_fract_y
 _atom_site_fract_z
 _atom_site_occupancy
  Cu  Cu0  1  0.53635000  0.39016000  0.64801000  1.0
  Cu  Cu1  1  0.53630000  0.60985000  0.35198000  1.0
  Cu  Cu2  1  0.46348000  0.10984000  0.14801000  1.0
  Cu  Cu3  1  0.46349000  0.89014000  0.85197000  1.0
  Cu  Cu4  1  0.03444000  0.63057000  0.63339000  1.0
  Cu  Cu5  1  0.03445000  0.36942000  0.36661000  1.0
  Cu  Cu6  1  0.96512000  0.86943000  0.13337000  1.0
  Cu  Cu7  1  0.96508000  0.13055000  0.86663000  1.0
  H  H8  1  0.62329000  0.50688000  0.73552000  1.0
  H  H9  1  0.62330000  0.49315000  0.26445000  1.0
  H  H10  1  0.37637000  0.99314000  0.23556000  1.0
  H  H11  1  0.37635000  0.00685000  0.76443000  1.0
  H  H12  1  0.64901000  0.51886000  0.85534000  1.0
  H  H13  1  0.64902000  0.48118000  0.14465000  1.0
  H  H14  1  0.35091000  0.98119000  0.35538000  1.0
  H  H15  1  0.35094000  0.01881000  0.64461000  1.0
  H  H16  1  0.59761000  0.41438000  0.92257000  1.0
  H  H17  1  0.59760000  0.58568000  0.07743000  1.0
  H  H18  1  0.40249000  0.08572000  0.42258000  1.0
  H  H19  1  0.40255000  0.91430000  0.57741000  1.0
  H  H20  1  0.52980000  0.30356000  0.87015000  1.0
  H  H21  1  0.52980000  0.69649000  0.12985000  1.0
  H  H22  1  0.47034000  0.19649000  0.37013000  1.0
  H  H23  1  0.47043000  0.80352000  0.62983000  1.0
  H  H24  1  0.47838000  0.21419000  0.81440000  1.0
  H  H25  1  0.47850000  0.78584000  0.18562000  1.0
  H  H26  1  0.52165000  0.28585000  0.31437000  1.0
  H  H27  1  0.52175000  0.71416000  0.68560000  1.0
  H  H28  1  0.41839000  0.11753000  0.74432000  1.0
  H  H29  1  0.41847000  0.88251000  0.25572000  1.0
  H  H30  1  0.58195000  0.38248000  0.24427000  1.0
  H  H31  1  0.58194000  0.61752000  0.75571000  1.0
  H  H32  1  0.41657000  0.13668000  0.62432000  1.0
  H  H33  1  0.41655000  0.86332000  0.37571000  1.0
  H  H34  1  0.58379000  0.36328000  0.12428000  1.0
  H  H35  1  0.58369000  0.63672000  0.87569000  1.0
  H  H36  1  0.47290000  0.25597000  0.58379000  1.0
  H  H37  1  0.47282000  0.74403000  0.41622000  1.0
  H  H38  1  0.52721000  0.24398000  0.08378000  1.0
  H  H39  1  0.52714000  0.75602000  0.91620000  1.0
  H  H40  1  0.10497000  0.52608000  0.73448000  1.0
  H  H41  1  0.10504000  0.47390000  0.26553000  1.0
  H  H42  1  0.89481000  0.97391000  0.23439000  1.0
  H  H43  1  0.89477000  0.02607000  0.76558000  1.0
  H  H44  1  0.12546000  0.53025000  0.85479000  1.0
  H  H45  1  0.12553000  0.46973000  0.14522000  1.0
  H  H46  1  0.87444000  0.96982000  0.35472000  1.0
  H  H47  1  0.87442000  0.03019000  0.64524000  1.0
  H  H48  1  0.08435000  0.64419000  0.90882000  1.0
  H  H49  1  0.08438000  0.35580000  0.09120000  1.0
  H  H50  1  0.91579000  0.85593000  0.40879000  1.0
  H  H51  1  0.91583000  0.14408000  0.59121000  1.0
  H  H52  1  0.03174000  0.74694000  0.84427000  1.0
  H  H53  1  0.03172000  0.25305000  0.15575000  1.0
  H  H54  1  0.96855000  0.75314000  0.34427000  1.0
  H  H55  1  0.96852000  0.24685000  0.65572000  1.0
  H  H56  1  0.99336000  0.83098000  0.77692000  1.0
  H  H57  1  0.99336000  0.16901000  0.22309000  1.0
  H  H58  1  0.00702000  0.66903000  0.27690000  1.0
  H  H59  1  0.00693000  0.33097000  0.72313000  1.0
  H  H60  1  0.92169000  0.91546000  0.69437000  1.0
  H  H61  1  0.92166000  0.08453000  0.30563000  1.0
  H  H62  1  0.07859000  0.58457000  0.19434000  1.0
  H  H63  1  0.07843000  0.41542000  0.80572000  1.0
  H  H64  1  0.90794000  0.87856000  0.57923000  1.0
  H  H65  1  0.90785000  0.12144000  0.42077000  1.0
  H  H66  1  0.09225000  0.62149000  0.07920000  1.0
  H  H67  1  0.09206000  0.37848000  0.92086000  1.0
  H  H68  1  0.96897000  0.75449000  0.55381000  1.0
  H  H69  1  0.96883000  0.24550000  0.44619000  1.0
  H  H70  1  0.03093000  0.74555000  0.05381000  1.0
  H  H71  1  0.03078000  0.25442000  0.94622000  1.0
  C  C72  1  0.55592000  0.49638000  0.56679000  1.0
  C  C73  1  0.55593000  0.50364000  0.43321000  1.0
  C  C74  1  0.44387000  0.00364000  0.06678000  1.0
  C  C75  1  0.44383000  0.99633000  0.93321000  1.0
  C  C76  1  0.55767000  0.56231000  0.54100000  1.0
  C  C77  1  0.55769000  0.43770000  0.45899000  1.0
  C  C78  1  0.44231000  0.93771000  0.04098000  1.0
  C  C79  1  0.44225000  0.06227000  0.95900000  1.0
  C  C80  1  0.54966000  0.56766000  0.47453000  1.0
  C  C81  1  0.54969000  0.43235000  0.52545000  1.0
  C  C82  1  0.45022000  0.93234000  0.97453000  1.0
  C  C83  1  0.45017000  0.06764000  0.02545000  1.0
  C  C84  1  0.60402000  0.46420000  0.76808000  1.0
  C  C85  1  0.60400000  0.53583000  0.23191000  1.0
  C  C86  1  0.39574000  0.03584000  0.26810000  1.0
  C  C87  1  0.39576000  0.96416000  0.73189000  1.0
  C  C88  1  0.61687000  0.46979000  0.83393000  1.0
  C  C89  1  0.61685000  0.53025000  0.16605000  1.0
  C  C90  1  0.38305000  0.03027000  0.33397000  1.0
  C  C91  1  0.38309000  0.96974000  0.66603000  1.0
  C  C92  1  0.58887000  0.41165000  0.87093000  1.0
  C  C93  1  0.58884000  0.58841000  0.12907000  1.0
  C  C94  1  0.41113000  0.08843000  0.37094000  1.0
  C  C95  1  0.41121000  0.91159000  0.62904000  1.0
  C  C96  1  0.55123000  0.34943000  0.84184000  1.0
  C  C97  1  0.55124000  0.65061000  0.15816000  1.0
  C  C98  1  0.44877000  0.15061000  0.34183000  1.0
  C  C99  1  0.44886000  0.84939000  0.65815000  1.0
  C  C100  1  0.54216000  0.34748000  0.77545000  1.0
  C  C101  1  0.54217000  0.65256000  0.22455000  1.0
  C  C102  1  0.45773000  0.15256000  0.27544000  1.0
  C  C103  1  0.45776000  0.84744000  0.72454000  1.0
  C  C104  1  0.50715000  0.28584000  0.73743000  1.0
  C  C105  1  0.50717000  0.71419000  0.26259000  1.0
  C  C106  1  0.49278000  0.21418000  0.23742000  1.0
  C  C107  1  0.49284000  0.78582000  0.76256000  1.0
  C  C108  1  0.47598000  0.22195000  0.76344000  1.0
  C  C109  1  0.47604000  0.77809000  0.23658000  1.0
  C  C110  1  0.52412000  0.27807000  0.26341000  1.0
  C  C111  1  0.52416000  0.72193000  0.73656000  1.0
  C  C112  1  0.44345000  0.16714000  0.72299000  1.0
  C  C113  1  0.44348000  0.83289000  0.27704000  1.0
  C  C114  1  0.55677000  0.33286000  0.22295000  1.0
  C  C115  1  0.55678000  0.66714000  0.77702000  1.0
  C  C116  1  0.44229000  0.17801000  0.65764000  1.0
  C  C117  1  0.44230000  0.82200000  0.34239000  1.0
  C  C118  1  0.55792000  0.32196000  0.15760000  1.0
  C  C119  1  0.55789000  0.67803000  0.84237000  1.0
  C  C120  1  0.47408000  0.24348000  0.63426000  1.0
  C  C121  1  0.47402000  0.75652000  0.36576000  1.0
  C  C122  1  0.52599000  0.25649000  0.13424000  1.0
  C  C123  1  0.52598000  0.74350000  0.86573000  1.0
  C  C124  1  0.05119000  0.51313000  0.56581000  1.0
  C  C125  1  0.05119000  0.48688000  0.43417000  1.0
  C  C126  1  0.94887000  0.98689000  0.06586000  1.0
  C  C127  1  0.94883000  0.01311000  0.93416000  1.0
  C  C128  1  0.05570000  0.44406000  0.54846000  1.0
  C  C129  1  0.05569000  0.55594000  0.45154000  1.0
  C  C130  1  0.94391000  0.05593000  0.04843000  1.0
  C  C131  1  0.94393000  0.94407000  0.95156000  1.0
  C  C132  1  0.04642000  0.42927000  0.48317000  1.0
  C  C133  1  0.04640000  0.57071000  0.51685000  1.0
  C  C134  1  0.95350000  0.07072000  0.98315000  1.0
  C  C135  1  0.95355000  0.92923000  0.01683000  1.0
  C  C136  1  0.09060000  0.57327000  0.76148000  1.0
  C  C137  1  0.09063000  0.42672000  0.23854000  1.0
  C  C138  1  0.90927000  0.92675000  0.26142000  1.0
  C  C139  1  0.90927000  0.07323000  0.73857000  1.0
  C  C140  1  0.10075000  0.57654000  0.82756000  1.0
  C  C141  1  0.10080000  0.42345000  0.17245000  1.0
  C  C142  1  0.89919000  0.92352000  0.32751000  1.0
  C  C143  1  0.89918000  0.07648000  0.67248000  1.0
  C  C144  1  0.07916000  0.63959000  0.85723000  1.0
  C  C145  1  0.07917000  0.36040000  0.14279000  1.0
  C  C146  1  0.92093000  0.86049000  0.35720000  1.0
  C  C147  1  0.92096000  0.13951000  0.64280000  1.0
  C  C148  1  0.05071000  0.69791000  0.82082000  1.0
  C  C149  1  0.05071000  0.30208000  0.17918000  1.0
  C  C150  1  0.94945000  0.80216000  0.32082000  1.0
  C  C151  1  0.94944000  0.19785000  0.67918000  1.0
  C  C152  1  0.04356000  0.69104000  0.75477000  1.0
  C  C153  1  0.04356000  0.30896000  0.24524000  1.0
  C  C154  1  0.95651000  0.80899000  0.25476000  1.0
  C  C155  1  0.95647000  0.19100000  0.74524000  1.0
  C  C156  1  0.01226000  0.74748000  0.70969000  1.0
  C  C157  1  0.01223000  0.25252000  0.29032000  1.0
  C  C158  1  0.98779000  0.75254000  0.20968000  1.0
  C  C159  1  0.98777000  0.24745000  0.79033000  1.0
  C  C160  1  0.98437000  0.81501000  0.72754000  1.0
  C  C161  1  0.98434000  0.18498000  0.27247000  1.0
  C  C162  1  0.01582000  0.68500000  0.22752000  1.0
  C  C163  1  0.01573000  0.31499000  0.77250000  1.0
  C  C164  1  0.94621000  0.86282000  0.68048000  1.0
  C  C165  1  0.94616000  0.13718000  0.31952000  1.0
  C  C166  1  0.05394000  0.63720000  0.18044000  1.0
  C  C167  1  0.05387000  0.36278000  0.81959000  1.0
  C  C168  1  0.93931000  0.84251000  0.61708000  1.0
  C  C169  1  0.93923000  0.15748000  0.38292000  1.0
  C  C170  1  0.06076000  0.65751000  0.11705000  1.0
  C  C171  1  0.06064000  0.34246000  0.88298000  1.0
  C  C172  1  0.97232000  0.77439000  0.60217000  1.0
  C  C173  1  0.97222000  0.22560000  0.39783000  1.0
  C  C174  1  0.02763000  0.72563000  0.10216000  1.0
  C  C175  1  0.02754000  0.27434000  0.89786000  1.0
  S  S176  1  0.55649000  0.63323000  0.59507000  1.0
  S  S177  1  0.55650000  0.36678000  0.40493000  1.0
  S  S178  1  0.44390000  0.86679000  0.09510000  1.0
  S  S179  1  0.44380000  0.13320000  0.90489000  1.0
  S  S180  1  0.06339000  0.38069000  0.61021000  1.0
  S  S181  1  0.06337000  0.61931000  0.38980000  1.0
  S  S182  1  0.93610000  0.11933000  0.11017000  1.0
  S  S183  1  0.93616000  0.88066000  0.88982000  1.0
  N  N184  1  0.56638000  0.40450000  0.74051000  1.0
  N  N185  1  0.56639000  0.59553000  0.25949000  1.0
  N  N186  1  0.43338000  0.09553000  0.24051000  1.0
  N  N187  1  0.43338000  0.90446000  0.75948000  1.0
  N  N188  1  0.50663000  0.29540000  0.67372000  1.0
  N  N189  1  0.50661000  0.70463000  0.32629000  1.0
  N  N190  1  0.49330000  0.20461000  0.17371000  1.0
  N  N191  1  0.49329000  0.79538000  0.82626000  1.0
  N  N192  1  0.06144000  0.62932000  0.72689000  1.0
  N  N193  1  0.06148000  0.37067000  0.27312000  1.0
  N  N194  1  0.93846000  0.87067000  0.22686000  1.0
  N  N195  1  0.93842000  0.12931000  0.77313000  1.0
  N  N196  1  0.00802000  0.72878000  0.64775000  1.0
  N  N197  1  0.00798000  0.27121000  0.35226000  1.0
  N  N198  1  0.99191000  0.77123000  0.14775000  1.0
  N  N199  1  0.99180000  0.22875000  0.85226000  1.0
  O  O200  1  0.55586000  0.48526000  0.62641000  1.0
  O  O201  1  0.55582000  0.51475000  0.37360000  1.0
  O  O202  1  0.44374000  0.01476000  0.12640000  1.0
  O  O203  1  0.44368000  0.98522000  0.87360000  1.0
  O  O204  1  0.53647000  0.62328000  0.44397000  1.0
  O  O205  1  0.53648000  0.37674000  0.55603000  1.0
  O  O206  1  0.46339000  0.87670000  0.94397000  1.0
  O  O207  1  0.46330000  0.12326000  0.05602000  1.0
  O  O208  1  0.70802000  0.61821000  0.64106000  1.0
  O  O209  1  0.70800000  0.38178000  0.35893000  1.0
  O  O210  1  0.29209000  0.88164000  0.14103000  1.0
  O  O211  1  0.29208000  0.11832000  0.85893000  1.0
  O  O212  1  0.58756000  0.69578000  0.55932000  1.0
  O  O213  1  0.58757000  0.30424000  0.44069000  1.0
  O  O214  1  0.41364000  0.80416000  0.05936000  1.0
  O  O215  1  0.41338000  0.19581000  0.94063000  1.0
  O  O216  1  0.37303000  0.63039000  0.62703000  1.0
  O  O217  1  0.37301000  0.36962000  0.37298000  1.0
  O  O218  1  0.62728000  0.86992000  0.12713000  1.0
  O  O219  1  0.62726000  0.13010000  0.87291000  1.0
  O  O220  1  0.04802000  0.53266000  0.62346000  1.0
  O  O221  1  0.04804000  0.46733000  0.37654000  1.0
  O  O222  1  0.95273000  0.96737000  0.12351000  1.0
  O  O223  1  0.95266000  0.03260000  0.87650000  1.0
  O  O224  1  0.03316000  0.36984000  0.45965000  1.0
  O  O225  1  0.03319000  0.63016000  0.54034000  1.0
  O  O226  1  0.96717000  0.13017000  0.95968000  1.0
  O  O227  1  0.96727000  0.86980000  0.04033000  1.0
  O  O228  1  0.20958000  0.40433000  0.65496000  1.0
  O  O229  1  0.20955000  0.59569000  0.34505000  1.0
  O  O230  1  0.79019000  0.09562000  0.15499000  1.0
  O  O231  1  0.79022000  0.90436000  0.84501000  1.0
  O  O232  1  0.87847000  0.38212000  0.64151000  1.0
  O  O233  1  0.87847000  0.61790000  0.35849000  1.0
  O  O234  1  0.12114000  0.11808000  0.14141000  1.0
  O  O235  1  0.12116000  0.88194000  0.85857000  1.0
  O  O236  1  0.10653000  0.31542000  0.58066000  1.0
  O  O237  1  0.10650000  0.68458000  0.41935000  1.0
  O  O238  1  0.89254000  0.18455000  0.08063000  1.0
  O  O239  1  0.89266000  0.81542000  0.91935000  1.0
