# generated using pymatgen
data_ZnH3C9NO5F2
_symmetry_space_group_name_H-M   'P 1'
_cell_length_a   9.03442000
_cell_length_b   9.68050000
_cell_length_c   11.02010000
_cell_angle_alpha   82.69490000
_cell_angle_beta   79.46180000
_cell_angle_gamma   83.12870000
_symmetry_Int_Tables_number   1
_chemical_formula_structural   ZnH3C9NO5F2
_chemical_formula_sum   'Zn2 H6 C18 N2 O10 F4'
_cell_volume   935.24335978
_cell_formula_units_Z   2
loop_
 _symmetry_equiv_pos_site_id
 _symmetry_equiv_pos_as_xyz
  1  'x, y, z'
loop_
 _atom_site_type_symbol
 _atom_site_label
 _atom_site_symmetry_multiplicity
 _atom_site_fract_x
 _atom_site_fract_y
 _atom_site_fract_z
 _atom_site_occupancy
  Zn  Zn0  1  0.48917000  0.64435000  0.48500000  1.0
  Zn  Zn1  1  0.51082000  0.35564000  0.51498000  1.0
  H  H2  1  0.62560000  0.30059000  0.11954000  1.0
  H  H3  1  0.37441000  0.69933000  0.88047000  1.0
  H  H4  1  0.33261000  0.85455000  0.64928000  1.0
  H  H5  1  0.66738000  0.14545000  0.35072000  1.0
  H  H6  1  0.98533000  0.32617000  0.32098000  1.0
  H  H7  1  0.01462000  0.67399000  0.67889000  1.0
  C  C8  1  0.50526000  0.50337000  0.26347000  1.0
  C  C9  1  0.49474000  0.49659000  0.73657000  1.0
  C  C10  1  0.79527000  0.47865000  0.47412000  1.0
  C  C11  1  0.20474000  0.52136000  0.52589000  1.0
  C  C12  1  0.96459000  0.47381000  0.46004000  1.0
  C  C13  1  0.03540000  0.52623000  0.53994000  1.0
  C  C14  1  0.57024000  0.38867000  0.06751000  1.0
  C  C15  1  0.42976000  0.61128000  0.93247000  1.0
  C  C16  1  0.56955000  0.38507000  0.94232000  1.0
  C  C17  1  0.43043000  0.61489000  0.05766000  1.0
  C  C18  1  0.49917000  0.49590000  0.87158000  1.0
  C  C19  1  0.50084000  0.50405000  0.12840000  1.0
  C  C20  1  0.41673000  0.05968000  0.59487000  1.0
  C  C21  1  0.58326000  0.94032000  0.40512000  1.0
  C  C22  1  0.40624000  0.91986000  0.58267000  1.0
  C  C23  1  0.59377000  0.08013000  0.41733000  1.0
  C  C24  1  0.04812000  0.40489000  0.35053000  1.0
  C  C25  1  0.95188000  0.59520000  0.64944000  1.0
  N  N26  1  0.49173000  0.86171000  0.48589000  1.0
  N  N27  1  0.50826000  0.13829000  0.51409000  1.0
  O  O28  1  0.49004000  0.62106000  0.30620000  1.0
  O  O29  1  0.51001000  0.37894000  0.69378000  1.0
  O  O30  1  0.52712000  0.38398000  0.32508000  1.0
  O  O31  1  0.47283000  0.61594000  0.67494000  1.0
  O  O32  1  0.72075000  0.59789000  0.46560000  1.0
  O  O33  1  0.27927000  0.40212000  0.53443000  1.0
  O  O34  1  0.74570000  0.35939000  0.48546000  1.0
  O  O35  1  0.25427000  0.64064000  0.51449000  1.0
  O  O36  1  0.17239000  0.43244000  0.29406000  1.0
  O  O37  1  0.82763000  0.56760000  0.70595000  1.0
  F  F38  1  0.64248000  0.27077000  0.88993000  1.0
  F  F39  1  0.35749000  0.72920000  0.11008000  1.0
  F  F40  1  0.33321000  0.11944000  0.69042000  1.0
  F  F41  1  0.66678000  0.88058000  0.30955000  1.0
