# generated using pymatgen
data_AgH8C10SN4(OF)3
_symmetry_space_group_name_H-M   'P 1'
_cell_length_a   9.07859000
_cell_length_b   11.05530000
_cell_length_c   14.15990000
_cell_angle_alpha   90.00000000
_cell_angle_beta   104.71300000
_cell_angle_gamma   90.00000000
_symmetry_Int_Tables_number   1
_chemical_formula_structural   AgH8C10SN4(OF)3
_chemical_formula_sum   'Ag4 H32 C40 S4 N16 O12 F12'
_cell_volume   1374.57983363
_cell_formula_units_Z   4
loop_
 _symmetry_equiv_pos_site_id
 _symmetry_equiv_pos_as_xyz
  1  'x, y, z'
loop_
 _atom_site_type_symbol
 _atom_site_label
 _atom_site_symmetry_multiplicity
 _atom_site_fract_x
 _atom_site_fract_y
 _atom_site_fract_z
 _atom_site_occupancy
  Ag  Ag0  1  0.49428000  0.20001000  0.20730000  1.0
  Ag  Ag1  1  0.00572000  0.70001000  0.29270000  1.0
  Ag  Ag2  1  0.50572000  0.79999000  0.79270000  1.0
  Ag  Ag3  1  0.99428000  0.29999000  0.70730000  1.0
  H  H4  1  0.50631000  0.45134000  0.10946000  1.0
  H  H5  1  0.99369000  0.95134000  0.39054000  1.0
  H  H6  1  0.49369000  0.54866000  0.89054000  1.0
  H  H7  1  0.00631000  0.04866000  0.60946000  1.0
  H  H8  1  0.35604000  0.54618000  0.04155000  1.0
  H  H9  1  0.14396000  0.04618000  0.45845000  1.0
  H  H10  1  0.64396000  0.45382000  0.95845000  1.0
  H  H11  1  0.85604000  0.95382000  0.54154000  1.0
  H  H12  1  0.19692000  0.46585000  0.89166000  1.0
  H  H13  1  0.30308000  0.96585000  0.60834000  1.0
  H  H14  1  0.80308000  0.53415000  0.10834000  1.0
  H  H15  1  0.69692000  0.03415000  0.39166000  1.0
  H  H16  1  0.14989000  0.60227000  0.11318000  1.0
  H  H17  1  0.35011000  0.10227000  0.38682000  1.0
  H  H18  1  0.85011000  0.39773000  0.88682000  1.0
  H  H19  1  0.64989000  0.89773000  0.61318000  1.0
  H  H20  1  0.12077000  0.44081000  0.37411000  1.0
  H  H21  1  0.37923000  0.94081000  0.12589000  1.0
  H  H22  1  0.87923000  0.55919000  0.62589000  1.0
  H  H23  1  0.62077000  0.05919000  0.87411000  1.0
  H  H24  1  0.20951000  0.09787000  0.83108000  1.0
  H  H25  1  0.29049000  0.59787000  0.66892000  1.0
  H  H26  1  0.79049000  0.90213000  0.16892000  1.0
  H  H27  1  0.70951000  0.40213000  0.33108000  1.0
  H  H28  1  0.37820000  0.06250000  0.99798000  1.0
  H  H29  1  0.12180000  0.56250000  0.50202000  1.0
  H  H30  1  0.62180000  0.93750000  0.00202000  1.0
  H  H31  1  0.87820000  0.43750000  0.49798000  1.0
  H  H32  1  0.34066000  0.30871000  0.36987000  1.0
  H  H33  1  0.15934000  0.80871000  0.13013000  1.0
  H  H34  1  0.65933000  0.69129000  0.63013000  1.0
  H  H35  1  0.84066000  0.19129000  0.86987000  1.0
  C  C36  1  0.33017000  0.35589000  0.01033000  1.0
  C  C37  1  0.16983000  0.85589000  0.48967000  1.0
  C  C38  1  0.66983000  0.64411000  0.98967000  1.0
  C  C39  1  0.83017000  0.14411000  0.51033000  1.0
  C  C40  1  0.38214000  0.45970000  0.08023000  1.0
  C  C41  1  0.11786000  0.95970000  0.41977000  1.0
  C  C42  1  0.61786000  0.54030000  0.91977000  1.0
  C  C43  1  0.88214000  0.04030000  0.58023000  1.0
  C  C44  1  0.23543000  0.37489000  0.91654000  1.0
  C  C45  1  0.26457000  0.87489000  0.58346000  1.0
  C  C46  1  0.76457000  0.62511000  0.08346000  1.0
  C  C47  1  0.73543000  0.12511000  0.41654000  1.0
  C  C48  1  0.19074000  0.53502000  0.17021000  1.0
  C  C49  1  0.30926000  0.03502000  0.32979000  1.0
  C  C50  1  0.80927000  0.46498000  0.82979000  1.0
  C  C51  1  0.69073000  0.96498000  0.67021000  1.0
  C  C52  1  0.17615000  0.44813000  0.31459000  1.0
  C  C53  1  0.32385000  0.94813000  0.18541000  1.0
  C  C54  1  0.82385000  0.55187000  0.68541000  1.0
  C  C55  1  0.67615000  0.05187000  0.81459000  1.0
  C  C56  1  0.96660000  0.19601000  0.11230000  1.0
  C  C57  1  0.53340000  0.69601000  0.38770000  1.0
  C  C58  1  0.03340000  0.80398000  0.88770000  1.0
  C  C59  1  0.46660000  0.30399000  0.61230000  1.0
  C  C60  1  0.31043000  0.45746000  0.16518000  1.0
  C  C61  1  0.18957000  0.95745000  0.33482000  1.0
  C  C62  1  0.68957000  0.54255000  0.83482000  1.0
  C  C63  1  0.81043000  0.04255000  0.66518000  1.0
  C  C64  1  0.24263000  0.17234000  0.88247000  1.0
  C  C65  1  0.25737000  0.67234000  0.61753000  1.0
  C  C66  1  0.75737000  0.82766000  0.11753000  1.0
  C  C67  1  0.74263000  0.32766000  0.38247000  1.0
  C  C68  1  0.33632000  0.15303000  0.97559000  1.0
  C  C69  1  0.16368000  0.65303000  0.52441000  1.0
  C  C70  1  0.66368000  0.84697000  0.02441000  1.0
  C  C71  1  0.83632000  0.34697000  0.47559000  1.0
  C  C72  1  0.29773000  0.37324000  0.31139000  1.0
  C  C73  1  0.20227000  0.87324000  0.18861000  1.0
  C  C74  1  0.70227000  0.62676000  0.68861000  1.0
  C  C75  1  0.79773000  0.12676000  0.81139000  1.0
  S  S76  1  0.75903000  0.22879000  0.08668000  1.0
  S  S77  1  0.74097000  0.72879000  0.41332000  1.0
  S  S78  1  0.24097000  0.77121000  0.91333000  1.0
  S  S79  1  0.25903000  0.27121000  0.58667000  1.0
  N  N80  1  0.12433000  0.53131000  0.24481000  1.0
  N  N81  1  0.37567000  0.03131000  0.25519000  1.0
  N  N82  1  0.87567000  0.46869000  0.75519000  1.0
  N  N83  1  0.62433000  0.96869000  0.74481000  1.0
  N  N84  1  0.37888000  0.24369000  0.03975000  1.0
  N  N85  1  0.12112000  0.74369000  0.46025000  1.0
  N  N86  1  0.62112000  0.75631000  0.96025000  1.0
  N  N87  1  0.87888000  0.25631000  0.53975000  1.0
  N  N88  1  0.19113000  0.28358000  0.85322000  1.0
  N  N89  1  0.30887000  0.78358000  0.64678000  1.0
  N  N90  1  0.80887000  0.71642000  0.14678000  1.0
  N  N91  1  0.69113000  0.21642000  0.35322000  1.0
  N  N92  1  0.36503000  0.37789000  0.23748000  1.0
  N  N93  1  0.13497000  0.87789000  0.26252000  1.0
  N  N94  1  0.63497000  0.62211000  0.76252000  1.0
  N  N95  1  0.86503000  0.12211000  0.73748000  1.0
  O  O96  1  0.71602000  0.25277000  0.98181000  1.0
  O  O97  1  0.78399000  0.75277000  0.51819000  1.0
  O  O98  1  0.28398000  0.74723000  0.01819000  1.0
  O  O99  1  0.21602000  0.24723000  0.48181000  1.0
  O  O100  1  0.75259000  0.33389000  0.14794000  1.0
  O  O101  1  0.74741000  0.83389000  0.35207000  1.0
  O  O102  1  0.24741000  0.66611000  0.85206000  1.0
  O  O103  1  0.25259000  0.16611000  0.64794000  1.0
  O  O104  1  0.69874000  0.11612000  0.11630000  1.0
  O  O105  1  0.80126000  0.61612000  0.38370000  1.0
  O  O106  1  0.30126000  0.88388000  0.88370000  1.0
  O  O107  1  0.19874000  0.38388000  0.61630000  1.0
  F  F108  1  0.04152000  0.28939000  0.08162000  1.0
  F  F109  1  0.45848000  0.78939000  0.41838000  1.0
  F  F110  1  0.95848000  0.71060000  0.91838000  1.0
  F  F111  1  0.54152000  0.21061000  0.58162000  1.0
  F  F112  1  0.99408000  0.09465000  0.06510000  1.0
  F  F113  1  0.50592000  0.59465000  0.43490000  1.0
  F  F114  1  0.00592000  0.90535000  0.93490000  1.0
  F  F115  1  0.49408000  0.40535000  0.56510000  1.0
  F  F116  1  0.02897000  0.18006000  0.20930000  1.0
  F  F117  1  0.47103000  0.68006000  0.29070000  1.0
  F  F118  1  0.97103000  0.81994000  0.79070000  1.0
  F  F119  1  0.52897000  0.31994000  0.70930000  1.0
