# generated using pymatgen
data_ZnH25C30N5O6
_symmetry_space_group_name_H-M   'P 1'
_cell_length_a   9.07410000
_cell_length_b   10.01310000
_cell_length_c   16.28220000
_cell_angle_alpha   103.11500000
_cell_angle_beta   91.98800000
_cell_angle_gamma   101.07600000
_symmetry_Int_Tables_number   1
_chemical_formula_structural   ZnH25C30N5O6
_chemical_formula_sum   'Zn2 H50 C60 N10 O12'
_cell_volume   1409.22259834
_cell_formula_units_Z   2
loop_
 _symmetry_equiv_pos_site_id
 _symmetry_equiv_pos_as_xyz
  1  'x, y, z'
loop_
 _atom_site_type_symbol
 _atom_site_label
 _atom_site_symmetry_multiplicity
 _atom_site_fract_x
 _atom_site_fract_y
 _atom_site_fract_z
 _atom_site_occupancy
  Zn  Zn0  1  0.09156000  0.39935000  0.22573000  1.0
  Zn  Zn1  1  0.90843000  0.60065000  0.77427000  1.0
  H  H2  1  0.65192000  0.97737000  0.39473000  1.0
  H  H3  1  0.34808000  0.02263000  0.60528000  1.0
  H  H4  1  0.05930000  0.89284000  0.22215000  1.0
  H  H5  1  0.94071000  0.10716000  0.77784000  1.0
  H  H6  1  0.40743000  0.22342000  0.36423000  1.0
  H  H7  1  0.59257000  0.77658000  0.63577000  1.0
  H  H8  1  0.46395000  0.79322000  0.31698000  1.0
  H  H9  1  0.53604000  0.20678000  0.68303000  1.0
  H  H10  1  0.86650000  0.60342000  0.20981000  1.0
  H  H11  1  0.13350000  0.39659000  0.79019000  1.0
  H  H12  1  0.23977000  0.14697000  0.11834000  1.0
  H  H13  1  0.76024000  0.85303000  0.88166000  1.0
  H  H14  1  0.04339000  0.11623000  0.60870000  1.0
  H  H15  1  0.95661000  0.88377000  0.39130000  1.0
  H  H16  1  0.59660000  0.65277000  0.21204000  1.0
  H  H17  1  0.40340000  0.34723000  0.78796000  1.0
  H  H18  1  0.44271000  0.51564000  0.21171000  1.0
  H  H19  1  0.55729000  0.48436000  0.78829000  1.0
  H  H20  1  0.15690000  0.41304000  0.45406000  1.0
  H  H21  1  0.84310000  0.58696000  0.54593000  1.0
  H  H22  1  0.77846000  0.19367000  0.24713000  1.0
  H  H23  1  0.22154000  0.80633000  0.75286000  1.0
  H  H24  1  0.77517000  0.07192000  0.55506000  1.0
  H  H25  1  0.22484000  0.92808000  0.44494000  1.0
  H  H26  1  0.03607000  0.21248000  0.89615000  1.0
  H  H27  1  0.96393000  0.78753000  0.10385000  1.0
  H  H28  1  0.50333000  0.27114000  0.21816000  1.0
  H  H29  1  0.49667000  0.72885000  0.78183000  1.0
  H  H30  1  0.99011000  0.41275000  0.03550000  1.0
  H  H31  1  0.00990000  0.58726000  0.96450000  1.0
  H  H32  1  0.88942000  0.36690000  0.39986000  1.0
  H  H33  1  0.11058000  0.63309000  0.60014000  1.0
  H  H34  1  0.27625000  0.88272000  0.05966000  1.0
  H  H35  1  0.72375000  0.11729000  0.94034000  1.0
  H  H36  1  0.58127000  0.20608000  0.49665000  1.0
  H  H37  1  0.41873000  0.79391000  0.50336000  1.0
  H  H38  1  0.63798000  0.27422000  0.40831000  1.0
  H  H39  1  0.36202000  0.72578000  0.59169000  1.0
  H  H40  1  0.18996000  0.02400000  0.87576000  1.0
  H  H41  1  0.81004000  0.97601000  0.12424000  1.0
  H  H42  1  0.11608000  0.92624000  0.94781000  1.0
  H  H43  1  0.88391000  0.07377000  0.05219000  1.0
  H  H44  1  0.72031000  0.42681000  0.05727000  1.0
  H  H45  1  0.27969000  0.57319000  0.94273000  1.0
  H  H46  1  0.46778000  0.12834000  0.88871000  1.0
  H  H47  1  0.53222000  0.87167000  0.11129000  1.0
  H  H48  1  0.31993000  0.59845000  0.09530000  1.0
  H  H49  1  0.68008000  0.40155000  0.90470000  1.0
  H  H50  1  0.46683000  0.41264000  0.57786000  1.0
  H  H51  1  0.53317000  0.58736000  0.42214000  1.0
  C  C52  1  0.25675000  0.82715000  0.26465000  1.0
  C  C53  1  0.74325000  0.17285000  0.73534000  1.0
  C  C54  1  0.17088000  0.92538000  0.25534000  1.0
  C  C55  1  0.82912000  0.07461000  0.74465000  1.0
  C  C56  1  0.22684000  0.06698000  0.29136000  1.0
  C  C57  1  0.77316000  0.93302000  0.70864000  1.0
  C  C58  1  0.36854000  0.11191000  0.33660000  1.0
  C  C59  1  0.63146000  0.88809000  0.66340000  1.0
  C  C60  1  0.52428000  0.51609000  0.08824000  1.0
  C  C61  1  0.47572000  0.48391000  0.91176000  1.0
  C  C62  1  0.18720000  0.67586000  0.22958000  1.0
  C  C63  1  0.81279000  0.32414000  0.77042000  1.0
  C  C64  1  0.13477000  0.16862000  0.27483000  1.0
  C  C65  1  0.86523000  0.83138000  0.72517000  1.0
  C  C66  1  0.39885000  0.87045000  0.30848000  1.0
  C  C67  1  0.60114000  0.12955000  0.69152000  1.0
  C  C68  1  0.11709000  0.26877000  0.53570000  1.0
  C  C69  1  0.88291000  0.73123000  0.46430000  1.0
  C  C70  1  0.45832000  0.01424000  0.34455000  1.0
  C  C71  1  0.54168000  0.98576000  0.65545000  1.0
  C  C72  1  0.80592000  0.50343000  0.21791000  1.0
  C  C73  1  0.19408000  0.49657000  0.78209000  1.0
  C  C74  1  0.35463000  0.00708000  0.97095000  1.0
  C  C75  1  0.64537000  0.99292000  0.02905000  1.0
  C  C76  1  0.17872000  0.19369000  0.07787000  1.0
  C  C77  1  0.82129000  0.80631000  0.92213000  1.0
  C  C78  1  0.00899000  0.17063000  0.56275000  1.0
  C  C79  1  0.99101000  0.82937000  0.43725000  1.0
  C  C80  1  0.54968000  0.54123000  0.18359000  1.0
  C  C81  1  0.45033000  0.45877000  0.81641000  1.0
  C  C82  1  0.27407000  0.29556000  0.57158000  1.0
  C  C83  1  0.72593000  0.70444000  0.42842000  1.0
  C  C84  1  0.81437000  0.21693000  0.47375000  1.0
  C  C85  1  0.18563000  0.78307000  0.52626000  1.0
  C  C86  1  0.07350000  0.33910000  0.47657000  1.0
  C  C87  1  0.92649000  0.66090000  0.52343000  1.0
  C  C88  1  0.75387000  0.28948000  0.23504000  1.0
  C  C89  1  0.24613000  0.71051000  0.76496000  1.0
  C  C90  1  0.85890000  0.14558000  0.53214000  1.0
  C  C91  1  0.14110000  0.85442000  0.46786000  1.0
  C  C92  1  0.07132000  0.22814000  0.96243000  1.0
  C  C93  1  0.92868000  0.77187000  0.03757000  1.0
  C  C94  1  0.61897000  0.32654000  0.22057000  1.0
  C  C95  1  0.38103000  0.67345000  0.77942000  1.0
  C  C96  1  0.04743000  0.32652000  0.03182000  1.0
  C  C97  1  0.95258000  0.67349000  0.96819000  1.0
  C  C98  1  0.92317000  0.31234000  0.44586000  1.0
  C  C99  1  0.07682000  0.68766000  0.55414000  1.0
  C  C100  1  0.37431000  0.93456000  0.03343000  1.0
  C  C101  1  0.62569000  0.06545000  0.96656000  1.0
  C  C102  1  0.65136000  0.19305000  0.44191000  1.0
  C  C103  1  0.34864000  0.80695000  0.55809000  1.0
  C  C104  1  0.19899000  0.01861000  0.94219000  1.0
  C  C105  1  0.80101000  0.98139000  0.05781000  1.0
  C  C106  1  0.62309000  0.45951000  0.03290000  1.0
  C  C107  1  0.37691000  0.54050000  0.96711000  1.0
  C  C108  1  0.48151000  0.07204000  0.93761000  1.0
  C  C109  1  0.51848000  0.92796000  0.06239000  1.0
  C  C110  1  0.40054000  0.55607000  0.05414000  1.0
  C  C111  1  0.59946000  0.44394000  0.94586000  1.0
  N  N112  1  0.11468000  0.30383000  0.10332000  1.0
  N  N113  1  0.88533000  0.69618000  0.89669000  1.0
  N  N114  1  0.86999000  0.40094000  0.23294000  1.0
  N  N115  1  0.13001000  0.59906000  0.76706000  1.0
  N  N116  1  0.65406000  0.46225000  0.21026000  1.0
  N  N117  1  0.34594000  0.53775000  0.78974000  1.0
  N  N118  1  0.15491000  0.14503000  0.99266000  1.0
  N  N119  1  0.84509000  0.85498000  0.00734000  1.0
  N  N120  1  0.60114000  0.05547000  0.38509000  1.0
  N  N121  1  0.39886000  0.94452000  0.61491000  1.0
  O  O122  1  0.22725000  0.58722000  0.26831000  1.0
  O  O123  1  0.77275000  0.41278000  0.73169000  1.0
  O  O124  1  0.20584000  0.29864000  0.28868000  1.0
  O  O125  1  0.79416000  0.70136000  0.71133000  1.0
  O  O126  1  0.09176000  0.64141000  0.16645000  1.0
  O  O127  1  0.90823000  0.35859000  0.83355000  1.0
  O  O128  1  0.00084000  0.12535000  0.24419000  1.0
  O  O129  1  0.99916000  0.87465000  0.75580000  1.0
  O  O130  1  0.32185000  0.22825000  0.61745000  1.0
  O  O131  1  0.67815000  0.77175000  0.38255000  1.0
  O  O132  1  0.36637000  0.40534000  0.55077000  1.0
  O  O133  1  0.63363000  0.59466000  0.44922000  1.0
