# generated using pymatgen
data_Zn4H40C62O13
_symmetry_space_group_name_H-M   'P 1'
_cell_length_a   21.64080000
_cell_length_b   21.64080000
_cell_length_c   34.51560000
_cell_angle_alpha   90.00000000
_cell_angle_beta   89.99980000
_cell_angle_gamma   90.00000000
_symmetry_Int_Tables_number   1
_chemical_formula_structural   Zn4H40C62O13
_chemical_formula_sum   'Zn8 H80 C124 O26'
_cell_volume   16164.49160789
_cell_formula_units_Z   2
loop_
 _symmetry_equiv_pos_site_id
 _symmetry_equiv_pos_as_xyz
  1  'x, y, z'
loop_
 _atom_site_type_symbol
 _atom_site_label
 _atom_site_symmetry_multiplicity
 _atom_site_fract_x
 _atom_site_fract_y
 _atom_site_fract_z
 _atom_site_occupancy
  Zn  Zn0  1  0.55230000  0.55231000  0.03285000  1.0
  Zn  Zn1  1  0.44770000  0.55230000  0.96715000  1.0
  Zn  Zn2  1  0.44770000  0.44770000  0.03285000  1.0
  Zn  Zn3  1  0.55230000  0.44769000  0.96715000  1.0
  Zn  Zn4  1  0.44770000  0.44770000  0.46715000  1.0
  Zn  Zn5  1  0.44769000  0.55230000  0.53285000  1.0
  Zn  Zn6  1  0.55231000  0.55231000  0.46715000  1.0
  Zn  Zn7  1  0.55230000  0.44769000  0.53285000  1.0
  H  H8  1  0.25679000  0.43031000  0.04430000  1.0
  H  H9  1  0.14164000  0.43007000  0.04442000  1.0
  H  H10  1  0.25679000  0.56969000  0.95570000  1.0
  H  H11  1  0.14164000  0.56993000  0.95558000  1.0
  H  H12  1  0.05714000  0.50011000  0.93762000  1.0
  H  H13  1  0.05714000  0.49989000  0.06239000  1.0
  H  H14  1  0.74321000  0.56969000  0.04430000  1.0
  H  H15  1  0.85836000  0.56993000  0.04442000  1.0
  H  H16  1  0.74321000  0.43031000  0.95570000  1.0
  H  H17  1  0.85836000  0.43007000  0.95558000  1.0
  H  H18  1  0.94285000  0.50011000  0.06239000  1.0
  H  H19  1  0.94285000  0.49989000  0.93762000  1.0
  H  H20  1  0.56939000  0.56939000  0.15106000  1.0
  H  H21  1  0.43061000  0.43062000  0.15106000  1.0
  H  H22  1  0.43061000  0.43061000  0.34894000  1.0
  H  H23  1  0.56939000  0.56939000  0.34894000  1.0
  H  H24  1  0.43061000  0.56938000  0.84894000  1.0
  H  H25  1  0.56939000  0.43061000  0.84894000  1.0
  H  H26  1  0.56939000  0.43061000  0.65106000  1.0
  H  H27  1  0.43061000  0.56939000  0.65106000  1.0
  H  H28  1  0.42938000  0.25680000  0.04371000  1.0
  H  H29  1  0.42919000  0.14165000  0.04387000  1.0
  H  H30  1  0.57062000  0.25680000  0.95628000  1.0
  H  H31  1  0.57081000  0.14165000  0.95614000  1.0
  H  H32  1  0.59953000  0.05715000  0.99994000  1.0
  H  H33  1  0.40047000  0.05715000  0.00006000  1.0
  H  H34  1  0.42938000  0.74320000  0.95629000  1.0
  H  H35  1  0.42919000  0.85835000  0.95613000  1.0
  H  H36  1  0.57062000  0.74320000  0.04371000  1.0
  H  H37  1  0.57081000  0.85835000  0.04386000  1.0
  H  H38  1  0.40047000  0.94285000  0.99994000  1.0
  H  H39  1  0.59953000  0.94285000  0.00006000  1.0
  H  H40  1  0.56969000  0.74321000  0.45570000  1.0
  H  H41  1  0.56993000  0.85836000  0.45558000  1.0
  H  H42  1  0.43031000  0.74321000  0.54430000  1.0
  H  H43  1  0.43007000  0.85836000  0.54442000  1.0
  H  H44  1  0.49989000  0.94285000  0.56238000  1.0
  H  H45  1  0.50011000  0.94285000  0.43761000  1.0
  H  H46  1  0.43031000  0.25679000  0.45570000  1.0
  H  H47  1  0.43007000  0.14164000  0.45558000  1.0
  H  H48  1  0.56969000  0.25679000  0.54430000  1.0
  H  H49  1  0.56993000  0.14164000  0.54442000  1.0
  H  H50  1  0.49989000  0.05715000  0.43761000  1.0
  H  H51  1  0.50011000  0.05714000  0.56238000  1.0
  H  H52  1  0.74320000  0.57062000  0.45629000  1.0
  H  H53  1  0.85835000  0.57081000  0.45614000  1.0
  H  H54  1  0.74320000  0.42938000  0.54371000  1.0
  H  H55  1  0.85835000  0.42919000  0.54387000  1.0
  H  H56  1  0.94285000  0.40047000  0.50006000  1.0
  H  H57  1  0.94285000  0.59953000  0.49994000  1.0
  H  H58  1  0.25679000  0.57062000  0.54372000  1.0
  H  H59  1  0.14165000  0.57081000  0.54386000  1.0
  H  H60  1  0.25680000  0.42938000  0.45629000  1.0
  H  H61  1  0.14165000  0.42919000  0.45613000  1.0
  H  H62  1  0.05715000  0.59953000  0.50006000  1.0
  H  H63  1  0.05715000  0.40047000  0.49994000  1.0
  H  H64  1  0.61548000  0.67315000  0.28309000  1.0
  H  H65  1  0.62161000  0.62142000  0.32249000  1.0
  H  H66  1  0.67314000  0.61562000  0.28297000  1.0
  H  H67  1  0.67315000  0.61548000  0.21691000  1.0
  H  H68  1  0.62142000  0.62161000  0.17751000  1.0
  H  H69  1  0.61562000  0.67314000  0.21703000  1.0
  H  H70  1  0.38452000  0.32685000  0.28309000  1.0
  H  H71  1  0.37839000  0.37858000  0.32249000  1.0
  H  H72  1  0.32686000  0.38438000  0.28297000  1.0
  H  H73  1  0.32685000  0.38452000  0.21691000  1.0
  H  H74  1  0.37858000  0.37839000  0.17751000  1.0
  H  H75  1  0.38438000  0.32686000  0.21703000  1.0
  H  H76  1  0.38452000  0.67315000  0.71691000  1.0
  H  H77  1  0.37839000  0.62142000  0.67751000  1.0
  H  H78  1  0.32686000  0.61562000  0.71703000  1.0
  H  H79  1  0.32685000  0.61548000  0.78309000  1.0
  H  H80  1  0.37857000  0.62161000  0.82249000  1.0
  H  H81  1  0.38438000  0.67314000  0.78297000  1.0
  H  H82  1  0.61548000  0.32685000  0.71691000  1.0
  H  H83  1  0.62161000  0.37858000  0.67751000  1.0
  H  H84  1  0.67314000  0.38438000  0.71703000  1.0
  H  H85  1  0.67315000  0.38452000  0.78309000  1.0
  H  H86  1  0.62142000  0.37839000  0.82249000  1.0
  H  H87  1  0.61562000  0.32686000  0.78297000  1.0
  C  C88  1  0.50000000  0.66729000  0.00000000  1.0
  C  C89  1  0.33270000  0.50000000  0.00000000  1.0
  C  C90  1  0.50000000  0.50000000  0.10490000  1.0
  C  C91  1  0.50000000  0.33270000  0.00000000  1.0
  C  C92  1  0.66731000  0.50000000  0.00000000  1.0
  C  C93  1  0.50000000  0.50000000  0.89510000  1.0
  C  C94  1  0.33271000  0.50000000  0.50000000  1.0
  C  C95  1  0.50000000  0.66730000  0.50000000  1.0
  C  C96  1  0.50000000  0.50000000  0.39510000  1.0
  C  C97  1  0.66729000  0.50000000  0.50000000  1.0
  C  C98  1  0.50000000  0.33270000  0.50000000  1.0
  C  C99  1  0.50000000  0.50000000  0.60490000  1.0
  C  C100  1  0.26379000  0.50000000  0.00000000  1.0
  C  C101  1  0.23107000  0.46097000  0.02514000  1.0
  C  C102  1  0.16683000  0.46124000  0.02524000  1.0
  C  C103  1  0.23107000  0.53903000  0.97486000  1.0
  C  C104  1  0.16683000  0.53876000  0.97476000  1.0
  C  C105  1  0.13362000  0.50000000  0.00000000  1.0
  C  C106  1  0.06545000  0.50000000  0.00000000  1.0
  C  C107  1  0.03214000  0.50036000  0.96506000  1.0
  C  C108  1  0.03214000  0.49964000  0.03494000  1.0
  C  C109  1  0.73621000  0.50000000  0.00000000  1.0
  C  C110  1  0.76892000  0.53903000  0.02514000  1.0
  C  C111  1  0.83317000  0.53876000  0.02524000  1.0
  C  C112  1  0.76892000  0.46097000  0.97486000  1.0
  C  C113  1  0.83317000  0.46124000  0.97476000  1.0
  C  C114  1  0.86637000  0.50000000  0.00000000  1.0
  C  C115  1  0.93455000  0.50000000  0.00000000  1.0
  C  C116  1  0.96786000  0.50036000  0.03494000  1.0
  C  C117  1  0.96786000  0.49964000  0.96506000  1.0
  C  C118  1  0.53961000  0.53961000  0.16817000  1.0
  C  C119  1  0.54078000  0.54078000  0.20879000  1.0
  C  C120  1  0.58154000  0.58154000  0.22999000  1.0
  C  C121  1  0.46039000  0.46039000  0.16817000  1.0
  C  C122  1  0.45922000  0.45922000  0.20879000  1.0
  C  C123  1  0.41846000  0.41846000  0.22999000  1.0
  C  C124  1  0.46039000  0.46039000  0.33183000  1.0
  C  C125  1  0.45922000  0.45922000  0.29121000  1.0
  C  C126  1  0.41846000  0.41846000  0.27001000  1.0
  C  C127  1  0.53961000  0.53961000  0.33183000  1.0
  C  C128  1  0.54078000  0.54078000  0.29121000  1.0
  C  C129  1  0.58154000  0.58154000  0.27001000  1.0
  C  C130  1  0.50000000  0.50000000  0.14815000  1.0
  C  C131  1  0.50000000  0.50000000  0.22946000  1.0
  C  C132  1  0.50000000  0.50000000  0.35185000  1.0
  C  C133  1  0.50000000  0.50000000  0.27054000  1.0
  C  C134  1  0.46039000  0.53961000  0.83183000  1.0
  C  C135  1  0.45922000  0.54078000  0.79121000  1.0
  C  C136  1  0.41846000  0.58154000  0.77001000  1.0
  C  C137  1  0.53961000  0.46039000  0.83183000  1.0
  C  C138  1  0.54078000  0.45922000  0.79121000  1.0
  C  C139  1  0.58154000  0.41846000  0.77001000  1.0
  C  C140  1  0.53961000  0.46039000  0.66817000  1.0
  C  C141  1  0.54078000  0.45922000  0.70879000  1.0
  C  C142  1  0.58154000  0.41846000  0.72999000  1.0
  C  C143  1  0.46039000  0.53961000  0.66817000  1.0
  C  C144  1  0.45922000  0.54078000  0.70879000  1.0
  C  C145  1  0.41846000  0.58154000  0.72999000  1.0
  C  C146  1  0.50000000  0.50000000  0.85185000  1.0
  C  C147  1  0.50000000  0.50000000  0.77054000  1.0
  C  C148  1  0.50000000  0.50000000  0.64815000  1.0
  C  C149  1  0.50000000  0.50000000  0.72946000  1.0
  C  C150  1  0.50000000  0.26380000  0.00000000  1.0
  C  C151  1  0.45992000  0.23108000  0.02449000  1.0
  C  C152  1  0.45976000  0.16683000  0.02431000  1.0
  C  C153  1  0.54008000  0.23108000  0.97551000  1.0
  C  C154  1  0.54024000  0.16683000  0.97569000  1.0
  C  C155  1  0.50000000  0.13361000  0.00000000  1.0
  C  C156  1  0.50000000  0.06543000  0.00000000  1.0
  C  C157  1  0.55575000  0.03214000  0.99977000  1.0
  C  C158  1  0.44425000  0.03214000  0.00023000  1.0
  C  C159  1  0.50000000  0.73620000  0.00000000  1.0
  C  C160  1  0.45992000  0.76892000  0.97551000  1.0
  C  C161  1  0.45976000  0.83317000  0.97569000  1.0
  C  C162  1  0.54008000  0.76892000  0.02449000  1.0
  C  C163  1  0.54024000  0.83317000  0.02431000  1.0
  C  C164  1  0.50000000  0.86639000  0.00000000  1.0
  C  C165  1  0.50000000  0.93457000  0.00000000  1.0
  C  C166  1  0.44425000  0.96786000  0.99977000  1.0
  C  C167  1  0.55575000  0.96786000  0.00023000  1.0
  C  C168  1  0.50000000  0.73621000  0.50000000  1.0
  C  C169  1  0.53903000  0.76893000  0.47486000  1.0
  C  C170  1  0.53876000  0.83317000  0.47476000  1.0
  C  C171  1  0.46097000  0.76893000  0.52514000  1.0
  C  C172  1  0.46124000  0.83317000  0.52524000  1.0
  C  C173  1  0.50000000  0.86637000  0.50000000  1.0
  C  C174  1  0.50000000  0.93455000  0.50000000  1.0
  C  C175  1  0.49964000  0.96786000  0.53494000  1.0
  C  C176  1  0.50036000  0.96786000  0.46506000  1.0
  C  C177  1  0.50000000  0.26379000  0.50000000  1.0
  C  C178  1  0.46097000  0.23107000  0.47486000  1.0
  C  C179  1  0.46124000  0.16683000  0.47476000  1.0
  C  C180  1  0.53903000  0.23107000  0.52514000  1.0
  C  C181  1  0.53876000  0.16683000  0.52524000  1.0
  C  C182  1  0.50000000  0.13362000  0.50000000  1.0
  C  C183  1  0.50000000  0.06545000  0.50000000  1.0
  C  C184  1  0.49964000  0.03214000  0.46506000  1.0
  C  C185  1  0.50036000  0.03214000  0.53494000  1.0
  C  C186  1  0.73620000  0.50000000  0.50000000  1.0
  C  C187  1  0.76892000  0.54008000  0.47551000  1.0
  C  C188  1  0.83317000  0.54024000  0.47569000  1.0
  C  C189  1  0.76892000  0.45992000  0.52449000  1.0
  C  C190  1  0.83317000  0.45976000  0.52431000  1.0
  C  C191  1  0.86639000  0.50000000  0.50000000  1.0
  C  C192  1  0.93457000  0.50000000  0.50000000  1.0
  C  C193  1  0.96786000  0.44424000  0.50023000  1.0
  C  C194  1  0.96786000  0.55575000  0.49977000  1.0
  C  C195  1  0.26380000  0.50000000  0.50000000  1.0
  C  C196  1  0.23108000  0.54008000  0.52449000  1.0
  C  C197  1  0.16683000  0.54024000  0.52431000  1.0
  C  C198  1  0.23108000  0.45992000  0.47551000  1.0
  C  C199  1  0.16683000  0.45976000  0.47569000  1.0
  C  C200  1  0.13361000  0.50000000  0.50000000  1.0
  C  C201  1  0.06543000  0.50000000  0.50000000  1.0
  C  C202  1  0.03214000  0.55576000  0.50023000  1.0
  C  C203  1  0.03214000  0.44424000  0.49977000  1.0
  C  C204  1  0.62474000  0.62473000  0.29098000  1.0
  C  C205  1  0.62472000  0.62474000  0.20902000  1.0
  C  C206  1  0.37526000  0.37528000  0.29098000  1.0
  C  C207  1  0.37528000  0.37526000  0.20902000  1.0
  C  C208  1  0.37526000  0.62472000  0.70902000  1.0
  C  C209  1  0.37527000  0.62474000  0.79098000  1.0
  C  C210  1  0.62474000  0.37527000  0.70902000  1.0
  C  C211  1  0.62472000  0.37526000  0.79098000  1.0
  O  O212  1  0.50000000  0.50000000  0.00000000  1.0
  O  O213  1  0.53743000  0.64056000  0.02323000  1.0
  O  O214  1  0.35943000  0.53729000  0.97669000  1.0
  O  O215  1  0.46279000  0.46280000  0.08809000  1.0
  O  O216  1  0.46256000  0.64056000  0.97678000  1.0
  O  O217  1  0.53721000  0.53721000  0.08809000  1.0
  O  O218  1  0.35943000  0.46270000  0.02331000  1.0
  O  O219  1  0.46256000  0.35944000  0.02322000  1.0
  O  O220  1  0.64057000  0.46270000  0.97669000  1.0
  O  O221  1  0.53743000  0.35944000  0.97677000  1.0
  O  O222  1  0.64057000  0.53729000  0.02331000  1.0
  O  O223  1  0.46279000  0.53721000  0.91191000  1.0
  O  O224  1  0.53721000  0.46279000  0.91191000  1.0
  O  O225  1  0.50000000  0.50000000  0.50000000  1.0
  O  O226  1  0.35944000  0.46257000  0.47677000  1.0
  O  O227  1  0.46270000  0.64057000  0.52331000  1.0
  O  O228  1  0.53721000  0.53721000  0.41191000  1.0
  O  O229  1  0.35944000  0.53743000  0.52323000  1.0
  O  O230  1  0.46280000  0.46279000  0.41191000  1.0
  O  O231  1  0.53730000  0.64057000  0.47669000  1.0
  O  O232  1  0.64056000  0.53743000  0.47677000  1.0
  O  O233  1  0.53730000  0.35943000  0.52331000  1.0
  O  O234  1  0.64056000  0.46257000  0.52323000  1.0
  O  O235  1  0.46270000  0.35943000  0.47669000  1.0
  O  O236  1  0.46279000  0.53721000  0.58809000  1.0
  O  O237  1  0.53720000  0.46279000  0.58809000  1.0
