# generated using pymatgen
data_CuH15C13SN2ClO3
_symmetry_space_group_name_H-M   'P 1'
_cell_length_a   7.62855000
_cell_length_b   10.19240000
_cell_length_c   11.18800000
_cell_angle_alpha   76.20640000
_cell_angle_beta   86.51640000
_cell_angle_gamma   76.90730000
_symmetry_Int_Tables_number   1
_chemical_formula_structural   CuH15C13SN2ClO3
_chemical_formula_sum   'Cu2 H30 C26 S2 N4 Cl2 O6'
_cell_volume   822.83386354
_cell_formula_units_Z   2
loop_
 _symmetry_equiv_pos_site_id
 _symmetry_equiv_pos_as_xyz
  1  'x, y, z'
loop_
 _atom_site_type_symbol
 _atom_site_label
 _atom_site_symmetry_multiplicity
 _atom_site_fract_x
 _atom_site_fract_y
 _atom_site_fract_z
 _atom_site_occupancy
  Cu  Cu0  1  0.86115000  0.88431000  0.04732000  1.0
  Cu  Cu1  1  0.13884000  0.11569000  0.95268000  1.0
  H  H2  1  0.17508000  0.89565000  0.21420000  1.0
  H  H3  1  0.82491000  0.10435000  0.78580000  1.0
  H  H4  1  0.18955000  0.87026000  0.51659000  1.0
  H  H5  1  0.81047000  0.12975000  0.48342000  1.0
  H  H6  1  0.03984000  0.45844000  0.17403000  1.0
  H  H7  1  0.96017000  0.54155000  0.82597000  1.0
  H  H8  1  0.26634000  0.45453000  0.20119000  1.0
  H  H9  1  0.73366000  0.54547000  0.79881000  1.0
  H  H10  1  0.34904000  0.55007000  0.84241000  1.0
  H  H11  1  0.65094000  0.44993000  0.15759000  1.0
  H  H12  1  0.25097000  0.57198000  0.02981000  1.0
  H  H13  1  0.74902000  0.42802000  0.97019000  1.0
  H  H14  1  0.98272000  0.01215000  0.64329000  1.0
  H  H15  1  0.01730000  0.98786000  0.35671000  1.0
  H  H16  1  0.28329000  0.61465000  0.35086000  1.0
  H  H17  1  0.71672000  0.38535000  0.64913000  1.0
  H  H18  1  0.35202000  0.67253000  0.19628000  1.0
  H  H19  1  0.64798000  0.32746000  0.80371000  1.0
  H  H20  1  0.19868000  0.42829000  0.42876000  1.0
  H  H21  1  0.80132000  0.57171000  0.57124000  1.0
  H  H22  1  0.15556000  0.29297000  0.36883000  1.0
  H  H23  1  0.84445000  0.70703000  0.63117000  1.0
  H  H24  1  0.97358000  0.42190000  0.40088000  1.0
  H  H25  1  0.02642000  0.57810000  0.59912000  1.0
  H  H26  1  0.80744000  0.62531000  0.27220000  1.0
  H  H27  1  0.19256000  0.37469000  0.72781000  1.0
  H  H28  1  0.92938000  0.66944000  0.38404000  1.0
  H  H29  1  0.07062000  0.33056000  0.61596000  1.0
  H  H30  1  0.69680000  0.85154000  0.25604000  1.0
  H  H31  1  0.30320000  0.14846000  0.74397000  1.0
  C  C32  1  0.17716000  0.83253000  0.61583000  1.0
  C  C33  1  0.82285000  0.16748000  0.38418000  1.0
  C  C34  1  0.12765000  0.48648000  0.23375000  1.0
  C  C35  1  0.87236000  0.51352000  0.76625000  1.0
  C  C36  1  0.26764000  0.65091000  0.79822000  1.0
  C  C37  1  0.73235000  0.34909000  0.20179000  1.0
  C  C38  1  0.27991000  0.70213000  0.67307000  1.0
  C  C39  1  0.72009000  0.29787000  0.32693000  1.0
  C  C40  1  0.04173000  0.86088000  0.81460000  1.0
  C  C41  1  0.95827000  0.13913000  0.18541000  1.0
  C  C42  1  0.14855000  0.72826000  0.87112000  1.0
  C  C43  1  0.85144000  0.27174000  0.12888000  1.0
  C  C44  1  0.07908000  0.64594000  0.21616000  1.0
  C  C45  1  0.92091000  0.35405000  0.78385000  1.0
  C  C46  1  0.14992000  0.66870000  0.00079000  1.0
  C  C47  1  0.85008000  0.33130000  0.99921000  1.0
  C  C48  1  0.55234000  0.14421000  0.01855000  1.0
  C  C49  1  0.44763000  0.85582000  0.98145000  1.0
  C  C50  1  0.06075000  0.90980000  0.68548000  1.0
  C  C51  1  0.93926000  0.09021000  0.31452000  1.0
  C  C52  1  0.24101000  0.68812000  0.26332000  1.0
  C  C53  1  0.75899000  0.31188000  0.73667000  1.0
  C  C54  1  0.11231000  0.40400000  0.36582000  1.0
  C  C55  1  0.88769000  0.59600000  0.63418000  1.0
  C  C56  1  0.90313000  0.68674000  0.28551000  1.0
  C  C57  1  0.09686000  0.31325000  0.71449000  1.0
  S  S58  1  0.38431000  0.27683000  0.99246000  1.0
  S  S59  1  0.61570000  0.72318000  0.00754000  1.0
  N  N60  1  0.04789000  0.71760000  0.08424000  1.0
  N  N61  1  0.95211000  0.28240000  0.91576000  1.0
  N  N62  1  0.67601000  0.04819000  0.03859000  1.0
  N  N63  1  0.32401000  0.95180000  0.96142000  1.0
  Cl  Cl64  1  0.42058000  0.60456000  0.58317000  1.0
  Cl  Cl65  1  0.57942000  0.39544000  0.41684000  1.0
  O  O66  1  0.82565000  0.83228000  0.23820000  1.0
  O  O67  1  0.17434000  0.16772000  0.76181000  1.0
  O  O68  1  0.93109000  0.94092000  0.87591000  1.0
  O  O69  1  0.06891000  0.05908000  0.12409000  1.0
  O  O70  1  0.21084000  0.82049000  0.28873000  1.0
  O  O71  1  0.78917000  0.17951000  0.71127000  1.0
