# generated using pymatgen
data_CoH12C18(SN)2
_symmetry_space_group_name_H-M   'P 1'
_cell_length_a   3.65445000
_cell_length_b   12.78390000
_cell_length_c   14.26840000
_cell_angle_alpha   89.99490000
_cell_angle_beta   89.99990000
_cell_angle_gamma   86.85540000
_symmetry_Int_Tables_number   1
_chemical_formula_structural   CoH12C18(SN)2
_chemical_formula_sum   'Co2 H24 C36 S4 N4'
_cell_volume   665.58916105
_cell_formula_units_Z   2
loop_
 _symmetry_equiv_pos_site_id
 _symmetry_equiv_pos_as_xyz
  1  'x, y, z'
loop_
 _atom_site_type_symbol
 _atom_site_label
 _atom_site_symmetry_multiplicity
 _atom_site_fract_x
 _atom_site_fract_y
 _atom_site_fract_z
 _atom_site_occupancy
  Co  Co0  1  0.00000000  0.00000000  0.50000000  1.0
  Co  Co1  1  0.00002000  0.50000000  1.00000000  1.0
  H  H2  1  0.32201000  0.57602000  0.71304000  1.0
  H  H3  1  0.67798000  0.92395000  0.21301000  1.0
  H  H4  1  0.67798000  0.42398000  0.28697000  1.0
  H  H5  1  0.32203000  0.07605000  0.78698000  1.0
  H  H6  1  0.72309000  0.67163000  0.44318000  1.0
  H  H7  1  0.27688000  0.82838000  0.94318000  1.0
  H  H8  1  0.27690000  0.32837000  0.55682000  1.0
  H  H9  1  0.72313000  0.17162000  0.05682000  1.0
  H  H10  1  0.98849000  0.70969000  0.81621000  1.0
  H  H11  1  0.01166000  0.79027000  0.31618000  1.0
  H  H12  1  0.01148000  0.29031000  0.18379000  1.0
  H  H13  1  0.98834000  0.20973000  0.68382000  1.0
  H  H14  1  0.77378000  0.01897000  0.70104000  1.0
  H  H15  1  0.22630000  0.48101000  0.20103000  1.0
  H  H16  1  0.22622000  0.98104000  0.29896000  1.0
  H  H17  1  0.77372000  0.51899000  0.79897000  1.0
  H  H18  1  0.65908000  0.53461000  0.56420000  1.0
  H  H19  1  0.34088000  0.96538000  0.06418000  1.0
  H  H20  1  0.34091000  0.46539000  0.43581000  1.0
  H  H21  1  0.65913000  0.03462000  0.93581000  1.0
  H  H22  1  0.74154000  0.89545000  0.83478000  1.0
  H  H23  1  0.25864000  0.60451000  0.33475000  1.0
  H  H24  1  0.25845000  0.10456000  0.16522000  1.0
  H  H25  1  0.74136000  0.39549000  0.66525000  1.0
  C  C26  1  0.40274000  0.78994000  0.51868000  1.0
  C  C27  1  0.59726000  0.71006000  0.01866000  1.0
  C  C28  1  0.59725000  0.21006000  0.48132000  1.0
  C  C29  1  0.40275000  0.28994000  0.98134000  1.0
  C  C30  1  0.18633000  0.73693000  0.67495000  1.0
  C  C31  1  0.81373000  0.76305000  0.17493000  1.0
  C  C32  1  0.81365000  0.26307000  0.32505000  1.0
  C  C33  1  0.18629000  0.23695000  0.82507000  1.0
  C  C34  1  0.20505000  0.81366000  0.60267000  1.0
  C  C35  1  0.79498000  0.68633000  0.10265000  1.0
  C  C36  1  0.79494000  0.18634000  0.39733000  1.0
  C  C37  1  0.20503000  0.31367000  0.89735000  1.0
  C  C38  1  0.34600000  0.63508000  0.65868000  1.0
  C  C39  1  0.65401000  0.86490000  0.15866000  1.0
  C  C40  1  0.65398000  0.36493000  0.34132000  1.0
  C  C41  1  0.34600000  0.13510000  0.84134000  1.0
  C  C42  1  0.56425000  0.68944000  0.50637000  1.0
  C  C43  1  0.43574000  0.81056000  0.00636000  1.0
  C  C44  1  0.43574000  0.31056000  0.49363000  1.0
  C  C45  1  0.56428000  0.18943000  0.99364000  1.0
  C  C46  1  0.01044000  0.76671000  0.75987000  1.0
  C  C47  1  0.98966000  0.73327000  0.25985000  1.0
  C  C48  1  0.98954000  0.23330000  0.24013000  1.0
  C  C49  1  0.01035000  0.26673000  0.74015000  1.0
  C  C50  1  0.89089000  0.93915000  0.69483000  1.0
  C  C51  1  0.10920000  0.56083000  0.19481000  1.0
  C  C52  1  0.10911000  0.06085000  0.30517000  1.0
  C  C53  1  0.89081000  0.43917000  0.80519000  1.0
  C  C54  1  0.53002000  0.61242000  0.57578000  1.0
  C  C55  1  0.46997000  0.88757000  0.07576000  1.0
  C  C56  1  0.46998000  0.38758000  0.42423000  1.0
  C  C57  1  0.53004000  0.11243000  0.92424000  1.0
  C  C58  1  0.87397000  0.86887000  0.76999000  1.0
  C  C59  1  0.12616000  0.63110000  0.26997000  1.0
  C  C60  1  0.12602000  0.13113000  0.23001000  1.0
  C  C61  1  0.87385000  0.36890000  0.73003000  1.0
  S  S62  1  0.44464000  0.89281000  0.44074000  1.0
  S  S63  1  0.55537000  0.60720000  0.94074000  1.0
  S  S64  1  0.55535000  0.10719000  0.55926000  1.0
  S  S65  1  0.44465000  0.39280000  0.05926000  1.0
  N  N66  1  0.04166000  0.91320000  0.61164000  1.0
  N  N67  1  0.95837000  0.58679000  0.11163000  1.0
  N  N68  1  0.95833000  0.08680000  0.38836000  1.0
  N  N69  1  0.04165000  0.41321000  0.88837000  1.0
