# generated using pymatgen
data_BiH13C10I2O
_symmetry_space_group_name_H-M   'P 1'
_cell_length_a   8.19910000
_cell_length_b   9.47669000
_cell_length_c   17.34530000
_cell_angle_alpha   86.85030000
_cell_angle_beta   83.29390000
_cell_angle_gamma   88.40030000
_symmetry_Int_Tables_number   1
_chemical_formula_structural   BiH13C10I2O
_chemical_formula_sum   'Bi4 H52 C40 I8 O4'
_cell_volume   1336.17847336
_cell_formula_units_Z   4
loop_
 _symmetry_equiv_pos_site_id
 _symmetry_equiv_pos_as_xyz
  1  'x, y, z'
loop_
 _atom_site_type_symbol
 _atom_site_label
 _atom_site_symmetry_multiplicity
 _atom_site_fract_x
 _atom_site_fract_y
 _atom_site_fract_z
 _atom_site_occupancy
  Bi  Bi0  1  0.05468000  0.81071000  0.23690000  1.0
  Bi  Bi1  1  0.94532000  0.18928000  0.76311000  1.0
  Bi  Bi2  1  0.05198000  0.30371000  0.26125000  1.0
  Bi  Bi3  1  0.94803000  0.69628000  0.73875000  1.0
  H  H4  1  0.11570000  0.78377000  0.48006000  1.0
  H  H5  1  0.88429000  0.21622000  0.51994000  1.0
  H  H6  1  0.10405000  0.95830000  0.43530000  1.0
  H  H7  1  0.89594000  0.04170000  0.56470000  1.0
  H  H8  1  0.38948000  0.99743000  0.44212000  1.0
  H  H9  1  0.61051000  0.00257000  0.55788000  1.0
  H  H10  1  0.35174000  0.88392000  0.52654000  1.0
  H  H11  1  0.64825000  0.11608000  0.47346000  1.0
  H  H12  1  0.49693000  0.69148000  0.46321000  1.0
  H  H13  1  0.50307000  0.30852000  0.53679000  1.0
  H  H14  1  0.57993000  0.82267000  0.39494000  1.0
  H  H15  1  0.42007000  0.17733000  0.60506000  1.0
  H  H16  1  0.42496000  0.72855000  0.30247000  1.0
  H  H17  1  0.57504000  0.27145000  0.69753000  1.0
  H  H18  1  0.32814000  0.61022000  0.37617000  1.0
  H  H19  1  0.67186000  0.38978000  0.62383000  1.0
  H  H20  1  0.94371000  0.50972000  0.10236000  1.0
  H  H21  1  0.05629000  0.49028000  0.89763000  1.0
  H  H22  1  0.97394000  0.37857000  0.03081000  1.0
  H  H23  1  0.02606000  0.62143000  0.96919000  1.0
  H  H24  1  0.71869000  0.48789000  0.99766000  1.0
  H  H25  1  0.28131000  0.51212000  0.00234000  1.0
  H  H26  1  0.64908000  0.51896000  0.09649000  1.0
  H  H27  1  0.35091000  0.48104000  0.90351000  1.0
  H  H28  1  0.51000000  0.29796000  0.07804000  1.0
  H  H29  1  0.49000000  0.70204000  0.92196000  1.0
  H  H30  1  0.68758000  0.23301000  0.02032000  1.0
  H  H31  1  0.31242000  0.76699000  0.97967000  1.0
  H  H32  1  0.73836000  0.12375000  0.14466000  1.0
  H  H33  1  0.26164000  0.87625000  0.85534000  1.0
  H  H34  1  0.63880000  0.26633000  0.19630000  1.0
  H  H35  1  0.36120000  0.73367000  0.80370000  1.0
  H  H36  1  0.72468000  0.62946000  0.20703000  1.0
  H  H37  1  0.27533000  0.37055000  0.79298000  1.0
  H  H38  1  0.54783000  0.44617000  0.27871000  1.0
  H  H39  1  0.45218000  0.55384000  0.72129000  1.0
  H  H40  1  0.59845000  0.35793000  0.41104000  1.0
  H  H41  1  0.40155000  0.64207000  0.58896000  1.0
  H  H42  1  0.82654000  0.45868000  0.47398000  1.0
  H  H43  1  0.17346000  0.54131000  0.52602000  1.0
  H  H44  1  0.00259000  0.64094000  0.40339000  1.0
  H  H45  1  0.99742000  0.35905000  0.59661000  1.0
  H  H46  1  0.10224000  0.16886000  0.09340000  1.0
  H  H47  1  0.89776000  0.83114000  0.90659000  1.0
  H  H48  1  0.27874000  0.99395000  0.02166000  1.0
  H  H49  1  0.72126000  0.00606000  0.97834000  1.0
  H  H50  1  0.50636000  0.86803000  0.08320000  1.0
  H  H51  1  0.49364000  0.13197000  0.91680000  1.0
  H  H52  1  0.55755000  0.92377000  0.21658000  1.0
  H  H53  1  0.44246000  0.07623000  0.78342000  1.0
  H  H54  1  0.38169000  0.09999000  0.28927000  1.0
  H  H55  1  0.61832000  0.90000000  0.71073000  1.0
  C  C56  1  0.18239000  0.86327000  0.44025000  1.0
  C  C57  1  0.81760000  0.13673000  0.55975000  1.0
  C  C58  1  0.35181000  0.89067000  0.46323000  1.0
  C  C59  1  0.64818000  0.10933000  0.53677000  1.0
  C  C60  1  0.46438000  0.77740000  0.42243000  1.0
  C  C61  1  0.53561000  0.22260000  0.57757000  1.0
  C  C62  1  0.36332000  0.72090000  0.36207000  1.0
  C  C63  1  0.63668000  0.27909000  0.63793000  1.0
  C  C64  1  0.89018000  0.41783000  0.07976000  1.0
  C  C65  1  0.10981000  0.58217000  0.92024000  1.0
  C  C66  1  0.71772000  0.44452000  0.05765000  1.0
  C  C67  1  0.28228000  0.55549000  0.94235000  1.0
  C  C68  1  0.64475000  0.29683000  0.07007000  1.0
  C  C69  1  0.35525000  0.70317000  0.92993000  1.0
  C  C70  1  0.71605000  0.23842000  0.14282000  1.0
  C  C71  1  0.28395000  0.76158000  0.85717000  1.0
  C  C72  1  0.74807000  0.59211000  0.26550000  1.0
  C  C73  1  0.25193000  0.40789000  0.73450000  1.0
  C  C74  1  0.64901000  0.48789000  0.30556000  1.0
  C  C75  1  0.35100000  0.51211000  0.69444000  1.0
  C  C76  1  0.67700000  0.43889000  0.38041000  1.0
  C  C77  1  0.32300000  0.56111000  0.61959000  1.0
  C  C78  1  0.80385000  0.49501000  0.41540000  1.0
  C  C79  1  0.19615000  0.50498000  0.58461000  1.0
  C  C80  1  0.90323000  0.59926000  0.37545000  1.0
  C  C81  1  0.09677000  0.40073000  0.62455000  1.0
  C  C82  1  0.87655000  0.64831000  0.30008000  1.0
  C  C83  1  0.12346000  0.35169000  0.69992000  1.0
  C  C84  1  0.20326000  0.11756000  0.12062000  1.0
  C  C85  1  0.79676000  0.88244000  0.87938000  1.0
  C  C86  1  0.30275000  0.01741000  0.08007000  1.0
  C  C87  1  0.69725000  0.98259000  0.91993000  1.0
  C  C88  1  0.42918000  0.94657000  0.11458000  1.0
  C  C89  1  0.57082000  0.05343000  0.88541000  1.0
  C  C90  1  0.45714000  0.97721000  0.18979000  1.0
  C  C91  1  0.54287000  0.02279000  0.81021000  1.0
  C  C92  1  0.35865000  0.07772000  0.23047000  1.0
  C  C93  1  0.64136000  0.92227000  0.76953000  1.0
  C  C94  1  0.23018000  0.14805000  0.19629000  1.0
  C  C95  1  0.76983000  0.85195000  0.80370000  1.0
  I  I96  1  0.88925000  0.83159000  0.09642000  1.0
  I  I97  1  0.11076000  0.16841000  0.90358000  1.0
  I  I98  1  0.22396000  0.28899000  0.40093000  1.0
  I  I99  1  0.77605000  0.71102000  0.59907000  1.0
  I  I100  1  0.83673000  0.04199000  0.32067000  1.0
  I  I101  1  0.16326000  0.95802000  0.67933000  1.0
  I  I102  1  0.26986000  0.54659000  0.17740000  1.0
  I  I103  1  0.73014000  0.45342000  0.82261000  1.0
  O  O104  1  0.21537000  0.80963000  0.36304000  1.0
  O  O105  1  0.78462000  0.19037000  0.63696000  1.0
  O  O106  1  0.87490000  0.30583000  0.14128000  1.0
  O  O107  1  0.12509000  0.69417000  0.85871000  1.0
