# generated using pymatgen
data_Cd2H3C2SN3O5
_symmetry_space_group_name_H-M   'P 1'
_cell_length_a   6.85976000
_cell_length_b   10.17212324
_cell_length_c   12.40240000
_cell_angle_alpha   69.54297725
_cell_angle_beta   89.99690000
_cell_angle_gamma   70.29792522
_symmetry_Int_Tables_number   1
_chemical_formula_structural   Cd2H3C2SN3O5
_chemical_formula_sum   'Cd8 H12 C8 S4 N12 O20'
_cell_volume   756.53781952
_cell_formula_units_Z   4
loop_
 _symmetry_equiv_pos_site_id
 _symmetry_equiv_pos_as_xyz
  1  'x, y, z'
loop_
 _atom_site_type_symbol
 _atom_site_label
 _atom_site_symmetry_multiplicity
 _atom_site_fract_x
 _atom_site_fract_y
 _atom_site_fract_z
 _atom_site_occupancy
  Cd  Cd0  1  0.11343000  0.08132000  0.59946000  1.0
  Cd  Cd1  1  0.19489000  0.91866000  0.90058000  1.0
  Cd  Cd2  1  0.88657000  0.91868000  0.40054000  1.0
  Cd  Cd3  1  0.80511000  0.08134000  0.09942000  1.0
  Cd  Cd4  1  0.62189000  0.78086000  0.71711000  1.0
  Cd  Cd5  1  0.40272000  0.21919000  0.78292000  1.0
  Cd  Cd6  1  0.37811000  0.21914000  0.28289000  1.0
  Cd  Cd7  1  0.59728000  0.78081000  0.21708000  1.0
  H  H8  1  0.94117000  0.50233000  0.18023000  1.0
  H  H9  1  0.44315000  0.49768000  0.31972000  1.0
  H  H10  1  0.05883000  0.49767000  0.81978000  1.0
  H  H11  1  0.55685000  0.50232000  0.68027000  1.0
  H  H12  1  0.77745000  0.45985000  0.51304000  1.0
  H  H13  1  0.23756000  0.53998000  0.98688000  1.0
  H  H14  1  0.22255000  0.54014000  0.48697000  1.0
  H  H15  1  0.76244000  0.46002000  0.01312000  1.0
  H  H16  1  0.98813000  0.21657000  0.76483000  1.0
  H  H17  1  0.20474000  0.78341000  0.73526000  1.0
  H  H18  1  0.01187000  0.78343000  0.23517000  1.0
  H  H19  1  0.79525000  0.21659000  0.26474000  1.0
  C  C20  1  0.93483000  0.45683000  0.27271000  1.0
  C  C21  1  0.39144000  0.54317000  0.22722000  1.0
  C  C22  1  0.06518000  0.54317000  0.72729000  1.0
  C  C23  1  0.60856000  0.45683000  0.77278000  1.0
  C  C24  1  0.85318000  0.43703000  0.44142000  1.0
  C  C25  1  0.29031000  0.56285000  0.05850000  1.0
  C  C26  1  0.14682000  0.56297000  0.55858000  1.0
  C  C27  1  0.70970000  0.43714000  0.94150000  1.0
  S  S28  1  0.39429000  0.86016000  0.43836000  1.0
  S  S29  1  0.25430000  0.13986000  0.06162000  1.0
  S  S30  1  0.60571000  0.13984000  0.56164000  1.0
  S  S31  1  0.74570000  0.86014000  0.93838000  1.0
  N  N32  1  0.80726000  0.53529000  0.32990000  1.0
  N  N33  1  0.34250000  0.46465000  0.17004000  1.0
  N  N34  1  0.19274000  0.46471000  0.67010000  1.0
  N  N35  1  0.65750000  0.53535000  0.82996000  1.0
  N  N36  1  0.00197000  0.30654000  0.45232000  1.0
  N  N37  1  0.30859000  0.69336000  0.04760000  1.0
  N  N38  1  0.99803000  0.69346000  0.54768000  1.0
  N  N39  1  0.69141000  0.30664000  0.95240000  1.0
  N  N40  1  0.05466000  0.31897000  0.34336000  1.0
  N  N41  1  0.37352000  0.68100000  0.15656000  1.0
  N  N42  1  0.94535000  0.68102000  0.65664000  1.0
  N  N43  1  0.62648000  0.31900000  0.84344000  1.0
  O  O44  1  0.50803000  0.74115000  0.54977000  1.0
  O  O45  1  0.24907000  0.25885000  0.95019000  1.0
  O  O46  1  0.49197000  0.25885000  0.45023000  1.0
  O  O47  1  0.75093000  0.74115000  0.04981000  1.0
  O  O48  1  0.35975000  0.79321000  0.35433000  1.0
  O  O49  1  0.15277000  0.20683000  0.14562000  1.0
  O  O50  1  0.64025000  0.20679000  0.64567000  1.0
  O  O51  1  0.84723000  0.79317000  0.85438000  1.0
  O  O52  1  0.18637000  0.95856000  0.45434000  1.0
  O  O53  1  0.14477000  0.04144000  0.04564000  1.0
  O  O54  1  0.81363000  0.04144000  0.54566000  1.0
  O  O55  1  0.85523000  0.95856000  0.95436000  1.0
  O  O56  1  0.51851000  0.95971000  0.38815000  1.0
  O  O57  1  0.47803000  0.04034000  0.11182000  1.0
  O  O58  1  0.48149000  0.04029000  0.61185000  1.0
  O  O59  1  0.52197000  0.95966000  0.88818000  1.0
  O  O60  1  0.12217000  0.14728000  0.75843000  1.0
  O  O61  1  0.26948000  0.85273000  0.74162000  1.0
  O  O62  1  0.87783000  0.85272000  0.24157000  1.0
  O  O63  1  0.73052000  0.14727000  0.25838000  1.0
