# generated using pymatgen
data_ZnFe2H44C52(N2O3)2
_symmetry_space_group_name_H-M   'P 1'
_cell_length_a   11.38010000
_cell_length_b   13.01790000
_cell_length_c   17.51021384
_cell_angle_alpha   108.21430431
_cell_angle_beta   103.22980768
_cell_angle_gamma   101.04100000
_symmetry_Int_Tables_number   1
_chemical_formula_structural   ZnFe2H44C52(N2O3)2
_chemical_formula_sum   'Zn2 Fe4 H88 C104 N8 O12'
_cell_volume   2299.57451096
_cell_formula_units_Z   2
loop_
 _symmetry_equiv_pos_site_id
 _symmetry_equiv_pos_as_xyz
  1  'x, y, z'
loop_
 _atom_site_type_symbol
 _atom_site_label
 _atom_site_symmetry_multiplicity
 _atom_site_fract_x
 _atom_site_fract_y
 _atom_site_fract_z
 _atom_site_occupancy
  Zn  Zn0  1  0.91121000  0.33917000  0.97181000  1.0
  Zn  Zn1  1  0.08879000  0.66084000  0.02819000  1.0
  Fe  Fe2  1  0.20087000  0.19536000  0.57544000  1.0
  Fe  Fe3  1  0.79913000  0.80464000  0.42456000  1.0
  Fe  Fe4  1  0.81658000  0.08645000  0.15763000  1.0
  Fe  Fe5  1  0.18341000  0.91354000  0.84236000  1.0
  H  H6  1  0.44177000  0.63203000  0.75223000  1.0
  H  H7  1  0.55823000  0.36797000  0.24777000  1.0
  H  H8  1  0.79789000  0.22521000  0.46616000  1.0
  H  H9  1  0.20211000  0.77478000  0.53383000  1.0
  H  H10  1  0.30055000  0.33568000  0.49948000  1.0
  H  H11  1  0.69945000  0.66431000  0.50052000  1.0
  H  H12  1  0.37685000  0.14909000  0.48937000  1.0
  H  H13  1  0.62315000  0.85090000  0.51063000  1.0
  H  H14  1  0.17347000  0.97861000  0.46111000  1.0
  H  H15  1  0.82653000  0.02138000  0.53890000  1.0
  H  H16  1  0.97008000  0.05997000  0.45093000  1.0
  H  H17  1  0.02992000  0.94002000  0.54907000  1.0
  H  H18  1  0.04681000  0.27886000  0.47383000  1.0
  H  H19  1  0.95319000  0.72114000  0.52617000  1.0
  H  H20  1  0.23246000  0.04337000  0.65790000  1.0
  H  H21  1  0.76754000  0.95662000  0.34210000  1.0
  H  H22  1  0.02742000  0.12304000  0.65425000  1.0
  H  H23  1  0.97258000  0.87696000  0.34575000  1.0
  H  H24  1  0.10205000  0.34559000  0.68108000  1.0
  H  H25  1  0.89795000  0.65441000  0.31892000  1.0
  H  H26  1  0.43157000  0.21624000  0.68575000  1.0
  H  H27  1  0.56843000  0.78375000  0.31425000  1.0
  H  H28  1  0.52133000  0.38113000  0.66949000  1.0
  H  H29  1  0.47866000  0.61886000  0.33051000  1.0
  H  H30  1  0.76488000  0.64422000  0.75198000  1.0
  H  H31  1  0.23512000  0.35578000  0.24802000  1.0
  H  H32  1  0.72089000  0.49596000  0.69139000  1.0
  H  H33  1  0.27911000  0.50404000  0.30862000  1.0
  H  H34  1  0.69363000  0.59349000  0.64210000  1.0
  H  H35  1  0.30637000  0.40650000  0.35790000  1.0
  H  H36  1  0.58739000  0.80604000  0.89565000  1.0
  H  H37  1  0.41261000  0.19396000  0.10435000  1.0
  H  H38  1  0.71265000  0.00707000  0.94544000  1.0
  H  H39  1  0.28735000  0.99293000  0.05456000  1.0
  H  H40  1  0.74466000  0.95594000  0.69804000  1.0
  H  H41  1  0.25533000  0.04405000  0.30196000  1.0
  H  H42  1  0.62135000  0.75354000  0.64720000  1.0
  H  H43  1  0.37865000  0.24645000  0.35280000  1.0
  H  H44  1  0.00953000  0.27290000  0.17848000  1.0
  H  H45  1  0.99047000  0.72710000  0.82152000  1.0
  H  H46  1  0.92145000  0.09885000  0.02926000  1.0
  H  H47  1  0.07855000  0.90115000  0.97074000  1.0
  H  H48  1  0.88501000  0.90464000  0.05992000  1.0
  H  H49  1  0.11499000  0.09536000  0.94008000  1.0
  H  H50  1  0.95082000  0.96111000  0.22991000  1.0
  H  H51  1  0.04916000  0.03888000  0.77008000  1.0
  H  H52  1  0.02754000  0.18862000  0.30376000  1.0
  H  H53  1  0.97246000  0.81138000  0.69624000  1.0
  H  H54  1  0.60016000  0.91360000  0.04173000  1.0
  H  H55  1  0.39983000  0.08640000  0.95826000  1.0
  H  H56  1  0.64694000  0.11889000  0.02841000  1.0
  H  H57  1  0.35306000  0.88112000  0.97159000  1.0
  H  H58  1  0.72860000  0.27811000  0.18516000  1.0
  H  H59  1  0.27140000  0.72189000  0.81484000  1.0
  H  H60  1  0.65513000  0.94707000  0.20833000  1.0
  H  H61  1  0.34487000  0.05294000  0.79167000  1.0
  H  H62  1  0.76083000  0.35298000  0.31742000  1.0
  H  H63  1  0.23917000  0.64702000  0.68258000  1.0
  H  H64  1  0.77561000  0.51276000  0.52613000  1.0
  H  H65  1  0.22439000  0.48724000  0.47387000  1.0
  H  H66  1  0.77497000  0.51253000  0.42343000  1.0
  H  H67  1  0.22503000  0.48747000  0.57657000  1.0
  H  H68  1  0.91807000  0.54393000  0.50357000  1.0
  H  H69  1  0.08193000  0.45606000  0.49643000  1.0
  H  H70  1  0.99696000  0.51330000  0.60771000  1.0
  H  H71  1  0.00304000  0.48671000  0.39229000  1.0
  H  H72  1  0.05145000  0.58393000  0.76201000  1.0
  H  H73  1  0.94855000  0.41607000  0.23799000  1.0
  H  H74  1  0.80759000  0.27809000  0.74829000  1.0
  H  H75  1  0.19241000  0.72190000  0.25170000  1.0
  H  H76  1  0.74562000  0.20697000  0.59092000  1.0
  H  H77  1  0.25438000  0.79303000  0.40908000  1.0
  H  H78  1  0.77047000  0.40077000  0.10293000  1.0
  H  H79  1  0.22953000  0.59924000  0.89707000  1.0
  H  H80  1  0.55509000  0.39391000  0.10713000  1.0
  H  H81  1  0.44491000  0.60610000  0.89287000  1.0
  H  H82  1  0.44260000  0.30442000  0.83512000  1.0
  H  H83  1  0.55741000  0.69559000  0.16488000  1.0
  H  H84  1  0.66644000  0.31824000  0.84455000  1.0
  H  H85  1  0.33357000  0.68177000  0.15546000  1.0
  H  H86  1  0.37804000  0.37604000  0.10383000  1.0
  H  H87  1  0.62196000  0.62397000  0.89617000  1.0
  H  H88  1  0.15713000  0.36573000  0.09645000  1.0
  H  H89  1  0.84287000  0.63427000  0.90355000  1.0
  H  H90  1  0.04828000  0.29047000  0.83881000  1.0
  H  H91  1  0.95171000  0.70952000  0.16118000  1.0
  H  H92  1  0.26494000  0.29758000  0.83324000  1.0
  H  H93  1  0.73507000  0.70243000  0.16676000  1.0
  C  C94  1  0.23974000  0.25254000  0.48540000  1.0
  C  C95  1  0.76026000  0.74745000  0.51460000  1.0
  C  C96  1  0.28078000  0.15403000  0.48118000  1.0
  C  C97  1  0.71922000  0.84596000  0.51882000  1.0
  C  C98  1  0.17306000  0.06383000  0.46608000  1.0
  C  C99  1  0.82693000  0.93616000  0.53392000  1.0
  C  C100  1  0.06567000  0.10675000  0.46099000  1.0
  C  C101  1  0.93432000  0.89324000  0.53901000  1.0
  C  C102  1  0.10681000  0.22332000  0.47295000  1.0
  C  C103  1  0.89319000  0.77667000  0.52705000  1.0
  C  C104  1  0.23062000  0.12984000  0.66755000  1.0
  C  C105  1  0.76938000  0.87015000  0.33245000  1.0
  C  C106  1  0.12265000  0.17197000  0.66546000  1.0
  C  C107  1  0.87736000  0.82803000  0.33455000  1.0
  C  C108  1  0.16096000  0.28906000  0.67927000  1.0
  C  C109  1  0.83904000  0.71093000  0.32073000  1.0
  C  C110  1  0.29392000  0.32135000  0.69040000  1.0
  C  C111  1  0.70608000  0.67864000  0.30960000  1.0
  C  C112  1  0.33630000  0.22135000  0.68184000  1.0
  C  C113  1  0.66370000  0.77865000  0.31816000  1.0
  C  C114  1  0.36834000  0.43693000  0.70806000  1.0
  C  C115  1  0.63165000  0.56306000  0.29194000  1.0
  C  C116  1  0.48822000  0.45393000  0.69424000  1.0
  C  C117  1  0.51179000  0.54607000  0.30577000  1.0
  C  C118  1  0.56650000  0.56024000  0.71156000  1.0
  C  C119  1  0.43350000  0.43976000  0.28844000  1.0
  C  C120  1  0.69328000  0.57366000  0.69867000  1.0
  C  C121  1  0.30672000  0.42633000  0.30133000  1.0
  C  C122  1  0.59915000  0.76679000  0.76897000  1.0
  C  C123  1  0.40086000  0.23322000  0.23104000  1.0
  C  C124  1  0.62249000  0.83893000  0.85255000  1.0
  C  C125  1  0.37751000  0.16108000  0.14746000  1.0
  C  C126  1  0.69124000  0.95113000  0.88014000  1.0
  C  C127  1  0.30876000  0.04887000  0.11986000  1.0
  C  C128  1  0.73572000  0.99362000  0.82466000  1.0
  C  C129  1  0.26427000  0.00638000  0.17534000  1.0
  C  C130  1  0.71020000  0.92172000  0.74074000  1.0
  C  C131  1  0.28980000  0.07828000  0.25926000  1.0
  C  C132  1  0.64238000  0.80892000  0.71282000  1.0
  C  C133  1  0.35762000  0.19107000  0.28718000  1.0
  C  C134  1  0.80843000  0.11547000  0.85405000  1.0
  C  C135  1  0.19157000  0.88454000  0.14595000  1.0
  C  C136  1  0.98909000  0.18456000  0.17056000  1.0
  C  C137  1  0.01091000  0.81544000  0.82944000  1.0
  C  C138  1  0.94230000  0.09165000  0.09082000  1.0
  C  C139  1  0.05769000  0.90835000  0.90917000  1.0
  C  C140  1  0.92203000  0.98965000  0.10739000  1.0
  C  C141  1  0.07797000  0.01035000  0.89261000  1.0
  C  C142  1  0.95620000  0.01943000  0.19723000  1.0
  C  C143  1  0.04379000  0.98057000  0.80277000  1.0
  C  C144  1  0.99800000  0.14006000  0.23622000  1.0
  C  C145  1  0.00200000  0.85995000  0.76378000  1.0
  C  C146  1  0.63279000  0.99480000  0.09383000  1.0
  C  C147  1  0.36720000  0.00520000  0.90616000  1.0
  C  C148  1  0.65677000  0.10304000  0.08654000  1.0
  C  C149  1  0.34323000  0.89696000  0.91346000  1.0
  C  C150  1  0.70114000  0.18764000  0.16979000  1.0
  C  C151  1  0.29886000  0.81237000  0.83021000  1.0
  C  C152  1  0.70372000  0.13178000  0.22959000  1.0
  C  C153  1  0.29628000  0.86823000  0.77041000  1.0
  C  C154  1  0.66221000  0.01190000  0.18156000  1.0
  C  C155  1  0.33779000  0.98810000  0.81844000  1.0
  C  C156  1  0.74815000  0.18556000  0.32226000  1.0
  C  C157  1  0.25185000  0.81444000  0.67774000  1.0
  C  C158  1  0.77633000  0.30646000  0.35881000  1.0
  C  C159  1  0.22367000  0.69354000  0.64118000  1.0
  C  C160  1  0.80986000  0.36738000  0.44462000  1.0
  C  C161  1  0.19014000  0.63262000  0.55538000  1.0
  C  C162  1  0.82008000  0.49072000  0.47610000  1.0
  C  C163  1  0.17991000  0.50927000  0.52389000  1.0
  C  C164  1  0.86149000  0.35692000  0.58748000  1.0
  C  C165  1  0.13852000  0.64308000  0.41252000  1.0
  C  C166  1  0.95010000  0.46272000  0.63685000  1.0
  C  C167  1  0.04990000  0.53728000  0.36315000  1.0
  C  C168  1  0.98216000  0.50251000  0.72433000  1.0
  C  C169  1  0.01784000  0.49749000  0.27567000  1.0
  C  C170  1  0.92769000  0.43862000  0.76516000  1.0
  C  C171  1  0.07232000  0.56138000  0.23484000  1.0
  C  C172  1  0.84422000  0.33062000  0.71638000  1.0
  C  C173  1  0.15579000  0.66938000  0.28362000  1.0
  C  C174  1  0.81173000  0.29029000  0.62877000  1.0
  C  C175  1  0.18827000  0.70971000  0.37123000  1.0
  C  C176  1  0.95606000  0.48513000  0.85877000  1.0
  C  C177  1  0.04394000  0.51487000  0.14123000  1.0
  C  C178  1  0.69434000  0.37961000  0.04506000  1.0
  C  C179  1  0.30566000  0.62039000  0.95494000  1.0
  C  C180  1  0.57185000  0.37457000  0.04616000  1.0
  C  C181  1  0.42816000  0.62544000  0.95384000  1.0
  C  C182  1  0.47584000  0.34645000  0.97038000  1.0
  C  C183  1  0.52417000  0.65356000  0.02962000  1.0
  C  C184  1  0.51118000  0.32618000  0.89643000  1.0
  C  C185  1  0.48883000  0.67382000  0.10357000  1.0
  C  C186  1  0.63605000  0.33341000  0.90082000  1.0
  C  C187  1  0.36396000  0.66659000  0.09918000  1.0
  C  C188  1  0.34405000  0.33916000  0.96882000  1.0
  C  C189  1  0.65595000  0.66085000  0.03118000  1.0
  C  C190  1  0.30981000  0.35716000  0.04300000  1.0
  C  C191  1  0.69019000  0.64285000  0.95700000  1.0
  C  C192  1  0.18603000  0.35218000  0.03985000  1.0
  C  C193  1  0.81397000  0.64783000  0.96015000  1.0
  C  C194  1  0.12560000  0.31088000  0.89602000  1.0
  C  C195  1  0.87440000  0.68912000  0.10398000  1.0
  C  C196  1  0.24748000  0.31404000  0.89385000  1.0
  C  C197  1  0.75252000  0.68597000  0.10615000  1.0
  N  N198  1  0.52943000  0.65279000  0.74322000  1.0
  N  N199  1  0.47056000  0.34721000  0.25678000  1.0
  N  N200  1  0.72680000  0.35926000  0.97383000  1.0
  N  N201  1  0.27320000  0.64075000  0.02617000  1.0
  N  N202  1  0.09521000  0.33131000  0.96814000  1.0
  N  N203  1  0.90479000  0.66869000  0.03186000  1.0
  N  N204  1  0.82486000  0.31265000  0.49950000  1.0
  N  N205  1  0.17514000  0.68735000  0.50050000  1.0
  O  O206  1  0.32245000  0.51798000  0.73662000  1.0
  O  O207  1  0.67755000  0.48201000  0.26338000  1.0
  O  O208  1  0.83474000  0.17276000  0.93437000  1.0
  O  O209  1  0.16525000  0.82724000  0.06562000  1.0
  O  O210  1  0.83777000  0.15483000  0.80203000  1.0
  O  O211  1  0.16222000  0.84516000  0.19796000  1.0
  O  O212  1  0.75562000  0.12554000  0.36737000  1.0
  O  O213  1  0.24439000  0.87446000  0.63263000  1.0
  O  O214  1  0.03144000  0.58503000  0.89897000  1.0
  O  O215  1  0.96856000  0.41497000  0.10103000  1.0
  O  O216  1  0.90053000  0.42641000  0.89263000  1.0
  O  O217  1  0.09948000  0.57359000  0.10737000  1.0
