# generated using pymatgen
data_ZnH5C19Br4NO5
_symmetry_space_group_name_H-M   'P 1'
_cell_length_a   14.57230000
_cell_length_b   16.10290000
_cell_length_c   17.29550000
_cell_angle_alpha   89.09060000
_cell_angle_beta   85.04610000
_cell_angle_gamma   83.78630000
_symmetry_Int_Tables_number   1
_chemical_formula_structural   ZnH5C19Br4NO5
_chemical_formula_sum   'Zn2 H10 C38 Br8 N2 O10'
_cell_volume   4019.49596379
_cell_formula_units_Z   2
loop_
 _symmetry_equiv_pos_site_id
 _symmetry_equiv_pos_as_xyz
  1  'x, y, z'
loop_
 _atom_site_type_symbol
 _atom_site_label
 _atom_site_symmetry_multiplicity
 _atom_site_fract_x
 _atom_site_fract_y
 _atom_site_fract_z
 _atom_site_occupancy
  Zn  Zn0  1  0.59437000  0.48516000  0.50952000  1.0
  Zn  Zn1  1  0.40382000  0.51368000  0.49116000  1.0
  H  H2  1  0.40969000  0.47393000  0.01238000  1.0
  H  H3  1  0.59041000  0.55688000  0.98950000  1.0
  H  H4  1  0.60297000  0.62062000  0.11418000  1.0
  H  H5  1  0.38690000  0.40891000  0.89613000  1.0
  H  H6  1  0.55736000  0.91329000  0.60801000  1.0
  H  H7  1  0.44170000  0.08567000  0.38800000  1.0
  H  H8  1  0.54338000  0.06837000  0.61522000  1.0
  H  H9  1  0.45550000  0.93054000  0.38084000  1.0
  H  H10  1  0.16552000  0.51710000  0.34521000  1.0
  H  H11  1  0.83208000  0.48260000  0.65561000  1.0
  C  C12  1  0.51113000  0.65835000  0.48956000  1.0
  C  C13  1  0.48689000  0.34062000  0.50963000  1.0
  C  C14  1  0.52428000  0.03782000  0.56408000  1.0
  C  C15  1  0.47465000  0.96113000  0.43195000  1.0
  C  C16  1  0.49158000  0.08742000  0.50211000  1.0
  C  C17  1  0.50725000  0.91154000  0.49398000  1.0
  C  C18  1  0.46685000  0.04759000  0.43600000  1.0
  C  C19  1  0.53217000  0.95137000  0.55999000  1.0
  C  C20  1  0.48559000  0.17562000  0.50581000  1.0
  C  C21  1  0.51291000  0.82333000  0.49075000  1.0
  C  C22  1  0.51504000  0.74754000  0.48845000  1.0
  C  C23  1  0.48314000  0.25138000  0.50901000  1.0
  C  C24  1  0.94362000  0.50050000  0.43608000  1.0
  C  C25  1  0.05429000  0.49800000  0.56479000  1.0
  C  C26  1  0.90547000  0.49263000  0.51359000  1.0
  C  C27  1  0.09244000  0.50599000  0.48734000  1.0
  C  C28  1  0.95871000  0.49212000  0.57839000  1.0
  C  C29  1  0.03915000  0.50678000  0.42251000  1.0
  C  C30  1  0.80910000  0.48334000  0.52537000  1.0
  C  C31  1  0.18891000  0.51493000  0.47558000  1.0
  C  C32  1  0.54614000  0.48513000  0.35179000  1.0
  C  C33  1  0.45304000  0.51888000  0.64849000  1.0
  C  C34  1  0.55832000  0.48652000  0.26409000  1.0
  C  C35  1  0.44085000  0.52601000  0.73590000  1.0
  C  C36  1  0.53199000  0.42130000  0.22076000  1.0
  C  C37  1  0.47218000  0.59291000  0.77364000  1.0
  C  C38  1  0.52739000  0.42848000  0.14018000  1.0
  C  C39  1  0.47686000  0.59254000  0.85437000  1.0
  C  C40  1  0.54872000  0.50274000  0.10102000  1.0
  C  C41  1  0.45038000  0.52357000  0.89940000  1.0
  C  C42  1  0.58304000  0.56428000  0.14391000  1.0
  C  C43  1  0.41079000  0.46102000  0.86188000  1.0
  C  C44  1  0.58726000  0.55629000  0.22367000  1.0
  C  C45  1  0.40662000  0.46222000  0.78196000  1.0
  C  C46  1  0.53662000  0.52291000  0.01918000  1.0
  C  C47  1  0.46306000  0.50768000  0.98172000  1.0
  C  C48  1  0.08982000  0.51300000  0.34373000  1.0
  C  C49  1  0.90780000  0.48668000  0.65720000  1.0
  Br  Br50  1  0.50356000  0.32276000  0.27545000  1.0
  Br  Br51  1  0.50755000  0.68406000  0.71104000  1.0
  Br  Br52  1  0.35789000  0.37180000  0.73535000  1.0
  Br  Br53  1  0.62850000  0.64542000  0.27805000  1.0
  Br  Br54  1  0.51475000  0.68720000  0.90222000  1.0
  Br  Br55  1  0.49748000  0.33563000  0.08432000  1.0
  Br  Br56  1  0.86278000  0.50344000  0.35718000  1.0
  Br  Br57  1  0.13516000  0.49414000  0.64380000  1.0
  N  N58  1  0.26713000  0.52419000  0.46884000  1.0
  N  N59  1  0.73093000  0.47386000  0.53207000  1.0
  O  O60  1  0.58640000  0.61230000  0.49830000  1.0
  O  O61  1  0.41076000  0.38697000  0.50577000  1.0
  O  O62  1  0.43183000  0.63454000  0.48234000  1.0
  O  O63  1  0.56702000  0.36418000  0.51334000  1.0
  O  O64  1  0.61740000  0.47481000  0.38923000  1.0
  O  O65  1  0.38217000  0.53049000  0.61064000  1.0
  O  O66  1  0.46213000  0.49709000  0.37892000  1.0
  O  O67  1  0.53640000  0.49928000  0.62215000  1.0
  O  O68  1  0.05463000  0.51295000  0.28247000  1.0
  O  O69  1  0.94277000  0.48735000  0.71851000  1.0
