# generated using pymatgen
data_AgH7C13N6O
_symmetry_space_group_name_H-M   'P 1'
_cell_length_a   4.11023000
_cell_length_b   11.31630000
_cell_length_c   14.74880000
_cell_angle_alpha   87.81250000
_cell_angle_beta   87.84890000
_cell_angle_gamma   87.54030000
_symmetry_Int_Tables_number   1
_chemical_formula_structural   AgH7C13N6O
_chemical_formula_sum   'Ag2 H14 C26 N12 O2'
_cell_volume   684.43061084
_cell_formula_units_Z   2
loop_
 _symmetry_equiv_pos_site_id
 _symmetry_equiv_pos_as_xyz
  1  'x, y, z'
loop_
 _atom_site_type_symbol
 _atom_site_label
 _atom_site_symmetry_multiplicity
 _atom_site_fract_x
 _atom_site_fract_y
 _atom_site_fract_z
 _atom_site_occupancy
  Ag  Ag0  1  0.28572000  0.26216000  0.35916000  1.0
  Ag  Ag1  1  0.71425000  0.73784000  0.64084000  1.0
  H  H2  1  0.59442000  0.15229000  0.16637000  1.0
  H  H3  1  0.40558000  0.84771000  0.83364000  1.0
  H  H4  1  0.85764000  0.23674000  0.96014000  1.0
  H  H5  1  0.14236000  0.76325000  0.03987000  1.0
  H  H6  1  0.80450000  0.11027000  0.03463000  1.0
  H  H7  1  0.19549000  0.88973000  0.96538000  1.0
  H  H8  1  0.20155000  0.16377000  0.01203000  1.0
  H  H9  1  0.79844000  0.83623000  0.98798000  1.0
  H  H10  1  0.27725000  0.37338000  0.05121000  1.0
  H  H11  1  0.72275000  0.62662000  0.94880000  1.0
  H  H12  1  0.09781000  0.41083000  0.15926000  1.0
  H  H13  1  0.90219000  0.58918000  0.84074000  1.0
  H  H14  1  0.88599000  0.44764000  0.05820000  1.0
  H  H15  1  0.11401000  0.55236000  0.94180000  1.0
  C  C16  1  0.70384000  0.23907000  0.17037000  1.0
  C  C17  1  0.29617000  0.76094000  0.82963000  1.0
  C  C18  1  0.94305000  0.19009000  0.02207000  1.0
  C  C19  1  0.05695000  0.80991000  0.97794000  1.0
  C  C20  1  0.04884000  0.38149000  0.09156000  1.0
  C  C21  1  0.95116000  0.61852000  0.90844000  1.0
  C  C22  1  0.97703000  0.86843000  0.31891000  1.0
  C  C23  1  0.02298000  0.13157000  0.68108000  1.0
  C  C24  1  0.79708000  0.83317000  0.24465000  1.0
  C  C25  1  0.20293000  0.16683000  0.75535000  1.0
  C  C26  1  0.79450000  0.70774000  0.24712000  1.0
  C  C27  1  0.20551000  0.29226000  0.75288000  1.0
  C  C28  1  0.97200000  0.66412000  0.32323000  1.0
  C  C29  1  0.02800000  0.33588000  0.67677000  1.0
  C  C30  1  0.08525000  0.76364000  0.36747000  1.0
  C  C31  1  0.91476000  0.23635000  0.63253000  1.0
  C  C32  1  0.03996000  0.98576000  0.33762000  1.0
  C  C33  1  0.96005000  0.01424000  0.66238000  1.0
  C  C34  1  0.63278000  0.90681000  0.18093000  1.0
  C  C35  1  0.36722000  0.09319000  0.81907000  1.0
  C  C36  1  0.63443000  0.64462000  0.18287000  1.0
  C  C37  1  0.36556000  0.35538000  0.81712000  1.0
  C  C38  1  0.02652000  0.54470000  0.34973000  1.0
  C  C39  1  0.97348000  0.45530000  0.65027000  1.0
  C  C40  1  0.27137000  0.75956000  0.44528000  1.0
  C  C41  1  0.72863000  0.24044000  0.55472000  1.0
  N  N42  1  0.89815000  0.26722000  0.09871000  1.0
  N  N43  1  0.10186000  0.73279000  0.90129000  1.0
  N  N44  1  0.08896000  0.08467000  0.35057000  1.0
  N  N45  1  0.91105000  0.91533000  0.64943000  1.0
  N  N46  1  0.48516000  0.96550000  0.12848000  1.0
  N  N47  1  0.51483000  0.03450000  0.87152000  1.0
  N  N48  1  0.49251000  0.60041000  0.12680000  1.0
  N  N49  1  0.50748000  0.39960000  0.87320000  1.0
  N  N50  1  0.06775000  0.44506000  0.37188000  1.0
  N  N51  1  0.93224000  0.55494000  0.62812000  1.0
  N  N52  1  0.42709000  0.75684000  0.50998000  1.0
  N  N53  1  0.57291000  0.24316000  0.49002000  1.0
  O  O54  1  0.64760000  0.30458000  0.23654000  1.0
  O  O55  1  0.35240000  0.69542000  0.76347000  1.0
