# generated using pymatgen
data_ZnH27C29N3Cl7O4
_symmetry_space_group_name_H-M   'P 1'
_cell_length_a   14.65260000
_cell_length_b   15.91210000
_cell_length_c   19.32470000
_cell_angle_alpha   89.68370000
_cell_angle_beta   90.18690000
_cell_angle_gamma   89.81800000
_symmetry_Int_Tables_number   1
_chemical_formula_structural   ZnH27C29N3Cl7O4
_chemical_formula_sum   'Zn2 H54 C58 N6 Cl14 O8'
_cell_volume   4505.50846134
_cell_formula_units_Z   2
loop_
 _symmetry_equiv_pos_site_id
 _symmetry_equiv_pos_as_xyz
  1  'x, y, z'
loop_
 _atom_site_type_symbol
 _atom_site_label
 _atom_site_symmetry_multiplicity
 _atom_site_fract_x
 _atom_site_fract_y
 _atom_site_fract_z
 _atom_site_occupancy
  Zn  Zn0  1  0.40297000  0.50217000  0.49842000  1.0
  Zn  Zn1  1  0.59229000  0.49859000  0.49920000  1.0
  H  H2  1  0.51507000  0.07818000  0.60744000  1.0
  H  H3  1  0.52708000  0.93046000  0.38903000  1.0
  H  H4  1  0.63087000  0.92564000  0.43484000  1.0
  H  H5  1  0.36270000  0.92075000  0.52663000  1.0
  H  H6  1  0.29415000  0.69549000  0.59681000  1.0
  H  H7  1  0.25101000  0.73978000  0.67503000  1.0
  H  H8  1  0.33469000  0.79388000  0.62560000  1.0
  H  H9  1  0.40865000  0.72397000  0.72896000  1.0
  H  H10  1  0.44878000  0.68013000  0.65087000  1.0
  H  H11  1  0.33550000  0.56256000  0.66303000  1.0
  H  H12  1  0.29768000  0.60610000  0.74202000  1.0
  H  H13  1  0.61952000  0.07407000  0.56517000  1.0
  H  H14  1  0.68052000  0.28727000  0.60519000  1.0
  H  H15  1  0.72880000  0.25316000  0.68573000  1.0
  H  H16  1  0.63700000  0.19704000  0.64766000  1.0
  H  H17  1  0.57813000  0.28659000  0.74455000  1.0
  H  H18  1  0.53322000  0.32099000  0.66424000  1.0
  H  H19  1  0.65184000  0.43349000  0.65780000  1.0
  H  H20  1  0.69826000  0.39884000  0.73768000  1.0
  H  H21  1  0.83440000  0.15534000  0.47093000  1.0
  H  H22  1  0.81683000  0.15874000  0.37993000  1.0
  H  H23  1  0.80922000  0.25254000  0.42868000  1.0
  H  H24  1  0.91617000  0.36977000  0.47507000  1.0
  H  H25  1  0.65257000  0.20314000  0.39914000  1.0
  H  H26  1  0.67026000  0.19966000  0.48903000  1.0
  H  H27  1  0.69965000  0.04691000  0.48545000  1.0
  H  H28  1  0.70085000  0.04787000  0.39480000  1.0
  H  H29  1  0.24521000  0.03843000  0.67637000  1.0
  H  H30  1  0.21873000  0.14066000  0.64550000  1.0
  H  H31  1  0.13745000  0.05857000  0.63724000  1.0
  H  H32  1  0.21229000  0.08387000  0.52256000  1.0
  H  H33  1  0.24152000  0.98353000  0.55435000  1.0
  H  H34  1  0.38532000  0.04686000  0.60506000  1.0
  H  H35  1  0.06254000  0.37493000  0.50638000  1.0
  H  H36  1  0.35799000  0.14355000  0.56466000  1.0
  H  H37  1  0.39559000  0.88816000  0.75131000  1.0
  H  H38  1  0.51065000  0.86139000  0.77010000  1.0
  H  H39  1  0.46053000  0.95149000  0.80850000  1.0
  H  H40  1  0.56376000  0.99313000  0.71039000  1.0
  H  H41  1  0.45035000  0.02314000  0.69454000  1.0
  H  H42  1  0.42319000  0.90822000  0.61706000  1.0
  H  H43  1  0.52075000  0.85360000  0.64299000  1.0
  H  H44  1  0.80221000  0.83639000  0.62836000  1.0
  H  H45  1  0.83733000  0.93340000  0.59166000  1.0
  H  H46  1  0.91018000  0.52155000  0.60968000  1.0
  H  H47  1  0.84069000  0.91866000  0.68294000  1.0
  H  H48  1  0.70420000  0.00606000  0.64944000  1.0
  H  H49  1  0.67065000  0.90936000  0.68633000  1.0
  H  H50  1  0.64551000  0.84794000  0.57054000  1.0
  H  H51  1  0.68957000  0.93837000  0.53072000  1.0
  H  H52  1  0.06214000  0.56750000  0.59621000  1.0
  H  H53  1  0.93569000  0.41775000  0.58407000  1.0
  H  H54  1  0.08872000  0.45912000  0.60338000  1.0
  H  H55  1  0.38557000  0.93008000  0.43781000  1.0
  C  C56  1  0.50275000  0.66109000  0.49617000  1.0
  C  C57  1  0.56181000  0.95240000  0.43584000  1.0
  C  C58  1  0.56697000  0.04973000  0.43506000  1.0
  C  C59  1  0.40288000  0.04670000  0.49473000  1.0
  C  C60  1  0.49358000  0.24944000  0.50099000  1.0
  C  C61  1  0.50773000  0.91888000  0.49913000  1.0
  C  C62  1  0.50379000  0.08280000  0.49534000  1.0
  C  C63  1  0.49673000  0.50325000  0.63285000  1.0
  C  C64  1  0.54983000  0.04937000  0.56355000  1.0
  C  C65  1  0.55063000  0.95169000  0.56936000  1.0
  C  C66  1  0.49962000  0.17358000  0.49724000  1.0
  C  C67  1  0.50629000  0.50991000  0.93255000  1.0
  C  C68  1  0.50714000  0.82780000  0.49767000  1.0
  C  C69  1  0.50475000  0.75158000  0.49631000  1.0
  C  C70  1  0.94012000  0.59161000  0.47258000  1.0
  C  C71  1  0.04904000  0.58761000  0.45962000  1.0
  C  C72  1  0.94630000  0.42694000  0.45294000  1.0
  C  C73  1  0.05158000  0.42178000  0.46528000  1.0
  C  C74  1  0.90917000  0.50135000  0.49758000  1.0
  C  C75  1  0.08613000  0.50647000  0.49747000  1.0
  C  C76  1  0.05009000  0.50575000  0.57309000  1.0
  C  C77  1  0.94770000  0.48429000  0.57176000  1.0
  C  C78  1  0.43842000  0.45884000  0.17688000  1.0
  C  C79  1  0.18520000  0.50758000  0.49755000  1.0
  C  C80  1  0.81015000  0.49831000  0.49879000  1.0
  C  C81  1  0.49363000  0.33977000  0.50130000  1.0
  C  C82  1  0.49905000  0.49968000  0.36601000  1.0
  C  C83  1  0.43069000  0.55083000  0.74632000  1.0
  C  C84  1  0.56796000  0.45918000  0.74581000  1.0
  C  C85  1  0.43584000  0.55225000  0.81888000  1.0
  C  C86  1  0.56933000  0.46303000  0.81835000  1.0
  C  C87  1  0.50424000  0.50900000  0.85605000  1.0
  C  C88  1  0.49825000  0.50435000  0.71108000  1.0
  C  C89  1  0.56650000  0.55544000  0.18063000  1.0
  C  C90  1  0.50549000  0.50974000  0.06531000  1.0
  C  C91  1  0.35721000  0.59894000  0.70814000  1.0
  C  C92  1  0.38799000  0.68659000  0.68374000  1.0
  C  C93  1  0.31251000  0.73150000  0.64319000  1.0
  C  C94  1  0.63481000  0.40430000  0.70754000  1.0
  C  C95  1  0.59668000  0.31559000  0.69464000  1.0
  C  C96  1  0.66481000  0.26018000  0.65624000  1.0
  C  C97  1  0.66813000  0.07724000  0.43995000  1.0
  C  C98  1  0.69147000  0.17082000  0.44015000  1.0
  C  C99  1  0.79360000  0.18497000  0.42943000  1.0
  C  C100  1  0.43887000  0.45426000  0.24950000  1.0
  C  C101  1  0.35111000  0.07496000  0.55987000  1.0
  C  C102  1  0.25027000  0.05127000  0.56383000  1.0
  C  C103  1  0.21056000  0.07331000  0.63452000  1.0
  C  C104  1  0.49494000  0.91741000  0.63191000  1.0
  C  C105  1  0.49556000  0.96790000  0.69941000  1.0
  C  C106  1  0.46383000  0.91449000  0.76076000  1.0
  C  C107  1  0.64922000  0.91687000  0.57526000  1.0
  C  C108  1  0.70339000  0.93760000  0.64069000  1.0
  C  C109  1  0.80141000  0.90493000  0.63583000  1.0
  C  C110  1  0.56366000  0.55379000  0.25331000  1.0
  C  C111  1  0.50070000  0.50249000  0.28787000  1.0
  C  C112  1  0.50316000  0.50856000  0.14187000  1.0
  C  C113  1  0.40845000  0.95047000  0.48906000  1.0
  N  N114  1  0.50861000  0.58515000  0.96445000  1.0
  N  N115  1  0.50662000  0.43451000  0.96516000  1.0
  N  N116  1  0.50467000  0.58502000  0.03292000  1.0
  N  N117  1  0.50973000  0.43445000  0.03347000  1.0
  N  N118  1  0.26404000  0.50601000  0.49992000  1.0
  N  N119  1  0.73151000  0.49366000  0.50181000  1.0
  Cl  Cl120  1  0.07631000  0.58298000  0.37085000  1.0
  Cl  Cl121  1  0.65074000  0.61185000  0.13999000  1.0
  Cl  Cl122  1  0.36476000  0.38808000  0.29153000  1.0
  Cl  Cl123  1  0.63665000  0.61612000  0.30014000  1.0
  Cl  Cl124  1  0.33739000  0.08869000  0.42207000  1.0
  Cl  Cl125  1  0.53015000  0.08802000  0.35039000  1.0
  Cl  Cl126  1  0.87906000  0.62589000  0.39890000  1.0
  Cl  Cl127  1  0.90954000  0.42730000  0.36581000  1.0
  Cl  Cl128  1  0.11522000  0.38270000  0.39513000  1.0
  Cl  Cl129  1  0.91055000  0.66341000  0.54037000  1.0
  Cl  Cl130  1  0.10614000  0.67694000  0.49420000  1.0
  Cl  Cl131  1  0.35220000  0.60555000  0.86491000  1.0
  Cl  Cl132  1  0.65717000  0.41295000  0.86319000  1.0
  Cl  Cl133  1  0.35540000  0.40632000  0.13158000  1.0
  O  O134  1  0.42749000  0.62688000  0.51349000  1.0
  O  O135  1  0.57641000  0.62374000  0.47932000  1.0
  O  O136  1  0.42393000  0.47899000  0.60324000  1.0
  O  O137  1  0.56907000  0.52689000  0.60223000  1.0
  O  O138  1  0.41980000  0.37659000  0.48371000  1.0
  O  O139  1  0.56860000  0.37457000  0.51904000  1.0
  O  O140  1  0.42597000  0.52433000  0.39432000  1.0
  O  O141  1  0.57102000  0.47333000  0.39564000  1.0
