# generated using pymatgen
data_CuH13C21(NO)4
_symmetry_space_group_name_H-M   'P 1'
_cell_length_a   10.21810000
_cell_length_b   12.86720000
_cell_length_c   21.08580000
_cell_angle_alpha   89.99980000
_cell_angle_beta   89.99880000
_cell_angle_gamma   89.99910000
_symmetry_Int_Tables_number   1
_chemical_formula_structural   CuH13C21(NO)4
_chemical_formula_sum   'Cu4 H52 C84 N16 O16'
_cell_volume   2772.32590301
_cell_formula_units_Z   4
loop_
 _symmetry_equiv_pos_site_id
 _symmetry_equiv_pos_as_xyz
  1  'x, y, z'
loop_
 _atom_site_type_symbol
 _atom_site_label
 _atom_site_symmetry_multiplicity
 _atom_site_fract_x
 _atom_site_fract_y
 _atom_site_fract_z
 _atom_site_occupancy
  Cu  Cu0  1  0.70564000  0.09217000  1.00000000  1.0
  Cu  Cu1  1  0.79434000  0.59219000  0.50001000  1.0
  Cu  Cu2  1  0.29435000  0.90783000  1.00000000  1.0
  Cu  Cu3  1  0.20567000  0.40781000  0.50000000  1.0
  H  H4  1  0.96363000  0.11775000  1.00000000  1.0
  H  H5  1  0.50013000  0.67250000  0.60855000  1.0
  H  H6  1  0.00354000  0.78758000  0.78169000  1.0
  H  H7  1  0.00013000  0.82751000  0.10856000  1.0
  H  H8  1  0.49987000  0.32753000  0.39145000  1.0
  H  H9  1  0.99644000  0.21240000  0.21833000  1.0
  H  H10  1  0.87578000  0.43128000  0.73963000  1.0
  H  H11  1  0.48376000  0.78684000  0.82615000  1.0
  H  H12  1  0.62420000  0.93134000  0.76037000  1.0
  H  H13  1  0.60687000  0.85587000  0.65230000  1.0
  H  H14  1  0.15430000  0.48192000  0.64380000  1.0
  H  H15  1  0.84570000  0.51810000  0.35619000  1.0
  H  H16  1  0.49643000  0.28761000  0.28168000  1.0
  H  H17  1  0.34572000  0.98192000  0.85620000  1.0
  H  H18  1  0.39313000  0.14411000  0.65229000  1.0
  H  H19  1  0.50357000  0.71241000  0.71831000  1.0
  H  H20  1  0.84571000  0.51807000  0.64380000  1.0
  H  H21  1  0.49640000  0.28759000  0.71830000  1.0
  H  H22  1  0.37578000  0.06864000  0.76036000  1.0
  H  H23  1  0.65425000  0.01804000  0.85622000  1.0
  H  H24  1  0.50358000  0.71241000  0.28168000  1.0
  H  H25  1  0.00013000  0.82750000  0.89146000  1.0
  H  H26  1  0.62422000  0.93134000  0.23965000  1.0
  H  H27  1  0.99986000  0.17250000  0.10855000  1.0
  H  H28  1  0.89308000  0.35580000  0.84770000  1.0
  H  H29  1  0.49988000  0.32749000  0.60854000  1.0
  H  H30  1  0.01631000  0.28684000  0.67383000  1.0
  H  H31  1  0.89311000  0.35586000  0.15228000  1.0
  H  H32  1  0.98371000  0.71316000  0.67384000  1.0
  H  H33  1  0.87576000  0.43135000  0.26035000  1.0
  H  H34  1  0.50012000  0.67252000  0.39145000  1.0
  H  H35  1  0.15431000  0.48191000  0.35620000  1.0
  H  H36  1  0.37579000  0.06867000  0.23963000  1.0
  H  H37  1  0.99644000  0.21242000  0.78168000  1.0
  H  H38  1  0.00357000  0.78760000  0.21832000  1.0
  H  H39  1  0.46365000  0.38226000  0.49999000  1.0
  H  H40  1  0.48373000  0.78684000  0.17383000  1.0
  H  H41  1  0.51622000  0.21315000  0.82615000  1.0
  H  H42  1  0.99985000  0.17248000  0.89145000  1.0
  H  H43  1  0.03636000  0.88225000  0.00001000  1.0
  H  H44  1  0.98374000  0.71318000  0.32618000  1.0
  H  H45  1  0.60688000  0.85587000  0.34772000  1.0
  H  H46  1  0.10688000  0.64416000  0.15230000  1.0
  H  H47  1  0.39314000  0.14414000  0.34770000  1.0
  H  H48  1  0.10691000  0.64414000  0.84772000  1.0
  H  H49  1  0.53636000  0.61776000  0.50000000  1.0
  H  H50  1  0.65431000  0.01810000  0.14381000  1.0
  H  H51  1  0.51625000  0.21318000  0.17384000  1.0
  H  H52  1  0.12422000  0.56869000  0.26037000  1.0
  H  H53  1  0.01629000  0.28682000  0.32618000  1.0
  H  H54  1  0.34571000  0.98193000  0.14379000  1.0
  H  H55  1  0.12424000  0.56867000  0.73965000  1.0
  C  C56  1  0.09506000  0.23945000  0.69337000  1.0
  C  C57  1  0.90497000  0.76055000  0.30664000  1.0
  C  C58  1  0.81421000  0.86346000  0.22026000  1.0
  C  C59  1  0.27017000  0.77478000  0.90549000  1.0
  C  C60  1  0.17715000  0.09565000  0.15561000  1.0
  C  C61  1  0.69313000  0.84149000  0.31858000  1.0
  C  C62  1  0.20377000  0.61641000  0.75814000  1.0
  C  C63  1  0.30689000  0.15849000  0.68142000  1.0
  C  C64  1  0.70375000  0.88360000  0.25814000  1.0
  C  C65  1  0.08450000  0.12070000  0.89054000  1.0
  C  C66  1  0.70745000  0.27807000  0.15681000  1.0
  C  C67  1  0.77013000  0.72524000  0.59452000  1.0
  C  C68  1  0.81418000  0.86345000  0.77976000  1.0
  C  C69  1  0.41551000  0.69745000  0.25397000  1.0
  C  C70  1  0.72981000  0.22519000  0.90548000  1.0
  C  C71  1  0.32286000  0.59565000  0.65561000  1.0
  C  C72  1  0.29253000  0.72195000  0.15682000  1.0
  C  C73  1  0.29626000  0.11641000  0.25812000  1.0
  C  C74  1  0.17715000  0.09565000  0.84439000  1.0
  C  C75  1  0.69311000  0.84150000  0.68143000  1.0
  C  C76  1  0.32285000  0.59566000  0.34439000  1.0
  C  C77  1  0.20375000  0.61643000  0.24187000  1.0
  C  C78  1  0.31422000  0.63655000  0.72025000  1.0
  C  C79  1  0.26082000  0.02285000  0.87429000  1.0
  C  C80  1  0.77016000  0.72523000  0.40550000  1.0
  C  C81  1  0.19312000  0.65853000  0.18143000  1.0
  C  C82  1  0.08451000  0.19744000  0.24603000  1.0
  C  C83  1  0.72984000  0.22523000  0.09450000  1.0
  C  C84  1  0.30689000  0.15851000  0.31857000  1.0
  C  C85  1  0.79624000  0.38361000  0.24186000  1.0
  C  C86  1  0.79623000  0.38355000  0.75812000  1.0
  C  C87  1  0.68578000  0.36343000  0.72024000  1.0
  C  C88  1  0.18580000  0.13654000  0.77975000  1.0
  C  C89  1  0.90494000  0.76055000  0.69337000  1.0
  C  C90  1  0.23920000  0.52284000  0.62572000  1.0
  C  C91  1  0.27015000  0.77478000  0.09451000  1.0
  C  C92  1  0.58447000  0.30254000  0.74601000  1.0
  C  C93  1  0.73915000  0.97713000  0.87430000  1.0
  C  C94  1  0.82283000  0.90434000  0.84440000  1.0
  C  C95  1  0.53612000  0.44583000  0.50000000  1.0
  C  C96  1  0.09506000  0.23945000  0.30664000  1.0
  C  C97  1  0.08450000  0.12071000  0.10945000  1.0
  C  C98  1  0.58452000  0.37932000  0.39054000  1.0
  C  C99  1  0.79254000  0.77807000  0.34319000  1.0
  C  C100  1  0.23920000  0.52285000  0.37429000  1.0
  C  C101  1  0.26082000  0.02285000  0.12571000  1.0
  C  C102  1  0.03611000  0.05418000  1.00000000  1.0
  C  C103  1  0.22989000  0.27477000  0.40549000  1.0
  C  C104  1  0.73919000  0.97716000  0.12572000  1.0
  C  C105  1  0.41550000  0.62070000  0.60946000  1.0
  C  C106  1  0.20749000  0.22194000  0.34318000  1.0
  C  C107  1  0.67715000  0.40434000  0.65561000  1.0
  C  C108  1  0.91549000  0.87929000  0.89055000  1.0
  C  C109  1  0.31420000  0.63656000  0.27975000  1.0
  C  C110  1  0.76082000  0.47717000  0.37428000  1.0
  C  C111  1  0.70743000  0.27802000  0.84317000  1.0
  C  C112  1  0.58449000  0.30258000  0.25397000  1.0
  C  C113  1  0.91551000  0.80257000  0.24604000  1.0
  C  C114  1  0.67715000  0.40437000  0.34438000  1.0
  C  C115  1  0.29256000  0.72195000  0.84318000  1.0
  C  C116  1  0.91549000  0.87930000  0.10946000  1.0
  C  C117  1  0.76082000  0.47714000  0.62571000  1.0
  C  C118  1  0.40496000  0.73946000  0.19337000  1.0
  C  C119  1  0.96389000  0.94582000  1.00000000  1.0
  C  C120  1  0.29625000  0.11639000  0.74187000  1.0
  C  C121  1  0.70373000  0.88360000  0.74188000  1.0
  C  C122  1  0.08451000  0.19745000  0.75397000  1.0
  C  C123  1  0.79251000  0.77807000  0.65683000  1.0
  C  C124  1  0.58451000  0.37929000  0.60945000  1.0
  C  C125  1  0.40498000  0.73947000  0.80662000  1.0
  C  C126  1  0.18581000  0.13655000  0.22025000  1.0
  C  C127  1  0.82285000  0.90436000  0.15562000  1.0
  C  C128  1  0.59500000  0.26052000  0.80661000  1.0
  C  C129  1  0.59503000  0.26055000  0.19337000  1.0
  C  C130  1  0.20749000  0.22193000  0.65682000  1.0
  C  C131  1  0.46389000  0.55418000  0.50000000  1.0
  C  C132  1  0.80686000  0.34149000  0.18142000  1.0
  C  C133  1  0.80685000  0.34143000  0.81857000  1.0
  C  C134  1  0.41549000  0.62071000  0.39055000  1.0
  C  C135  1  0.22988000  0.27476000  0.59451000  1.0
  C  C136  1  0.68579000  0.36347000  0.27974000  1.0
  C  C137  1  0.41551000  0.69745000  0.74602000  1.0
  C  C138  1  0.91548000  0.80255000  0.75398000  1.0
  C  C139  1  0.19315000  0.65852000  0.81858000  1.0
  N  N140  1  0.22181000  0.00391000  0.06630000  1.0
  N  N141  1  0.77820000  0.99610000  0.06631000  1.0
  N  N142  1  0.27820000  0.50391000  0.43369000  1.0
  N  N143  1  0.11482000  0.06506000  0.94331000  1.0
  N  N144  1  0.88518000  0.93494000  0.05669000  1.0
  N  N145  1  0.38518000  0.56506000  0.55669000  1.0
  N  N146  1  0.11482000  0.06507000  0.05669000  1.0
  N  N147  1  0.61484000  0.43495000  0.44331000  1.0
  N  N148  1  0.22181000  0.00391000  0.93369000  1.0
  N  N149  1  0.88517000  0.93493000  0.94332000  1.0
  N  N150  1  0.72182000  0.49611000  0.43369000  1.0
  N  N151  1  0.27820000  0.50391000  0.56631000  1.0
  N  N152  1  0.61484000  0.43493000  0.55668000  1.0
  N  N153  1  0.38517000  0.56507000  0.44331000  1.0
  N  N154  1  0.77817000  0.99607000  0.93371000  1.0
  N  N155  1  0.72182000  0.49609000  0.56630000  1.0
  O  O156  1  0.15736000  0.77461000  0.92904000  1.0
  O  O157  1  0.63120000  0.17636000  0.06934000  1.0
  O  O158  1  0.84263000  0.22537000  0.92902000  1.0
  O  O159  1  0.36881000  0.82365000  0.93066000  1.0
  O  O160  1  0.84265000  0.22540000  0.07095000  1.0
  O  O161  1  0.15733000  0.77460000  0.07096000  1.0
  O  O162  1  0.63118000  0.17633000  0.93065000  1.0
  O  O163  1  0.86877000  0.67637000  0.56935000  1.0
  O  O164  1  0.86879000  0.67637000  0.43067000  1.0
  O  O165  1  0.34269000  0.27458000  0.57096000  1.0
  O  O166  1  0.13125000  0.32363000  0.43066000  1.0
  O  O167  1  0.34270000  0.27459000  0.42903000  1.0
  O  O168  1  0.65731000  0.72541000  0.57097000  1.0
  O  O169  1  0.65734000  0.72540000  0.42904000  1.0
  O  O170  1  0.36878000  0.82365000  0.06934000  1.0
  O  O171  1  0.13124000  0.32363000  0.56934000  1.0
