# generated using pymatgen
data_CdH8C8(NO)6
_symmetry_space_group_name_H-M   'P 1'
_cell_length_a   7.02822000
_cell_length_b   10.80380000
_cell_length_c   15.80600000
_cell_angle_alpha   90.00000000
_cell_angle_beta   90.00000000
_cell_angle_gamma   90.00000000
_symmetry_Int_Tables_number   1
_chemical_formula_structural   CdH8C8(NO)6
_chemical_formula_sum   'Cd4 H32 C32 N24 O24'
_cell_volume   1200.17302403
_cell_formula_units_Z   4
loop_
 _symmetry_equiv_pos_site_id
 _symmetry_equiv_pos_as_xyz
  1  'x, y, z'
loop_
 _atom_site_type_symbol
 _atom_site_label
 _atom_site_symmetry_multiplicity
 _atom_site_fract_x
 _atom_site_fract_y
 _atom_site_fract_z
 _atom_site_occupancy
  Cd  Cd0  1  0.48474000  0.66559000  0.24922000  1.0
  Cd  Cd1  1  0.51526000  0.16559000  0.75078000  1.0
  Cd  Cd2  1  0.98474000  0.66559000  0.75078000  1.0
  Cd  Cd3  1  0.01526000  0.16559000  0.24922000  1.0
  H  H4  1  0.53276000  0.53306000  0.44099000  1.0
  H  H5  1  0.46724000  0.03306000  0.55901000  1.0
  H  H6  1  0.03276000  0.53306000  0.55901000  1.0
  H  H7  1  0.96724000  0.03306000  0.44099000  1.0
  H  H8  1  0.39701000  0.34848000  0.52141000  1.0
  H  H9  1  0.60299000  0.84848000  0.47859000  1.0
  H  H10  1  0.89701000  0.34848000  0.47859000  1.0
  H  H11  1  0.10299000  0.84848000  0.52141000  1.0
  H  H12  1  0.18069000  0.20614000  0.44186000  1.0
  H  H13  1  0.81930000  0.70614000  0.55814000  1.0
  H  H14  1  0.68070000  0.20614000  0.55814000  1.0
  H  H15  1  0.31931000  0.70614000  0.44186000  1.0
  H  H16  1  0.19793000  0.44293000  0.23396000  1.0
  H  H17  1  0.80207000  0.94293000  0.76604000  1.0
  H  H18  1  0.69793000  0.44293000  0.76604000  1.0
  H  H19  1  0.30207000  0.94293000  0.23396000  1.0
  H  H20  1  0.53255000  0.76963000  0.05669000  1.0
  H  H21  1  0.46745000  0.26963000  0.94331000  1.0
  H  H22  1  0.03255000  0.76963000  0.94331000  1.0
  H  H23  1  0.96745000  0.26963000  0.05669000  1.0
  H  H24  1  0.72459000  0.92736000  0.97625000  1.0
  H  H25  1  0.27541000  0.42736000  0.02374000  1.0
  H  H26  1  0.22459000  0.92736000  0.02374000  1.0
  H  H27  1  0.77541000  0.42736000  0.97625000  1.0
  H  H28  1  0.92505000  0.07394000  0.06108000  1.0
  H  H29  1  0.07494000  0.57394000  0.93892000  1.0
  H  H30  1  0.42505000  0.07394000  0.93892000  1.0
  H  H31  1  0.57495000  0.57394000  0.06108000  1.0
  H  H32  1  0.75023000  0.90222000  0.28352000  1.0
  H  H33  1  0.24977000  0.40222000  0.71647000  1.0
  H  H34  1  0.25023000  0.90222000  0.71647000  1.0
  H  H35  1  0.74977000  0.40222000  0.28352000  1.0
  C  C36  1  0.42860000  0.47044000  0.41310000  1.0
  C  C37  1  0.57140000  0.97044000  0.58689000  1.0
  C  C38  1  0.92860000  0.47044000  0.58689000  1.0
  C  C39  1  0.07140000  0.97044000  0.41310000  1.0
  C  C40  1  0.35799000  0.36822000  0.45629000  1.0
  C  C41  1  0.64201000  0.86822000  0.54371000  1.0
  C  C42  1  0.85799000  0.36822000  0.54371000  1.0
  C  C43  1  0.14201000  0.86822000  0.45629000  1.0
  C  C44  1  0.23561000  0.29018000  0.41258000  1.0
  C  C45  1  0.76438000  0.79018000  0.58742000  1.0
  C  C46  1  0.73562000  0.29018000  0.58742000  1.0
  C  C47  1  0.26439000  0.79018000  0.41258000  1.0
  C  C48  1  0.24597000  0.41964000  0.29739000  1.0
  C  C49  1  0.75403000  0.91964000  0.70261000  1.0
  C  C50  1  0.74597000  0.41964000  0.70261000  1.0
  C  C51  1  0.25403000  0.91964000  0.29739000  1.0
  C  C52  1  0.62561000  0.83457000  0.08933000  1.0
  C  C53  1  0.37438000  0.33457000  0.91067000  1.0
  C  C54  1  0.12562000  0.83457000  0.91067000  1.0
  C  C55  1  0.87439000  0.33457000  0.08933000  1.0
  C  C56  1  0.72971000  0.92209000  0.04498000  1.0
  C  C57  1  0.27029000  0.42209000  0.95502000  1.0
  C  C58  1  0.22971000  0.92209000  0.95502000  1.0
  C  C59  1  0.77029000  0.42209000  0.04498000  1.0
  C  C60  1  0.83869000  0.00393000  0.09221000  1.0
  C  C61  1  0.16130000  0.50393000  0.90779000  1.0
  C  C62  1  0.33870000  0.00393000  0.90779000  1.0
  C  C63  1  0.66131000  0.50393000  0.09221000  1.0
  C  C64  1  0.74341000  0.90997000  0.21481000  1.0
  C  C65  1  0.25659000  0.40997000  0.78519000  1.0
  C  C66  1  0.24341000  0.90997000  0.78519000  1.0
  C  C67  1  0.75659000  0.40997000  0.21481000  1.0
  N  N68  1  0.87153000  0.64281000  0.35671000  1.0
  N  N69  1  0.12847000  0.14280000  0.64329000  1.0
  N  N70  1  0.37153000  0.64280000  0.64329000  1.0
  N  N71  1  0.62847000  0.14280000  0.35671000  1.0
  N  N72  1  0.15075000  0.68716000  0.11707000  1.0
  N  N73  1  0.84925000  0.18716000  0.88293000  1.0
  N  N74  1  0.65075000  0.68716000  0.88293000  1.0
  N  N75  1  0.34925000  0.18716000  0.11707000  1.0
  N  N76  1  0.37027000  0.49684000  0.33397000  1.0
  N  N77  1  0.62972000  0.99684000  0.66603000  1.0
  N  N78  1  0.87028000  0.49684000  0.66603000  1.0
  N  N79  1  0.12973000  0.99684000  0.33397000  1.0
  N  N80  1  0.18117000  0.31529000  0.33271000  1.0
  N  N81  1  0.81883000  0.81529000  0.66729000  1.0
  N  N82  1  0.68117000  0.31529000  0.66729000  1.0
  N  N83  1  0.31883000  0.81529000  0.33271000  1.0
  N  N84  1  0.63573000  0.82674000  0.17429000  1.0
  N  N85  1  0.36427000  0.32674000  0.82571000  1.0
  N  N86  1  0.13573000  0.82674000  0.82571000  1.0
  N  N87  1  0.86427000  0.32674000  0.17429000  1.0
  N  N88  1  0.84238000  0.00017000  0.17723000  1.0
  N  N89  1  0.15762000  0.50017000  0.82277000  1.0
  N  N90  1  0.34238000  0.00017000  0.82277000  1.0
  N  N91  1  0.65763000  0.50017000  0.17723000  1.0
  O  O92  1  0.70364000  0.69181000  0.36659000  1.0
  O  O93  1  0.29636000  0.19181000  0.63342000  1.0
  O  O94  1  0.20364000  0.69181000  0.63342000  1.0
  O  O95  1  0.79636000  0.19181000  0.36658000  1.0
  O  O96  1  0.94770000  0.59025000  0.41912000  1.0
  O  O97  1  0.05230000  0.09025000  0.58088000  1.0
  O  O98  1  0.44770000  0.59025000  0.58088000  1.0
  O  O99  1  0.55230000  0.09025000  0.41912000  1.0
  O  O100  1  0.95175000  0.64956000  0.28608000  1.0
  O  O101  1  0.04825000  0.14956000  0.71392000  1.0
  O  O102  1  0.45175000  0.64956000  0.71392000  1.0
  O  O103  1  0.54825000  0.14956000  0.28608000  1.0
  O  O104  1  0.26932000  0.60271000  0.14265000  1.0
  O  O105  1  0.73069000  0.10270000  0.85735000  1.0
  O  O106  1  0.76932000  0.60270000  0.85735000  1.0
  O  O107  1  0.23068000  0.10270000  0.14265000  1.0
  O  O108  1  0.17621000  0.79739000  0.13952000  1.0
  O  O109  1  0.82378000  0.29739000  0.86047000  1.0
  O  O110  1  0.67622000  0.79739000  0.86047000  1.0
  O  O111  1  0.32379000  0.29739000  0.13952000  1.0
  O  O112  1  0.01626000  0.65550000  0.06986000  1.0
  O  O113  1  0.98374000  0.15550000  0.93014000  1.0
  O  O114  1  0.51626000  0.65550000  0.93014000  1.0
  O  O115  1  0.48374000  0.15550000  0.06986000  1.0
