# generated using pymatgen
data_Zn3H23C38BrO13
_symmetry_space_group_name_H-M   'P 1'
_cell_length_a   21.67640000
_cell_length_b   21.67620000
_cell_length_c   23.32786114
_cell_angle_alpha   62.76501353
_cell_angle_beta   62.70788674
_cell_angle_gamma   90.80480000
_symmetry_Int_Tables_number   1
_chemical_formula_structural   Zn3H23C38BrO13
_chemical_formula_sum   'Zn6 H46 C76 Br2 O26'
_cell_volume   8305.89501073
_cell_formula_units_Z   2
loop_
 _symmetry_equiv_pos_site_id
 _symmetry_equiv_pos_as_xyz
  1  'x, y, z'
loop_
 _atom_site_type_symbol
 _atom_site_label
 _atom_site_symmetry_multiplicity
 _atom_site_fract_x
 _atom_site_fract_y
 _atom_site_fract_z
 _atom_site_occupancy
  Zn  Zn0  1  0.50104000  0.55988000  0.49963000  1.0
  Zn  Zn1  1  0.96065000  0.46268000  0.57685000  1.0
  Zn  Zn2  1  0.03951000  0.53748000  0.42322000  1.0
  Zn  Zn3  1  0.05952000  0.00068000  0.50035000  1.0
  Zn  Zn4  1  0.50150000  0.43763000  0.49614000  1.0
  Zn  Zn5  1  0.93379000  0.99764000  0.50385000  1.0
  H  H6  1  0.73895000  0.82117000  0.87245000  1.0
  H  H7  1  0.24520000  0.39381000  0.88168000  1.0
  H  H8  1  0.27551000  0.12689000  0.11831000  1.0
  H  H9  1  0.04801000  0.16690000  0.27153000  1.0
  H  H10  1  0.43846000  0.31955000  0.72845000  1.0
  H  H11  1  0.11134000  0.24000000  0.13099000  1.0
  H  H12  1  0.37100000  0.24232000  0.86900000  1.0
  H  H13  1  0.69397000  0.61143000  0.12754000  1.0
  H  H14  1  0.73842000  0.43945000  0.41262000  1.0
  H  H15  1  0.85207000  0.15108000  0.58730000  1.0
  H  H16  1  0.86016000  0.46129000  0.39504000  1.0
  H  H17  1  0.85631000  0.25521000  0.60491000  1.0
  H  H18  1  0.78838000  0.61654000  0.52708000  1.0
  H  H19  1  0.14358000  0.31532000  0.47317000  1.0
  H  H20  1  0.63479000  0.51489000  0.62123000  1.0
  H  H21  1  0.13619000  0.25597000  0.37892000  1.0
  H  H22  1  0.81438000  0.88553000  0.73156000  1.0
  H  H23  1  0.61742000  0.54594000  0.26842000  1.0
  H  H24  1  0.66727000  0.60176000  0.53706000  1.0
  H  H25  1  0.13879000  0.20421000  0.46314000  1.0
  H  H26  1  0.00806000  0.88365000  0.74032000  1.0
  H  H27  1  0.62365000  0.74837000  0.25968000  1.0
  H  H28  1  0.93347000  0.81924000  0.88143000  1.0
  H  H29  1  0.24568000  0.49773000  0.63465000  1.0
  H  H30  1  0.70026000  0.81494000  0.11854000  1.0
  H  H31  1  0.34735000  0.44510000  0.40907000  1.0
  H  H32  1  0.85416000  0.75651000  0.59077000  1.0
  H  H33  1  0.24061000  0.46564000  0.39659000  1.0
  H  H34  1  0.86217000  0.63728000  0.60331000  1.0
  H  H35  1  0.13251000  0.88021000  0.36556000  1.0
  H  H36  1  0.17632000  0.59794000  0.55351000  1.0
  H  H37  1  0.15139000  0.72963000  0.44684000  1.0
  H  H38  1  0.13125000  0.50668000  0.63093000  1.0
  H  H39  1  0.13769000  0.76202000  0.36932000  1.0
  H  H40  1  0.29079000  0.58765000  0.55520000  1.0
  H  H41  1  0.14286000  0.84580000  0.44511000  1.0
  H  H42  1  0.25904000  0.10257000  0.29545000  1.0
  H  H43  1  0.32486000  0.10248000  0.21313000  1.0
  H  H44  1  0.30455000  0.96824000  0.29598000  1.0
  H  H45  1  0.33377000  0.01937000  0.32540000  1.0
  H  H46  1  0.24068000  0.97100000  0.37678000  1.0
  H  H47  1  0.39801000  0.55448000  0.70455000  1.0
  H  H48  1  0.31559000  0.53799000  0.78684000  1.0
  H  H49  1  0.26424000  0.60053000  0.70395000  1.0
  H  H50  1  0.34478000  0.65917000  0.67456000  1.0
  H  H51  1  0.34783000  0.61746000  0.62317000  1.0
  C  C52  1  0.38847000  0.47690000  0.49129000  1.0
  C  C53  1  0.74821000  0.75391000  0.03414000  1.0
  C  C54  1  0.97235000  0.29916000  0.53387000  1.0
  C  C55  1  0.77667000  0.52490000  0.50993000  1.0
  C  C56  1  0.03484000  0.28655000  0.49017000  1.0
  C  C57  1  0.75610000  0.56091000  0.55572000  1.0
  C  C58  1  0.11663000  0.31171000  0.44448000  1.0
  C  C59  1  0.68020000  0.55114000  0.56310000  1.0
  C  C60  1  0.78801000  0.78244000  0.96584000  1.0
  C  C61  1  0.11426000  0.24320000  0.43707000  1.0
  C  C62  1  0.97603000  0.36657000  0.53627000  1.0
  C  C63  1  0.90282000  0.51227000  0.46379000  1.0
  C  C64  1  0.12946000  0.50856000  0.47396000  1.0
  C  C65  1  0.98247000  0.60339000  0.52611000  1.0
  C  C66  1  0.42765000  0.44566000  0.64179000  1.0
  C  C67  1  0.08747000  0.06946000  0.35818000  1.0
  C  C68  1  0.79782000  0.83502000  0.84337000  1.0
  C  C69  1  0.67858000  0.64123000  0.15661000  1.0
  C  C70  1  0.83958000  0.87066000  0.76521000  1.0
  C  C71  1  0.27218000  0.50911000  0.52533000  1.0
  C  C72  1  0.63607000  0.60481000  0.23477000  1.0
  C  C73  1  0.91548000  0.88892000  0.72773000  1.0
  C  C74  1  0.61665000  0.64320000  0.27226000  1.0
  C  C75  1  0.94917000  0.86978000  0.76984000  1.0
  C  C76  1  0.63944000  0.71902000  0.23014000  1.0
  C  C77  1  0.03447000  0.79744000  0.47482000  1.0
  C  C78  1  0.90763000  0.83398000  0.84834000  1.0
  C  C79  1  0.68210000  0.75600000  0.15164000  1.0
  C  C80  1  0.27611000  0.06903000  0.27022000  1.0
  C  C81  1  0.28949000  0.00284000  0.32002000  1.0
  C  C82  1  0.33924000  0.54633000  0.72975000  1.0
  C  C83  1  0.32288000  0.60951000  0.67993000  1.0
  C  C84  1  0.32280000  0.48262000  0.48627000  1.0
  C  C85  1  0.96891000  0.80907000  0.51377000  1.0
  C  C86  1  0.96821000  0.87977000  0.50870000  1.0
  C  C87  1  0.30897000  0.46564000  0.44093000  1.0
  C  C88  1  0.90657000  0.74994000  0.55901000  1.0
  C  C89  1  0.24860000  0.47681000  0.43421000  1.0
  C  C90  1  0.91100000  0.68285000  0.56576000  1.0
  C  C91  1  0.19654000  0.50122000  0.47622000  1.0
  C  C92  1  0.97742000  0.67272000  0.52386000  1.0
  C  C93  1  0.20970000  0.51585000  0.52248000  1.0
  C  C94  1  0.03834000  0.73210000  0.47770000  1.0
  C  C95  1  0.18175000  0.54276000  0.57697000  1.0
  C  C96  1  0.11974000  0.75859000  0.42329000  1.0
  C  C97  1  0.25332000  0.53611000  0.57922000  1.0
  C  C98  1  0.11537000  0.83241000  0.42103000  1.0
  C  C99  1  0.57317000  0.60110000  0.35629000  1.0
  C  C100  1  0.95741000  0.92947000  0.64369000  1.0
  C  C101  1  0.22669000  0.13764000  0.15112000  1.0
  C  C102  1  0.83141000  0.81682000  0.88609000  1.0
  C  C103  1  0.28877000  0.37782000  0.84886000  1.0
  C  C104  1  0.19206000  0.09825000  0.22984000  1.0
  C  C105  1  0.32809000  0.42190000  0.77015000  1.0
  C  C106  1  0.12763000  0.10961000  0.27390000  1.0
  C  C107  1  0.38352000  0.40154000  0.72608000  1.0
  C  C108  1  0.70289000  0.71756000  0.11388000  1.0
  C  C109  1  0.09878000  0.15991000  0.23699000  1.0
  C  C110  1  0.39692000  0.33576000  0.76300000  1.0
  C  C111  1  0.13377000  0.20030000  0.15879000  1.0
  C  C112  1  0.35911000  0.29256000  0.84120000  1.0
  C  C113  1  0.19887000  0.18989000  0.11437000  1.0
  C  C114  1  0.30426000  0.31324000  0.88562000  1.0
  C  C115  1  0.23514000  0.23156000  0.03441000  1.0
  C  C116  1  0.26597000  0.26955000  0.96559000  1.0
  C  C117  1  0.71000000  0.51737000  0.51534000  1.0
  C  C118  1  0.03272000  0.22530000  0.48475000  1.0
  C  C119  1  0.69343000  0.48602000  0.48176000  1.0
  C  C120  1  0.96778000  0.17518000  0.51827000  1.0
  C  C121  1  0.74905000  0.46466000  0.43952000  1.0
  C  C122  1  0.90417000  0.18858000  0.56045000  1.0
  C  C123  1  0.62116000  0.47881000  0.48998000  1.0
  C  C124  1  0.96881000  0.11113000  0.51002000  1.0
  C  C125  1  0.81767000  0.47650000  0.43006000  1.0
  C  C126  1  0.90655000  0.24773000  0.56993000  1.0
  C  C127  1  0.83302000  0.50619000  0.46617000  1.0
  Br  Br128  1  0.75114000  0.51016000  0.65336000  1.0
  Br  Br129  1  0.16363000  0.40441000  0.34681000  1.0
  O  O130  1  0.41167000  0.52366000  0.50070000  1.0
  O  O131  1  0.94876000  0.54420000  0.59116000  1.0
  O  O132  1  0.13535000  0.53991000  0.40889000  1.0
  O  O133  1  0.07076000  0.48306000  0.53744000  1.0
  O  O134  1  0.02044000  0.60817000  0.46262000  1.0
  O  O135  1  0.41729000  0.42631000  0.48699000  1.0
  O  O136  1  0.91333000  0.90429000  0.51298000  1.0
  O  O137  1  0.02438000  0.91238000  0.49929000  1.0
  O  O138  1  0.55546000  0.63516000  0.39222000  1.0
  O  O139  1  0.02740000  0.94769000  0.60777000  1.0
  O  O140  1  0.55613000  0.53263000  0.38859000  1.0
  O  O141  1  0.92124000  0.94472000  0.61138000  1.0
  O  O142  1  0.58974000  0.52497000  0.50056000  1.0
  O  O143  1  0.02556000  0.09032000  0.49941000  1.0
  O  O144  1  0.59493000  0.42759000  0.48670000  1.0
  O  O145  1  0.91430000  0.08164000  0.51330000  1.0
  O  O146  1  0.44540000  0.51514000  0.60920000  1.0
  O  O147  1  0.12436000  0.05461000  0.39076000  1.0
  O  O148  1  0.44634000  0.41096000  0.60773000  1.0
  O  O149  1  0.01870000  0.05409000  0.39224000  1.0
  O  O150  1  0.01448000  0.42424000  0.47250000  1.0
  O  O151  1  0.89673000  0.48694000  0.52755000  1.0
  O  O152  1  0.21837000  0.04450000  0.26370000  1.0
  O  O153  1  0.94163000  0.36276000  0.60034000  1.0
  O  O154  1  0.30820000  0.48207000  0.73627000  1.0
  O  O155  1  0.96308000  0.54194000  0.39972000  1.0
