# generated using pymatgen
data_CdH14C16(N3O)4
_symmetry_space_group_name_H-M   'P 1'
_cell_length_a   4.93151000
_cell_length_b   12.15270000
_cell_length_c   16.61480000
_cell_angle_alpha   89.99970000
_cell_angle_beta   97.42290000
_cell_angle_gamma   89.99970000
_symmetry_Int_Tables_number   1
_chemical_formula_structural   CdH14C16(N3O)4
_chemical_formula_sum   'Cd2 H28 C32 N24 O8'
_cell_volume   987.39953419
_cell_formula_units_Z   2
loop_
 _symmetry_equiv_pos_site_id
 _symmetry_equiv_pos_as_xyz
  1  'x, y, z'
loop_
 _atom_site_type_symbol
 _atom_site_label
 _atom_site_symmetry_multiplicity
 _atom_site_fract_x
 _atom_site_fract_y
 _atom_site_fract_z
 _atom_site_occupancy
  Cd  Cd0  1  0.00000000  0.00000000  0.00000000  1.0
  Cd  Cd1  1  0.50000000  0.50000000  0.50000000  1.0
  H  H2  1  0.32099000  0.74710000  0.43816000  1.0
  H  H3  1  0.17901000  0.24710000  0.06184000  1.0
  H  H4  1  0.67901000  0.25290000  0.56184000  1.0
  H  H5  1  0.82099000  0.75290000  0.93816000  1.0
  H  H6  1  0.98994000  0.13479000  0.31337000  1.0
  H  H7  1  0.51007000  0.63479000  0.18664000  1.0
  H  H8  1  0.01006000  0.86521000  0.68663000  1.0
  H  H9  1  0.48994000  0.36521000  0.81337000  1.0
  H  H10  1  0.47110000  0.89872000  0.14317000  1.0
  H  H11  1  0.02890000  0.39872000  0.35683000  1.0
  H  H12  1  0.52891000  0.10128000  0.85683000  1.0
  H  H13  1  0.97110000  0.60128000  0.64317000  1.0
  H  H14  1  0.85529000  0.12577000  0.16224000  1.0
  H  H15  1  0.64471000  0.62576000  0.33776000  1.0
  H  H16  1  0.14471000  0.87423000  0.83776000  1.0
  H  H17  1  0.35529000  0.37424000  0.66224000  1.0
  H  H18  1  0.28036000  0.93309000  0.49814000  1.0
  H  H19  1  0.21964000  0.43309000  0.00186000  1.0
  H  H20  1  0.71964000  0.06691000  0.50186000  1.0
  H  H21  1  0.78036000  0.56691000  0.99814000  1.0
  H  H22  1  0.31015000  0.82895000  0.57381000  1.0
  H  H23  1  0.18985000  0.32896000  0.92619000  1.0
  H  H24  1  0.68985000  0.17105000  0.42619000  1.0
  H  H25  1  0.81016000  0.67104000  0.07381000  1.0
  H  H26  1  0.98458000  0.89068000  0.54128000  1.0
  H  H27  1  0.51542000  0.39068000  0.95872000  1.0
  H  H28  1  0.01542000  0.10933000  0.45872000  1.0
  H  H29  1  0.48458000  0.60932000  0.04128000  1.0
  C  C30  1  0.99150000  0.67101000  0.49140000  1.0
  C  C31  1  0.50852000  0.17102000  0.00860000  1.0
  C  C32  1  0.00850000  0.32899000  0.50860000  1.0
  C  C33  1  0.49148000  0.82898000  0.99140000  1.0
  C  C34  1  0.43198000  0.95374000  0.26602000  1.0
  C  C35  1  0.06802000  0.45374000  0.23398000  1.0
  C  C36  1  0.56801000  0.04626000  0.73398000  1.0
  C  C37  1  0.93198000  0.54626000  0.76602000  1.0
  C  C38  1  0.12602000  0.77278000  0.45743000  1.0
  C  C39  1  0.37398000  0.27278000  0.04257000  1.0
  C  C40  1  0.87397000  0.22722000  0.54257000  1.0
  C  C41  1  0.62602000  0.72722000  0.95743000  1.0
  C  C42  1  0.09818000  0.08034000  0.27614000  1.0
  C  C43  1  0.40183000  0.58034000  0.22386000  1.0
  C  C44  1  0.90183000  0.91966000  0.72386000  1.0
  C  C45  1  0.59818000  0.41966000  0.77614000  1.0
  C  C46  1  0.65799000  0.88519000  0.30310000  1.0
  C  C47  1  0.84201000  0.38519000  0.19691000  1.0
  C  C48  1  0.34201000  0.11481000  0.69690000  1.0
  C  C49  1  0.15799000  0.61481000  0.80309000  1.0
  C  C50  1  0.35895000  0.94966000  0.18152000  1.0
  C  C51  1  0.14105000  0.44966000  0.31848000  1.0
  C  C52  1  0.64106000  0.05034000  0.81848000  1.0
  C  C53  1  0.85895000  0.55034000  0.68152000  1.0
  C  C54  1  0.02169000  0.07618000  0.19231000  1.0
  C  C55  1  0.47831000  0.57617000  0.30770000  1.0
  C  C56  1  0.97831000  0.92382000  0.80769000  1.0
  C  C57  1  0.52170000  0.42383000  0.69230000  1.0
  C  C58  1  0.17688000  0.86254000  0.52169000  1.0
  C  C59  1  0.32311000  0.36254000  0.97831000  1.0
  C  C60  1  0.82311000  0.13747000  0.47831000  1.0
  C  C61  1  0.67689000  0.63747000  0.02169000  1.0
  N  N62  1  0.15354000  0.01098000  0.14496000  1.0
  N  N63  1  0.34646000  0.51098000  0.35504000  1.0
  N  N64  1  0.84646000  0.98901000  0.85504000  1.0
  N  N65  1  0.65354000  0.48901000  0.64496000  1.0
  N  N66  1  0.30208000  0.01955000  0.31377000  1.0
  N  N67  1  0.19792000  0.51955000  0.18623000  1.0
  N  N68  1  0.69792000  0.98045000  0.68623000  1.0
  N  N69  1  0.80209000  0.48045000  0.81377000  1.0
  N  N70  1  0.95901000  0.81211000  0.38405000  1.0
  N  N71  1  0.54099000  0.31211000  0.11595000  1.0
  N  N72  1  0.04099000  0.18789000  0.61595000  1.0
  N  N73  1  0.45901000  0.68789000  0.88405000  1.0
  N  N74  1  0.75438000  0.88297000  0.38253000  1.0
  N  N75  1  0.74562000  0.38297000  0.11747000  1.0
  N  N76  1  0.24561000  0.11703000  0.61747000  1.0
  N  N77  1  0.25438000  0.61703000  0.88253000  1.0
  N  N78  1  0.80088000  0.81651000  0.25897000  1.0
  N  N79  1  0.69912000  0.31651000  0.24103000  1.0
  N  N80  1  0.19913000  0.18349000  0.74103000  1.0
  N  N81  1  0.30088000  0.68349000  0.75897000  1.0
  N  N82  1  0.99084000  0.77034000  0.31100000  1.0
  N  N83  1  0.50916000  0.27034000  0.18900000  1.0
  N  N84  1  0.00916000  0.22966000  0.68900000  1.0
  N  N85  1  0.49085000  0.72966000  0.81100000  1.0
  O  O86  1  0.14916000  0.60705000  0.53546000  1.0
  O  O87  1  0.35083000  0.10705000  0.96454000  1.0
  O  O88  1  0.85084000  0.39295000  0.46454000  1.0
  O  O89  1  0.64917000  0.89295000  0.03546000  1.0
  O  O90  1  0.73406000  0.66112000  0.47582000  1.0
  O  O91  1  0.76593000  0.16112000  0.02418000  1.0
  O  O92  1  0.26593000  0.33888000  0.52418000  1.0
  O  O93  1  0.23407000  0.83888000  0.97582000  1.0
