# generated using pymatgen
data_MnH10C4(ClO2)2
_symmetry_space_group_name_H-M   'P 1'
_cell_length_a   7.13682000
_cell_length_b   8.37312000
_cell_length_c   8.48330388
_cell_angle_alpha   88.37852693
_cell_angle_beta   65.13147742
_cell_angle_gamma   64.77960000
_symmetry_Int_Tables_number   1
_chemical_formula_structural   MnH10C4(ClO2)2
_chemical_formula_sum   'Mn2 H20 C8 Cl4 O8'
_cell_volume   408.99963022
_cell_formula_units_Z   2
loop_
 _symmetry_equiv_pos_site_id
 _symmetry_equiv_pos_as_xyz
  1  'x, y, z'
loop_
 _atom_site_type_symbol
 _atom_site_label
 _atom_site_symmetry_multiplicity
 _atom_site_fract_x
 _atom_site_fract_y
 _atom_site_fract_z
 _atom_site_occupancy
  Mn  Mn0  1  0.08106000  0.75010000  0.74997000  1.0
  Mn  Mn1  1  0.91895000  0.24990000  0.25002000  1.0
  H  H2  1  0.48165000  0.08829000  0.16639000  1.0
  H  H3  1  0.76384000  0.58823000  0.66648000  1.0
  H  H4  1  0.51833000  0.91171000  0.83362000  1.0
  H  H5  1  0.23616000  0.41177000  0.33352000  1.0
  H  H6  1  0.74698000  0.79094000  0.17485000  1.0
  H  H7  1  0.78766000  0.29078000  0.67498000  1.0
  H  H8  1  0.25302000  0.20905000  0.82515000  1.0
  H  H9  1  0.21234000  0.70922000  0.32502000  1.0
  H  H10  1  0.50587000  0.77529000  0.17293000  1.0
  H  H11  1  0.04643000  0.27527000  0.67297000  1.0
  H  H12  1  0.49414000  0.22471000  0.82706000  1.0
  H  H13  1  0.95357000  0.72473000  0.32703000  1.0
  H  H14  1  0.77810000  0.11165000  0.96716000  1.0
  H  H15  1  0.64318000  0.61138000  0.46728000  1.0
  H  H16  1  0.22190000  0.88835000  0.03284000  1.0
  H  H17  1  0.35682000  0.38863000  0.53272000  1.0
  H  H18  1  0.81180000  0.55491000  0.95584000  1.0
  H  H19  1  0.17771000  0.05484000  0.45589000  1.0
  H  H20  1  0.18821000  0.44509000  0.04415000  1.0
  H  H21  1  0.82229000  0.94516000  0.54411000  1.0
  C  C22  1  0.57657000  0.98515000  0.04676000  1.0
  C  C23  1  0.89164000  0.48511000  0.54681000  1.0
  C  C24  1  0.42343000  0.01485000  0.95324000  1.0
  C  C25  1  0.10837000  0.51489000  0.45319000  1.0
  C  C26  1  0.65468000  0.80092000  0.09580000  1.0
  C  C27  1  0.94897000  0.30086000  0.59588000  1.0
  C  C28  1  0.34533000  0.19908000  0.90419000  1.0
  C  C29  1  0.05102000  0.69914000  0.40412000  1.0
  Cl  Cl30  1  0.28065000  0.64252000  0.93323000  1.0
  Cl  Cl31  1  0.64350000  0.14267000  0.43332000  1.0
  Cl  Cl32  1  0.71934000  0.35748000  0.06678000  1.0
  Cl  Cl33  1  0.35650000  0.85734000  0.56668000  1.0
  O  O34  1  0.78350000  0.99838000  0.92668000  1.0
  O  O35  1  0.79156000  0.49813000  0.42674000  1.0
  O  O36  1  0.21651000  0.00162000  0.07332000  1.0
  O  O37  1  0.20844000  0.50187000  0.57326000  1.0
  O  O38  1  0.80774000  0.67302000  0.93256000  1.0
  O  O39  1  0.08700000  0.17297000  0.43255000  1.0
  O  O40  1  0.19226000  0.32698000  0.06744000  1.0
  O  O41  1  0.91299000  0.82703000  0.56745000  1.0
