# generated using pymatgen
data_Cu3H18C28(N3O5)2
_symmetry_space_group_name_H-M   'P 1'
_cell_length_a   7.02862000
_cell_length_b   10.32340000
_cell_length_c   13.19230000
_cell_angle_alpha   107.91600000
_cell_angle_beta   91.23940000
_cell_angle_gamma   97.43970000
_symmetry_Int_Tables_number   1
_chemical_formula_structural   Cu3H18C28(N3O5)2
_chemical_formula_sum   'Cu3 H18 C28 N6 O10'
_cell_volume   901.22056268
_cell_formula_units_Z   1
loop_
 _symmetry_equiv_pos_site_id
 _symmetry_equiv_pos_as_xyz
  1  'x, y, z'
loop_
 _atom_site_type_symbol
 _atom_site_label
 _atom_site_symmetry_multiplicity
 _atom_site_fract_x
 _atom_site_fract_y
 _atom_site_fract_z
 _atom_site_occupancy
  Cu  Cu0  1  0.50050000  0.00006000  0.50008000  1.0
  Cu  Cu1  1  0.89931000  0.77947000  0.65923000  1.0
  Cu  Cu2  1  0.10104000  0.22107000  0.34062000  1.0
  H  H3  1  0.68987000  0.36563000  0.35058000  1.0
  H  H4  1  0.30890000  0.63481000  0.64978000  1.0
  H  H5  1  0.89068000  0.44524000  0.22230000  1.0
  H  H6  1  0.10846000  0.55442000  0.77783000  1.0
  H  H7  1  0.10164000  0.67722000  0.28702000  1.0
  H  H8  1  0.89892000  0.32192000  0.71290000  1.0
  H  H9  1  0.99426000  0.05942000  0.77860000  1.0
  H  H10  1  0.00721000  0.93980000  0.22147000  1.0
  H  H11  1  0.15843000  0.28915000  0.89279000  1.0
  H  H12  1  0.84226000  0.71022000  0.10719000  1.0
  H  H13  1  0.46253000  0.39387000  0.82940000  1.0
  H  H14  1  0.53752000  0.60624000  0.17050000  1.0
  H  H15  1  0.58422000  0.25952000  0.66008000  1.0
  H  H16  1  0.41578000  0.74110000  0.33966000  1.0
  H  H17  1  0.08760000  0.88463000  0.02678000  1.0
  H  H18  1  0.91081000  0.11527000  0.97318000  1.0
  H  H19  1  0.83601000  0.88880000  0.00570000  1.0
  H  H20  1  0.16249000  0.11110000  0.99407000  1.0
  C  C21  1  0.68886000  0.51508000  0.57208000  1.0
  C  C22  1  0.31090000  0.48573000  0.42826000  1.0
  C  C23  1  0.78626000  0.55005000  0.48112000  1.0
  C  C24  1  0.21316000  0.45040000  0.51902000  1.0
  C  C25  1  0.77945000  0.46562000  0.37556000  1.0
  C  C26  1  0.21978000  0.53463000  0.62463000  1.0
  C  C27  1  0.89094000  0.51233000  0.30413000  1.0
  C  C28  1  0.10850000  0.48750000  0.69594000  1.0
  C  C29  1  0.00755000  0.63999000  0.33949000  1.0
  C  C30  1  0.99244000  0.35961000  0.66043000  1.0
  C  C31  1  0.00598000  0.71928000  0.44596000  1.0
  C  C32  1  0.99422000  0.28049000  0.55392000  1.0
  C  C33  1  0.13092000  0.85223000  0.49876000  1.0
  C  C34  1  0.87005000  0.14732000  0.50115000  1.0
  C  C35  1  0.20501000  0.03521000  0.66166000  1.0
  C  C36  1  0.79599000  0.96447000  0.33818000  1.0
  C  C37  1  0.12746000  0.10719000  0.75670000  1.0
  C  C38  1  0.87374000  0.89230000  0.24328000  1.0
  C  C39  1  0.21979000  0.23436000  0.81931000  1.0
  C  C40  1  0.78098000  0.76527000  0.18065000  1.0
  C  C41  1  0.38780000  0.29194000  0.78574000  1.0
  C  C42  1  0.61257000  0.70806000  0.21418000  1.0
  C  C43  1  0.45795000  0.21724000  0.69150000  1.0
  C  C44  1  0.54236000  0.78304000  0.30832000  1.0
  C  C45  1  0.99339000  0.85424000  0.86511000  1.0
  C  C46  1  0.00557000  0.14578000  0.13480000  1.0
  C  C47  1  0.98094000  0.92100000  0.98419000  1.0
  C  C48  1  0.01762000  0.07890000  0.01568000  1.0
  N  N49  1  0.89467000  0.67346000  0.51227000  1.0
  N  N50  1  0.10511000  0.32688000  0.48763000  1.0
  N  N51  1  0.10518000  0.90898000  0.60221000  1.0
  N  N52  1  0.89626000  0.09048000  0.39785000  1.0
  N  N53  1  0.37242000  0.09126000  0.63099000  1.0
  N  N54  1  0.62822000  0.90900000  0.36868000  1.0
  O  O55  1  0.59731000  0.39832000  0.55678000  1.0
  O  O56  1  0.40215000  0.60268000  0.44390000  1.0
  O  O57  1  0.71494000  0.61262000  0.66299000  1.0
  O  O58  1  0.28571000  0.38833000  0.33729000  1.0
  O  O59  1  0.24905000  0.89760000  0.44070000  1.0
  O  O60  1  0.75209000  0.10192000  0.55939000  1.0
  O  O61  1  0.86425000  0.88056000  0.80429000  1.0
  O  O62  1  0.13525000  0.11982000  0.19550000  1.0
  O  O63  1  0.12048000  0.78164000  0.82908000  1.0
  O  O64  1  0.87829000  0.21820000  0.17092000  1.0
