# generated using pymatgen
data_CuH39C33N3Cl2
_symmetry_space_group_name_H-M   'P 1'
_cell_length_a   8.91123000
_cell_length_b   12.87060000
_cell_length_c   14.76970000
_cell_angle_alpha   91.36660000
_cell_angle_beta   106.99600000
_cell_angle_gamma   94.24420000
_symmetry_Int_Tables_number   1
_chemical_formula_structural   CuH39C33N3Cl2
_chemical_formula_sum   'Cu2 H78 C66 N6 Cl4'
_cell_volume   1613.71436256
_cell_formula_units_Z   2
loop_
 _symmetry_equiv_pos_site_id
 _symmetry_equiv_pos_as_xyz
  1  'x, y, z'
loop_
 _atom_site_type_symbol
 _atom_site_label
 _atom_site_symmetry_multiplicity
 _atom_site_fract_x
 _atom_site_fract_y
 _atom_site_fract_z
 _atom_site_occupancy
  Cu  Cu0  1  0.50000000  0.00000000  0.00000000  1.0
  Cu  Cu1  1  0.00000000  0.50000000  0.00000000  1.0
  H  H2  1  0.23662000  0.34853000  0.32505000  1.0
  H  H3  1  0.76338000  0.65147000  0.67494000  1.0
  H  H4  1  0.24927000  0.23222000  0.26741000  1.0
  H  H5  1  0.75073000  0.76778000  0.73259000  1.0
  H  H6  1  0.39524000  0.28546000  0.48149000  1.0
  H  H7  1  0.60476000  0.71454000  0.51851000  1.0
  H  H8  1  0.22890000  0.19635000  0.42857000  1.0
  H  H9  1  0.77111000  0.80366000  0.57143000  1.0
  H  H10  1  0.41972000  0.16828000  0.42498000  1.0
  H  H11  1  0.58029000  0.83172000  0.57503000  1.0
  H  H12  1  0.71037000  0.16976000  0.16781000  1.0
  H  H13  1  0.28963000  0.83024000  0.83219000  1.0
  H  H14  1  0.84997000  0.27379000  0.16934000  1.0
  H  H15  1  0.15004000  0.72621000  0.83066000  1.0
  H  H16  1  0.84818000  0.13642000  0.33696000  1.0
  H  H17  1  0.15182000  0.86358000  0.66304000  1.0
  H  H18  1  0.97581000  0.12885000  0.26542000  1.0
  H  H19  1  0.02419000  0.87115000  0.73458000  1.0
  H  H20  1  0.99016000  0.24215000  0.34045000  1.0
  H  H21  1  0.00984000  0.75785000  0.65955000  1.0
  H  H22  1  0.78441000  0.62180000  0.29928000  1.0
  H  H23  1  0.21559000  0.37820000  0.70072000  1.0
  H  H24  1  0.62778000  0.63671000  0.34526000  1.0
  H  H25  1  0.37222000  0.36329000  0.65474000  1.0
  H  H26  1  0.94564000  0.55540000  0.45019000  1.0
  H  H27  1  0.05436000  0.44460000  0.54981000  1.0
  H  H28  1  0.87900000  0.67707000  0.47265000  1.0
  H  H29  1  0.12100000  0.32293000  0.52735000  1.0
  H  H30  1  0.78728000  0.55889000  0.49930000  1.0
  H  H31  1  0.21273000  0.44111000  0.50070000  1.0
  H  H32  1  0.51242000  0.56233000  0.42944000  1.0
  H  H33  1  0.48757000  0.43766000  0.57056000  1.0
  H  H34  1  0.36577000  0.46112000  0.41948000  1.0
  H  H35  1  0.63422000  0.53887000  0.58051000  1.0
  H  H36  1  0.38402000  0.60004000  0.25715000  1.0
  H  H37  1  0.61598000  0.39996000  0.74286000  1.0
  H  H38  1  0.23111000  0.50630000  0.25233000  1.0
  H  H39  1  0.76889000  0.49370000  0.74767000  1.0
  H  H40  1  0.34057000  0.63489000  0.48636000  1.0
  H  H41  1  0.65944000  0.36512000  0.51364000  1.0
  H  H42  1  0.20343000  0.77944000  0.52985000  1.0
  H  H43  1  0.79657000  0.22056000  0.47015000  1.0
  H  H44  1  0.00999000  0.86762000  0.39904000  1.0
  H  H45  1  0.99000000  0.13237000  0.60096000  1.0
  H  H46  1  0.96540000  0.80223000  0.23215000  1.0
  H  H47  1  0.03459000  0.19776000  0.76785000  1.0
  H  H48  1  0.41629000  0.12233000  0.28258000  1.0
  H  H49  1  0.58371000  0.87767000  0.71742000  1.0
  H  H50  1  0.58182000  0.09954000  0.24641000  1.0
  H  H51  1  0.41819000  0.90045000  0.75359000  1.0
  H  H52  1  0.31229000  0.21454000  0.12316000  1.0
  H  H53  1  0.68771000  0.78546000  0.87684000  1.0
  H  H54  1  0.46208000  0.15896000  0.08762000  1.0
  H  H55  1  0.53792000  0.84104000  0.91238000  1.0
  H  H56  1  0.12211000  0.09338000  0.18128000  1.0
  H  H57  1  0.87789000  0.90662000  0.81872000  1.0
  H  H58  1  0.94086000  0.93125000  0.12985000  1.0
  H  H59  1  0.05914000  0.06875000  0.87015000  1.0
  H  H60  1  0.01294000  0.79459000  0.02614000  1.0
  H  H61  1  0.98707000  0.20541000  0.97386000  1.0
  H  H62  1  0.25066000  0.83474000  0.97352000  1.0
  H  H63  1  0.74934000  0.16526000  0.02648000  1.0
  H  H64  1  0.95832000  0.40258000  0.23135000  1.0
  H  H65  1  0.04168000  0.59743000  0.76865000  1.0
  H  H66  1  0.95368000  0.51761000  0.29615000  1.0
  H  H67  1  0.04632000  0.48240000  0.70385000  1.0
  H  H68  1  0.91891000  0.56020000  0.13370000  1.0
  H  H69  1  0.08109000  0.43980000  0.86630000  1.0
  H  H70  1  0.74196000  0.57697000  0.16095000  1.0
  H  H71  1  0.25804000  0.42303000  0.83905000  1.0
  H  H72  1  0.51532000  0.42513000  0.10941000  1.0
  H  H73  1  0.48467000  0.57487000  0.89059000  1.0
  H  H74  1  0.37680000  0.30229000  0.97302000  1.0
  H  H75  1  0.62320000  0.69771000  0.02698000  1.0
  H  H76  1  0.51653000  0.25659000  0.85391000  1.0
  H  H77  1  0.48347000  0.74341000  0.14609000  1.0
  H  H78  1  0.78755000  0.34372000  0.87425000  1.0
  H  H79  1  0.21245000  0.65628000  0.12576000  1.0
  C  C80  1  0.52360000  0.43427000  0.33634000  1.0
  C  C81  1  0.47640000  0.56573000  0.66365000  1.0
  C  C82  1  0.46704000  0.32929000  0.31082000  1.0
  C  C83  1  0.53296000  0.67071000  0.68918000  1.0
  C  C84  1  0.55427000  0.26400000  0.27132000  1.0
  C  C85  1  0.44574000  0.73600000  0.72868000  1.0
  C  C86  1  0.69360000  0.30456000  0.25320000  1.0
  C  C87  1  0.30640000  0.69545000  0.74680000  1.0
  C  C88  1  0.74565000  0.41096000  0.27460000  1.0
  C  C89  1  0.25435000  0.58904000  0.72540000  1.0
  C  C90  1  0.66201000  0.47546000  0.31765000  1.0
  C  C91  1  0.33798000  0.52454000  0.68235000  1.0
  C  C92  1  0.31469000  0.28603000  0.32698000  1.0
  C  C93  1  0.68531000  0.71397000  0.67302000  1.0
  C  C94  1  0.34061000  0.23075000  0.42056000  1.0
  C  C95  1  0.65940000  0.76925000  0.57944000  1.0
  C  C96  1  0.78809000  0.23224000  0.21380000  1.0
  C  C97  1  0.21192000  0.76776000  0.78620000  1.0
  C  C98  1  0.90791000  0.18212000  0.29368000  1.0
  C  C99  1  0.09209000  0.81788000  0.70632000  1.0
  C  C100  1  0.72457000  0.58766000  0.34810000  1.0
  C  C101  1  0.27543000  0.41234000  0.65190000  1.0
  C  C102  1  0.84052000  0.59561000  0.44834000  1.0
  C  C103  1  0.15948000  0.40440000  0.55166000  1.0
  C  C104  1  0.43122000  0.50537000  0.37854000  1.0
  C  C105  1  0.56878000  0.49462000  0.62147000  1.0
  C  C106  1  0.31762000  0.56270000  0.30160000  1.0
  C  C107  1  0.68237000  0.43730000  0.69840000  1.0
  C  C108  1  0.23236000  0.64549000  0.33507000  1.0
  C  C109  1  0.76764000  0.35450000  0.66493000  1.0
  C  C110  1  0.25957000  0.67464000  0.43085000  1.0
  C  C111  1  0.74043000  0.32536000  0.56915000  1.0
  C  C112  1  0.18164000  0.75595000  0.45537000  1.0
  C  C113  1  0.81836000  0.24405000  0.54463000  1.0
  C  C114  1  0.07512000  0.80437000  0.38367000  1.0
  C  C115  1  0.92487000  0.19563000  0.61633000  1.0
  C  C116  1  0.05116000  0.76827000  0.29013000  1.0
  C  C117  1  0.94883000  0.23173000  0.70986000  1.0
  C  C118  1  0.48901000  0.15297000  0.23926000  1.0
  C  C119  1  0.51099000  0.84703000  0.76074000  1.0
  C  C120  1  0.38644000  0.14839000  0.13434000  1.0
  C  C121  1  0.61356000  0.85161000  0.86567000  1.0
  C  C122  1  0.28137000  0.04968000  0.10561000  1.0
  C  C123  1  0.71864000  0.95032000  0.89439000  1.0
  C  C124  1  0.14830000  0.03257000  0.13697000  1.0
  C  C125  1  0.85170000  0.96743000  0.86303000  1.0
  C  C126  1  0.04903000  0.94175000  0.10930000  1.0
  C  C127  1  0.95097000  0.05825000  0.89070000  1.0
  C  C128  1  0.08625000  0.86736000  0.05081000  1.0
  C  C129  1  0.91375000  0.13265000  0.94919000  1.0
  C  C130  1  0.21888000  0.88887000  0.02115000  1.0
  C  C131  1  0.78113000  0.11113000  0.97885000  1.0
  C  C132  1  0.87983000  0.46002000  0.24259000  1.0
  C  C133  1  0.12017000  0.53999000  0.75741000  1.0
  C  C134  1  0.81823000  0.51781000  0.14946000  1.0
  C  C135  1  0.18177000  0.48219000  0.85055000  1.0
  C  C136  1  0.72659000  0.44749000  0.06623000  1.0
  C  C137  1  0.27341000  0.55251000  0.93377000  1.0
  C  C138  1  0.57335000  0.40436000  0.05689000  1.0
  C  C139  1  0.42665000  0.59564000  0.94312000  1.0
  C  C140  1  0.49577000  0.33616000  0.98019000  1.0
  C  C141  1  0.50422000  0.66384000  0.01981000  1.0
  C  C142  1  0.57196000  0.31224000  0.91312000  1.0
  C  C143  1  0.42804000  0.68776000  0.08689000  1.0
  C  C144  1  0.72237000  0.35919000  0.92468000  1.0
  C  C145  1  0.27763000  0.64081000  0.07532000  1.0
  N  N146  1  0.12814000  0.69193000  0.26556000  1.0
  N  N147  1  0.87185000  0.30806000  0.73443000  1.0
  N  N148  1  0.31382000  0.97758000  0.04779000  1.0
  N  N149  1  0.68618000  0.02242000  0.95221000  1.0
  N  N150  1  0.79621000  0.42539000  0.99893000  1.0
  N  N151  1  0.20379000  0.57461000  0.00108000  1.0
  Cl  Cl152  1  0.65563000  0.93588000  0.13630000  1.0
  Cl  Cl153  1  0.34437000  0.06412000  0.86370000  1.0
  Cl  Cl154  1  0.13358000  0.36991000  0.08305000  1.0
  Cl  Cl155  1  0.86641000  0.63009000  0.91695000  1.0
