# generated using pymatgen
data_ZnH16C20(SN4)2
_symmetry_space_group_name_H-M   'P 1'
_cell_length_a   5.45107000
_cell_length_b   12.54430000
_cell_length_c   18.23580000
_cell_angle_alpha   89.99930000
_cell_angle_beta   89.99970000
_cell_angle_gamma   89.16070000
_symmetry_Int_Tables_number   1
_chemical_formula_structural   ZnH16C20(SN4)2
_chemical_formula_sum   'Zn2 H32 C40 S4 N16'
_cell_volume   1246.82761941
_cell_formula_units_Z   2
loop_
 _symmetry_equiv_pos_site_id
 _symmetry_equiv_pos_as_xyz
  1  'x, y, z'
loop_
 _atom_site_type_symbol
 _atom_site_label
 _atom_site_symmetry_multiplicity
 _atom_site_fract_x
 _atom_site_fract_y
 _atom_site_fract_z
 _atom_site_occupancy
  Zn  Zn0  1  0.41093000  0.16920000  0.94212000  1.0
  Zn  Zn1  1  0.58906000  0.83080000  0.44211000  1.0
  H  H2  1  0.74163000  0.17100000  0.06876000  1.0
  H  H3  1  0.25837000  0.82899000  0.56876000  1.0
  H  H4  1  0.09027000  0.06447000  0.11671000  1.0
  H  H5  1  0.90972000  0.93551000  0.61671000  1.0
  H  H6  1  0.93819000  0.82831000  0.95052000  1.0
  H  H7  1  0.06181000  0.17169000  0.45052000  1.0
  H  H8  1  0.59291000  0.94588000  0.90839000  1.0
  H  H9  1  0.40708000  0.05413000  0.40839000  1.0
  H  H10  1  0.42845000  0.96481000  0.15540000  1.0
  H  H11  1  0.57154000  0.03518000  0.65541000  1.0
  H  H12  1  0.74729000  0.79317000  0.15299000  1.0
  H  H13  1  0.25269000  0.20682000  0.65298000  1.0
  H  H14  1  0.81755000  0.64480000  0.05402000  1.0
  H  H15  1  0.18245000  0.35520000  0.55402000  1.0
  H  H16  1  0.57912000  0.62888000  0.98798000  1.0
  H  H17  1  0.42089000  0.37112000  0.48798000  1.0
  H  H18  1  0.31729000  0.54327000  0.08679000  1.0
  H  H19  1  0.68271000  0.45672000  0.58679000  1.0
  H  H20  1  0.58795000  0.47059000  0.06179000  1.0
  H  H21  1  0.41205000  0.52941000  0.56179000  1.0
  H  H22  1  0.34835000  0.42939000  0.20925000  1.0
  H  H23  1  0.65164000  0.57062000  0.70925000  1.0
  H  H24  1  0.62043000  0.46435000  0.33464000  1.0
  H  H25  1  0.37957000  0.53565000  0.83464000  1.0
  H  H26  1  0.14797000  0.72053000  0.20813000  1.0
  H  H27  1  0.85201000  0.27946000  0.70813000  1.0
  H  H28  1  0.45710000  0.81424000  0.28394000  1.0
  H  H29  1  0.54287000  0.18576000  0.78394000  1.0
  H  H30  1  0.24399000  0.65521000  0.47221000  1.0
  H  H31  1  0.75603000  0.34478000  0.97222000  1.0
  H  H32  1  0.92383000  0.55562000  0.40511000  1.0
  H  H33  1  0.07618000  0.44437000  0.90511000  1.0
  C  C34  1  0.79037000  0.09433000  0.04406000  1.0
  C  C35  1  0.20962000  0.90567000  0.54406000  1.0
  C  C36  1  0.98562000  0.03416000  0.07062000  1.0
  C  C37  1  0.01438000  0.96584000  0.57062000  1.0
  C  C38  1  0.04387000  0.93561000  0.03803000  1.0
  C  C39  1  0.95612000  0.06439000  0.53803000  1.0
  C  C40  1  0.89792000  0.90299000  0.97876000  1.0
  C  C41  1  0.10208000  0.09702000  0.47877000  1.0
  C  C42  1  0.70629000  0.96795000  0.95501000  1.0
  C  C43  1  0.29371000  0.03206000  0.45501000  1.0
  C  C44  1  0.24945000  0.87100000  0.06453000  1.0
  C  C45  1  0.75054000  0.12900000  0.56453000  1.0
  C  C46  1  0.42144000  0.89516000  0.12039000  1.0
  C  C47  1  0.57855000  0.10484000  0.62039000  1.0
  C  C48  1  0.58520000  0.81020000  0.12050000  1.0
  C  C49  1  0.41478000  0.18979000  0.62050000  1.0
  C  C50  1  0.61856000  0.63947000  0.04649000  1.0
  C  C51  1  0.38144000  0.36053000  0.54649000  1.0
  C  C52  1  0.51867000  0.54415000  0.08804000  1.0
  C  C53  1  0.48134000  0.45585000  0.58803000  1.0
  C  C54  1  0.50376000  0.48068000  0.21930000  1.0
  C  C55  1  0.49624000  0.51932000  0.71929000  1.0
  C  C56  1  0.64405000  0.49988000  0.28097000  1.0
  C  C57  1  0.35595000  0.50012000  0.78096000  1.0
  C  C58  1  0.81909000  0.57565000  0.25827000  1.0
  C  C59  1  0.18091000  0.42435000  0.75827000  1.0
  C  C60  1  0.00823000  0.62912000  0.30003000  1.0
  C  C61  1  0.99176000  0.37088000  0.80003000  1.0
  C  C62  1  0.16378000  0.70308000  0.26640000  1.0
  C  C63  1  0.83621000  0.29692000  0.76640000  1.0
  C  C64  1  0.33657000  0.75526000  0.30808000  1.0
  C  C65  1  0.66341000  0.24474000  0.80808000  1.0
  C  C66  1  0.21779000  0.66614000  0.41334000  1.0
  C  C67  1  0.78222000  0.33386000  0.91334000  1.0
  C  C68  1  0.04004000  0.61081000  0.37547000  1.0
  C  C69  1  0.95997000  0.38918000  0.87548000  1.0
  C  C70  1  0.17126000  0.29998000  0.06593000  1.0
  C  C71  1  0.82874000  0.70002000  0.56592000  1.0
  C  C72  1  0.09669000  0.04847000  0.83020000  1.0
  C  C73  1  0.90337000  0.95155000  0.33021000  1.0
  S  S74  1  0.98942000  0.35030000  0.12649000  1.0
  S  S75  1  0.01057000  0.64969000  0.62648000  1.0
  S  S76  1  0.96325000  0.97613000  0.77019000  1.0
  S  S77  1  0.03684000  0.02389000  0.27021000  1.0
  N  N78  1  0.65265000  0.06264000  0.98684000  1.0
  N  N79  1  0.34735000  0.93736000  0.48684000  1.0
  N  N80  1  0.30403000  0.77583000  0.03311000  1.0
  N  N81  1  0.69597000  0.22417000  0.53311000  1.0
  N  N82  1  0.50752000  0.74089000  0.06790000  1.0
  N  N83  1  0.49248000  0.25911000  0.56790000  1.0
  N  N84  1  0.59602000  0.54279000  0.16474000  1.0
  N  N85  1  0.40397000  0.45721000  0.66473000  1.0
  N  N86  1  0.78830000  0.59995000  0.18668000  1.0
  N  N87  1  0.21170000  0.40005000  0.68668000  1.0
  N  N88  1  0.36379000  0.73762000  0.38058000  1.0
  N  N89  1  0.63621000  0.26238000  0.88059000  1.0
  N  N90  1  0.30461000  0.26287000  0.02070000  1.0
  N  N91  1  0.69540000  0.73713000  0.52068000  1.0
  N  N92  1  0.19201000  0.10227000  0.87550000  1.0
  N  N93  1  0.80799000  0.89774000  0.37549000  1.0
