# generated using pymatgen
data_CoH12C14(NO)4
_symmetry_space_group_name_H-M   'P 1'
_cell_length_a   8.27798000
_cell_length_b   9.86347000
_cell_length_c   9.92885000
_cell_angle_alpha   89.99990000
_cell_angle_beta   89.99970000
_cell_angle_gamma   75.99200000
_symmetry_Int_Tables_number   1
_chemical_formula_structural   CoH12C14(NO)4
_chemical_formula_sum   'Co2 H24 C28 N8 O8'
_cell_volume   786.57845297
_cell_formula_units_Z   2
loop_
 _symmetry_equiv_pos_site_id
 _symmetry_equiv_pos_as_xyz
  1  'x, y, z'
loop_
 _atom_site_type_symbol
 _atom_site_label
 _atom_site_symmetry_multiplicity
 _atom_site_fract_x
 _atom_site_fract_y
 _atom_site_fract_z
 _atom_site_occupancy
  Co  Co0  1  0.75357000  0.13883000  0.60055000  1.0
  Co  Co1  1  0.25358000  0.63883000  0.39945000  1.0
  H  H2  1  0.88087000  0.07378000  0.91069000  1.0
  H  H3  1  0.38087000  0.57378000  0.08931000  1.0
  H  H4  1  0.05985000  0.82963000  0.97571000  1.0
  H  H5  1  0.55985000  0.32963000  0.02429000  1.0
  H  H6  1  0.38261000  0.23685000  0.71723000  1.0
  H  H7  1  0.88261000  0.73685000  0.28276000  1.0
  H  H8  1  0.95596000  0.83304000  0.55484000  1.0
  H  H9  1  0.45596000  0.33303000  0.44516000  1.0
  H  H10  1  0.11435000  0.66876000  0.76818000  1.0
  H  H11  1  0.61435000  0.16876000  0.23181000  1.0
  H  H12  1  0.59090000  0.94496000  0.41615000  1.0
  H  H13  1  0.09090000  0.44496000  0.58385000  1.0
  H  H14  1  0.13581000  0.11265000  0.61863000  1.0
  H  H15  1  0.63581000  0.61266000  0.38137000  1.0
  H  H16  1  0.28393000  0.94104000  0.43643000  1.0
  H  H17  1  0.78393000  0.44104000  0.56357000  1.0
  H  H18  1  0.93429000  0.34405000  0.26583000  1.0
  H  H19  1  0.43428000  0.84405000  0.73417000  1.0
  H  H20  1  0.29520000  0.21157000  0.94906000  1.0
  H  H21  1  0.79520000  0.71157000  0.05094000  1.0
  H  H22  1  0.10599000  0.40320000  0.07852000  1.0
  H  H23  1  0.60599000  0.90320000  0.92148000  1.0
  H  H24  1  0.31224000  0.96378000  0.00862000  1.0
  H  H25  1  0.81224000  0.46378000  0.99138000  1.0
  C  C26  1  0.92347000  0.98684000  0.84234000  1.0
  C  C27  1  0.42347000  0.48683000  0.15766000  1.0
  C  C28  1  0.38887000  0.15565000  0.64262000  1.0
  C  C29  1  0.88887000  0.65565000  0.35738000  1.0
  C  C30  1  0.96497000  0.85750000  0.66048000  1.0
  C  C31  1  0.46498000  0.35750000  0.33952000  1.0
  C  C32  1  0.04314000  0.77641000  0.76503000  1.0
  C  C33  1  0.54315000  0.27640000  0.23497000  1.0
  C  C34  1  0.50105000  0.00717000  0.48494000  1.0
  C  C35  1  0.00105000  0.50718000  0.51506000  1.0
  C  C36  1  0.26642000  0.09640000  0.59399000  1.0
  C  C37  1  0.76642000  0.59641000  0.40601000  1.0
  C  C38  1  0.02683000  0.12207000  0.24310000  1.0
  C  C39  1  0.52683000  0.62206000  0.75690000  1.0
  C  C40  1  0.01790000  0.26156000  0.20890000  1.0
  C  C41  1  0.51790000  0.76156000  0.79110000  1.0
  C  C42  1  0.91562000  0.08888000  0.35139000  1.0
  C  C43  1  0.41562000  0.58889000  0.64861000  1.0
  C  C44  1  0.21896000  0.18714000  0.03079000  1.0
  C  C45  1  0.71896000  0.68714000  0.96922000  1.0
  C  C46  1  0.11305000  0.29417000  0.10321000  1.0
  C  C47  1  0.61305000  0.79417000  0.89679000  1.0
  C  C48  1  0.13435000  0.01436000  0.17039000  1.0
  C  C49  1  0.63435000  0.51436000  0.82962000  1.0
  C  C50  1  0.22910000  0.04791000  0.06420000  1.0
  C  C51  1  0.72910000  0.54791000  0.93580000  1.0
  C  C52  1  0.15892000  0.86320000  0.20779000  1.0
  C  C53  1  0.65893000  0.36320000  0.79221000  1.0
  N  N54  1  0.01588000  0.85975000  0.87801000  1.0
  N  N55  1  0.51588000  0.35975000  0.12199000  1.0
  N  N56  1  0.53507000  0.09913000  0.57325000  1.0
  N  N57  1  0.03508000  0.59914000  0.42675000  1.0
  N  N58  1  0.89045000  0.98905000  0.71015000  1.0
  N  N59  1  0.39045000  0.48905000  0.28985000  1.0
  N  N60  1  0.33993000  0.00404000  0.49506000  1.0
  N  N61  1  0.83992000  0.50405000  0.50494000  1.0
  O  O62  1  0.85640000  0.98388000  0.34147000  1.0
  O  O63  1  0.35641000  0.48387000  0.65853000  1.0
  O  O64  1  0.88515000  0.17761000  0.45042000  1.0
  O  O65  1  0.38515000  0.67761000  0.54958000  1.0
  O  O66  1  0.13269000  0.77494000  0.12465000  1.0
  O  O67  1  0.63269000  0.27494000  0.87536000  1.0
  O  O68  1  0.21851000  0.82984000  0.32717000  1.0
  O  O69  1  0.71852000  0.32985000  0.67283000  1.0
