# generated using pymatgen
data_ZnPH4C5NO3F
_symmetry_space_group_name_H-M   'P 1'
_cell_length_a   8.24478000
_cell_length_b   9.81199000
_cell_length_c   17.80290000
_cell_angle_alpha   90.00000000
_cell_angle_beta   101.51800000
_cell_angle_gamma   90.00000000
_symmetry_Int_Tables_number   1
_chemical_formula_structural   ZnPH4C5NO3F
_chemical_formula_sum   'Zn8 P8 H32 C40 N8 O24 F8'
_cell_volume   1411.21065470
_cell_formula_units_Z   8
loop_
 _symmetry_equiv_pos_site_id
 _symmetry_equiv_pos_as_xyz
  1  'x, y, z'
loop_
 _atom_site_type_symbol
 _atom_site_label
 _atom_site_symmetry_multiplicity
 _atom_site_fract_x
 _atom_site_fract_y
 _atom_site_fract_z
 _atom_site_occupancy
  Zn  Zn0  1  0.26072000  0.42443000  0.04601000  1.0
  Zn  Zn1  1  0.23928000  0.92443000  0.95399000  1.0
  Zn  Zn2  1  0.73928000  0.57557000  0.95399000  1.0
  Zn  Zn3  1  0.76072000  0.07557000  0.04601000  1.0
  Zn  Zn4  1  0.75413000  0.56591000  0.54422000  1.0
  Zn  Zn5  1  0.74587000  0.06591000  0.45579000  1.0
  Zn  Zn6  1  0.24586000  0.43409000  0.45578000  1.0
  Zn  Zn7  1  0.25413000  0.93409000  0.54421000  1.0
  P  P8  1  0.34107000  0.62014000  0.91851000  1.0
  P  P9  1  0.15893000  0.12014000  0.08149000  1.0
  P  P10  1  0.65893000  0.37986000  0.08149000  1.0
  P  P11  1  0.84107000  0.87986000  0.91851000  1.0
  P  P12  1  0.64785000  0.86553000  0.57894000  1.0
  P  P13  1  0.85215000  0.36553000  0.42107000  1.0
  P  P14  1  0.35215000  0.13447000  0.42106000  1.0
  P  P15  1  0.14784000  0.63447000  0.57893000  1.0
  H  H16  1  0.33142000  0.21307000  0.94547000  1.0
  H  H17  1  0.16858000  0.71308000  0.05453000  1.0
  H  H18  1  0.66858000  0.78693000  0.05453000  1.0
  H  H19  1  0.83142000  0.28693000  0.94547000  1.0
  H  H20  1  0.45008000  0.36255000  0.85910000  1.0
  H  H21  1  0.04991000  0.86255000  0.14090000  1.0
  H  H22  1  0.54992000  0.63745000  0.14090000  1.0
  H  H23  1  0.95008000  0.13744000  0.85910000  1.0
  H  H24  1  0.49011000  0.00491000  0.71986000  1.0
  H  H25  1  0.00989000  0.50490000  0.28014000  1.0
  H  H26  1  0.50990000  0.99510000  0.28014000  1.0
  H  H27  1  0.99010000  0.49510000  0.71986000  1.0
  H  H28  1  0.37891000  0.87047000  0.81479000  1.0
  H  H29  1  0.12109000  0.37047000  0.18521000  1.0
  H  H30  1  0.62110000  0.12952000  0.18521000  1.0
  H  H31  1  0.87891000  0.62952000  0.81479000  1.0
  H  H32  1  0.73271000  0.27102000  0.57132000  1.0
  H  H33  1  0.76729000  0.77102000  0.42869000  1.0
  H  H34  1  0.26728000  0.72898000  0.42868000  1.0
  H  H35  1  0.23271000  0.22897000  0.57132000  1.0
  H  H36  1  0.63568000  0.11951000  0.66324000  1.0
  H  H37  1  0.86431000  0.61951000  0.33676000  1.0
  H  H38  1  0.36431000  0.88049000  0.33676000  1.0
  H  H39  1  0.13568000  0.38049000  0.66324000  1.0
  H  H40  1  0.45991000  0.47941000  0.76420000  1.0
  H  H41  1  0.04009000  0.97941000  0.23580000  1.0
  H  H42  1  0.54009000  0.52059000  0.23580000  1.0
  H  H43  1  0.95991000  0.02059000  0.76420000  1.0
  H  H44  1  0.56138000  0.61504000  0.66696000  1.0
  H  H45  1  0.93862000  0.11504000  0.33304000  1.0
  H  H46  1  0.43862000  0.38496000  0.33304000  1.0
  H  H47  1  0.06138000  0.88496000  0.66696000  1.0
  C  C48  1  0.37039000  0.17153000  0.89526000  1.0
  C  C49  1  0.12961000  0.67153000  0.10474000  1.0
  C  C50  1  0.62961000  0.82847000  0.10474000  1.0
  C  C51  1  0.87039000  0.32847000  0.89526000  1.0
  C  C52  1  0.43511000  0.25451000  0.84558000  1.0
  C  C53  1  0.06489000  0.75452000  0.15442000  1.0
  C  C54  1  0.56489000  0.74548000  0.15442000  1.0
  C  C55  1  0.93511000  0.24548000  0.84558000  1.0
  C  C56  1  0.47926000  0.19802000  0.78012000  1.0
  C  C57  1  0.02074000  0.69802000  0.21988000  1.0
  C  C58  1  0.52075000  0.80198000  0.21988000  1.0
  C  C59  1  0.97926000  0.30198000  0.78012000  1.0
  C  C60  1  0.46025000  0.05667000  0.76952000  1.0
  C  C61  1  0.03975000  0.55667000  0.23048000  1.0
  C  C62  1  0.53975000  0.94333000  0.23048000  1.0
  C  C63  1  0.96025000  0.44333000  0.76952000  1.0
  C  C64  1  0.39593000  0.98008000  0.82213000  1.0
  C  C65  1  0.10407000  0.48008000  0.17787000  1.0
  C  C66  1  0.60408000  0.01992000  0.17787000  1.0
  C  C67  1  0.89593000  0.51992000  0.82213000  1.0
  C  C68  1  0.67015000  0.31247000  0.61468000  1.0
  C  C69  1  0.82985000  0.81247000  0.38532000  1.0
  C  C70  1  0.32984000  0.68753000  0.38532000  1.0
  C  C71  1  0.17016000  0.18753000  0.61468000  1.0
  C  C72  1  0.61579000  0.22850000  0.66711000  1.0
  C  C73  1  0.88421000  0.72850000  0.33289000  1.0
  C  C74  1  0.38421000  0.77150000  0.33289000  1.0
  C  C75  1  0.11579000  0.27150000  0.66711000  1.0
  C  C76  1  0.53925000  0.28499000  0.72353000  1.0
  C  C77  1  0.96075000  0.78499000  0.27647000  1.0
  C  C78  1  0.46075000  0.71501000  0.27647000  1.0
  C  C79  1  0.03925000  0.21501000  0.72353000  1.0
  C  C80  1  0.51918000  0.42715000  0.72296000  1.0
  C  C81  1  0.98082000  0.92715000  0.27704000  1.0
  C  C82  1  0.48081000  0.57285000  0.27704000  1.0
  C  C83  1  0.01918000  0.07285000  0.72296000  1.0
  C  C84  1  0.57611000  0.50482000  0.66848000  1.0
  C  C85  1  0.92389000  0.00482000  0.33152000  1.0
  C  C86  1  0.42389000  0.49519000  0.33152000  1.0
  C  C87  1  0.07611000  0.99518000  0.66848000  1.0
  N  N88  1  0.34950000  0.03639000  0.88364000  1.0
  N  N89  1  0.15050000  0.53639000  0.11636000  1.0
  N  N90  1  0.65051000  0.96361000  0.11636000  1.0
  N  N91  1  0.84950000  0.46361000  0.88364000  1.0
  N  N92  1  0.65192000  0.44903000  0.61546000  1.0
  N  N93  1  0.84808000  0.94902000  0.38454000  1.0
  N  N94  1  0.34808000  0.55098000  0.38454000  1.0
  N  N95  1  0.15192000  0.05098000  0.61546000  1.0
  O  O96  1  0.24738000  0.50027000  0.94391000  1.0
  O  O97  1  0.25262000  0.00028000  0.05609000  1.0
  O  O98  1  0.75262000  0.49973000  0.05609000  1.0
  O  O99  1  0.74738000  0.99972000  0.94391000  1.0
  O  O100  1  0.50738000  0.58159000  0.89961000  1.0
  O  O101  1  0.99262000  0.08159000  0.10039000  1.0
  O  O102  1  0.49262000  0.41841000  0.10039000  1.0
  O  O103  1  0.00738000  0.91841000  0.89961000  1.0
  O  O104  1  0.34587000  0.74640000  0.96876000  1.0
  O  O105  1  0.15414000  0.24640000  0.03124000  1.0
  O  O106  1  0.65414000  0.25360000  0.03124000  1.0
  O  O107  1  0.84587000  0.75360000  0.96876000  1.0
  O  O108  1  0.75031000  0.48131000  0.44518000  1.0
  O  O109  1  0.74970000  0.98131000  0.55482000  1.0
  O  O110  1  0.24969000  0.51869000  0.55482000  1.0
  O  O111  1  0.25030000  0.01869000  0.44518000  1.0
  O  O112  1  0.98445000  0.58900000  0.59811000  1.0
  O  O113  1  0.51555000  0.08900000  0.40189000  1.0
  O  O114  1  0.01555000  0.41100000  0.40189000  1.0
  O  O115  1  0.48445000  0.91100000  0.59811000  1.0
  O  O116  1  0.63485000  0.73894000  0.52827000  1.0
  O  O117  1  0.86515000  0.23894000  0.47173000  1.0
  O  O118  1  0.36515000  0.26106000  0.47173000  1.0
  O  O119  1  0.13485000  0.76106000  0.52827000  1.0
  F  F120  1  0.23283000  0.66133000  0.83664000  1.0
  F  F121  1  0.26717000  0.16133000  0.16336000  1.0
  F  F122  1  0.76717000  0.33867000  0.16336000  1.0
  F  F123  1  0.73283000  0.83867000  0.83664000  1.0
  F  F124  1  0.75374000  0.82003000  0.66066000  1.0
  F  F125  1  0.74625000  0.32003000  0.33934000  1.0
  F  F126  1  0.24626000  0.17997000  0.33934000  1.0
  F  F127  1  0.25374000  0.67997000  0.66066000  1.0
