# generated using pymatgen
data_CuH22C26(NO)6
_symmetry_space_group_name_H-M   'P 1'
_cell_length_a   8.26554324
_cell_length_b   9.36722000
_cell_length_c   9.69604549
_cell_angle_alpha   62.07768512
_cell_angle_beta   73.93648415
_cell_angle_gamma   71.90837916
_symmetry_Int_Tables_number   1
_chemical_formula_structural   CuH22C26(NO)6
_chemical_formula_sum   'Cu1 H22 C26 N6 O6'
_cell_volume   622.77735156
_cell_formula_units_Z   1
loop_
 _symmetry_equiv_pos_site_id
 _symmetry_equiv_pos_as_xyz
  1  'x, y, z'
loop_
 _atom_site_type_symbol
 _atom_site_label
 _atom_site_symmetry_multiplicity
 _atom_site_fract_x
 _atom_site_fract_y
 _atom_site_fract_z
 _atom_site_occupancy
  Cu  Cu0  1  0.00000000  0.50000000  0.50000000  1.0
  H  H1  1  0.30407000  0.44972000  0.25865000  1.0
  H  H2  1  0.69591000  0.55029000  0.74134000  1.0
  H  H3  1  0.48847000  0.21966000  0.18657000  1.0
  H  H4  1  0.51152000  0.78034000  0.81342000  1.0
  H  H5  1  0.44246000  0.93324000  0.35650000  1.0
  H  H6  1  0.55753000  0.06677000  0.64349000  1.0
  H  H7  1  0.05206000  0.12363000  0.66484000  1.0
  H  H8  1  0.94794000  0.87636000  0.33516000  1.0
  H  H9  1  0.26839000  0.76617000  0.55753000  1.0
  H  H10  1  0.73161000  0.23382000  0.44247000  1.0
  H  H11  1  0.12955000  0.58775000  0.70528000  1.0
  H  H12  1  0.87043000  0.41226000  0.29471000  1.0
  H  H13  1  0.91444000  0.46978000  0.89781000  1.0
  H  H14  1  0.08553000  0.53023000  0.10219000  1.0
  H  H15  1  0.84721000  0.64491000  0.94394000  1.0
  H  H16  1  0.15277000  0.35511000  0.05605000  1.0
  H  H17  1  0.58746000  0.61969000  0.34614000  1.0
  H  H18  1  0.41256000  0.38031000  0.65387000  1.0
  H  H19  1  0.78668000  0.80356000  0.14892000  1.0
  H  H20  1  0.21334000  0.19643000  0.85110000  1.0
  H  H21  1  0.17036000  0.93725000  0.08366000  1.0
  H  H22  1  0.82965000  0.06274000  0.91636000  1.0
  C  C23  1  0.29129000  0.32292000  0.33311000  1.0
  C  C24  1  0.70870000  0.67708000  0.66688000  1.0
  C  C25  1  0.39147000  0.19433000  0.29251000  1.0
  C  C26  1  0.60852000  0.80567000  0.70748000  1.0
  C  C27  1  0.36568000  0.03534000  0.38676000  1.0
  C  C28  1  0.63431000  0.96466000  0.61323000  1.0
  C  C29  1  0.23998000  0.00566000  0.52325000  1.0
  C  C30  1  0.76002000  0.99434000  0.47674000  1.0
  C  C31  1  0.14665000  0.14142000  0.55861000  1.0
  C  C32  1  0.85334000  0.85858000  0.44139000  1.0
  C  C33  1  0.10278000  0.78550000  0.75353000  1.0
  C  C34  1  0.89722000  0.21450000  0.24645000  1.0
  C  C35  1  0.95899000  0.55160000  0.92458000  1.0
  C  C36  1  0.04099000  0.44841000  0.07541000  1.0
  C  C37  1  0.24772000  0.66769000  0.35138000  1.0
  C  C38  1  0.75230000  0.33229000  0.64863000  1.0
  C  C39  1  0.36728000  0.76951000  0.22522000  1.0
  C  C40  1  0.63274000  0.23047000  0.77479000  1.0
  C  C41  1  0.54235000  0.73049000  0.24487000  1.0
  C  C42  1  0.45767000  0.26950000  0.75515000  1.0
  C  C43  1  0.65119000  0.83284000  0.13748000  1.0
  C  C44  1  0.34883000  0.16716000  0.86254000  1.0
  C  C45  1  0.58821000  0.98106000  0.01019000  1.0
  C  C46  1  0.41181000  0.01893000  0.98982000  1.0
  C  C47  1  0.30453000  0.90809000  0.09773000  1.0
  C  C48  1  0.69549000  0.09190000  0.90228000  1.0
  N  N49  1  0.17023000  0.29659000  0.46322000  1.0
  N  N50  1  0.82976000  0.70342000  0.53677000  1.0
  N  N51  1  0.21427000  0.84571000  0.61158000  1.0
  N  N52  1  0.78572000  0.15430000  0.38841000  1.0
  N  N53  1  0.07898000  0.63329000  0.78889000  1.0
  N  N54  1  0.92100000  0.36673000  0.21110000  1.0
  O  O55  1  0.03499000  0.86126000  0.83824000  1.0
  O  O56  1  0.96502000  0.13875000  0.16175000  1.0
  O  O57  1  0.12249000  0.64970000  0.30946000  1.0
  O  O58  1  0.87752000  0.35029000  0.69055000  1.0
  O  O59  1  0.27007000  0.60455000  0.49396000  1.0
  O  O60  1  0.72995000  0.39542000  0.50605000  1.0
