# generated using pymatgen
data_LiH5C7O3
_symmetry_space_group_name_H-M   'P 1'
_cell_length_a   5.10534000
_cell_length_b   8.15044000
_cell_length_c   14.63540000
_cell_angle_alpha   84.60400000
_cell_angle_beta   89.99950000
_cell_angle_gamma   89.99980000
_symmetry_Int_Tables_number   1
_chemical_formula_structural   LiH5C7O3
_chemical_formula_sum   'Li4 H20 C28 O12'
_cell_volume   606.29150386
_cell_formula_units_Z   4
loop_
 _symmetry_equiv_pos_site_id
 _symmetry_equiv_pos_as_xyz
  1  'x, y, z'
loop_
 _atom_site_type_symbol
 _atom_site_label
 _atom_site_symmetry_multiplicity
 _atom_site_fract_x
 _atom_site_fract_y
 _atom_site_fract_z
 _atom_site_occupancy
  Li  Li0  1  0.99017000  0.49364000  0.59181000  1.0
  Li  Li1  1  0.49016000  0.50637000  0.90819000  1.0
  Li  Li2  1  0.00985000  0.50636000  0.40819000  1.0
  Li  Li3  1  0.50981000  0.49364000  0.09181000  1.0
  H  H4  1  0.26261000  0.42101000  0.74011000  1.0
  H  H5  1  0.76261000  0.57899000  0.75989000  1.0
  H  H6  1  0.73738000  0.57899000  0.25990000  1.0
  H  H7  1  0.23738000  0.42101000  0.24011000  1.0
  H  H8  1  0.44147000  0.51059000  0.66149000  1.0
  H  H9  1  0.94148000  0.48940000  0.83851000  1.0
  H  H10  1  0.55853000  0.48940000  0.33851000  1.0
  H  H11  1  0.05849000  0.51060000  0.16149000  1.0
  H  H12  1  0.34772000  0.77243000  0.71433000  1.0
  H  H13  1  0.84769000  0.22759000  0.78567000  1.0
  H  H14  1  0.65232000  0.22757000  0.28567000  1.0
  H  H15  1  0.15228000  0.77241000  0.21433000  1.0
  H  H16  1  0.27224000  0.07442000  0.69682000  1.0
  H  H17  1  0.77223000  0.92558000  0.80317000  1.0
  H  H18  1  0.72780000  0.92557000  0.30318000  1.0
  H  H19  1  0.22778000  0.07441000  0.19682000  1.0
  H  H20  1  0.56154000  0.25749000  0.59742000  1.0
  H  H21  1  0.06153000  0.74253000  0.90257000  1.0
  H  H22  1  0.43846000  0.74250000  0.40258000  1.0
  H  H23  1  0.93845000  0.25746000  0.09743000  1.0
  C  C24  1  0.03721000  0.82290000  0.50307000  1.0
  C  C25  1  0.53721000  0.17711000  0.99695000  1.0
  C  C26  1  0.96280000  0.17712000  0.49695000  1.0
  C  C27  1  0.46274000  0.82290000  0.00305000  1.0
  C  C28  1  0.84569000  0.88618000  0.56336000  1.0
  C  C29  1  0.34566000  0.11383000  0.93664000  1.0
  C  C30  1  0.15436000  0.11381000  0.43665000  1.0
  C  C31  1  0.65431000  0.88618000  0.06336000  1.0
  C  C32  1  0.68451000  0.77954000  0.62449000  1.0
  C  C33  1  0.18447000  0.22048000  0.87550000  1.0
  C  C34  1  0.31555000  0.22046000  0.37551000  1.0
  C  C35  1  0.81549000  0.77954000  0.12449000  1.0
  C  C36  1  0.47520000  0.85354000  0.67059000  1.0
  C  C37  1  0.97520000  0.14650000  0.82941000  1.0
  C  C38  1  0.52479000  0.14647000  0.32941000  1.0
  C  C39  1  0.02478000  0.85351000  0.17059000  1.0
  C  C40  1  0.43421000  0.02154000  0.66105000  1.0
  C  C41  1  0.93423000  0.97846000  0.83896000  1.0
  C  C42  1  0.56580000  0.97844000  0.33895000  1.0
  C  C43  1  0.06579000  0.02153000  0.16104000  1.0
  C  C44  1  0.59895000  0.12564000  0.60524000  1.0
  C  C45  1  0.09895000  0.87437000  0.89476000  1.0
  C  C46  1  0.40107000  0.87436000  0.39475000  1.0
  C  C47  1  0.90106000  0.12562000  0.10525000  1.0
  C  C48  1  0.80238000  0.05999000  0.55710000  1.0
  C  C49  1  0.30235000  0.94000000  0.94289000  1.0
  C  C50  1  0.19767000  0.94000000  0.44290000  1.0
  C  C51  1  0.69766000  0.05999000  0.05710000  1.0
  O  O52  1  0.06965000  0.66981000  0.49741000  1.0
  O  O53  1  0.56965000  0.33019000  0.00259000  1.0
  O  O54  1  0.93040000  0.33019000  0.50258000  1.0
  O  O55  1  0.43033000  0.66980000  0.99741000  1.0
  O  O56  1  0.72206000  0.62050000  0.64063000  1.0
  O  O57  1  0.22204000  0.37952000  0.85937000  1.0
  O  O58  1  0.27795000  0.37949000  0.35935000  1.0
  O  O59  1  0.77792000  0.62049000  0.14064000  1.0
  O  O60  1  0.27741000  0.44487000  0.67262000  1.0
  O  O61  1  0.77738000  0.55514000  0.82739000  1.0
  O  O62  1  0.72259000  0.55513000  0.32738000  1.0
  O  O63  1  0.22257000  0.44487000  0.17261000  1.0
