# generated using pymatgen
data_CoH16(C4N)4
_symmetry_space_group_name_H-M   'P 1'
_cell_length_a   7.12521000
_cell_length_b   18.56020000
_cell_length_c   18.56010000
_cell_angle_alpha   89.99990000
_cell_angle_beta   90.00010000
_cell_angle_gamma   89.99990000
_symmetry_Int_Tables_number   1
_chemical_formula_structural   CoH16(C4N)4
_chemical_formula_sum   'Co4 H64 C64 N16'
_cell_volume   2454.48641276
_cell_formula_units_Z   4
loop_
 _symmetry_equiv_pos_site_id
 _symmetry_equiv_pos_as_xyz
  1  'x, y, z'
loop_
 _atom_site_type_symbol
 _atom_site_label
 _atom_site_symmetry_multiplicity
 _atom_site_fract_x
 _atom_site_fract_y
 _atom_site_fract_z
 _atom_site_occupancy
  Co  Co0  1  0.25000000  0.25000000  0.25000000  1.0
  Co  Co1  1  0.75000000  0.75000000  0.75000000  1.0
  Co  Co2  1  0.25000000  0.75000000  0.75000000  1.0
  Co  Co3  1  0.75000000  0.25000000  0.25000000  1.0
  H  H4  1  0.06401000  0.39241000  0.32405000  1.0
  H  H5  1  0.18899000  0.47080000  0.35150000  1.0
  H  H6  1  0.20027000  0.43963000  0.26067000  1.0
  H  H7  1  0.77884000  0.48414000  0.42139000  1.0
  H  H8  1  0.06401000  0.10759000  0.17595000  1.0
  H  H9  1  0.18899000  0.02921000  0.14850000  1.0
  H  H10  1  0.20028000  0.06038000  0.23933000  1.0
  H  H11  1  0.77884000  0.01586000  0.07861000  1.0
  H  H12  1  0.56401000  0.82405000  0.60759000  1.0
  H  H13  1  0.68899000  0.85151000  0.52921000  1.0
  H  H14  1  0.70028000  0.76067000  0.56038000  1.0
  H  H15  1  0.27885000  0.92140000  0.51587000  1.0
  H  H16  1  0.56401000  0.67595000  0.89241000  1.0
  H  H17  1  0.68899000  0.64850000  0.97079000  1.0
  H  H18  1  0.70027000  0.73933000  0.93962000  1.0
  H  H19  1  0.27885000  0.57860000  0.98413000  1.0
  H  H20  1  0.43599000  0.60759000  0.82405000  1.0
  H  H21  1  0.31101000  0.52921000  0.85150000  1.0
  H  H22  1  0.29972000  0.56038000  0.76067000  1.0
  H  H23  1  0.72115000  0.51587000  0.92140000  1.0
  H  H24  1  0.43599000  0.89241000  0.67595000  1.0
  H  H25  1  0.31101000  0.97079000  0.64850000  1.0
  H  H26  1  0.29972000  0.93962000  0.73933000  1.0
  H  H27  1  0.72115000  0.98413000  0.57860000  1.0
  H  H28  1  0.93599000  0.17595000  0.10759000  1.0
  H  H29  1  0.81101000  0.14849000  0.02921000  1.0
  H  H30  1  0.79972000  0.23933000  0.06037000  1.0
  H  H31  1  0.22116000  0.07861000  0.01586000  1.0
  H  H32  1  0.93599000  0.32405000  0.39241000  1.0
  H  H33  1  0.81100000  0.35151000  0.47079000  1.0
  H  H34  1  0.79972000  0.26067000  0.43962000  1.0
  H  H35  1  0.22117000  0.42139000  0.48414000  1.0
  H  H36  1  0.93599000  0.60759000  0.67595000  1.0
  H  H37  1  0.81101000  0.52920000  0.64850000  1.0
  H  H38  1  0.79972000  0.56037000  0.73933000  1.0
  H  H39  1  0.22116000  0.51586000  0.57861000  1.0
  H  H40  1  0.93599000  0.89241000  0.82405000  1.0
  H  H41  1  0.81101000  0.97079000  0.85150000  1.0
  H  H42  1  0.79972000  0.93962000  0.76067000  1.0
  H  H43  1  0.22116000  0.98414000  0.92139000  1.0
  H  H44  1  0.43599000  0.17595000  0.39241000  1.0
  H  H45  1  0.31101000  0.14850000  0.47080000  1.0
  H  H46  1  0.29972000  0.23933000  0.43962000  1.0
  H  H47  1  0.72115000  0.07860000  0.48413000  1.0
  H  H48  1  0.43599000  0.32405000  0.10759000  1.0
  H  H49  1  0.31101000  0.35150000  0.02921000  1.0
  H  H50  1  0.29972000  0.26067000  0.06038000  1.0
  H  H51  1  0.72116000  0.42140000  0.01587000  1.0
  H  H52  1  0.56401000  0.39241000  0.17595000  1.0
  H  H53  1  0.68899000  0.47079000  0.14850000  1.0
  H  H54  1  0.70028000  0.43962000  0.23933000  1.0
  H  H55  1  0.27885000  0.48413000  0.07860000  1.0
  H  H56  1  0.56401000  0.10759000  0.32405000  1.0
  H  H57  1  0.68899000  0.02921000  0.35150000  1.0
  H  H58  1  0.70028000  0.06038000  0.26067000  1.0
  H  H59  1  0.27885000  0.01587000  0.42140000  1.0
  H  H60  1  0.06401000  0.82405000  0.89241000  1.0
  H  H61  1  0.18899000  0.85151000  0.97079000  1.0
  H  H62  1  0.20028000  0.76067000  0.93962000  1.0
  H  H63  1  0.77884000  0.92139000  0.98414000  1.0
  H  H64  1  0.06401000  0.67595000  0.60759000  1.0
  H  H65  1  0.18899000  0.64849000  0.52921000  1.0
  H  H66  1  0.20028000  0.73933000  0.56038000  1.0
  H  H67  1  0.77884000  0.57860000  0.51586000  1.0
  C  C68  1  0.19541000  0.42263000  0.31740000  1.0
  C  C69  1  0.36427000  0.37884000  0.33578000  1.0
  C  C70  1  0.65718000  0.49039000  0.45656000  1.0
  C  C71  1  0.19541000  0.07737000  0.18260000  1.0
  C  C72  1  0.36428000  0.12116000  0.16422000  1.0
  C  C73  1  0.65718000  0.00960000  0.04344000  1.0
  C  C74  1  0.69541000  0.81740000  0.57737000  1.0
  C  C75  1  0.86427000  0.83578000  0.62116000  1.0
  C  C76  1  0.15719000  0.95656000  0.50961000  1.0
  C  C77  1  0.69541000  0.68260000  0.92263000  1.0
  C  C78  1  0.86427000  0.66422000  0.87884000  1.0
  C  C79  1  0.15719000  0.54344000  0.99039000  1.0
  C  C80  1  0.30459000  0.57737000  0.81740000  1.0
  C  C81  1  0.13572000  0.62116000  0.83578000  1.0
  C  C82  1  0.84282000  0.50961000  0.95656000  1.0
  C  C83  1  0.30459000  0.92263000  0.68260000  1.0
  C  C84  1  0.13573000  0.87884000  0.66422000  1.0
  C  C85  1  0.84281000  0.99039000  0.54344000  1.0
  C  C86  1  0.80459000  0.18260000  0.07737000  1.0
  C  C87  1  0.63572000  0.16422000  0.12116000  1.0
  C  C88  1  0.34282000  0.04344000  0.00960000  1.0
  C  C89  1  0.80459000  0.31740000  0.42263000  1.0
  C  C90  1  0.63572000  0.33578000  0.37884000  1.0
  C  C91  1  0.34282000  0.45655000  0.49040000  1.0
  C  C92  1  0.80459000  0.57737000  0.68260000  1.0
  C  C93  1  0.63573000  0.62116000  0.66422000  1.0
  C  C94  1  0.34283000  0.50960000  0.54345000  1.0
  C  C95  1  0.80459000  0.92263000  0.81740000  1.0
  C  C96  1  0.63573000  0.87884000  0.83578000  1.0
  C  C97  1  0.34282000  0.99039000  0.95656000  1.0
  C  C98  1  0.30458000  0.18260000  0.42263000  1.0
  C  C99  1  0.13572000  0.16422000  0.37884000  1.0
  C  C100  1  0.84281000  0.04344000  0.49039000  1.0
  C  C101  1  0.30459000  0.31740000  0.07737000  1.0
  C  C102  1  0.13572000  0.33578000  0.12116000  1.0
  C  C103  1  0.84281000  0.45656000  0.00961000  1.0
  C  C104  1  0.69541000  0.42263000  0.18260000  1.0
  C  C105  1  0.86428000  0.37884000  0.16422000  1.0
  C  C106  1  0.15718000  0.49039000  0.04344000  1.0
  C  C107  1  0.69541000  0.07737000  0.31740000  1.0
  C  C108  1  0.86427000  0.12116000  0.33578000  1.0
  C  C109  1  0.15718000  0.00961000  0.45656000  1.0
  C  C110  1  0.19542000  0.81740000  0.92263000  1.0
  C  C111  1  0.36428000  0.83578000  0.87884000  1.0
  C  C112  1  0.65718000  0.95656000  0.99039000  1.0
  C  C113  1  0.19542000  0.68260000  0.57737000  1.0
  C  C114  1  0.36428000  0.66422000  0.62116000  1.0
  C  C115  1  0.65719000  0.54344000  0.50961000  1.0
  C  C116  1  0.50000000  0.39001000  0.39001000  1.0
  C  C117  1  0.50000000  0.44585000  0.44584000  1.0
  C  C118  1  0.50000000  0.10999000  0.10999000  1.0
  C  C119  1  0.50000000  0.05416000  0.05416000  1.0
  C  C120  1  1.00000000  0.89001000  0.60999000  1.0
  C  C121  1  0.00000000  0.94584000  0.55416000  1.0
  C  C122  1  0.00000000  0.60999000  0.89001000  1.0
  C  C123  1  0.00000000  0.55415000  0.94584000  1.0
  C  C124  1  0.50000000  0.60999000  0.60999000  1.0
  C  C125  1  0.50000000  0.55415000  0.55416000  1.0
  C  C126  1  0.50000000  0.89001000  0.89001000  1.0
  C  C127  1  0.50000000  0.94584000  0.94584000  1.0
  C  C128  1  0.00000000  0.10999000  0.39001000  1.0
  C  C129  1  0.99999000  0.05416000  0.44584000  1.0
  C  C130  1  0.00000000  0.39001000  0.10999000  1.0
  C  C131  1  0.00000000  0.44584000  0.05416000  1.0
  N  N132  1  0.41623000  0.32142000  0.29539000  1.0
  N  N133  1  0.41623000  0.17858000  0.20461000  1.0
  N  N134  1  0.91623000  0.79539000  0.67858000  1.0
  N  N135  1  0.91623000  0.70461000  0.82142000  1.0
  N  N136  1  0.08377000  0.67858000  0.79539000  1.0
  N  N137  1  0.08377000  0.82142000  0.70461000  1.0
  N  N138  1  0.58377000  0.20461000  0.17858000  1.0
  N  N139  1  0.58377000  0.29539000  0.32142000  1.0
  N  N140  1  0.58377000  0.67858000  0.70461000  1.0
  N  N141  1  0.58378000  0.82142000  0.79539000  1.0
  N  N142  1  0.08377000  0.20461000  0.32142000  1.0
  N  N143  1  0.08377000  0.29539000  0.17858000  1.0
  N  N144  1  0.91623000  0.32142000  0.20461000  1.0
  N  N145  1  0.91623000  0.17858000  0.29539000  1.0
  N  N146  1  0.41623000  0.79539000  0.82142000  1.0
  N  N147  1  0.41623000  0.70461000  0.67858000  1.0
