# generated using pymatgen
data_CuH8C9(NO)4
_symmetry_space_group_name_H-M   'P 1'
_cell_length_a   8.72767000
_cell_length_b   11.65580000
_cell_length_c   12.23180000
_cell_angle_alpha   85.20650000
_cell_angle_beta   85.41730000
_cell_angle_gamma   77.82460000
_symmetry_Int_Tables_number   1
_chemical_formula_structural   CuH8C9(NO)4
_chemical_formula_sum   'Cu4 H32 C36 N16 O16'
_cell_volume   1209.59352490
_cell_formula_units_Z   4
loop_
 _symmetry_equiv_pos_site_id
 _symmetry_equiv_pos_as_xyz
  1  'x, y, z'
loop_
 _atom_site_type_symbol
 _atom_site_label
 _atom_site_symmetry_multiplicity
 _atom_site_fract_x
 _atom_site_fract_y
 _atom_site_fract_z
 _atom_site_occupancy
  Cu  Cu0  1  0.12723000  0.25919000  0.49117000  1.0
  Cu  Cu1  1  0.87258000  0.74053000  0.50901000  1.0
  Cu  Cu2  1  0.28885000  0.20932000  0.04503000  1.0
  Cu  Cu3  1  0.71122000  0.79077000  0.95470000  1.0
  H  H4  1  0.79668000  0.34584000  0.63421000  1.0
  H  H5  1  0.20378000  0.65437000  0.36546000  1.0
  H  H6  1  0.73250000  0.21640000  0.82592000  1.0
  H  H7  1  0.26759000  0.78393000  0.17372000  1.0
  H  H8  1  0.95205000  0.00903000  0.81413000  1.0
  H  H9  1  0.04799000  0.99123000  0.18575000  1.0
  H  H10  1  0.16274000  0.92639000  0.66892000  1.0
  H  H11  1  0.83706000  0.07353000  0.33109000  1.0
  H  H12  1  0.13258000  0.99702000  0.53414000  1.0
  H  H13  1  0.86756000  0.00283000  0.46581000  1.0
  H  H14  1  0.44006000  0.92524000  0.72738000  1.0
  H  H15  1  0.56037000  0.07461000  0.27256000  1.0
  H  H16  1  0.65413000  0.06615000  0.67105000  1.0
  H  H17  1  0.34588000  0.93401000  0.32881000  1.0
  H  H18  1  0.49501000  0.24530000  0.53255000  1.0
  H  H19  1  0.50457000  0.75479000  0.46743000  1.0
  H  H20  1  0.57880000  0.34603000  0.99842000  1.0
  H  H21  1  0.42072000  0.65381000  0.00205000  1.0
  H  H22  1  0.58191000  0.50554000  0.81574000  1.0
  H  H23  1  0.41817000  0.49411000  0.18467000  1.0
  H  H24  1  0.34043000  0.46516000  0.69707000  1.0
  H  H25  1  0.65990000  0.53450000  0.30304000  1.0
  H  H26  1  0.14609000  0.33232000  0.72876000  1.0
  H  H27  1  0.85405000  0.66760000  0.27116000  1.0
  H  H28  1  0.21115000  0.20069000  0.81796000  1.0
  H  H29  1  0.78863000  0.79921000  0.18208000  1.0
  H  H30  1  0.89153000  0.46515000  0.80442000  1.0
  H  H31  1  0.10820000  0.53479000  0.19547000  1.0
  H  H32  1  0.73663000  0.48414000  0.00863000  1.0
  H  H33  1  0.26328000  0.51588000  0.99137000  1.0
  H  H34  1  0.93209000  0.32643000  0.14372000  1.0
  H  H35  1  0.06810000  0.67378000  0.85622000  1.0
  C  C36  1  0.85517000  0.25881000  0.66465000  1.0
  C  C37  1  0.14511000  0.74136000  0.33505000  1.0
  C  C38  1  0.82452000  0.19245000  0.76226000  1.0
  C  C39  1  0.17563000  0.80781000  0.23745000  1.0
  C  C40  1  0.93589000  0.08820000  0.75948000  1.0
  C  C41  1  0.06418000  0.91201000  0.24035000  1.0
  C  C42  1  0.15445000  0.00949000  0.61910000  1.0
  C  C43  1  0.84561000  0.99038000  0.38086000  1.0
  C  C44  1  0.43209000  0.00350000  0.67156000  1.0
  C  C45  1  0.56812000  0.99635000  0.32836000  1.0
  C  C46  1  0.53696000  0.07714000  0.64312000  1.0
  C  C47  1  0.46305000  0.92288000  0.35679000  1.0
  C  C48  1  0.45771000  0.16830000  0.57278000  1.0
  C  C49  1  0.54211000  0.83170000  0.42720000  1.0
  C  C50  1  0.50595000  0.36253000  0.92876000  1.0
  C  C51  1  0.49382000  0.63726000  0.07158000  1.0
  C  C52  1  0.50692000  0.44202000  0.83532000  1.0
  C  C53  1  0.49310000  0.55767000  0.16498000  1.0
  C  C54  1  0.38631000  0.42550000  0.77452000  1.0
  C  C55  1  0.61385000  0.57421000  0.22564000  1.0
  C  C56  1  0.18278000  0.29730000  0.81058000  1.0
  C  C57  1  0.81712000  0.70261000  0.18938000  1.0
  C  C58  1  0.92338000  0.41920000  0.88266000  1.0
  C  C59  1  0.07643000  0.58081000  0.11724000  1.0
  C  C60  1  0.84736000  0.42677000  0.98656000  1.0
  C  C61  1  0.15254000  0.57326000  0.01337000  1.0
  C  C62  1  0.94613000  0.34694000  0.05587000  1.0
  C  C63  1  0.05389000  0.65318000  0.94406000  1.0
  C  C64  1  0.25647000  0.28676000  0.27499000  1.0
  C  C65  1  0.74342000  0.71356000  0.72564000  1.0
  C  C66  1  0.17674000  0.17939000  0.26839000  1.0
  C  C67  1  0.82333000  0.82093000  0.73136000  1.0
  C  C68  1  0.55187000  0.01852000  0.04150000  1.0
  C  C69  1  0.44781000  0.98112000  0.95764000  1.0
  C  C70  1  0.94239000  0.48947000  0.45829000  1.0
  C  C71  1  0.05783000  0.51077000  0.54248000  1.0
  N  N72  1  0.97750000  0.19894000  0.60495000  1.0
  N  N73  1  0.02274000  0.80108000  0.39482000  1.0
  N  N74  1  0.02484000  0.09506000  0.66396000  1.0
  N  N75  1  0.97529000  0.90497000  0.33589000  1.0
  N  N76  1  0.31357000  0.15128000  0.55807000  1.0
  N  N77  1  0.68632000  0.84853000  0.44198000  1.0
  N  N78  1  0.29997000  0.05058000  0.61873000  1.0
  N  N79  1  0.70016000  0.94919000  0.38128000  1.0
  N  N80  1  0.39276000  0.30122000  0.92511000  1.0
  N  N81  1  0.60694000  0.69864000  0.07509000  1.0
  N  N82  1  0.32169000  0.33987000  0.83069000  1.0
  N  N83  1  0.67825000  0.65992000  0.16941000  1.0
  N  N84  1  0.07464000  0.29321000  0.99805000  1.0
  N  N85  1  0.92535000  0.70694000  0.00184000  1.0
  N  N86  1  0.05846000  0.33766000  0.89265000  1.0
  N  N87  1  0.94141000  0.66240000  0.10724000  1.0
  O  O88  1  0.26439000  0.32102000  0.37075000  1.0
  O  O89  1  0.73562000  0.67831000  0.63035000  1.0
  O  O90  1  0.10931000  0.14033000  0.35381000  1.0
  O  O91  1  0.89035000  0.85957000  0.64553000  1.0
  O  O92  1  0.30662000  0.33365000  0.18711000  1.0
  O  O93  1  0.69303000  0.66750000  0.81395000  1.0
  O  O94  1  0.18302000  0.13711000  0.17456000  1.0
  O  O95  1  0.81765000  0.86354000  0.82493000  1.0
  O  O96  1  0.85010000  0.57740000  0.41726000  1.0
  O  O97  1  0.15010000  0.42288000  0.58357000  1.0
  O  O98  1  0.94736000  0.38366000  0.43606000  1.0
  O  O99  1  0.05271000  0.61664000  0.56456000  1.0
  O  O100  1  0.49836000  0.11606000  0.08587000  1.0
  O  O101  1  0.50167000  0.88358000  0.91332000  1.0
  O  O102  1  0.68113000  0.95226000  0.06160000  1.0
  O  O103  1  0.31852000  0.04723000  0.93755000  1.0
