# generated using pymatgen
data_CdH16C16N4O7
_symmetry_space_group_name_H-M   'P 1'
_cell_length_a   7.91937000
_cell_length_b   8.02265678
_cell_length_c   16.45320000
_cell_angle_alpha   80.48003643
_cell_angle_beta   89.85750000
_cell_angle_gamma   62.98582236
_symmetry_Int_Tables_number   1
_chemical_formula_structural   CdH16C16N4O7
_chemical_formula_sum   'Cd2 H32 C32 N8 O14'
_cell_volume   915.32125775
_cell_formula_units_Z   2
loop_
 _symmetry_equiv_pos_site_id
 _symmetry_equiv_pos_as_xyz
  1  'x, y, z'
loop_
 _atom_site_type_symbol
 _atom_site_label
 _atom_site_symmetry_multiplicity
 _atom_site_fract_x
 _atom_site_fract_y
 _atom_site_fract_z
 _atom_site_occupancy
  Cd  Cd0  1  0.59203000  0.02715000  0.26433000  1.0
  Cd  Cd1  1  0.40798000  0.97285000  0.73567000  1.0
  H  H2  1  0.15006000  0.06038000  0.22141000  1.0
  H  H3  1  0.84994000  0.93962000  0.77859000  1.0
  H  H4  1  0.27524000  0.84745000  0.25346000  1.0
  H  H5  1  0.72476000  0.15255000  0.74654000  1.0
  H  H6  1  0.15165000  0.79870000  0.14821000  1.0
  H  H7  1  0.84832000  0.20131000  0.85179000  1.0
  H  H8  1  0.03919000  0.25230000  0.31676000  1.0
  H  H9  1  0.96082000  0.74769000  0.68324000  1.0
  H  H10  1  0.34365000  0.23730000  0.86754000  1.0
  H  H11  1  0.65636000  0.76269000  0.13246000  1.0
  H  H12  1  0.24710000  0.27123000  0.01020000  1.0
  H  H13  1  0.75289000  0.72878000  0.98979000  1.0
  H  H14  1  0.18808000  0.01523000  0.09509000  1.0
  H  H15  1  0.81188000  0.98480000  0.90490000  1.0
  H  H16  1  0.32988000  0.72037000  0.88903000  1.0
  H  H17  1  0.67012000  0.27962000  0.11097000  1.0
  H  H18  1  0.03741000  0.51202000  0.11772000  1.0
  H  H19  1  0.96257000  0.48798000  0.88228000  1.0
  H  H20  1  0.01323000  0.61490000  0.20768000  1.0
  H  H21  1  0.98677000  0.38510000  0.79232000  1.0
  H  H22  1  0.57607000  0.71054000  0.60341000  1.0
  H  H23  1  0.42395000  0.28946000  0.39658000  1.0
  H  H24  1  0.51681000  0.70099000  0.45606000  1.0
  H  H25  1  0.48319000  0.29902000  0.54393000  1.0
  H  H26  1  0.22556000  0.96567000  0.37385000  1.0
  H  H27  1  0.77442000  0.03435000  0.62615000  1.0
  H  H28  1  0.08558000  0.22361000  0.59128000  1.0
  H  H29  1  0.91444000  0.77638000  0.40872000  1.0
  H  H30  1  0.62924000  0.41785000  0.34210000  1.0
  H  H31  1  0.37077000  0.58215000  0.65790000  1.0
  H  H32  1  0.73335000  0.40149000  0.24737000  1.0
  H  H33  1  0.26665000  0.59851000  0.75263000  1.0
  C  C34  1  0.31570000  0.12961000  0.90598000  1.0
  C  C35  1  0.68430000  0.87038000  0.09402000  1.0
  C  C36  1  0.26302000  0.14659000  0.98601000  1.0
  C  C37  1  0.73697000  0.85342000  0.01399000  1.0
  C  C38  1  0.23085000  0.00355000  0.03242000  1.0
  C  C39  1  0.76913000  0.99646000  0.96758000  1.0
  C  C40  1  0.25423000  0.84647000  0.99812000  1.0
  C  C41  1  0.74575000  0.15354000  0.00189000  1.0
  C  C42  1  0.30782000  0.84146000  0.91723000  1.0
  C  C43  1  0.69219000  0.15853000  0.08277000  1.0
  C  C44  1  0.21941000  0.68481000  0.04038000  1.0
  C  C45  1  0.78058000  0.31518000  0.95962000  1.0
  C  C46  1  0.11115000  0.55278000  0.16100000  1.0
  C  C47  1  0.88884000  0.44722000  0.83900000  1.0
  C  C48  1  0.27584000  0.37138000  0.20698000  1.0
  C  C49  1  0.72415000  0.62862000  0.79302000  1.0
  C  C50  1  0.45201000  0.82441000  0.56535000  1.0
  C  C51  1  0.54800000  0.17559000  0.43464000  1.0
  C  C52  1  0.41877000  0.82094000  0.48300000  1.0
  C  C53  1  0.58124000  0.17906000  0.51700000  1.0
  C  C54  1  0.25733000  0.97011000  0.43761000  1.0
  C  C55  1  0.74267000  0.02989000  0.56239000  1.0
  C  C56  1  0.13478000  0.11961000  0.47569000  1.0
  C  C57  1  0.86522000  0.88039000  0.52431000  1.0
  C  C58  1  0.17786000  0.11113000  0.55910000  1.0
  C  C59  1  0.82214000  0.88887000  0.44090000  1.0
  C  C60  1  0.95134000  0.28193000  0.43461000  1.0
  C  C61  1  0.04867000  0.71807000  0.56539000  1.0
  C  C62  1  0.74208000  0.43471000  0.30891000  1.0
  C  C63  1  0.25794000  0.56528000  0.69109000  1.0
  C  C64  1  0.69682000  0.64306000  0.29706000  1.0
  C  C65  1  0.30319000  0.35694000  0.70294000  1.0
  N  N66  1  0.33591000  0.98081000  0.87181000  1.0
  N  N67  1  0.66409000  0.01919000  0.12819000  1.0
  N  N68  1  0.16129000  0.69334000  0.11753000  1.0
  N  N69  1  0.83869000  0.30666000  0.88247000  1.0
  N  N70  1  0.33262000  0.96638000  0.60287000  1.0
  N  N71  1  0.66738000  0.03362000  0.39712000  1.0
  N  N72  1  0.92506000  0.30207000  0.35131000  1.0
  N  N73  1  0.07495000  0.69793000  0.64869000  1.0
  O  O74  1  0.23785000  0.55460000  0.00332000  1.0
  O  O75  1  0.76213000  0.44541000  0.99668000  1.0
  O  O76  1  0.14404000  0.93884000  0.23036000  1.0
  O  O77  1  0.85598000  0.06115000  0.76964000  1.0
  O  O78  1  0.43889000  0.36164000  0.21627000  1.0
  O  O79  1  0.56111000  0.63836000  0.78373000  1.0
  O  O80  1  0.24081000  0.23228000  0.23628000  1.0
  O  O81  1  0.75919000  0.76771000  0.76372000  1.0
  O  O82  1  0.52126000  0.76750000  0.28227000  1.0
  O  O83  1  0.47876000  0.23250000  0.71772000  1.0
  O  O84  1  0.82996000  0.68845000  0.29867000  1.0
  O  O85  1  0.17005000  0.31155000  0.70134000  1.0
  O  O86  1  0.82682000  0.38316000  0.47596000  1.0
  O  O87  1  0.17319000  0.61685000  0.52405000  1.0
