# generated using pymatgen
data_Zn2H21C22N8Cl
_symmetry_space_group_name_H-M   'P 1'
_cell_length_a   13.00380000
_cell_length_b   13.32800000
_cell_length_c   14.45690000
_cell_angle_alpha   98.35140000
_cell_angle_beta   114.48200000
_cell_angle_gamma   108.86700000
_symmetry_Int_Tables_number   1
_chemical_formula_structural   Zn2H21C22N8Cl
_chemical_formula_sum   'Zn4 H42 C44 N16 Cl2'
_cell_volume   2041.20977737
_cell_formula_units_Z   2
loop_
 _symmetry_equiv_pos_site_id
 _symmetry_equiv_pos_as_xyz
  1  'x, y, z'
loop_
 _atom_site_type_symbol
 _atom_site_label
 _atom_site_symmetry_multiplicity
 _atom_site_fract_x
 _atom_site_fract_y
 _atom_site_fract_z
 _atom_site_occupancy
  Zn  Zn0  1  0.61217000  0.62287000  0.01006000  1.0
  Zn  Zn1  1  0.39278000  0.33743000  0.02342000  1.0
  Zn  Zn2  1  0.29541000  0.51814000  0.85183000  1.0
  Zn  Zn3  1  0.68649000  0.46318000  0.15871000  1.0
  H  H4  1  0.64155000  0.82794000  0.17275000  1.0
  H  H5  1  0.68599000  0.64744000  0.66822000  1.0
  H  H6  1  0.07466000  0.95125000  0.67958000  1.0
  H  H7  1  0.14166000  0.87331000  0.49377000  1.0
  H  H8  1  0.52074000  0.44634000  0.45038000  1.0
  H  H9  1  0.25344000  0.03573000  0.64281000  1.0
  H  H10  1  0.47857000  0.46547000  0.59334000  1.0
  H  H11  1  0.88235000  0.51029000  0.59751000  1.0
  H  H12  1  0.96839000  0.02350000  0.33972000  1.0
  H  H13  1  0.32176000  0.59779000  0.34668000  1.0
  H  H14  1  0.83918000  0.96859000  0.36027000  1.0
  H  H15  1  0.44700000  0.72831000  0.38672000  1.0
  H  H16  1  0.93812000  0.11646000  0.51933000  1.0
  H  H17  1  0.46870000  0.77776000  0.55852000  1.0
  H  H18  1  0.06111000  0.17541000  0.49266000  1.0
  H  H19  1  0.32877000  0.65720000  0.51016000  1.0
  H  H20  1  0.14329000  0.95816000  0.41112000  1.0
  H  H21  1  0.36553000  0.42387000  0.36727000  1.0
  H  H22  1  0.30541000  0.46234000  0.18038000  1.0
  H  H23  1  0.82141000  0.85766000  0.18318000  1.0
  H  H24  1  0.24286000  0.12032000  0.55934000  1.0
  H  H25  1  0.33780000  0.47310000  0.51398000  1.0
  H  H26  1  0.89455000  0.40581000  0.90629000  1.0
  H  H27  1  0.83748000  0.84617000  0.47454000  1.0
  H  H28  1  0.62533000  0.99990000  0.15637000  1.0
  H  H29  1  0.07230000  0.44113000  0.88973000  1.0
  H  H30  1  0.23889000  0.67960000  0.97722000  1.0
  H  H31  1  0.93171000  0.65644000  0.37974000  1.0
  H  H32  1  0.70953000  0.61909000  0.36045000  1.0
  H  H33  1  0.67063000  0.75093000  0.49869000  1.0
  H  H34  1  0.61621000  0.50808000  0.80419000  1.0
  H  H35  1  0.34618000  0.09031000  0.02391000  1.0
  H  H36  1  0.22044000  0.10853000  0.83818000  1.0
  H  H37  1  0.68937000  0.72421000  0.83733000  1.0
  H  H38  1  0.28579000  0.56294000  0.64656000  1.0
  H  H39  1  0.17260000  0.32844000  0.64739000  1.0
  H  H40  1  0.74561000  0.23936000  0.23855000  1.0
  H  H41  1  0.78203000  0.34615000  0.02413000  1.0
  H  H42  1  0.95462000  0.79807000  0.52432000  1.0
  H  H43  1  0.69923000  0.63174000  0.51362000  1.0
  H  H44  1  0.95110000  0.99262000  0.63749000  1.0
  H  H45  1  0.67642000  0.77617000  0.66430000  1.0
  C  C46  1  0.54327000  0.77481000  0.11778000  1.0
  C  C47  1  0.54222000  0.11692000  0.13641000  1.0
  C  C48  1  0.72779000  0.41836000  0.88880000  1.0
  C  C49  1  0.16503000  0.17571000  0.69966000  1.0
  C  C50  1  0.49179000  0.64724000  0.69928000  1.0
  C  C51  1  0.93842000  0.87132000  0.50831000  1.0
  C  C52  1  0.63510000  0.66996000  0.51100000  1.0
  C  C53  1  0.94746000  0.49791000  0.66666667  1.0
  C  C54  1  0.01374000  0.97208000  0.61345000  1.0
  C  C55  1  0.63241000  0.68649000  0.61804000  1.0
  C  C56  1  0.11742000  0.94171000  0.47264000  1.0
  C  C57  1  0.45411000  0.48385000  0.43857000  1.0
  C  C58  1  0.94129000  0.99841000  0.39845000  1.0
  C  C59  1  0.41806000  0.65369000  0.41027000  1.0
  C  C60  1  0.97474000  0.90090000  0.42317000  1.0
  C  C61  1  0.50346000  0.59419000  0.41523000  1.0
  C  C62  1  0.09426000  0.07608000  0.59924000  1.0
  C  C63  1  0.49732000  0.63458000  0.59682000  1.0
  C  C64  1  0.18736000  0.04765000  0.57245000  1.0
  C  C65  1  0.43742000  0.50678000  0.53736000  1.0
  C  C66  1  0.40516000  0.49230000  0.21024000  1.0
  C  C67  1  0.83475000  0.79219000  0.21676000  1.0
  C  C68  1  0.00690000  0.09921000  0.50238000  1.0
  C  C69  1  0.64876000  0.22074000  0.18515000  1.0
  C  C70  1  0.42344000  0.68616000  0.52053000  1.0
  C  C71  1  0.81344000  0.41533000  0.84995000  1.0
  C  C72  1  0.53848000  0.00770000  0.13847000  1.0
  C  C73  1  0.81953000  0.43666000  0.76292000  1.0
  C  C74  1  0.43988000  0.91051000  0.11150000  1.0
  C  C75  1  0.73051000  0.38863000  0.97928000  1.0
  C  C76  1  0.04243000  0.46291000  0.81632000  1.0
  C  C77  1  0.33745000  0.69837000  0.02017000  1.0
  C  C78  1  0.89193000  0.69032000  0.31668000  1.0
  C  C79  1  0.61116000  0.57203000  0.30193000  1.0
  C  C80  1  0.43994000  0.80054000  0.09139000  1.0
  C  C81  1  0.92688000  0.46047000  0.74722000  1.0
  C  C82  1  0.50612000  0.56183000  0.31237000  1.0
  C  C83  1  0.90611000  0.80055000  0.32378000  1.0
  C  C84  1  0.64592000  0.47094000  0.86658000  1.0
  C  C85  1  0.44473000  0.14439000  0.07613000  1.0
  C  C86  1  0.21990000  0.17726000  0.80611000  1.0
  C  C87  1  0.58904000  0.68380000  0.80536000  1.0
  C  C88  1  0.38389000  0.60045000  0.70757000  1.0
  C  C89  1  0.19693000  0.28957000  0.70946000  1.0
  N  N90  1  0.50518000  0.66706000  0.06342000  1.0
  N  N91  1  0.37754000  0.61958000  0.00305000  1.0
  N  N92  1  0.12175000  0.49901000  0.77830000  1.0
  N  N93  1  0.81562000  0.62169000  0.21392000  1.0
  N  N94  1  0.57576000  0.51116000  0.20224000  1.0
  N  N95  1  0.60806000  0.47598000  0.94081000  1.0
  N  N96  1  0.49012000  0.25443000  0.08869000  1.0
  N  N97  1  0.06426000  0.52113000  0.68561000  1.0
  N  N98  1  0.27903000  0.28446000  0.87351000  1.0
  N  N99  1  0.54248000  0.65887000  0.87158000  1.0
  N  N100  1  0.41508000  0.60654000  0.81004000  1.0
  N  N101  1  0.26504000  0.35409000  0.81342000  1.0
  N  N102  1  0.61659000  0.30260000  0.15735000  1.0
  N  N103  1  0.65945000  0.42357000  0.00940000  1.0
  N  N104  1  0.44869000  0.46221000  0.14558000  1.0
  N  N105  1  0.77879000  0.68504000  0.15107000  1.0
  Cl  Cl106  1  0.69247000  0.44471000  0.66101000  1.0
  Cl  Cl107  1  0.29430000  0.90773000  0.08268000  1.0
