# generated using pymatgen
data_ErH14C15(NO4)2
_symmetry_space_group_name_H-M   'P 1'
_cell_length_a   8.57633000
_cell_length_b   10.22730000
_cell_length_c   10.82400000
_cell_angle_alpha   66.00220000
_cell_angle_beta   68.78720000
_cell_angle_gamma   78.61210000
_symmetry_Int_Tables_number   1
_chemical_formula_structural   ErH14C15(NO4)2
_chemical_formula_sum   'Er2 H28 C30 N4 O16'
_cell_volume   807.15776308
_cell_formula_units_Z   2
loop_
 _symmetry_equiv_pos_site_id
 _symmetry_equiv_pos_as_xyz
  1  'x, y, z'
loop_
 _atom_site_type_symbol
 _atom_site_label
 _atom_site_symmetry_multiplicity
 _atom_site_fract_x
 _atom_site_fract_y
 _atom_site_fract_z
 _atom_site_occupancy
  Er  Er0  1  0.65910000  0.43884000  0.14895000  1.0
  Er  Er1  1  0.34090000  0.56116000  0.85105000  1.0
  H  H2  1  0.92206000  0.58517000  0.87703000  1.0
  H  H3  1  0.07795000  0.41482000  0.12297000  1.0
  H  H4  1  0.75934000  0.56975000  0.84529000  1.0
  H  H5  1  0.24066000  0.43025000  0.15471000  1.0
  H  H6  1  0.22304000  0.63910000  0.47829000  1.0
  H  H7  1  0.77696000  0.36090000  0.52170000  1.0
  H  H8  1  0.07559000  0.32277000  0.38229000  1.0
  H  H9  1  0.92441000  0.67723000  0.61770000  1.0
  H  H10  1  0.72271000  0.80589000  0.98151000  1.0
  H  H11  1  0.27728000  0.19411000  0.01850000  1.0
  H  H12  1  0.21648000  0.97385000  0.00297000  1.0
  H  H13  1  0.78350000  0.02616000  0.99703000  1.0
  H  H14  1  0.16457000  0.13581000  0.25070000  1.0
  H  H15  1  0.83544000  0.86419000  0.74930000  1.0
  H  H16  1  0.69294000  0.05549000  0.58596000  1.0
  H  H17  1  0.30707000  0.94451000  0.41403000  1.0
  H  H18  1  0.68780000  0.82045000  0.44497000  1.0
  H  H19  1  0.31220000  0.17955000  0.55503000  1.0
  H  H20  1  0.63050000  0.93181000  0.28988000  1.0
  H  H21  1  0.36951000  0.06819000  0.71012000  1.0
  H  H22  1  0.91846000  0.97395000  0.17501000  1.0
  H  H23  1  0.08155000  0.02605000  0.82499000  1.0
  H  H24  1  0.97979000  0.82393000  0.31019000  1.0
  H  H25  1  0.02021000  0.17606000  0.68981000  1.0
  H  H26  1  0.56866000  0.66453000  0.35936000  1.0
  H  H27  1  0.43134000  0.33548000  0.64063000  1.0
  H  H28  1  0.04471000  0.74549000  0.09909000  1.0
  H  H29  1  0.95530000  0.25451000  0.90091000  1.0
  C  C30  1  0.34147000  0.45817000  0.33495000  1.0
  C  C31  1  0.65852000  0.54183000  0.66504000  1.0
  C  C32  1  0.16553000  0.48014000  0.42041000  1.0
  C  C33  1  0.83447000  0.51987000  0.57958000  1.0
  C  C34  1  0.12454000  0.57941000  0.48772000  1.0
  C  C35  1  0.87546000  0.42060000  0.51228000  1.0
  C  C36  1  0.04064000  0.40106000  0.43331000  1.0
  C  C37  1  0.95936000  0.59895000  0.56669000  1.0
  C  C38  1  0.43234000  0.74484000  0.98052000  1.0
  C  C39  1  0.56765000  0.25516000  0.01948000  1.0
  C  C40  1  0.46581000  0.87633000  0.99192000  1.0
  C  C41  1  0.53418000  0.12367000  0.00809000  1.0
  C  C42  1  0.62566000  0.89126000  0.98996000  1.0
  C  C43  1  0.37433000  0.10874000  0.01005000  1.0
  C  C44  1  0.34033000  0.98564000  0.00202000  1.0
  C  C45  1  0.65966000  0.01436000  0.99799000  1.0
  C  C46  1  0.83376000  0.22425000  0.31352000  1.0
  C  C47  1  0.16624000  0.77574000  0.68648000  1.0
  C  C48  1  0.91997000  0.10717000  0.40864000  1.0
  C  C49  1  0.08004000  0.89282000  0.59135000  1.0
  C  C50  1  0.09307000  0.07591000  0.35992000  1.0
  C  C51  1  0.90694000  0.92409000  0.64008000  1.0
  C  C52  1  0.82732000  0.03036000  0.54946000  1.0
  C  C53  1  0.17269000  0.96963000  0.45053000  1.0
  C  C54  1  0.80451000  0.68032000  0.21207000  1.0
  C  C55  1  0.19550000  0.31968000  0.78793000  1.0
  C  C56  1  0.71080000  0.83851000  0.33286000  1.0
  C  C57  1  0.28921000  0.16149000  0.66714000  1.0
  C  C58  1  0.89812000  0.86063000  0.24260000  1.0
  C  C59  1  0.10189000  0.13937000  0.75740000  1.0
  N  N60  1  0.67955000  0.71214000  0.31666000  1.0
  N  N61  1  0.32046000  0.28786000  0.68333000  1.0
  N  N62  1  0.92915000  0.77163000  0.15794000  1.0
  N  N63  1  0.07086000  0.22836000  0.84206000  1.0
  O  O64  1  0.37274000  0.37885000  0.26069000  1.0
  O  O65  1  0.62725000  0.62116000  0.73931000  1.0
  O  O66  1  0.82744000  0.52380000  0.91115000  1.0
  O  O67  1  0.17256000  0.47619000  0.08885000  1.0
  O  O68  1  0.45924000  0.51845000  0.33273000  1.0
  O  O69  1  0.54076000  0.48155000  0.66727000  1.0
  O  O70  1  0.51552000  0.62903000  0.02770000  1.0
  O  O71  1  0.48449000  0.37098000  0.97229000  1.0
  O  O72  1  0.32399000  0.75445000  0.92122000  1.0
  O  O73  1  0.67600000  0.24554000  0.07880000  1.0
  O  O74  1  0.67653000  0.25115000  0.36222000  1.0
  O  O75  1  0.32348000  0.74885000  0.63779000  1.0
  O  O76  1  0.91749000  0.29727000  0.18508000  1.0
  O  O77  1  0.08250000  0.70273000  0.81492000  1.0
  O  O78  1  0.80755000  0.58314000  0.16760000  1.0
  O  O79  1  0.19245000  0.41686000  0.83240000  1.0
