# generated using pymatgen
data_Ag2H15C21S2N3O7
_symmetry_space_group_name_H-M   'P 1'
_cell_length_a   8.24139000
_cell_length_b   10.91340000
_cell_length_c   12.08290000
_cell_angle_alpha   70.18110000
_cell_angle_beta   83.41380000
_cell_angle_gamma   82.68700000
_symmetry_Int_Tables_number   1
_chemical_formula_structural   Ag2H15C21S2N3O7
_chemical_formula_sum   'Ag4 H30 C42 S4 N6 O14'
_cell_volume   1011.08429510
_cell_formula_units_Z   2
loop_
 _symmetry_equiv_pos_site_id
 _symmetry_equiv_pos_as_xyz
  1  'x, y, z'
loop_
 _atom_site_type_symbol
 _atom_site_label
 _atom_site_symmetry_multiplicity
 _atom_site_fract_x
 _atom_site_fract_y
 _atom_site_fract_z
 _atom_site_occupancy
  Ag  Ag0  1  0.34660000  0.01970000  0.66732000  1.0
  Ag  Ag1  1  0.65340000  0.98030000  0.33268000  1.0
  Ag  Ag2  1  0.15736000  0.40355000  0.42851000  1.0
  Ag  Ag3  1  0.84264000  0.59645000  0.57149000  1.0
  H  H4  1  0.80218000  0.71224000  0.05041000  1.0
  H  H5  1  0.19782000  0.28776000  0.94959000  1.0
  H  H6  1  0.87917000  0.18756000  0.57618000  1.0
  H  H7  1  0.12083000  0.81244000  0.42382000  1.0
  H  H8  1  0.17528000  0.12970000  0.43100000  1.0
  H  H9  1  0.82472000  0.87030000  0.56900000  1.0
  H  H10  1  0.47646000  0.73130000  0.78829000  1.0
  H  H11  1  0.52355000  0.26870000  0.21170000  1.0
  H  H12  1  0.54813000  0.07395000  0.84387000  1.0
  H  H13  1  0.45186000  0.92605000  0.15614000  1.0
  H  H14  1  0.43894000  0.38042000  0.79909000  1.0
  H  H15  1  0.56106000  0.61959000  0.20091000  1.0
  H  H16  1  0.86757000  0.20611000  0.98828000  1.0
  H  H17  1  0.13243000  0.79389000  0.01172000  1.0
  H  H18  1  0.06664000  0.99469000  0.33177000  1.0
  H  H19  1  0.93336000  0.00530000  0.66823000  1.0
  H  H20  1  0.90804000  0.10180000  0.15736000  1.0
  H  H21  1  0.09196000  0.89820000  0.84264000  1.0
  H  H22  1  0.37077000  0.31098000  0.63610000  1.0
  H  H23  1  0.62924000  0.68902000  0.36390000  1.0
  H  H24  1  0.74316000  0.95467000  0.99947000  1.0
  H  H25  1  0.25684000  0.04532000  0.00054000  1.0
  H  H26  1  0.59460000  0.55665000  0.78532000  1.0
  H  H27  1  0.40541000  0.44335000  0.21468000  1.0
  H  H28  1  0.95901000  0.47243000  0.19999000  1.0
  H  H29  1  0.04098000  0.52757000  0.80001000  1.0
  H  H30  1  0.15086000  0.44104000  0.63859000  1.0
  H  H31  1  0.84914000  0.55896000  0.36142000  1.0
  H  H32  1  0.26913000  0.55129000  0.56834000  1.0
  H  H33  1  0.73087000  0.44872000  0.43166000  1.0
  C  C34  1  0.82030000  0.25636000  0.72438000  1.0
  C  C35  1  0.17970000  0.74364000  0.27562000  1.0
  C  C36  1  0.71833000  0.76733000  0.98339000  1.0
  C  C37  1  0.28167000  0.23267000  0.01661000  1.0
  C  C38  1  0.91935000  0.29789000  0.16383000  1.0
  C  C39  1  0.08065000  0.70211000  0.83617000  1.0
  C  C40  1  0.78194000  0.22434000  0.62867000  1.0
  C  C41  1  0.21806000  0.77566000  0.37133000  1.0
  C  C42  1  0.10051000  0.17471000  0.35643000  1.0
  C  C43  1  0.89949000  0.82530000  0.64356000  1.0
  C  C44  1  0.69729000  0.31689000  0.78591000  1.0
  C  C45  1  0.30271000  0.68311000  0.21409000  1.0
  C  C46  1  0.53842000  0.77645000  0.83743000  1.0
  C  C47  1  0.46159000  0.22356000  0.16257000  1.0
  C  C48  1  0.64591000  0.70187000  0.92274000  1.0
  C  C49  1  0.35410000  0.29813000  0.07725000  1.0
  C  C50  1  0.82986000  0.36845000  0.05737000  1.0
  C  C51  1  0.17013000  0.63155000  0.94263000  1.0
  C  C52  1  0.57731000  0.96843000  0.86876000  1.0
  C  C53  1  0.42268000  0.03158000  0.13124000  1.0
  C  C54  1  0.53557000  0.33466000  0.75237000  1.0
  C  C55  1  0.46443000  0.66534000  0.24763000  1.0
  C  C56  1  0.69131000  0.56027000  0.94418000  1.0
  C  C57  1  0.30869000  0.43973000  0.05581000  1.0
  C  C58  1  0.81218000  0.30523000  0.97632000  1.0
  C  C59  1  0.18782000  0.69477000  0.02368000  1.0
  C  C60  1  0.04144000  0.10018000  0.29980000  1.0
  C  C61  1  0.95856000  0.89982000  0.70020000  1.0
  C  C62  1  0.95076000  0.16137000  0.20256000  1.0
  C  C63  1  0.04924000  0.83863000  0.79744000  1.0
  C  C64  1  0.49628000  0.29708000  0.66046000  1.0
  C  C65  1  0.50372000  0.70292000  0.33954000  1.0
  C  C66  1  0.62139000  0.24495000  0.59696000  1.0
  C  C67  1  0.37861000  0.75505000  0.40304000  1.0
  C  C68  1  0.68405000  0.90196000  0.95560000  1.0
  C  C69  1  0.31595000  0.09804000  0.04440000  1.0
  C  C70  1  0.66073000  0.50168000  0.86284000  1.0
  C  C71  1  0.33927000  0.49831000  0.13716000  1.0
  C  C72  1  0.72546000  0.37267000  0.87738000  1.0
  C  C73  1  0.27455000  0.62733000  0.12262000  1.0
  C  C74  1  0.98056000  0.36629000  0.22710000  1.0
  C  C75  1  0.01944000  0.63371000  0.77290000  1.0
  S  S76  1  0.03145000  0.21792000  0.75824000  1.0
  S  S77  1  0.96855000  0.78208000  0.24176000  1.0
  S  S78  1  0.58260000  0.22377000  0.46325000  1.0
  S  S79  1  0.41740000  0.77623000  0.53675000  1.0
  N  N80  1  0.77240000  0.49402000  0.04062000  1.0
  N  N81  1  0.22761000  0.50598000  0.95938000  1.0
  N  N82  1  0.07000000  0.30639000  0.32061000  1.0
  N  N83  1  0.93000000  0.69361000  0.67938000  1.0
  N  N84  1  0.50426000  0.90670000  0.81096000  1.0
  N  N85  1  0.49574000  0.09330000  0.18904000  1.0
  O  O86  1  0.08653000  0.33848000  0.76590000  1.0
  O  O87  1  0.91346000  0.66152000  0.23411000  1.0
  O  O88  1  0.03548000  0.10895000  0.86887000  1.0
  O  O89  1  0.96452000  0.89105000  0.13113000  1.0
  O  O90  1  0.11672000  0.18460000  0.65587000  1.0
  O  O91  1  0.88328000  0.81540000  0.34413000  1.0
  O  O92  1  0.40998000  0.19417000  0.47651000  1.0
  O  O93  1  0.59002000  0.80583000  0.52349000  1.0
  O  O94  1  0.70161000  0.11660000  0.44958000  1.0
  O  O95  1  0.29839000  0.88340000  0.55042000  1.0
  O  O96  1  0.60873000  0.35229000  0.37355000  1.0
  O  O97  1  0.39127000  0.64771000  0.62645000  1.0
  O  O98  1  0.18566000  0.49949000  0.55768000  1.0
  O  O99  1  0.81434000  0.50051000  0.44232000  1.0
