# generated using pymatgen
data_AgH5C6N4O
_symmetry_space_group_name_H-M   'P 1'
_cell_length_a   5.13371000
_cell_length_b   10.07810000
_cell_length_c   13.52440000
_cell_angle_alpha   89.99910000
_cell_angle_beta   82.20210000
_cell_angle_gamma   89.99920000
_symmetry_Int_Tables_number   1
_chemical_formula_structural   AgH5C6N4O
_chemical_formula_sum   'Ag4 H20 C24 N16 O4'
_cell_volume   693.25548894
_cell_formula_units_Z   4
loop_
 _symmetry_equiv_pos_site_id
 _symmetry_equiv_pos_as_xyz
  1  'x, y, z'
loop_
 _atom_site_type_symbol
 _atom_site_label
 _atom_site_symmetry_multiplicity
 _atom_site_fract_x
 _atom_site_fract_y
 _atom_site_fract_z
 _atom_site_occupancy
  Ag  Ag0  1  0.17873000  0.05119000  0.07267000  1.0
  Ag  Ag1  1  0.82127000  0.55117000  0.42734000  1.0
  Ag  Ag2  1  0.82128000  0.94882000  0.92733000  1.0
  Ag  Ag3  1  0.17875000  0.44882000  0.57267000  1.0
  H  H4  1  0.19273000  0.87849000  0.27881000  1.0
  H  H5  1  0.80730000  0.37849000  0.22117000  1.0
  H  H6  1  0.80728000  0.12151000  0.72119000  1.0
  H  H7  1  0.19267000  0.62151000  0.77884000  1.0
  H  H8  1  0.72424000  0.45459000  0.89601000  1.0
  H  H9  1  0.27573000  0.95457000  0.60397000  1.0
  H  H10  1  0.27576000  0.54542000  0.10399000  1.0
  H  H11  1  0.72426000  0.04543000  0.39602000  1.0
  H  H12  1  0.81805000  0.34821000  0.04350000  1.0
  H  H13  1  0.18195000  0.84822000  0.45649000  1.0
  H  H14  1  0.18196000  0.65178000  0.95651000  1.0
  H  H15  1  0.81803000  0.15177000  0.54351000  1.0
  H  H16  1  0.50625000  0.32801000  0.11841000  1.0
  H  H17  1  0.49374000  0.82802000  0.38158000  1.0
  H  H18  1  0.49374000  0.67199000  0.88159000  1.0
  H  H19  1  0.50623000  0.17197000  0.61842000  1.0
  H  H20  1  0.68901000  0.18630000  0.07440000  1.0
  H  H21  1  0.31099000  0.68631000  0.42559000  1.0
  H  H22  1  0.31099000  0.81368000  0.92560000  1.0
  H  H23  1  0.68898000  0.31368000  0.57442000  1.0
  C  C24  1  0.04321000  0.83526000  0.23951000  1.0
  C  C25  1  0.95681000  0.33526000  0.26047000  1.0
  C  C26  1  0.95680000  0.16475000  0.76049000  1.0
  C  C27  1  0.04317000  0.66474000  0.73952000  1.0
  C  C28  1  0.44929000  0.38801000  0.80027000  1.0
  C  C29  1  0.55065000  0.88799000  0.69971000  1.0
  C  C30  1  0.55072000  0.61201000  0.19972000  1.0
  C  C31  1  0.44934000  0.11201000  0.30028000  1.0
  C  C32  1  0.57051000  0.38234000  0.88884000  1.0
  C  C33  1  0.42947000  0.88233000  0.61116000  1.0
  C  C34  1  0.42948000  0.61766000  0.11116000  1.0
  C  C35  1  0.57056000  0.11767000  0.38884000  1.0
  C  C36  1  0.50377000  0.28915000  0.96354000  1.0
  C  C37  1  0.49625000  0.78915000  0.53645000  1.0
  C  C38  1  0.49624000  0.71085000  0.03645000  1.0
  C  C39  1  0.50376000  0.21086000  0.46355000  1.0
  C  C40  1  0.80554000  0.80228000  0.12350000  1.0
  C  C41  1  0.19448000  0.30229000  0.37650000  1.0
  C  C42  1  0.19448000  0.19772000  0.87650000  1.0
  C  C43  1  0.80552000  0.69770000  0.62351000  1.0
  C  C44  1  0.63863000  0.28814000  0.05462000  1.0
  C  C45  1  0.36137000  0.78815000  0.44537000  1.0
  C  C46  1  0.36136000  0.71185000  0.94538000  1.0
  C  C47  1  0.63862000  0.21184000  0.55463000  1.0
  N  N48  1  0.99943000  0.88073000  0.14847000  1.0
  N  N49  1  0.00059000  0.38073000  0.35152000  1.0
  N  N50  1  0.00060000  0.11928000  0.85152000  1.0
  N  N51  1  0.99940000  0.61928000  0.64849000  1.0
  N  N52  1  0.89443000  0.73348000  0.27431000  1.0
  N  N53  1  0.10561000  0.23349000  0.22568000  1.0
  N  N54  1  0.10557000  0.26652000  0.72569000  1.0
  N  N55  1  0.89439000  0.76651000  0.77432000  1.0
  N  N56  1  0.74338000  0.71244000  0.19975000  1.0
  N  N57  1  0.25668000  0.21245000  0.30024000  1.0
  N  N58  1  0.25664000  0.28756000  0.80024000  1.0
  N  N59  1  0.74332000  0.78756000  0.69976000  1.0
  N  N60  1  0.31367000  0.19554000  0.95878000  1.0
  N  N61  1  0.68633000  0.69554000  0.54122000  1.0
  N  N62  1  0.68634000  0.80446000  0.04121000  1.0
  N  N63  1  0.31367000  0.30446000  0.45878000  1.0
  O  O64  1  0.49195000  0.46730000  0.72920000  1.0
  O  O65  1  0.50795000  0.96727000  0.77081000  1.0
  O  O66  1  0.50803000  0.53272000  0.27081000  1.0
  O  O67  1  0.49203000  0.03272000  0.22920000  1.0
