# generated using pymatgen
data_AlH8C13NClO5
_symmetry_space_group_name_H-M   'P 1'
_cell_length_a   6.61751000
_cell_length_b   11.07918122
_cell_length_c   15.22620000
_cell_angle_alpha   88.76235524
_cell_angle_beta   78.50400000
_cell_angle_gamma   73.58854113
_symmetry_Int_Tables_number   1
_chemical_formula_structural   AlH8C13NClO5
_chemical_formula_sum   'Al2 H16 C26 N2 Cl2 O10'
_cell_volume   1048.65253567
_cell_formula_units_Z   2
loop_
 _symmetry_equiv_pos_site_id
 _symmetry_equiv_pos_as_xyz
  1  'x, y, z'
loop_
 _atom_site_type_symbol
 _atom_site_label
 _atom_site_symmetry_multiplicity
 _atom_site_fract_x
 _atom_site_fract_y
 _atom_site_fract_z
 _atom_site_occupancy
  Al  Al0  1  0.99741000  0.50508000  0.49770000  1.0
  Al  Al1  1  0.49882000  0.50019000  0.49777000  1.0
  H  H2  1  0.33834000  0.35160000  0.44650000  1.0
  H  H3  1  0.64596000  0.65299000  0.54706000  1.0
  H  H4  1  0.68370000  0.44968000  0.05016000  1.0
  H  H5  1  0.36283000  0.44428000  0.94531000  1.0
  H  H6  1  0.80026000  0.56898000  0.76312000  1.0
  H  H7  1  0.69299000  0.57836000  0.92979000  1.0
  H  H8  1  0.13050000  0.57637000  0.23558000  1.0
  H  H9  1  0.22952000  0.58051000  0.06896000  1.0
  H  H10  1  0.56372000  0.23612000  0.62647000  1.0
  H  H11  1  0.35699000  0.11878000  0.72752000  1.0
  H  H12  1  0.81507000  0.76774000  0.62377000  1.0
  H  H13  1  0.48348000  0.88336000  0.72663000  1.0
  H  H14  1  0.47934000  0.46309000  0.28891000  1.0
  H  H15  1  0.44391000  0.42971000  0.18273000  1.0
  H  H16  1  0.56006000  0.44243000  0.70693000  1.0
  H  H17  1  0.62485000  0.42100000  0.81325000  1.0
  C  C18  1  0.86337000  0.27676000  0.50457000  1.0
  C  C19  1  0.81051000  0.50917000  0.33567000  1.0
  C  C20  1  0.13752000  0.72889000  0.49355000  1.0
  C  C21  1  0.18482000  0.50031000  0.66071000  1.0
  C  C22  1  0.85356000  0.51293000  0.23717000  1.0
  C  C23  1  0.13799000  0.50172000  0.75926000  1.0
  C  C24  1  0.71888000  0.47999000  0.18496000  1.0
  C  C25  1  0.78136000  0.47952000  0.09052000  1.0
  C  C26  1  0.30236000  0.46845000  0.81117000  1.0
  C  C27  1  0.23765000  0.47308000  0.90572000  1.0
  C  C28  1  0.92133000  0.54008000  0.80443000  1.0
  C  C29  1  0.86176000  0.54395000  0.89690000  1.0
  C  C30  1  0.03599000  0.54732000  0.19347000  1.0
  C  C31  1  0.09266000  0.54798000  0.10092000  1.0
  C  C32  1  0.96455000  0.51205000  0.04808000  1.0
  C  C33  1  0.02263000  0.50934000  0.94911000  1.0
  C  C34  1  0.93468000  0.13568000  0.50337000  1.0
  C  C35  1  0.80939000  0.06988000  0.56250000  1.0
  C  C36  1  0.12034000  0.07011000  0.44446000  1.0
  C  C37  1  0.61924000  0.13381000  0.62433000  1.0
  C  C38  1  0.50320000  0.06777000  0.68119000  1.0
  C  C39  1  0.06953000  0.87003000  0.49824000  1.0
  C  C40  1  0.18777000  0.93608000  0.44138000  1.0
  C  C41  1  0.87959000  0.93476000  0.56063000  1.0
  C  C42  1  0.75912000  0.86993000  0.62213000  1.0
  C  C43  1  0.57428000  0.93491000  0.68045000  1.0
  N  N44  1  0.54178000  0.44336000  0.22246000  1.0
  N  N45  1  0.51578000  0.43009000  0.77363000  1.0
  Cl  Cl46  1  0.41099000  0.85759000  0.36363000  1.0
  Cl  Cl47  1  0.26712000  0.14829000  0.36975000  1.0
  O  O48  1  0.99330000  0.33422000  0.52109000  1.0
  O  O49  1  0.61555000  0.52087000  0.37597000  1.0
  O  O50  1  0.32200000  0.67258000  0.50891000  1.0
  O  O51  1  0.02709000  0.52672000  0.61994000  1.0
  O  O52  1  0.00191000  0.67587000  0.47668000  1.0
  O  O53  1  0.38336000  0.47415000  0.61999000  1.0
  O  O54  1  0.67703000  0.32856000  0.48917000  1.0
  O  O55  1  0.96875000  0.49230000  0.37530000  1.0
  O  O56  1  0.29339000  0.44225000  0.45799000  1.0
  O  O57  1  0.70072000  0.56208000  0.53815000  1.0
