# generated using pymatgen
data_CdH9C10N5Cl2
_symmetry_space_group_name_H-M   'P 1'
_cell_length_a   11.48120000
_cell_length_b   11.48350071
_cell_length_c   12.52550000
_cell_angle_alpha   67.56580417
_cell_angle_beta   62.73020000
_cell_angle_gamma   60.01008044
_symmetry_Int_Tables_number   1
_chemical_formula_structural   CdH9C10N5Cl2
_chemical_formula_sum   'Cd4 H36 C40 N20 Cl8'
_cell_volume   1246.12023895
_cell_formula_units_Z   4
loop_
 _symmetry_equiv_pos_site_id
 _symmetry_equiv_pos_as_xyz
  1  'x, y, z'
loop_
 _atom_site_type_symbol
 _atom_site_label
 _atom_site_symmetry_multiplicity
 _atom_site_fract_x
 _atom_site_fract_y
 _atom_site_fract_z
 _atom_site_occupancy
  Cd  Cd0  1  0.91094000  0.08429000  0.87222000  1.0
  Cd  Cd1  1  0.86731000  0.41585000  0.62775000  1.0
  Cd  Cd2  1  0.08905000  0.91571000  0.12778000  1.0
  Cd  Cd3  1  0.13269000  0.58415000  0.37225000  1.0
  H  H4  1  0.57679000  0.98905000  0.75040000  1.0
  H  H5  1  0.31625000  0.51053000  0.74966000  1.0
  H  H6  1  0.42321000  0.01095000  0.24960000  1.0
  H  H7  1  0.68375000  0.48947000  0.25034000  1.0
  H  H8  1  0.55763000  0.28483000  0.01013000  1.0
  H  H9  1  0.85258000  0.21500000  0.48985000  1.0
  H  H10  1  0.44237000  0.71517000  0.98987000  1.0
  H  H11  1  0.14742000  0.78500000  0.51015000  1.0
  H  H12  1  0.28946000  0.39528000  0.07768000  1.0
  H  H13  1  0.76252000  0.10453000  0.42217000  1.0
  H  H14  1  0.71054000  0.60472000  0.92232000  1.0
  H  H15  1  0.23748000  0.89547000  0.57783000  1.0
  H  H16  1  0.15723000  0.33678000  0.01006000  1.0
  H  H17  1  0.50423000  0.16279000  0.48987000  1.0
  H  H18  1  0.84277000  0.66322000  0.98993000  1.0
  H  H19  1  0.49577000  0.83721000  0.51013000  1.0
  H  H20  1  0.28262000  0.16178000  0.88059000  1.0
  H  H21  1  0.32511000  0.33751000  0.61964000  1.0
  H  H22  1  0.71738000  0.83822000  0.11941000  1.0
  H  H23  1  0.67489000  0.66249000  0.38037000  1.0
  H  H24  1  0.84025000  0.88246000  0.66001000  1.0
  H  H25  1  0.38253000  0.61755000  0.83973000  1.0
  H  H26  1  0.15976000  0.11753000  0.33999000  1.0
  H  H27  1  0.61747000  0.38245000  0.16027000  1.0
  H  H28  1  0.91152000  0.00140000  0.63432000  1.0
  H  H29  1  0.54697000  0.49865000  0.86557000  1.0
  H  H30  1  0.08848000  0.99860000  0.36568000  1.0
  H  H31  1  0.45303000  0.50135000  0.13443000  1.0
  H  H32  1  0.02564000  0.64192000  0.70802000  1.0
  H  H33  1  0.37544000  0.85798000  0.79225000  1.0
  H  H34  1  0.97436000  0.35808000  0.29198000  1.0
  H  H35  1  0.62457000  0.14201000  0.20775000  1.0
  H  H36  1  0.15189000  0.72567000  0.92868000  1.0
  H  H37  1  0.80596000  0.77446000  0.57143000  1.0
  H  H38  1  0.84812000  0.27433000  0.07132000  1.0
  H  H39  1  0.19405000  0.22554000  0.42857000  1.0
  C  C40  1  0.56875000  0.16210000  0.90859000  1.0
  C  C41  1  0.63944000  0.33752000  0.59152000  1.0
  C  C42  1  0.43124000  0.83791000  0.09141000  1.0
  C  C43  1  0.36056000  0.66248000  0.40848000  1.0
  C  C44  1  0.49698000  0.25739000  0.98469000  1.0
  C  C45  1  0.73907000  0.24231000  0.51535000  1.0
  C  C46  1  0.50302000  0.74261000  0.01531000  1.0
  C  C47  1  0.26093000  0.75769000  0.48465000  1.0
  C  C48  1  0.34865000  0.31791000  0.02097000  1.0
  C  C49  1  0.68762000  0.18178000  0.47899000  1.0
  C  C50  1  0.65135000  0.68209000  0.97903000  1.0
  C  C51  1  0.31238000  0.81822000  0.52101000  1.0
  C  C52  1  0.27299000  0.28396000  0.98296000  1.0
  C  C53  1  0.54003000  0.21557000  0.51706000  1.0
  C  C54  1  0.72701000  0.71604000  0.01704000  1.0
  C  C55  1  0.45997000  0.78443000  0.48294000  1.0
  C  C56  1  0.34209000  0.18773000  0.90899000  1.0
  C  C57  1  0.43891000  0.31161000  0.59120000  1.0
  C  C58  1  0.65791000  0.81227000  0.09100000  1.0
  C  C59  1  0.56109000  0.68839000  0.40880000  1.0
  C  C60  1  0.49106000  0.12785000  0.87232000  1.0
  C  C61  1  0.49126000  0.37158000  0.62788000  1.0
  C  C62  1  0.50894000  0.87215000  0.12768000  1.0
  C  C63  1  0.50874000  0.62842000  0.37212000  1.0
  C  C64  1  0.72350000  0.01656000  0.78820000  1.0
  C  C65  1  0.52816000  0.48332000  0.71168000  1.0
  C  C66  1  0.27650000  0.98344000  0.21180000  1.0
  C  C67  1  0.47184000  0.51668000  0.28832000  1.0
  C  C68  1  0.86010000  0.93240000  0.70509000  1.0
  C  C69  1  0.49740000  0.56762000  0.79474000  1.0
  C  C70  1  0.13990000  0.06760000  0.29491000  1.0
  C  C71  1  0.50261000  0.43238000  0.20526000  1.0
  C  C72  1  0.03751000  0.69230000  0.75852000  1.0
  C  C73  1  0.48816000  0.80765000  0.74166000  1.0
  C  C74  1  0.96249000  0.30770000  0.24149000  1.0
  C  C75  1  0.51184000  0.19235000  0.25834000  1.0
  C  C76  1  0.10205000  0.73697000  0.86748000  1.0
  C  C77  1  0.70625000  0.76312000  0.63259000  1.0
  C  C78  1  0.89795000  0.26303000  0.13252000  1.0
  C  C79  1  0.29375000  0.23688000  0.36741000  1.0
  N  N80  1  0.71372000  0.09102000  0.85388000  1.0
  N  N81  1  0.65853000  0.40885000  0.64607000  1.0
  N  N82  1  0.28628000  0.90898000  0.14612000  1.0
  N  N83  1  0.34147000  0.59115000  0.35393000  1.0
  N  N84  1  0.59319000  0.03485000  0.79672000  1.0
  N  N85  1  0.42474000  0.46475000  0.70334000  1.0
  N  N86  1  0.40680000  0.96516000  0.20328000  1.0
  N  N87  1  0.57526000  0.53525000  0.29666000  1.0
  N  N88  1  0.96182000  0.82561000  0.76651000  1.0
  N  N89  1  0.55373000  0.67443000  0.73340000  1.0
  N  N90  1  0.03818000  0.17439000  0.23349000  1.0
  N  N91  1  0.44628000  0.32556000  0.26660000  1.0
  N  N92  1  0.00306000  0.85577000  0.83513000  1.0
  N  N93  1  0.69370000  0.64436000  0.66472000  1.0
  N  N94  1  0.99693000  0.14423000  0.16487000  1.0
  N  N95  1  0.30630000  0.35564000  0.33529000  1.0
  N  N96  1  0.12779000  0.63332000  0.82125000  1.0
  N  N97  1  0.58214000  0.86667000  0.67901000  1.0
  N  N98  1  0.87221000  0.36668000  0.17875000  1.0
  N  N99  1  0.41786000  0.13333000  0.32099000  1.0
  Cl  Cl100  1  0.15730000  0.01747000  0.88927000  1.0
  Cl  Cl101  1  0.06396000  0.48267000  0.61075000  1.0
  Cl  Cl102  1  0.84270000  0.98253000  0.11073000  1.0
  Cl  Cl103  1  0.93604000  0.51733000  0.38925000  1.0
  Cl  Cl104  1  0.79919000  0.34432000  0.87796000  1.0
  Cl  Cl105  1  0.02148000  0.15585000  0.62201000  1.0
  Cl  Cl106  1  0.20081000  0.65568000  0.12204000  1.0
  Cl  Cl107  1  0.97852000  0.84415000  0.37800000  1.0
