# generated using pymatgen
data_ZnH22C28Br3N3O4
_symmetry_space_group_name_H-M   'P 1'
_cell_length_a   15.60080000
_cell_length_b   15.95100000
_cell_length_c   17.12620000
_cell_angle_alpha   88.16460000
_cell_angle_beta   89.07120000
_cell_angle_gamma   70.84120000
_symmetry_Int_Tables_number   1
_chemical_formula_structural   ZnH22C28Br3N3O4
_chemical_formula_sum   'Zn2 H44 C56 Br6 N6 O8'
_cell_volume   4023.63664787
_cell_formula_units_Z   2
loop_
 _symmetry_equiv_pos_site_id
 _symmetry_equiv_pos_as_xyz
  1  'x, y, z'
loop_
 _atom_site_type_symbol
 _atom_site_label
 _atom_site_symmetry_multiplicity
 _atom_site_fract_x
 _atom_site_fract_y
 _atom_site_fract_z
 _atom_site_occupancy
  Zn  Zn0  1  0.49824000  0.41205000  0.49362000  1.0
  Zn  Zn1  1  0.50374000  0.58747000  0.50416000  1.0
  H  H2  1  0.57958000  0.24723000  0.56649000  1.0
  H  H3  1  0.42980000  0.75038000  0.42543000  1.0
  H  H4  1  0.58202000  0.08732000  0.56925000  1.0
  H  H5  1  0.42094000  0.91200000  0.42730000  1.0
  H  H6  1  0.22821000  0.46792000  0.52833000  1.0
  H  H7  1  0.77336000  0.53198000  0.51019000  1.0
  H  H8  1  0.20254000  0.74269000  0.51198000  1.0
  H  H9  1  0.79784000  0.25775000  0.52446000  1.0
  H  H10  1  0.96355000  0.21691000  0.55044000  1.0
  H  H11  1  0.03425000  0.78471000  0.52230000  1.0
  H  H12  1  0.17164000  0.37934000  0.56622000  1.0
  H  H13  1  0.82449000  0.62389000  0.53271000  1.0
  H  H14  1  0.60996000  0.45525000  0.09473000  1.0
  H  H15  1  0.37009000  0.58157000  0.89193000  1.0
  H  H16  1  0.62652000  0.37340000  0.89412000  1.0
  H  H17  1  0.32897000  0.60790000  0.12001000  1.0
  H  H18  1  0.80898000  0.39674000  0.34414000  1.0
  H  H19  1  0.84583000  0.41340000  0.24804000  1.0
  H  H20  1  0.84205000  0.49100000  0.32127000  1.0
  H  H21  1  0.70871000  0.54896000  0.22867000  1.0
  H  H22  1  0.67263000  0.53773000  0.32550000  1.0
  H  H23  1  0.65202000  0.39463000  0.29672000  1.0
  H  H24  1  0.69969000  0.39538000  0.20245000  1.0
  H  H25  1  0.29671000  0.74517000  0.62124000  1.0
  H  H26  1  0.22062000  0.77175000  0.70206000  1.0
  H  H27  1  0.29895000  0.82999000  0.68549000  1.0
  H  H28  1  0.35900000  0.71792000  0.79291000  1.0
  H  H29  1  0.42912000  0.68648000  0.70971000  1.0
  H  H30  1  0.34049000  0.58405000  0.67539000  1.0
  H  H31  1  0.28186000  0.60979000  0.76518000  1.0
  H  H32  1  0.78869000  0.20111000  0.69179000  1.0
  H  H33  1  0.83715000  0.28664000  0.69801000  1.0
  H  H34  1  0.86478000  0.19817000  0.76875000  1.0
  H  H35  1  0.75259000  0.33720000  0.82249000  1.0
  H  H36  1  0.70668000  0.24997000  0.82156000  1.0
  H  H37  1  0.62602000  0.31092000  0.69668000  1.0
  H  H38  1  0.67563000  0.39435000  0.69229000  1.0
  H  H39  1  0.14891000  0.64105000  0.34239000  1.0
  H  H40  1  0.17019000  0.74338000  0.34106000  1.0
  H  H41  1  0.09030000  0.72740000  0.27540000  1.0
  H  H42  1  0.23528000  0.71368000  0.20378000  1.0
  H  H43  1  0.21554000  0.61101000  0.20678000  1.0
  H  H44  1  0.31801000  0.56386000  0.32482000  1.0
  H  H45  1  0.33944000  0.66450000  0.31878000  1.0
  C  C46  1  0.49690000  0.47552000  0.65026000  1.0
  C  C47  1  0.49897000  0.52333000  0.34844000  1.0
  C  C48  1  0.09903000  0.39804000  0.55617000  1.0
  C  C49  1  0.89812000  0.60444000  0.53328000  1.0
  C  C50  1  0.05911000  0.33326000  0.55874000  1.0
  C  C51  1  0.93788000  0.66923000  0.53240000  1.0
  C  C52  1  0.49602000  0.47393000  0.73798000  1.0
  C  C53  1  0.49001000  0.52938000  0.26110000  1.0
  C  C54  1  0.42315000  0.53502000  0.77792000  1.0
  C  C55  1  0.56569000  0.48637000  0.21372000  1.0
  C  C56  1  0.42499000  0.53513000  0.85929000  1.0
  C  C57  1  0.55348000  0.48832000  0.13323000  1.0
  C  C58  1  0.49896000  0.47707000  0.90018000  1.0
  C  C59  1  0.46794000  0.53104000  0.10029000  1.0
  C  C60  1  0.57047000  0.41676000  0.85959000  1.0
  C  C61  1  0.39413000  0.57517000  0.14801000  1.0
  C  C62  1  0.57064000  0.41417000  0.77834000  1.0
  C  C63  1  0.40363000  0.57415000  0.22898000  1.0
  C  C64  1  0.46778000  0.77448000  0.46703000  1.0
  C  C65  1  0.53554000  0.22493000  0.52958000  1.0
  C  C66  1  0.46304000  0.86238000  0.46813000  1.0
  C  C67  1  0.53646000  0.13803000  0.53134000  1.0
  C  C68  1  0.67666000  0.42637000  0.50302000  1.0
  C  C69  1  0.32475000  0.57506000  0.50829000  1.0
  C  C70  1  0.51272000  0.88835000  0.52465000  1.0
  C  C71  1  0.47805000  0.11463000  0.48143000  1.0
  C  C72  1  0.56715000  0.82413000  0.57728000  1.0
  C  C73  1  0.41901000  0.18039000  0.43283000  1.0
  C  C74  1  0.56970000  0.73548000  0.57045000  1.0
  C  C75  1  0.42318000  0.26718000  0.43446000  1.0
  C  C76  1  0.77685000  0.39846000  0.51663000  1.0
  C  C77  1  0.22404000  0.60196000  0.51934000  1.0
  C  C78  1  0.92199000  0.28622000  0.54174000  1.0
  C  C79  1  0.07671000  0.71517000  0.52449000  1.0
  C  C80  1  0.83025000  0.30854000  0.52740000  1.0
  C  C81  1  0.16978000  0.69220000  0.51868000  1.0
  C  C82  1  0.81705000  0.46386000  0.52035000  1.0
  C  C83  1  0.18374000  0.53662000  0.52880000  1.0
  C  C84  1  0.91023000  0.44383000  0.53489000  1.0
  C  C85  1  0.08897000  0.55747000  0.53572000  1.0
  C  C86  1  0.96426000  0.35217000  0.54556000  1.0
  C  C87  1  0.03409000  0.64943000  0.53144000  1.0
  C  C88  1  0.95152000  0.51278000  0.53695000  1.0
  C  C89  1  0.04683000  0.48908000  0.54291000  1.0
  C  C90  1  0.65831000  0.43849000  0.24757000  1.0
  C  C91  1  0.70911000  0.49988000  0.27556000  1.0
  C  C92  1  0.80679000  0.44757000  0.29855000  1.0
  C  C93  1  0.34658000  0.60391000  0.73530000  1.0
  C  C94  1  0.36053000  0.69519000  0.73266000  1.0
  C  C95  1  0.29024000  0.76446000  0.68265000  1.0
  C  C96  1  0.65042000  0.35332000  0.73392000  1.0
  C  C97  1  0.72968000  0.29542000  0.78334000  1.0
  C  C98  1  0.80949000  0.24235000  0.73295000  1.0
  C  C99  1  0.32370000  0.61565000  0.28254000  1.0
  C  C100  1  0.23180000  0.65915000  0.24355000  1.0
  C  C101  1  0.15607000  0.69474000  0.30363000  1.0
  Br  Br102  1  0.13497000  0.21390000  0.58045000  1.0
  Br  Br103  1  0.85990000  0.79003000  0.53003000  1.0
  Br  Br104  1  0.63547000  0.85703000  0.65263000  1.0
  Br  Br105  1  0.33541000  0.15117000  0.37051000  1.0
  Br  Br106  1  0.64463000  0.64615000  0.63696000  1.0
  Br  Br107  1  0.34814000  0.35690000  0.36844000  1.0
  N  N108  1  0.51128000  0.47536000  0.98164000  1.0
  N  N109  1  0.45024000  0.53232000  0.01953000  1.0
  N  N110  1  0.52012000  0.71224000  0.51743000  1.0
  N  N111  1  0.48042000  0.28807000  0.48157000  1.0
  N  N112  1  0.50672000  0.97766000  0.53410000  1.0
  N  N113  1  0.48157000  0.02602000  0.47327000  1.0
  O  O114  1  0.49613000  0.40663000  0.61540000  1.0
  O  O115  1  0.49300000  0.59369000  0.38436000  1.0
  O  O116  1  0.49944000  0.54752000  0.61746000  1.0
  O  O117  1  0.51016000  0.44706000  0.37975000  1.0
  O  O118  1  0.63894000  0.36655000  0.50407000  1.0
  O  O119  1  0.36166000  0.63550000  0.50707000  1.0
  O  O120  1  0.63637000  0.50944000  0.49255000  1.0
  O  O121  1  0.36602000  0.49231000  0.50083000  1.0
