# generated using pymatgen
data_ZnH11C20N(O2F)2
_symmetry_space_group_name_H-M   'P 1'
_cell_length_a   11.12000000
_cell_length_b   16.29280000
_cell_length_c   17.67430000
_cell_angle_alpha   95.61190000
_cell_angle_beta   90.29610000
_cell_angle_gamma   92.18870000
_symmetry_Int_Tables_number   1
_chemical_formula_structural   ZnH11C20N(O2F)2
_chemical_formula_sum   'Zn2 H22 C40 N2 O8 F4'
_cell_volume   3184.35777754
_cell_formula_units_Z   2
loop_
 _symmetry_equiv_pos_site_id
 _symmetry_equiv_pos_as_xyz
  1  'x, y, z'
loop_
 _atom_site_type_symbol
 _atom_site_label
 _atom_site_symmetry_multiplicity
 _atom_site_fract_x
 _atom_site_fract_y
 _atom_site_fract_z
 _atom_site_occupancy
  Zn  Zn0  1  0.49486000  0.41270000  0.49744000  1.0
  Zn  Zn1  1  0.50417000  0.58606000  0.50571000  1.0
  H  H2  1  0.37857000  0.71311000  0.42623000  1.0
  H  H3  1  0.38145000  0.86541000  0.42789000  1.0
  H  H4  1  0.66409000  0.87620000  0.59872000  1.0
  H  H5  1  0.64774000  0.72168000  0.58966000  1.0
  H  H6  1  0.33596000  0.12305000  0.40178000  1.0
  H  H7  1  0.62000000  0.13345000  0.57163000  1.0
  H  H8  1  0.62387000  0.28630000  0.57280000  1.0
  H  H9  1  0.35135000  0.27771000  0.41176000  1.0
  H  H10  1  0.60068000  0.00300000  0.56082000  1.0
  H  H11  1  0.39969000  0.99623000  0.43931000  1.0
  H  H12  1  0.50669000  0.61966000  0.26369000  1.0
  H  H13  1  0.50707000  0.61216000  0.12321000  1.0
  H  H14  1  0.49089000  0.34617000  0.11235000  1.0
  H  H15  1  0.49067000  0.35548000  0.25412000  1.0
  H  H16  1  0.50931000  0.65407000  0.89072000  1.0
  H  H17  1  0.49330000  0.38795000  0.87790000  1.0
  H  H18  1  0.49338000  0.38181000  0.73721000  1.0
  H  H19  1  0.50931000  0.64594000  0.74888000  1.0
  H  H20  1  0.49430000  0.40504000  0.99845000  1.0
  H  H21  1  0.50585000  0.59448000  0.00362000  1.0
  H  H22  1  0.78067000  0.60137000  0.40086000  1.0
  H  H23  1  0.22922000  0.59875000  0.40010000  1.0
  C  C24  1  0.49698000  0.49295000  0.35255000  1.0
  C  C25  1  0.26334000  0.49635000  0.50085000  1.0
  C  C26  1  0.50264000  0.50962000  0.64981000  1.0
  C  C27  1  0.73568000  0.49765000  0.50135000  1.0
  C  C28  1  0.43998000  0.75197000  0.46378000  1.0
  C  C29  1  0.44265000  0.83719000  0.46510000  1.0
  C  C30  1  0.52378000  0.88518000  0.51424000  1.0
  C  C31  1  0.59912000  0.84247000  0.55975000  1.0
  C  C32  1  0.59087000  0.75685000  0.55529000  1.0
  C  C33  1  0.53319000  0.97499000  0.51999000  1.0
  C  C34  1  0.46725000  0.02418000  0.48014000  1.0
  C  C35  1  0.40110000  0.15675000  0.44066000  1.0
  C  C36  1  0.47680000  0.11400000  0.48592000  1.0
  C  C37  1  0.55848000  0.16188000  0.53476000  1.0
  C  C38  1  0.56145000  0.24712000  0.53615000  1.0
  C  C39  1  0.40899000  0.24238000  0.44552000  1.0
  C  C40  1  0.49773000  0.48802000  0.26764000  1.0
  C  C41  1  0.50277000  0.56001000  0.22983000  1.0
  C  C42  1  0.50310000  0.55528000  0.15104000  1.0
  C  C43  1  0.49850000  0.47815000  0.10683000  1.0
  C  C44  1  0.49407000  0.40639000  0.14556000  1.0
  C  C45  1  0.49372000  0.41106000  0.22447000  1.0
  C  C46  1  0.49816000  0.46899000  0.02409000  1.0
  C  C47  1  0.50204000  0.53057000  0.97788000  1.0
  C  C48  1  0.50613000  0.59410000  0.85708000  1.0
  C  C49  1  0.50176000  0.52191000  0.89518000  1.0
  C  C50  1  0.49717000  0.44510000  0.85047000  1.0
  C  C51  1  0.49733000  0.44108000  0.77170000  1.0
  C  C52  1  0.50220000  0.51352000  0.73461000  1.0
  C  C53  1  0.50630000  0.59015000  0.77825000  1.0
  C  C54  1  0.87102000  0.49913000  0.49920000  1.0
  C  C55  1  0.93752000  0.54939000  0.45068000  1.0
  C  C56  1  0.93377000  0.45135000  0.54483000  1.0
  C  C57  1  0.87836000  0.59942000  0.40166000  1.0
  C  C58  1  0.94420000  0.64734000  0.35614000  1.0
  C  C59  1  0.12816000  0.49822000  0.49888000  1.0
  C  C60  1  0.06058000  0.45089000  0.54477000  1.0
  C  C61  1  0.06688000  0.54880000  0.45055000  1.0
  C  C62  1  0.13145000  0.59827000  0.40138000  1.0
  C  C63  1  0.07101000  0.64686000  0.35618000  1.0
  N  N64  1  0.51242000  0.71227000  0.50820000  1.0
  N  N65  1  0.48792000  0.28675000  0.49236000  1.0
  O  O66  1  0.49333000  0.42509000  0.38282000  1.0
  O  O67  1  0.50020000  0.56489000  0.38885000  1.0
  O  O68  1  0.31965000  0.56619000  0.50785000  1.0
  O  O69  1  0.30903000  0.42600000  0.49466000  1.0
  O  O70  1  0.50724000  0.57814000  0.62055000  1.0
  O  O71  1  0.49824000  0.43816000  0.61291000  1.0
  O  O72  1  0.68180000  0.42738000  0.49600000  1.0
  O  O73  1  0.68740000  0.56753000  0.50746000  1.0
  F  F74  1  0.11324000  0.40380000  0.59351000  1.0
  F  F75  1  0.87620000  0.40439000  0.59365000  1.0
  F  F76  1  0.88855000  0.69656000  0.31010000  1.0
  F  F77  1  0.13278000  0.69604000  0.31051000  1.0
