# generated using pymatgen
data_Zn2H14C14N12O
_symmetry_space_group_name_H-M   'P 1'
_cell_length_a   10.44880000
_cell_length_b   12.29120000
_cell_length_c   17.59490000
_cell_angle_alpha   89.99970000
_cell_angle_beta   96.52640000
_cell_angle_gamma   89.99960000
_symmetry_Int_Tables_number   1
_chemical_formula_structural   Zn2H14C14N12O
_chemical_formula_sum   'Zn8 H56 C56 N48 O4'
_cell_volume   2245.03925742
_cell_formula_units_Z   4
loop_
 _symmetry_equiv_pos_site_id
 _symmetry_equiv_pos_as_xyz
  1  'x, y, z'
loop_
 _atom_site_type_symbol
 _atom_site_label
 _atom_site_symmetry_multiplicity
 _atom_site_fract_x
 _atom_site_fract_y
 _atom_site_fract_z
 _atom_site_occupancy
  Zn  Zn0  1  0.26262000  0.73607000  0.39284000  1.0
  Zn  Zn1  1  0.23739000  0.23607000  0.10716000  1.0
  Zn  Zn2  1  0.73739000  0.26393000  0.60716000  1.0
  Zn  Zn3  1  0.76262000  0.76393000  0.89284000  1.0
  Zn  Zn4  1  0.79052000  0.74787000  0.54873000  1.0
  Zn  Zn5  1  0.70948000  0.24787000  0.95127000  1.0
  Zn  Zn6  1  0.20949000  0.25214000  0.45127000  1.0
  Zn  Zn7  1  0.29052000  0.75214000  0.04873000  1.0
  H  H8  1  0.88698000  0.58352000  0.70140000  1.0
  H  H9  1  0.61302000  0.08352000  0.79860000  1.0
  H  H10  1  0.11302000  0.41648000  0.29859000  1.0
  H  H11  1  0.38698000  0.91648000  0.20140000  1.0
  H  H12  1  0.92160000  0.63030000  0.79703000  1.0
  H  H13  1  0.57840000  0.13031000  0.70297000  1.0
  H  H14  1  0.07840000  0.36969000  0.20297000  1.0
  H  H15  1  0.42160000  0.86970000  0.29703000  1.0
  H  H16  1  0.00227000  0.68576000  0.72144000  1.0
  H  H17  1  0.49773000  0.18576000  0.77856000  1.0
  H  H18  1  0.99773000  0.31424000  0.27856000  1.0
  H  H19  1  0.50228000  0.81424000  0.22143000  1.0
  H  H20  1  0.49476000  0.94523000  0.64261000  1.0
  H  H21  1  0.00524000  0.44523000  0.85738000  1.0
  H  H22  1  0.50524000  0.05476000  0.35738000  1.0
  H  H23  1  0.99477000  0.55477000  0.14262000  1.0
  H  H24  1  0.63230000  0.99312000  0.60271000  1.0
  H  H25  1  0.86769000  0.49312000  0.89729000  1.0
  H  H26  1  0.36770000  0.00688000  0.39730000  1.0
  H  H27  1  0.13231000  0.50688000  0.10271000  1.0
  H  H28  1  0.65384000  0.63968000  0.39737000  1.0
  H  H29  1  0.84615000  0.13968000  0.10263000  1.0
  H  H30  1  0.34616000  0.36032000  0.60262000  1.0
  H  H31  1  0.15385000  0.86032000  0.89737000  1.0
  H  H32  1  0.66774000  0.76334000  0.34785000  1.0
  H  H33  1  0.83226000  0.26334000  0.15215000  1.0
  H  H34  1  0.33227000  0.23666000  0.65215000  1.0
  H  H35  1  0.16774000  0.73666000  0.84785000  1.0
  H  H36  1  0.52254000  0.68718000  0.33204000  1.0
  H  H37  1  0.97746000  0.18719000  0.16796000  1.0
  H  H38  1  0.47747000  0.31281000  0.66795000  1.0
  H  H39  1  0.02253000  0.81281000  0.83205000  1.0
  H  H40  1  0.13265000  0.01065000  0.36395000  1.0
  H  H41  1  0.36734000  0.51066000  0.13605000  1.0
  H  H42  1  0.86734000  0.98935000  0.63605000  1.0
  H  H43  1  0.63266000  0.48934000  0.86395000  1.0
  H  H44  1  0.96447000  0.01278000  0.33333333  1.0
  H  H45  1  0.53552000  0.51278000  0.16668000  1.0
  H  H46  1  0.03553000  0.98722000  0.66666667  1.0
  H  H47  1  0.46448000  0.48722000  0.83332000  1.0
  H  H48  1  0.06660000  0.91615000  0.29367000  1.0
  H  H49  1  0.43339000  0.41615000  0.20633000  1.0
  H  H50  1  0.93340000  0.08385000  0.70633000  1.0
  H  H51  1  0.56660000  0.58385000  0.79367000  1.0
  H  H52  1  0.33519000  0.42048000  0.32102000  1.0
  H  H53  1  0.16480000  0.92047000  0.17898000  1.0
  H  H54  1  0.66481000  0.57952000  0.67898000  1.0
  H  H55  1  0.83519000  0.07953000  0.82101000  1.0
  H  H56  1  0.46033000  0.41561000  0.39781000  1.0
  H  H57  1  0.03967000  0.91561000  0.10219000  1.0
  H  H58  1  0.53967000  0.58439000  0.60220000  1.0
  H  H59  1  0.96033000  0.08439000  0.89780000  1.0
  H  H60  1  0.41933000  0.54117000  0.35037000  1.0
  H  H61  1  0.08066000  0.04116000  0.14963000  1.0
  H  H62  1  0.58066000  0.45884000  0.64963000  1.0
  H  H63  1  0.91934000  0.95884000  0.85037000  1.0
  C  C64  1  0.91002000  0.65574000  0.73702000  1.0
  C  C65  1  0.58998000  0.15574000  0.76298000  1.0
  C  C66  1  0.08998000  0.34426000  0.26298000  1.0
  C  C67  1  0.41002000  0.84426000  0.23702000  1.0
  C  C68  1  0.80789000  0.73995000  0.72471000  1.0
  C  C69  1  0.69211000  0.23996000  0.77529000  1.0
  C  C70  1  0.19211000  0.26004000  0.27529000  1.0
  C  C71  1  0.30789000  0.76004000  0.22471000  1.0
  C  C72  1  0.66349000  0.85214000  0.67390000  1.0
  C  C73  1  0.83651000  0.35214000  0.82610000  1.0
  C  C74  1  0.33651000  0.14785000  0.32610000  1.0
  C  C75  1  0.16350000  0.64786000  0.17391000  1.0
  C  C76  1  0.58000000  0.91890000  0.61652000  1.0
  C  C77  1  0.92000000  0.41890000  0.88348000  1.0
  C  C78  1  0.42000000  0.08109000  0.38348000  1.0
  C  C79  1  0.08000000  0.58110000  0.11652000  1.0
  C  C80  1  0.53787000  0.86153000  0.54296000  1.0
  C  C81  1  0.96213000  0.36153000  0.95704000  1.0
  C  C82  1  0.46213000  0.13847000  0.45704000  1.0
  C  C83  1  0.03787000  0.63847000  0.04297000  1.0
  C  C84  1  0.54878000  0.77290000  0.43852000  1.0
  C  C85  1  0.95122000  0.27290000  0.06148000  1.0
  C  C86  1  0.45122000  0.22710000  0.56148000  1.0
  C  C87  1  0.04878000  0.72710000  0.93852000  1.0
  C  C88  1  0.60025000  0.71213000  0.37552000  1.0
  C  C89  1  0.89975000  0.21213000  0.12448000  1.0
  C  C90  1  0.39975000  0.28787000  0.62448000  1.0
  C  C91  1  0.10025000  0.78787000  0.87553000  1.0
  C  C92  1  0.04831000  0.95956000  0.34595000  1.0
  C  C93  1  0.45168000  0.45956000  0.15405000  1.0
  C  C94  1  0.95168000  0.04044000  0.65405000  1.0
  C  C95  1  0.54832000  0.54044000  0.84595000  1.0
  C  C96  1  0.02409000  0.88143000  0.40710000  1.0
  C  C97  1  0.47590000  0.38143000  0.09290000  1.0
  C  C98  1  0.97591000  0.11857000  0.59290000  1.0
  C  C99  1  0.52410000  0.61857000  0.90710000  1.0
  C  C100  1  0.04660000  0.75023000  0.48774000  1.0
  C  C101  1  0.45339000  0.25023000  0.01226000  1.0
  C  C102  1  0.95340000  0.24977000  0.51226000  1.0
  C  C103  1  0.54660000  0.74977000  0.98774000  1.0
  C  C104  1  0.08726000  0.65284000  0.53338000  1.0
  C  C105  1  0.41274000  0.15284000  0.96662000  1.0
  C  C106  1  0.91274000  0.34716000  0.46662000  1.0
  C  C107  1  0.58726000  0.84716000  0.03338000  1.0
  C  C108  1  0.16613000  0.57041000  0.49934000  1.0
  C  C109  1  0.33387000  0.07041000  0.00067000  1.0
  C  C110  1  0.83387000  0.42959000  0.50066000  1.0
  C  C111  1  0.66613000  0.92959000  0.99933000  1.0
  C  C112  1  0.28615000  0.48931000  0.42599000  1.0
  C  C113  1  0.21384000  0.98930000  0.07401000  1.0
  C  C114  1  0.71385000  0.51070000  0.57401000  1.0
  C  C115  1  0.78616000  0.01070000  0.92599000  1.0
  C  C116  1  0.38036000  0.46540000  0.37087000  1.0
  C  C117  1  0.11963000  0.96540000  0.12913000  1.0
  C  C118  1  0.61964000  0.53460000  0.62913000  1.0
  C  C119  1  0.88037000  0.03460000  0.87087000  1.0
  N  N120  1  0.10430000  0.79764000  0.43101000  1.0
  N  N121  1  0.39570000  0.29764000  0.06899000  1.0
  N  N122  1  0.89570000  0.20236000  0.56899000  1.0
  N  N123  1  0.60430000  0.70236000  0.93101000  1.0
  N  N124  1  0.92040000  0.88495000  0.44535000  1.0
  N  N125  1  0.57959000  0.38495000  0.05465000  1.0
  N  N126  1  0.07960000  0.11505000  0.55465000  1.0
  N  N127  1  0.42040000  0.61505000  0.94535000  1.0
  N  N128  1  0.93608000  0.80215000  0.49679000  1.0
  N  N129  1  0.56392000  0.30214000  0.00321000  1.0
  N  N130  1  0.06392000  0.19785000  0.50320000  1.0
  N  N131  1  0.43608000  0.69786000  0.99679000  1.0
  N  N132  1  0.24367000  0.58893000  0.44268000  1.0
  N  N133  1  0.25633000  0.08893000  0.05732000  1.0
  N  N134  1  0.75634000  0.41107000  0.55732000  1.0
  N  N135  1  0.74366000  0.91108000  0.94267000  1.0
  N  N136  1  0.15923000  0.46498000  0.51659000  1.0
  N  N137  1  0.34077000  0.96499000  0.98342000  1.0
  N  N138  1  0.84077000  0.53501000  0.48342000  1.0
  N  N139  1  0.65923000  0.03502000  0.01658000  1.0
  N  N140  1  0.23371000  0.41390000  0.46914000  1.0
  N  N141  1  0.26628000  0.91390000  0.03086000  1.0
  N  N142  1  0.76629000  0.58610000  0.53086000  1.0
  N  N143  1  0.73372000  0.08610000  0.96913000  1.0
  N  N144  1  0.42509000  0.79990000  0.44267000  1.0
  N  N145  1  0.07491000  0.29990000  0.05733000  1.0
  N  N146  1  0.57492000  0.20010000  0.55733000  1.0
  N  N147  1  0.92508000  0.70010000  0.94267000  1.0
  N  N148  1  0.41742000  0.85666000  0.50992000  1.0
  N  N149  1  0.08258000  0.35666000  0.99008000  1.0
  N  N150  1  0.58259000  0.14333000  0.49008000  1.0
  N  N151  1  0.91742000  0.64333000  0.00992000  1.0
  N  N152  1  0.62267000  0.81078000  0.50087000  1.0
  N  N153  1  0.87733000  0.31078000  0.99913000  1.0
  N  N154  1  0.37734000  0.18922000  0.49913000  1.0
  N  N155  1  0.12267000  0.68922000  0.00087000  1.0
  N  N156  1  0.75958000  0.78310000  0.65640000  1.0
  N  N157  1  0.74042000  0.28310000  0.84360000  1.0
  N  N158  1  0.24042000  0.21690000  0.34360000  1.0
  N  N159  1  0.25958000  0.71690000  0.15640000  1.0
  N  N160  1  0.65309000  0.85432000  0.74830000  1.0
  N  N161  1  0.84691000  0.35432000  0.75170000  1.0
  N  N162  1  0.34690000  0.14568000  0.25170000  1.0
  N  N163  1  0.15310000  0.64568000  0.24831000  1.0
  N  N164  1  0.74550000  0.78258000  0.78035000  1.0
  N  N165  1  0.75450000  0.28258000  0.71965000  1.0
  N  N166  1  0.25449000  0.21742000  0.21965000  1.0
  N  N167  1  0.24551000  0.71742000  0.28035000  1.0
  O  O168  1  0.04677000  0.63848000  0.59594000  1.0
  O  O169  1  0.45323000  0.13848000  0.90406000  1.0
  O  O170  1  0.95322000  0.36153000  0.40406000  1.0
  O  O171  1  0.54677000  0.86153000  0.09594000  1.0
