# generated using pymatgen
data_CdH8C12(IN2)2
_symmetry_space_group_name_H-M   'P 1'
_cell_length_a   4.09288000
_cell_length_b   7.51561000
_cell_length_c   12.37674608
_cell_angle_alpha   97.02033482
_cell_angle_beta   99.38451281
_cell_angle_gamma   90.01620000
_symmetry_Int_Tables_number   1
_chemical_formula_structural   CdH8C12(IN2)2
_chemical_formula_sum   'Cd1 H8 C12 I2 N4'
_cell_volume   372.72388441
_cell_formula_units_Z   1
loop_
 _symmetry_equiv_pos_site_id
 _symmetry_equiv_pos_as_xyz
  1  'x, y, z'
loop_
 _atom_site_type_symbol
 _atom_site_label
 _atom_site_symmetry_multiplicity
 _atom_site_fract_x
 _atom_site_fract_y
 _atom_site_fract_z
 _atom_site_occupancy
  Cd  Cd0  1  0.47429000  0.50002000  0.00002000  1.0
  H  H1  1  0.72420000  0.53794000  0.44639000  1.0
  H  H2  1  0.27409000  0.46193000  0.55351000  1.0
  H  H3  1  0.57870000  0.99051000  0.28648000  1.0
  H  H4  1  0.29748000  0.00965000  0.71360000  1.0
  H  H5  1  0.49771000  0.11532000  0.10574000  1.0
  H  H6  1  0.39690000  0.88487000  0.89437000  1.0
  H  H7  1  0.63691000  0.63832000  0.25915000  1.0
  H  H8  1  0.37546000  0.36167000  0.74081000  1.0
  C  C9  1  0.67501000  0.44005000  0.37315000  1.0
  C  C10  1  0.30094000  0.55989000  0.62681000  1.0
  C  C11  1  0.59452000  0.13433000  0.28401000  1.0
  C  C12  1  0.31455000  0.86579000  0.71603000  1.0
  C  C13  1  0.65928000  0.25534000  0.38103000  1.0
  C  C14  1  0.28003000  0.74466000  0.61899000  1.0
  C  C15  1  0.70992000  0.19558000  0.48755000  1.0
  C  C16  1  0.22238000  0.80425000  0.51243000  1.0
  C  C17  1  0.54887000  0.20404000  0.18342000  1.0
  C  C18  1  0.36941000  0.79616000  0.81663000  1.0
  C  C19  1  0.62540000  0.49638000  0.26910000  1.0
  C  C20  1  0.35615000  0.50366000  0.73088000  1.0
  I  I21  1  0.01728000  0.76736000  0.08501000  1.0
  I  I22  1  0.93297000  0.23258000  0.91492000  1.0
  N  N23  1  0.56379000  0.38059000  0.17629000  1.0
  N  N24  1  0.38940000  0.61953000  0.82371000  1.0
  N  N25  1  0.75312000  0.15244000  0.57619000  1.0
  N  N26  1  0.17292000  0.84714000  0.42377000  1.0
