# generated using pymatgen
data_TbCuH16C22S2N2O11
_symmetry_space_group_name_H-M   'P 1'
_cell_length_a   9.42267000
_cell_length_b   11.31970000
_cell_length_c   12.35990000
_cell_angle_alpha   99.35330000
_cell_angle_beta   100.29000000
_cell_angle_gamma   113.92300000
_symmetry_Int_Tables_number   1
_chemical_formula_structural   TbCuH16C22S2N2O11
_chemical_formula_sum   'Tb2 Cu2 H32 C44 S4 N4 O22'
_cell_volume   1144.51602122
_cell_formula_units_Z   2
loop_
 _symmetry_equiv_pos_site_id
 _symmetry_equiv_pos_as_xyz
  1  'x, y, z'
loop_
 _atom_site_type_symbol
 _atom_site_label
 _atom_site_symmetry_multiplicity
 _atom_site_fract_x
 _atom_site_fract_y
 _atom_site_fract_z
 _atom_site_occupancy
  Tb  Tb0  1  0.30580000  0.46374000  0.09577000  1.0
  Tb  Tb1  1  0.69420000  0.53626000  0.90423000  1.0
  Cu  Cu2  1  0.25664000  0.97561000  0.59546000  1.0
  Cu  Cu3  1  0.74336000  0.02439000  0.40454000  1.0
  H  H4  1  0.73863000  0.54728000  0.41560000  1.0
  H  H5  1  0.26137000  0.45272000  0.58440000  1.0
  H  H6  1  0.90315000  0.67385000  0.29991000  1.0
  H  H7  1  0.09685000  0.32615000  0.70009000  1.0
  H  H8  1  0.28735000  0.58049000  0.43595000  1.0
  H  H9  1  0.71265000  0.41951000  0.56405000  1.0
  H  H10  1  0.45013000  0.25155000  0.23158000  1.0
  H  H11  1  0.54987000  0.74845000  0.76842000  1.0
  H  H12  1  0.50059000  0.10840000  0.35384000  1.0
  H  H13  1  0.49942000  0.89160000  0.64616000  1.0
  H  H14  1  0.93826000  0.18711000  0.28038000  1.0
  H  H15  1  0.06174000  0.81289000  0.71962000  1.0
  H  H16  1  0.90580000  0.33272000  0.15954000  1.0
  H  H17  1  0.09420000  0.66728000  0.84047000  1.0
  H  H18  1  0.57467000  0.17765000  0.86365000  1.0
  H  H19  1  0.42533000  0.82235000  0.13635000  1.0
  H  H20  1  0.76422000  0.08087000  0.90900000  1.0
  H  H21  1  0.23578000  0.91913000  0.09100000  1.0
  H  H22  1  0.15855000  0.07091000  0.99550000  1.0
  H  H23  1  0.84145000  0.92909000  0.00450000  1.0
  H  H24  1  0.41220000  0.25669000  0.62650000  1.0
  H  H25  1  0.58780000  0.74331000  0.37350000  1.0
  H  H26  1  0.43485000  0.40809000  0.49965000  1.0
  H  H27  1  0.56515000  0.59191000  0.50035000  1.0
  H  H28  1  0.08601000  0.06453000  0.22724000  1.0
  H  H29  1  0.91399000  0.93547000  0.77276000  1.0
  H  H30  1  0.08024000  0.92439000  0.36282000  1.0
  H  H31  1  0.91976000  0.07561000  0.63718000  1.0
  H  H32  1  0.97440000  0.31717000  0.92871000  1.0
  H  H33  1  0.02560000  0.68283000  0.07129000  1.0
  H  H34  1  0.94214000  0.40701000  0.02359000  1.0
  H  H35  1  0.05786000  0.59299000  0.97641000  1.0
  C  C36  1  0.85989000  0.55709000  0.42252000  1.0
  C  C37  1  0.14011000  0.44291000  0.57748000  1.0
  C  C38  1  0.94994000  0.62655000  0.35723000  1.0
  C  C39  1  0.05006000  0.37345000  0.64277000  1.0
  C  C40  1  0.10484000  0.63435000  0.36319000  1.0
  C  C41  1  0.89516000  0.36565000  0.63680000  1.0
  C  C42  1  0.16900000  0.57547000  0.43429000  1.0
  C  C43  1  0.83100000  0.42453000  0.56571000  1.0
  C  C44  1  0.92082000  0.49512000  0.49690000  1.0
  C  C45  1  0.07918000  0.50488000  0.50310000  1.0
  C  C46  1  0.56094000  0.24173000  0.24343000  1.0
  C  C47  1  0.43906000  0.75827000  0.75657000  1.0
  C  C48  1  0.58764000  0.16185000  0.31040000  1.0
  C  C49  1  0.41236000  0.83815000  0.68961000  1.0
  C  C50  1  0.83296000  0.20586000  0.26941000  1.0
  C  C51  1  0.16704000  0.79414000  0.73059000  1.0
  C  C52  1  0.81363000  0.28752000  0.20182000  1.0
  C  C53  1  0.18637000  0.71248000  0.79818000  1.0
  C  C54  1  0.50168000  0.12061000  0.91316000  1.0
  C  C55  1  0.49832000  0.87939000  0.08684000  1.0
  C  C56  1  0.54928000  0.03684000  0.96755000  1.0
  C  C57  1  0.45072000  0.96316000  0.03245000  1.0
  C  C58  1  0.69136000  0.02456000  0.95929000  1.0
  C  C59  1  0.30864000  0.97544000  0.04071000  1.0
  C  C60  1  0.26508000  0.05823000  0.98735000  1.0
  C  C61  1  0.73492000  0.94177000  0.01265000  1.0
  C  C62  1  0.36351000  0.13073000  0.92383000  1.0
  C  C63  1  0.63649000  0.86927000  0.07617000  1.0
  C  C64  1  0.34251000  0.21839000  0.53774000  1.0
  C  C65  1  0.65749000  0.78161000  0.46226000  1.0
  C  C66  1  0.35342000  0.30199000  0.46602000  1.0
  C  C67  1  0.64658000  0.69801000  0.53398000  1.0
  C  C68  1  0.26088000  0.24839000  0.35263000  1.0
  C  C69  1  0.73912000  0.75161000  0.64737000  1.0
  C  C70  1  0.15976000  0.11068000  0.31496000  1.0
  C  C71  1  0.84024000  0.88932000  0.68504000  1.0
  C  C72  1  0.15603000  0.03184000  0.39050000  1.0
  C  C73  1  0.84397000  0.96816000  0.60950000  1.0
  C  C74  1  0.67415000  0.30590000  0.18721000  1.0
  C  C75  1  0.32585000  0.69410000  0.81279000  1.0
  C  C76  1  0.64095000  0.38656000  0.10955000  1.0
  C  C77  1  0.35905000  0.61344000  0.89045000  1.0
  C  C78  1  0.27413000  0.33425000  0.27082000  1.0
  C  C79  1  0.72587000  0.66575000  0.72918000  1.0
  S  S80  1  0.30616000  0.23399000  0.85131000  1.0
  S  S81  1  0.69384000  0.76601000  0.14869000  1.0
  S  S82  1  0.21661000  0.71542000  0.27237000  1.0
  S  S83  1  0.78339000  0.28458000  0.72763000  1.0
  N  N84  1  0.24670000  0.08469000  0.50001000  1.0
  N  N85  1  0.75330000  0.91531000  0.49999000  1.0
  N  N86  1  0.72184000  0.14272000  0.32267000  1.0
  N  N87  1  0.27816000  0.85728000  0.67733000  1.0
  O  O88  1  0.18150000  0.27832000  0.16915000  1.0
  O  O89  1  0.81849000  0.72168000  0.83085000  1.0
  O  O90  1  0.37886000  0.45627000  0.30128000  1.0
  O  O91  1  0.62114000  0.54373000  0.69872000  1.0
  O  O92  1  0.22072000  0.60369000  0.19235000  1.0
  O  O93  1  0.77928000  0.39631000  0.80765000  1.0
  O  O94  1  0.23549000  0.29720000  0.92548000  1.0
  O  O95  1  0.76451000  0.70280000  0.07452000  1.0
  O  O96  1  0.12212000  0.77170000  0.21026000  1.0
  O  O97  1  0.87789000  0.22830000  0.78974000  1.0
  O  O98  1  0.37548000  0.81478000  0.34327000  1.0
  O  O99  1  0.62452000  0.18522000  0.65673000  1.0
  O  O100  1  0.51798000  0.40729000  0.10735000  1.0
  O  O101  1  0.48202000  0.59271000  0.89265000  1.0
  O  O102  1  0.45615000  0.33268000  0.83472000  1.0
  O  O103  1  0.54385000  0.66732000  0.16528000  1.0
  O  O104  1  0.18966000  0.14690000  0.74360000  1.0
  O  O105  1  0.81034000  0.85310000  0.25639000  1.0
  O  O106  1  0.73661000  0.42707000  0.04816000  1.0
  O  O107  1  0.26339000  0.57293000  0.95184000  1.0
  O  O108  1  0.01752000  0.37056000  0.00986000  1.0
  O  O109  1  0.98248000  0.62944000  0.99014000  1.0
