# generated using pymatgen
data_Zn3H14(C3O4)4
_symmetry_space_group_name_H-M   'P 1'
_cell_length_a   6.05275000
_cell_length_b   9.44261000
_cell_length_c   15.23890000
_cell_angle_alpha   90.00010000
_cell_angle_beta   90.00060000
_cell_angle_gamma   103.15300000
_symmetry_Int_Tables_number   1
_chemical_formula_structural   Zn3H14(C3O4)4
_chemical_formula_sum   'Zn6 H28 C24 O32'
_cell_volume   848.11152919
_cell_formula_units_Z   2
loop_
 _symmetry_equiv_pos_site_id
 _symmetry_equiv_pos_as_xyz
  1  'x, y, z'
loop_
 _atom_site_type_symbol
 _atom_site_label
 _atom_site_symmetry_multiplicity
 _atom_site_fract_x
 _atom_site_fract_y
 _atom_site_fract_z
 _atom_site_occupancy
  Zn  Zn0  1  0.50001000  0.00000000  0.00000000  1.0
  Zn  Zn1  1  0.50000000  0.50000000  0.50000000  1.0
  Zn  Zn2  1  0.90380000  0.65400000  0.90968000  1.0
  Zn  Zn3  1  0.09620000  0.84600000  0.40968000  1.0
  Zn  Zn4  1  0.09621000  0.34601000  0.09032000  1.0
  Zn  Zn5  1  0.90380000  0.15399000  0.59032000  1.0
  H  H6  1  0.33361000  0.66477000  0.93399000  1.0
  H  H7  1  0.66639000  0.83524000  0.43399000  1.0
  H  H8  1  0.66639000  0.33523000  0.06601000  1.0
  H  H9  1  0.33361000  0.16477000  0.56601000  1.0
  H  H10  1  0.20808000  0.49779000  0.92145000  1.0
  H  H11  1  0.79193000  0.00220000  0.42144000  1.0
  H  H12  1  0.79191000  0.50220000  0.07855000  1.0
  H  H13  1  0.20809000  0.99780000  0.57855000  1.0
  H  H14  1  0.60250000  0.07461000  0.82095000  1.0
  H  H15  1  0.39750000  0.42539000  0.32095000  1.0
  H  H16  1  0.39750000  0.92538000  0.17905000  1.0
  H  H17  1  0.60250000  0.57462000  0.67905000  1.0
  H  H18  1  0.50607000  0.26489000  0.73873000  1.0
  H  H19  1  0.49391000  0.23510000  0.23873000  1.0
  H  H20  1  0.49393000  0.73512000  0.26127000  1.0
  H  H21  1  0.50609000  0.76489000  0.76127000  1.0
  H  H22  1  0.28934000  0.34408000  0.77821000  1.0
  H  H23  1  0.71064000  0.15592000  0.27820000  1.0
  H  H24  1  0.71066000  0.65593000  0.22180000  1.0
  H  H25  1  0.28935000  0.84407000  0.72180000  1.0
  H  H26  1  0.01857000  0.12973000  0.83417000  1.0
  H  H27  1  0.98142000  0.37028000  0.33417000  1.0
  H  H28  1  0.98144000  0.87029000  0.16583000  1.0
  H  H29  1  0.01857000  0.62971000  0.66583000  1.0
  H  H30  1  0.18926000  0.05998000  0.76082000  1.0
  H  H31  1  0.81072000  0.44002000  0.26081000  1.0
  H  H32  1  0.81074000  0.94003000  0.23919000  1.0
  H  H33  1  0.18928000  0.55997000  0.73919000  1.0
  C  C34  1  0.61824000  0.44293000  0.82513000  1.0
  C  C35  1  0.38175000  0.05707000  0.32513000  1.0
  C  C36  1  0.38176000  0.55707000  0.17487000  1.0
  C  C37  1  0.61824000  0.94293000  0.67486000  1.0
  C  C38  1  0.44343000  0.30919000  0.79813000  1.0
  C  C39  1  0.55657000  0.19080000  0.29813000  1.0
  C  C40  1  0.55658000  0.69081000  0.20187000  1.0
  C  C41  1  0.44342000  0.80919000  0.70187000  1.0
  C  C42  1  0.37876000  0.18676000  0.86601000  1.0
  C  C43  1  0.62124000  0.31323000  0.36601000  1.0
  C  C44  1  0.62124000  0.81324000  0.13399000  1.0
  C  C45  1  0.37876000  0.68676000  0.63399000  1.0
  C  C46  1  0.16542000  0.07942000  0.83095000  1.0
  C  C47  1  0.83457000  0.42058000  0.33095000  1.0
  C  C48  1  0.83458000  0.92059000  0.16905000  1.0
  C  C49  1  0.16543000  0.57941000  0.66905000  1.0
  C  C50  1  0.10092000  0.93442000  0.87737000  1.0
  C  C51  1  0.89907000  0.56558000  0.37737000  1.0
  C  C52  1  0.89909000  0.06559000  0.12263000  1.0
  C  C53  1  0.10092000  0.43441000  0.62263000  1.0
  C  C54  1  0.32623000  0.24455000  0.95627000  1.0
  C  C55  1  0.67377000  0.25545000  0.45627000  1.0
  C  C56  1  0.67378000  0.75545000  0.04373000  1.0
  C  C57  1  0.32622000  0.74455000  0.54372000  1.0
  O  O58  1  0.21049000  0.59858000  0.90155000  1.0
  O  O59  1  0.78951000  0.90142000  0.40154000  1.0
  O  O60  1  0.78951000  0.40142000  0.09845000  1.0
  O  O61  1  0.21050000  0.09858000  0.59845000  1.0
  O  O62  1  0.69417000  0.45386000  0.90398000  1.0
  O  O63  1  0.30582000  0.04614000  0.40398000  1.0
  O  O64  1  0.30584000  0.54615000  0.09602000  1.0
  O  O65  1  0.69416000  0.95386000  0.59602000  1.0
  O  O66  1  0.68397000  0.54466000  0.77044000  1.0
  O  O67  1  0.31604000  0.95532000  0.27044000  1.0
  O  O68  1  0.31604000  0.45535000  0.22956000  1.0
  O  O69  1  0.68394000  0.04467000  0.72956000  1.0
  O  O70  1  0.56119000  0.11519000  0.87953000  1.0
  O  O71  1  0.43880000  0.38480000  0.37953000  1.0
  O  O72  1  0.43881000  0.88481000  0.12046000  1.0
  O  O73  1  0.56120000  0.61519000  0.62046000  1.0
  O  O74  1  0.17759000  0.91303000  0.95266000  1.0
  O  O75  1  0.82240000  0.58697000  0.45266000  1.0
  O  O76  1  0.82242000  0.08699000  0.04734000  1.0
  O  O77  1  0.17759000  0.41302000  0.54734000  1.0
  O  O78  1  0.96186000  0.83295000  0.83678000  1.0
  O  O79  1  0.03813000  0.66705000  0.33678000  1.0
  O  O80  1  0.03814000  0.16706000  0.16323000  1.0
  O  O81  1  0.96187000  0.33295000  0.66322000  1.0
  O  O82  1  0.18511000  0.32643000  0.95954000  1.0
  O  O83  1  0.81489000  0.17357000  0.45954000  1.0
  O  O84  1  0.81490000  0.67358000  0.04046000  1.0
  O  O85  1  0.18510000  0.82642000  0.54046000  1.0
  O  O86  1  0.41203000  0.20259000  0.02501000  1.0
  O  O87  1  0.58798000  0.29742000  0.52501000  1.0
  O  O88  1  0.58798000  0.79742000  0.97499000  1.0
  O  O89  1  0.41201000  0.70258000  0.47499000  1.0
