# generated using pymatgen
data_LiH18C10SNO3
_symmetry_space_group_name_H-M   'P 1'
_cell_length_a   6.31211000
_cell_length_b   10.14620000
_cell_length_c   19.46680000
_cell_angle_alpha   94.12850000
_cell_angle_beta   89.99970000
_cell_angle_gamma   89.99890000
_symmetry_Int_Tables_number   1
_chemical_formula_structural   LiH18C10SNO3
_chemical_formula_sum   'Li4 H72 C40 S4 N4 O12'
_cell_volume   1243.49523919
_cell_formula_units_Z   4
loop_
 _symmetry_equiv_pos_site_id
 _symmetry_equiv_pos_as_xyz
  1  'x, y, z'
loop_
 _atom_site_type_symbol
 _atom_site_label
 _atom_site_symmetry_multiplicity
 _atom_site_fract_x
 _atom_site_fract_y
 _atom_site_fract_z
 _atom_site_occupancy
  Li  Li0  1  0.30620000  0.47563000  0.77470000  1.0
  Li  Li1  1  0.19377000  0.97563000  0.77470000  1.0
  Li  Li2  1  0.69378000  0.52436000  0.22530000  1.0
  Li  Li3  1  0.80624000  0.02435000  0.22530000  1.0
  H  H4  1  0.76304000  0.52876000  0.62783000  1.0
  H  H5  1  0.73697000  0.02877000  0.62784000  1.0
  H  H6  1  0.23698000  0.47123000  0.37216000  1.0
  H  H7  1  0.26305000  0.97122000  0.37217000  1.0
  H  H8  1  0.00152000  0.43842000  0.64023000  1.0
  H  H9  1  0.49849000  0.93843000  0.64024000  1.0
  H  H10  1  0.99848000  0.56157000  0.35977000  1.0
  H  H11  1  0.50150000  0.06157000  0.35977000  1.0
  H  H12  1  0.91863000  0.47230000  0.55580000  1.0
  H  H13  1  0.58139000  0.97231000  0.55581000  1.0
  H  H14  1  0.08138000  0.52769000  0.44419000  1.0
  H  H15  1  0.41861000  0.02769000  0.44420000  1.0
  H  H16  1  0.29839000  0.57241000  0.54252000  1.0
  H  H17  1  0.20163000  0.07243000  0.54251000  1.0
  H  H18  1  0.70163000  0.42758000  0.45748000  1.0
  H  H19  1  0.79838000  0.92758000  0.45749000  1.0
  H  H20  1  0.35683000  0.54623000  0.63004000  1.0
  H  H21  1  0.14317000  0.04625000  0.63003000  1.0
  H  H22  1  0.64318000  0.45376000  0.36996000  1.0
  H  H23  1  0.85683000  0.95375000  0.36998000  1.0
  H  H24  1  0.37784000  0.70770000  0.60012000  1.0
  H  H25  1  0.12216000  0.20772000  0.60011000  1.0
  H  H26  1  0.62217000  0.29229000  0.39987000  1.0
  H  H27  1  0.87783000  0.79229000  0.39989000  1.0
  H  H28  1  0.95315000  0.70018000  0.51436000  1.0
  H  H29  1  0.54688000  0.20019000  0.51435000  1.0
  H  H30  1  0.04687000  0.29981000  0.48564000  1.0
  H  H31  1  0.45315000  0.79981000  0.48565000  1.0
  H  H32  1  0.04083000  0.83436000  0.57105000  1.0
  H  H33  1  0.45916000  0.33438000  0.57106000  1.0
  H  H34  1  0.95917000  0.16563000  0.42894000  1.0
  H  H35  1  0.54086000  0.66562000  0.42894000  1.0
  H  H36  1  0.78801000  0.76094000  0.58343000  1.0
  H  H37  1  0.71201000  0.26096000  0.58344000  1.0
  H  H38  1  0.21201000  0.23904000  0.41656000  1.0
  H  H39  1  0.28800000  0.73904000  0.41656000  1.0
  H  H40  1  0.35065000  0.31651000  0.92576000  1.0
  H  H41  1  0.14935000  0.81652000  0.92575000  1.0
  H  H42  1  0.64935000  0.68349000  0.07425000  1.0
  H  H43  1  0.85065000  0.18348000  0.07424000  1.0
  H  H44  1  0.24684000  0.22461000  0.85123000  1.0
  H  H45  1  0.25315000  0.72461000  0.85123000  1.0
  H  H46  1  0.75316000  0.77539000  0.14878000  1.0
  H  H47  1  0.74686000  0.27539000  0.14877000  1.0
  H  H48  1  0.04377000  0.28021000  0.98845000  1.0
  H  H49  1  0.45621000  0.78020000  0.98845000  1.0
  H  H50  1  0.95622000  0.71980000  0.01156000  1.0
  H  H51  1  0.54377000  0.21980000  0.01155000  1.0
  H  H52  1  0.94874000  0.17364000  0.91842000  1.0
  H  H53  1  0.55125000  0.67363000  0.91842000  1.0
  H  H54  1  0.05125000  0.82637000  0.08158000  1.0
  H  H55  1  0.44875000  0.32638000  0.08158000  1.0
  H  H56  1  0.75370000  0.34807000  0.87038000  1.0
  H  H57  1  0.74631000  0.84806000  0.87038000  1.0
  H  H58  1  0.24632000  0.65194000  0.12962000  1.0
  H  H59  1  0.25368000  0.15196000  0.12962000  1.0
  H  H60  1  0.74905000  0.41433000  0.95761000  1.0
  H  H61  1  0.75094000  0.91431000  0.95761000  1.0
  H  H62  1  0.25095000  0.58569000  0.04239000  1.0
  H  H63  1  0.24905000  0.08569000  0.04239000  1.0
  H  H64  1  0.92941000  0.55755000  0.85850000  1.0
  H  H65  1  0.57059000  0.05754000  0.85850000  1.0
  H  H66  1  0.07060000  0.44246000  0.14150000  1.0
  H  H67  1  0.42939000  0.94247000  0.14151000  1.0
  H  H68  1  0.06265000  0.54922000  0.93976000  1.0
  H  H69  1  0.43735000  0.04921000  0.93976000  1.0
  H  H70  1  0.93737000  0.45080000  0.06024000  1.0
  H  H71  1  0.56262000  0.95080000  0.06025000  1.0
  H  H72  1  0.74410000  0.85518000  0.72128000  1.0
  H  H73  1  0.75580000  0.35522000  0.72129000  1.0
  H  H74  1  0.25588000  0.14481000  0.27871000  1.0
  H  H75  1  0.24418000  0.64479000  0.27872000  1.0
  C  C76  1  0.79537000  0.75469000  0.72775000  1.0
  C  C77  1  0.70456000  0.25472000  0.72775000  1.0
  C  C78  1  0.20462000  0.24530000  0.27224000  1.0
  C  C79  1  0.29542000  0.74527000  0.27225000  1.0
  C  C80  1  0.67085000  0.66263000  0.75706000  1.0
  C  C81  1  0.82912000  0.16266000  0.75705000  1.0
  C  C82  1  0.32913000  0.33735000  0.24294000  1.0
  C  C83  1  0.17090000  0.83734000  0.24295000  1.0
  C  C84  1  0.05274000  0.64087000  0.61344000  1.0
  C  C85  1  0.44723000  0.14088000  0.61345000  1.0
  C  C86  1  0.94727000  0.35913000  0.38655000  1.0
  C  C87  1  0.55276000  0.85914000  0.38655000  1.0
  C  C88  1  0.92631000  0.51221000  0.60975000  1.0
  C  C89  1  0.57369000  0.01223000  0.60975000  1.0
  C  C90  1  0.07370000  0.48778000  0.39025000  1.0
  C  C91  1  0.42630000  0.98778000  0.39026000  1.0
  C  C92  1  0.28622000  0.61561000  0.59585000  1.0
  C  C93  1  0.21378000  0.11562000  0.59584000  1.0
  C  C94  1  0.71380000  0.38438000  0.40415000  1.0
  C  C95  1  0.78622000  0.88438000  0.40416000  1.0
  C  C96  1  0.95298000  0.74082000  0.56821000  1.0
  C  C97  1  0.54702000  0.24084000  0.56821000  1.0
  C  C98  1  0.04703000  0.25916000  0.43178000  1.0
  C  C99  1  0.45299000  0.75917000  0.43179000  1.0
  C  C100  1  0.21139000  0.30162000  0.89194000  1.0
  C  C101  1  0.28860000  0.80162000  0.89194000  1.0
  C  C102  1  0.78861000  0.69839000  0.10807000  1.0
  C  C103  1  0.71139000  0.19839000  0.10806000  1.0
  C  C104  1  0.00977000  0.27297000  0.93294000  1.0
  C  C105  1  0.49022000  0.77296000  0.93294000  1.0
  C  C106  1  0.99022000  0.72704000  0.06706000  1.0
  C  C107  1  0.50979000  0.22705000  0.06706000  1.0
  C  C108  1  0.85321000  0.38160000  0.91449000  1.0
  C  C109  1  0.64678000  0.88160000  0.91449000  1.0
  C  C110  1  0.14679000  0.61841000  0.08551000  1.0
  C  C111  1  0.35321000  0.11841000  0.08552000  1.0
  C  C112  1  0.99984000  0.49107000  0.89404000  1.0
  C  C113  1  0.50015000  0.99106000  0.89404000  1.0
  C  C114  1  0.00017000  0.50894000  0.10596000  1.0
  C  C115  1  0.49983000  0.00895000  0.10596000  1.0
  S  S116  1  0.04219000  0.71047000  0.70376000  1.0
  S  S117  1  0.45774000  0.21048000  0.70375000  1.0
  S  S118  1  0.95781000  0.28952000  0.29623000  1.0
  S  S119  1  0.54225000  0.78952000  0.29624000  1.0
  N  N120  1  0.56922000  0.58210000  0.78293000  1.0
  N  N121  1  0.93075000  0.08212000  0.78292000  1.0
  N  N122  1  0.43077000  0.41790000  0.21707000  1.0
  N  N123  1  0.06924000  0.91789000  0.21708000  1.0
  O  O124  1  0.10998000  0.60149000  0.74422000  1.0
  O  O125  1  0.38998000  0.10150000  0.74421000  1.0
  O  O126  1  0.89002000  0.39851000  0.25578000  1.0
  O  O127  1  0.61001000  0.89850000  0.25579000  1.0
  O  O128  1  0.17721000  0.82910000  0.70499000  1.0
  O  O129  1  0.32272000  0.32911000  0.70499000  1.0
  O  O130  1  0.82275000  0.17090000  0.29500000  1.0
  O  O131  1  0.67728000  0.67090000  0.29502000  1.0
  O  O132  1  0.17184000  0.42223000  0.85835000  1.0
  O  O133  1  0.32816000  0.92222000  0.85835000  1.0
  O  O134  1  0.82815000  0.57777000  0.14165000  1.0
  O  O135  1  0.67183000  0.07778000  0.14165000  1.0
