# generated using pymatgen
data_Ni3H12(C9O8)2
_symmetry_space_group_name_H-M   'P 1'
_cell_length_a   9.76123000
_cell_length_b   10.92820448
_cell_length_c   10.92826546
_cell_angle_alpha   67.79232819
_cell_angle_beta   63.48466895
_cell_angle_gamma   63.48490945
_symmetry_Int_Tables_number   1
_chemical_formula_structural   Ni3H12(C9O8)2
_chemical_formula_sum   'Ni3 H12 C18 O16'
_cell_volume   909.87620632
_cell_formula_units_Z   1
loop_
 _symmetry_equiv_pos_site_id
 _symmetry_equiv_pos_as_xyz
  1  'x, y, z'
loop_
 _atom_site_type_symbol
 _atom_site_label
 _atom_site_symmetry_multiplicity
 _atom_site_fract_x
 _atom_site_fract_y
 _atom_site_fract_z
 _atom_site_occupancy
  Ni  Ni0  1  0.87505000  0.13186000  0.13183000  1.0
  Ni  Ni1  1  0.89522000  0.94975000  0.94973000  1.0
  Ni  Ni2  1  0.21460000  0.94831000  0.94829000  1.0
  H  H3  1  0.46792000  0.14429000  0.92989000  1.0
  H  H4  1  0.46792000  0.92989000  0.14430000  1.0
  H  H5  1  0.03704000  0.50941000  0.97893000  1.0
  H  H6  1  0.47579000  0.98087000  0.51260000  1.0
  H  H7  1  0.03704000  0.97894000  0.50941000  1.0
  H  H8  1  0.47578000  0.51260000  0.98087000  1.0
  H  H9  1  0.84879000  0.90422000  0.77659000  1.0
  H  H10  1  0.47375000  0.77141000  0.89885000  1.0
  H  H11  1  0.84879000  0.77659000  0.90422000  1.0
  H  H12  1  0.47375000  0.89885000  0.77141000  1.0
  H  H13  1  0.65976000  0.33729000  0.21015000  1.0
  H  H14  1  0.65976000  0.21013000  0.33729000  1.0
  C  C15  1  0.40664000  0.25190000  0.94315000  1.0
  C  C16  1  0.40665000  0.94315000  0.25189000  1.0
  C  C17  1  0.24280000  0.31885000  0.95424000  1.0
  C  C18  1  0.48982000  0.95613000  0.32015000  1.0
  C  C19  1  0.24279000  0.95425000  0.31885000  1.0
  C  C20  1  0.48982000  0.32015000  0.95613000  1.0
  C  C21  1  0.16482000  0.45753000  0.96922000  1.0
  C  C22  1  0.41185000  0.97087000  0.45882000  1.0
  C  C23  1  0.16482000  0.96923000  0.45753000  1.0
  C  C24  1  0.41185000  0.45882000  0.97087000  1.0
  C  C25  1  0.25089000  0.52922000  0.97288000  1.0
  C  C26  1  0.25089000  0.97289000  0.52922000  1.0
  C  C27  1  0.17237000  0.68139000  0.97709000  1.0
  C  C28  1  0.17237000  0.97709000  0.68139000  1.0
  C  C29  1  0.15366000  0.23291000  0.96145000  1.0
  C  C30  1  0.65766000  0.96366000  0.23601000  1.0
  C  C31  1  0.15365000  0.96146000  0.23291000  1.0
  C  C32  1  0.65765000  0.23601000  0.96367000  1.0
  O  O33  1  0.00287000  0.26456000  0.03256000  1.0
  O  O34  1  0.70578000  0.03496000  0.26797000  1.0
  O  O35  1  0.00287000  0.03257000  0.26456000  1.0
  O  O36  1  0.70578000  0.26797000  0.03496000  1.0
  O  O37  1  0.24221000  0.13066000  0.90089000  1.0
  O  O38  1  0.73406000  0.90272000  0.13430000  1.0
  O  O39  1  0.24220000  0.90090000  0.13066000  1.0
  O  O40  1  0.73405000  0.13430000  0.90272000  1.0
  O  O41  1  0.02687000  0.74140000  0.97685000  1.0
  O  O42  1  0.25853000  0.97737000  0.74084000  1.0
  O  O43  1  0.02688000  0.97685000  0.74140000  1.0
  O  O44  1  0.25853000  0.74084000  0.97737000  1.0
  O  O45  1  0.78889000  0.87632000  0.87632000  1.0
  O  O46  1  0.46783000  0.86981000  0.86981000  1.0
  O  O47  1  0.72656000  0.26777000  0.26778000  1.0
  O  O48  1  0.99379000  0.01145000  0.01156000  1.0
