# generated using pymatgen
data_Co2H10C12S2O11
_symmetry_space_group_name_H-M   'P 1'
_cell_length_a   7.45458000
_cell_length_b   10.56155782
_cell_length_c   10.63960000
_cell_angle_alpha   102.03461816
_cell_angle_beta   90.01340000
_cell_angle_gamma   110.64212047
_symmetry_Int_Tables_number   1
_chemical_formula_structural   Co2H10C12S2O11
_chemical_formula_sum   'Co4 H20 C24 S4 O22'
_cell_volume   764.17748588
_cell_formula_units_Z   2
loop_
 _symmetry_equiv_pos_site_id
 _symmetry_equiv_pos_as_xyz
  1  'x, y, z'
loop_
 _atom_site_type_symbol
 _atom_site_label
 _atom_site_symmetry_multiplicity
 _atom_site_fract_x
 _atom_site_fract_y
 _atom_site_fract_z
 _atom_site_occupancy
  Co  Co0  1  0.31820000  0.98589000  0.41598000  1.0
  Co  Co1  1  0.33224000  0.01414000  0.08391000  1.0
  Co  Co2  1  0.68189000  0.01414000  0.58401000  1.0
  Co  Co3  1  0.66775000  0.98587000  0.91609000  1.0
  H  H4  1  0.02480000  0.93179000  0.58262000  1.0
  H  H5  1  0.09283000  0.06817000  0.91737000  1.0
  H  H6  1  0.97521000  0.06820000  0.41740000  1.0
  H  H7  1  0.90716000  0.93190000  0.08267000  1.0
  H  H8  1  0.21778000  0.05982000  0.64498000  1.0
  H  H9  1  0.15776000  0.94004000  0.85497000  1.0
  H  H10  1  0.78223000  0.94015000  0.35502000  1.0
  H  H11  1  0.84211000  0.05998000  0.14501000  1.0
  H  H12  1  0.60663000  0.08297000  0.25865000  1.0
  H  H13  1  0.52376000  0.91711000  0.24137000  1.0
  H  H14  1  0.39339000  0.91702000  0.74131000  1.0
  H  H15  1  0.47628000  0.08289000  0.75869000  1.0
  H  H16  1  0.12994000  0.35917000  0.53091000  1.0
  H  H17  1  0.77069000  0.64101000  0.96920000  1.0
  H  H18  1  0.87005000  0.64080000  0.46904000  1.0
  H  H19  1  0.22933000  0.35898000  0.03082000  1.0
  H  H20  1  0.23694000  0.63397000  0.56654000  1.0
  H  H21  1  0.60246000  0.36625000  0.93363000  1.0
  H  H22  1  0.76305000  0.36602000  0.43344000  1.0
  H  H23  1  0.39751000  0.63373000  0.06638000  1.0
  C  C24  1  0.26246000  0.21707000  0.30857000  1.0
  C  C25  1  0.04575000  0.78287000  0.19126000  1.0
  C  C26  1  0.73751000  0.78292000  0.69145000  1.0
  C  C27  1  0.95428000  0.21717000  0.80874000  1.0
  C  C28  1  0.28291000  0.36305000  0.35674000  1.0
  C  C29  1  0.92011000  0.63690000  0.14317000  1.0
  C  C30  1  0.71709000  0.63694000  0.64324000  1.0
  C  C31  1  0.07990000  0.36309000  0.85684000  1.0
  C  C32  1  0.21604000  0.42119000  0.46758000  1.0
  C  C33  1  0.79477000  0.57889000  0.03247000  1.0
  C  C34  1  0.78395000  0.57879000  0.53239000  1.0
  C  C35  1  0.20523000  0.42112000  0.96756000  1.0
  C  C36  1  0.27282000  0.56626000  0.48660000  1.0
  C  C37  1  0.70623000  0.43385000  0.01350000  1.0
  C  C38  1  0.72716000  0.43371000  0.51338000  1.0
  C  C39  1  0.29376000  0.56615000  0.98651000  1.0
  C  C40  1  0.38395000  0.61632000  0.39022000  1.0
  C  C41  1  0.76743000  0.38372000  0.10984000  1.0
  C  C42  1  0.61605000  0.38366000  0.60976000  1.0
  C  C43  1  0.23260000  0.61629000  0.89019000  1.0
  C  C44  1  0.47271000  0.75913000  0.37666000  1.0
  C  C45  1  0.71333000  0.24092000  0.12347000  1.0
  C  C46  1  0.52731000  0.24085000  0.62334000  1.0
  C  C47  1  0.28671000  0.75912000  0.87656000  1.0
  S  S48  1  0.41520000  0.48583000  0.27639000  1.0
  S  S49  1  0.92957000  0.51405000  0.22350000  1.0
  S  S50  1  0.58481000  0.51414000  0.72359000  1.0
  S  S51  1  0.07047000  0.48597000  0.77652000  1.0
  O  O52  1  0.21146000  0.13594000  0.38773000  1.0
  O  O53  1  0.07566000  0.86407000  0.11217000  1.0
  O  O54  1  0.78855000  0.86410000  0.61233000  1.0
  O  O55  1  0.92436000  0.13596000  0.88782000  1.0
  O  O56  1  0.30095000  0.18303000  0.19270000  1.0
  O  O57  1  0.11857000  0.81690000  0.30709000  1.0
  O  O58  1  0.69895000  0.81692000  0.80731000  1.0
  O  O59  1  0.88150000  0.18320000  0.69291000  1.0
  O  O60  1  0.45030000  0.85544000  0.46803000  1.0
  O  O61  1  0.59452000  0.14461000  0.03211000  1.0
  O  O62  1  0.54971000  0.14451000  0.53198000  1.0
  O  O63  1  0.40542000  0.85544000  0.96789000  1.0
  O  O64  1  0.56459000  0.78431000  0.27877000  1.0
  O  O65  1  0.78018000  0.21569000  0.22131000  1.0
  O  O66  1  0.43545000  0.21570000  0.72123000  1.0
  O  O67  1  0.21987000  0.78427000  0.77866000  1.0
  O  O68  1  0.16674000  0.97087000  0.58128000  1.0
  O  O69  1  0.19564000  0.02899000  0.91861000  1.0
  O  O70  1  0.83327000  0.02911000  0.41872000  1.0
  O  O71  1  0.80425000  0.97099000  0.08135000  1.0
  O  O72  1  0.48290000  0.00004000  0.24994000  1.0
  O  O73  1  0.51711000  0.99994000  0.75001000  1.0
