# generated using pymatgen
data_MnH15C12N2O5
_symmetry_space_group_name_H-M   'P 1'
_cell_length_a   7.02496000
_cell_length_b   21.64440000
_cell_length_c   21.64445000
_cell_angle_alpha   60.00022925
_cell_angle_beta   89.99990000
_cell_angle_gamma   89.99990000
_symmetry_Int_Tables_number   1
_chemical_formula_structural   MnH15C12N2O5
_chemical_formula_sum   'Mn6 H90 C72 N12 O30'
_cell_volume   2850.14920952
_cell_formula_units_Z   6
loop_
 _symmetry_equiv_pos_site_id
 _symmetry_equiv_pos_as_xyz
  1  'x, y, z'
loop_
 _atom_site_type_symbol
 _atom_site_label
 _atom_site_symmetry_multiplicity
 _atom_site_fract_x
 _atom_site_fract_y
 _atom_site_fract_z
 _atom_site_occupancy
  Mn  Mn0  1  0.84844000  0.60499000  0.73066000  1.0
  Mn  Mn1  1  0.48489000  0.39501000  0.33565000  1.0
  Mn  Mn2  1  0.51511000  0.66436000  0.60498000  1.0
  Mn  Mn3  1  0.18177000  0.73067000  0.66435000  1.0
  Mn  Mn4  1  0.15155000  0.26934000  0.39502000  1.0
  Mn  Mn5  1  0.81822000  0.33564000  0.26934000  1.0
  H  H6  1  0.00418000  0.57469000  0.99955000  1.0
  H  H7  1  0.32916000  0.42531000  0.57424000  1.0
  H  H8  1  0.67084000  0.42576000  0.57469000  1.0
  H  H9  1  0.33751000  0.99955000  0.42576000  1.0
  H  H10  1  0.99582000  0.00045000  0.42531000  1.0
  H  H11  1  0.66249000  0.57424000  0.00045000  1.0
  H  H12  1  0.85988000  0.62886000  0.87924000  1.0
  H  H13  1  0.47345000  0.37114000  0.50810000  1.0
  H  H14  1  0.52655000  0.49189000  0.62887000  1.0
  H  H15  1  0.19322000  0.87924000  0.49189000  1.0
  H  H16  1  0.14012000  0.12077000  0.37113000  1.0
  H  H17  1  0.80678000  0.50811000  0.12076000  1.0
  H  H18  1  0.54559000  0.56938000  0.90919000  1.0
  H  H19  1  0.78774000  0.43063000  0.47857000  1.0
  H  H20  1  0.21226000  0.52143000  0.56937000  1.0
  H  H21  1  0.87893000  0.90919000  0.52143000  1.0
  H  H22  1  0.45440000  0.09081000  0.43062000  1.0
  H  H23  1  0.12107000  0.47858000  0.09080000  1.0
  H  H24  1  0.21600000  0.37476000  0.72139000  1.0
  H  H25  1  0.11735000  0.62524000  0.09615000  1.0
  H  H26  1  0.88266000  0.90386000  0.37475000  1.0
  H  H27  1  0.54933000  0.72139000  0.90386000  1.0
  H  H28  1  0.78400000  0.27861000  0.62524000  1.0
  H  H29  1  0.45068000  0.09615000  0.27860000  1.0
  H  H30  1  0.20578000  0.31524000  0.81562000  1.0
  H  H31  1  0.12756000  0.68476000  0.13086000  1.0
  H  H32  1  0.87244000  0.86914000  0.31524000  1.0
  H  H33  1  0.53910000  0.81562000  0.86914000  1.0
  H  H34  1  0.79422000  0.18438000  0.68476000  1.0
  H  H35  1  0.46089000  0.13086000  0.18437000  1.0
  H  H36  1  0.99071000  0.34631000  0.76511000  1.0
  H  H37  1  0.34264000  0.65368000  0.11142000  1.0
  H  H38  1  0.65737000  0.88858000  0.34632000  1.0
  H  H39  1  0.32403000  0.76510000  0.88858000  1.0
  H  H40  1  0.00929000  0.23490000  0.65368000  1.0
  H  H41  1  0.67597000  0.11142000  0.23489000  1.0
  H  H42  1  0.41498000  0.44406000  0.75355000  1.0
  H  H43  1  0.91836000  0.55594000  0.19761000  1.0
  H  H44  1  0.08164000  0.80239000  0.44406000  1.0
  H  H45  1  0.74831000  0.75355000  0.80240000  1.0
  H  H46  1  0.58501000  0.24645000  0.55594000  1.0
  H  H47  1  0.25169000  0.19760000  0.24645000  1.0
  H  H48  1  0.28908000  0.51315000  0.75747000  1.0
  H  H49  1  0.04426000  0.48684000  0.27063000  1.0
  H  H50  1  0.95574000  0.72938000  0.51315000  1.0
  H  H51  1  0.62242000  0.75747000  0.72938000  1.0
  H  H52  1  0.71091000  0.24252000  0.48685000  1.0
  H  H53  1  0.37759000  0.27062000  0.24253000  1.0
  H  H54  1  0.27053000  0.44271000  0.88829000  1.0
  H  H55  1  0.06281000  0.55729000  0.33100000  1.0
  H  H56  1  0.93719000  0.66901000  0.44271000  1.0
  H  H57  1  0.60386000  0.88828000  0.66900000  1.0
  H  H58  1  0.72947000  0.11172000  0.55728000  1.0
  H  H59  1  0.39615000  0.33100000  0.11171000  1.0
  H  H60  1  0.36808000  0.36603000  0.88881000  1.0
  H  H61  1  0.96526000  0.63397000  0.25484000  1.0
  H  H62  1  0.03475000  0.74516000  0.36603000  1.0
  H  H63  1  0.70141000  0.88881000  0.74516000  1.0
  H  H64  1  0.63192000  0.11119000  0.63397000  1.0
  H  H65  1  0.29859000  0.25484000  0.11119000  1.0
  H  H66  1  0.66599000  0.43148000  0.83591000  1.0
  H  H67  1  0.66735000  0.56853000  0.26738000  1.0
  H  H68  1  0.33265000  0.73262000  0.43147000  1.0
  H  H69  1  0.99932000  0.83591000  0.73262000  1.0
  H  H70  1  0.33401000  0.16409000  0.56853000  1.0
  H  H71  1  0.00068000  0.26738000  0.16409000  1.0
  H  H72  1  0.57412000  0.50355000  0.83849000  1.0
  H  H73  1  0.75922000  0.49645000  0.34204000  1.0
  H  H74  1  0.24078000  0.65796000  0.50355000  1.0
  H  H75  1  0.90745000  0.83849000  0.65796000  1.0
  H  H76  1  0.42588000  0.16151000  0.49645000  1.0
  H  H77  1  0.09256000  0.34204000  0.16151000  1.0
  H  H78  1  0.64571000  0.36254000  0.96629000  1.0
  H  H79  1  0.68762000  0.63745000  0.32883000  1.0
  H  H80  1  0.31237000  0.67117000  0.36254000  1.0
  H  H81  1  0.97904000  0.96628000  0.67118000  1.0
  H  H82  1  0.35429000  0.03371000  0.63746000  1.0
  H  H83  1  0.02096000  0.32883000  0.03371000  1.0
  H  H84  1  0.77909000  0.44363000  0.93402000  1.0
  H  H85  1  0.55424000  0.55637000  0.37765000  1.0
  H  H86  1  0.44576000  0.62234000  0.44364000  1.0
  H  H87  1  0.11243000  0.93401000  0.62235000  1.0
  H  H88  1  0.22091000  0.06599000  0.55636000  1.0
  H  H89  1  0.88758000  0.37766000  0.06598000  1.0
  H  H90  1  0.54282000  0.43791000  0.96764000  1.0
  H  H91  1  0.79051000  0.56209000  0.40555000  1.0
  H  H92  1  0.20948000  0.59446000  0.43791000  1.0
  H  H93  1  0.87615000  0.96763000  0.59446000  1.0
  H  H94  1  0.45718000  0.03236000  0.56209000  1.0
  H  H95  1  0.12385000  0.40555000  0.03236000  1.0
  C  C96  1  0.95847000  0.44564000  0.79402000  1.0
  C  C97  1  0.37487000  0.55437000  0.23966000  1.0
  C  C98  1  0.62513000  0.76034000  0.44564000  1.0
  C  C99  1  0.29180000  0.79402000  0.76034000  1.0
  C  C100  1  0.04153000  0.20598000  0.55436000  1.0
  C  C101  1  0.70820000  0.23967000  0.20597000  1.0
  C  C102  1  0.13602000  0.36129000  0.77028000  1.0
  C  C103  1  0.19732000  0.63872000  0.13156000  1.0
  C  C104  1  0.80268000  0.86843000  0.36129000  1.0
  C  C105  1  0.46935000  0.77028000  0.86844000  1.0
  C  C106  1  0.86398000  0.22973000  0.63871000  1.0
  C  C107  1  0.53066000  0.13156000  0.22972000  1.0
  C  C108  1  0.30597000  0.45513000  0.78316000  1.0
  C  C109  1  0.02737000  0.54487000  0.23829000  1.0
  C  C110  1  0.97263000  0.76172000  0.45513000  1.0
  C  C111  1  0.63930000  0.78315000  0.76172000  1.0
  C  C112  1  0.69403000  0.21684000  0.54487000  1.0
  C  C113  1  0.36070000  0.23829000  0.21684000  1.0
  C  C114  1  0.36908000  0.42473000  0.86098000  1.0
  C  C115  1  0.96426000  0.57527000  0.28571000  1.0
  C  C116  1  0.03574000  0.71429000  0.42473000  1.0
  C  C117  1  0.70241000  0.86098000  0.71429000  1.0
  C  C118  1  0.63092000  0.13902000  0.57527000  1.0
  C  C119  1  0.29759000  0.28571000  0.13902000  1.0
  C  C120  1  0.63678000  0.42096000  0.93832000  1.0
  C  C121  1  0.69655000  0.57904000  0.35928000  1.0
  C  C122  1  0.30344000  0.64072000  0.42096000  1.0
  C  C123  1  0.97011000  0.93832000  0.64072000  1.0
  C  C124  1  0.36322000  0.06168000  0.57904000  1.0
  C  C125  1  0.02989000  0.35928000  0.06168000  1.0
  C  C126  1  0.11818000  0.63125000  0.82521000  1.0
  C  C127  1  0.21515000  0.36875000  0.45646000  1.0
  C  C128  1  0.78485000  0.54353000  0.63126000  1.0
  C  C129  1  0.45152000  0.82520000  0.54354000  1.0
  C  C130  1  0.88181000  0.17479000  0.36875000  1.0
  C  C131  1  0.54848000  0.45647000  0.17479000  1.0
  C  C132  1  0.31590000  0.61274000  0.83520000  1.0
  C  C133  1  0.01743000  0.38726000  0.44794000  1.0
  C  C134  1  0.98257000  0.55206000  0.61274000  1.0
  C  C135  1  0.64924000  0.83520000  0.55206000  1.0
  C  C136  1  0.68409000  0.16480000  0.38726000  1.0
  C  C137  1  0.35076000  0.44794000  0.16480000  1.0
  C  C138  1  0.39466000  0.58265000  0.90405000  1.0
  C  C139  1  0.93867000  0.41735000  0.48670000  1.0
  C  C140  1  0.06133000  0.51330000  0.58265000  1.0
  C  C141  1  0.72800000  0.90405000  0.51329000  1.0
  C  C142  1  0.60534000  0.09595000  0.41735000  1.0
  C  C143  1  0.27200000  0.48671000  0.09595000  1.0
  C  C144  1  0.28896000  0.56763000  0.96437000  1.0
  C  C145  1  0.04437000  0.43237000  0.53200000  1.0
  C  C146  1  0.95563000  0.46800000  0.56763000  1.0
  C  C147  1  0.62230000  0.96437000  0.46800000  1.0
  C  C148  1  0.71104000  0.03563000  0.43237000  1.0
  C  C149  1  0.37770000  0.53200000  0.03563000  1.0
  C  C150  1  0.09261000  0.58479000  0.95397000  1.0
  C  C151  1  0.24072000  0.41521000  0.53876000  1.0
  C  C152  1  0.75928000  0.46124000  0.58479000  1.0
  C  C153  1  0.42595000  0.95397000  0.46124000  1.0
  C  C154  1  0.90739000  0.04602000  0.41522000  1.0
  C  C155  1  0.57405000  0.53875000  0.04603000  1.0
  C  C156  1  0.01100000  0.61548000  0.88693000  1.0
  C  C157  1  0.32233000  0.38452000  0.50241000  1.0
  C  C158  1  0.67767000  0.49759000  0.61548000  1.0
  C  C159  1  0.34434000  0.88693000  0.49759000  1.0
  C  C160  1  0.98899000  0.11307000  0.38452000  1.0
  C  C161  1  0.65566000  0.50241000  0.11307000  1.0
  C  C162  1  0.44234000  0.61903000  0.77789000  1.0
  C  C163  1  0.89099000  0.38096000  0.39693000  1.0
  C  C164  1  0.10901000  0.60307000  0.61904000  1.0
  C  C165  1  0.77568000  0.77789000  0.60307000  1.0
  C  C166  1  0.55765000  0.22211000  0.38096000  1.0
  C  C167  1  0.22433000  0.39693000  0.22211000  1.0
  N  N168  1  0.12773000  0.42291000  0.77996000  1.0
  N  N169  1  0.20561000  0.57709000  0.20287000  1.0
  N  N170  1  0.79440000  0.79713000  0.42292000  1.0
  N  N171  1  0.46106000  0.77996000  0.79713000  1.0
  N  N172  1  0.87226000  0.22005000  0.57708000  1.0
  N  N173  1  0.53894000  0.20287000  0.22004000  1.0
  N  N174  1  0.56472000  0.44772000  0.86519000  1.0
  N  N175  1  0.76862000  0.55228000  0.31291000  1.0
  N  N176  1  0.23138000  0.68709000  0.44772000  1.0
  N  N177  1  0.89805000  0.86519000  0.68709000  1.0
  N  N178  1  0.43528000  0.13481000  0.55228000  1.0
  N  N179  1  0.10195000  0.31291000  0.13481000  1.0
  O  O180  1  0.96313000  0.50239000  0.79952000  1.0
  O  O181  1  0.37021000  0.49761000  0.30191000  1.0
  O  O182  1  0.62980000  0.69809000  0.50239000  1.0
  O  O183  1  0.29647000  0.79952000  0.69809000  1.0
  O  O184  1  0.03686000  0.20048000  0.49761000  1.0
  O  O185  1  0.70354000  0.30191000  0.20048000  1.0
  O  O186  1  0.80801000  0.40899000  0.80191000  1.0
  O  O187  1  0.52533000  0.59101000  0.21090000  1.0
  O  O188  1  0.47468000  0.78911000  0.40898000  1.0
  O  O189  1  0.14134000  0.80191000  0.78911000  1.0
  O  O190  1  0.19198000  0.19809000  0.59102000  1.0
  O  O191  1  0.85866000  0.21090000  0.19808000  1.0
  O  O192  1  0.03158000  0.66168000  0.76228000  1.0
  O  O193  1  0.30175000  0.33832000  0.42396000  1.0
  O  O194  1  0.69825000  0.57604000  0.66168000  1.0
  O  O195  1  0.36492000  0.76228000  0.57604000  1.0
  O  O196  1  0.96841000  0.23772000  0.33832000  1.0
  O  O197  1  0.63508000  0.42396000  0.23772000  1.0
  O  O198  1  0.38450000  0.64677000  0.71364000  1.0
  O  O199  1  0.94882000  0.35323000  0.36041000  1.0
  O  O200  1  0.05117000  0.63960000  0.64676000  1.0
  O  O201  1  0.71784000  0.71365000  0.63959000  1.0
  O  O202  1  0.61549000  0.28636000  0.35323000  1.0
  O  O203  1  0.28216000  0.36041000  0.28636000  1.0
  O  O204  1  0.61204000  0.59249000  0.79573000  1.0
  O  O205  1  0.72129000  0.40751000  0.38823000  1.0
  O  O206  1  0.27871000  0.61178000  0.59249000  1.0
  O  O207  1  0.94538000  0.79573000  0.61178000  1.0
  O  O208  1  0.38795000  0.20427000  0.40751000  1.0
  O  O209  1  0.05462000  0.38822000  0.20427000  1.0
