# generated using pymatgen
data_CdH4(C2O3)2
_symmetry_space_group_name_H-M   'P 1'
_cell_length_a   6.25995000
_cell_length_b   8.31236000
_cell_length_c   12.08510000
_cell_angle_alpha   90.00010000
_cell_angle_beta   90.00040000
_cell_angle_gamma   76.63700000
_symmetry_Int_Tables_number   1
_chemical_formula_structural   CdH4(C2O3)2
_chemical_formula_sum   'Cd4 H16 C16 O24'
_cell_volume   611.82182855
_cell_formula_units_Z   4
loop_
 _symmetry_equiv_pos_site_id
 _symmetry_equiv_pos_as_xyz
  1  'x, y, z'
loop_
 _atom_site_type_symbol
 _atom_site_label
 _atom_site_symmetry_multiplicity
 _atom_site_fract_x
 _atom_site_fract_y
 _atom_site_fract_z
 _atom_site_occupancy
  Cd  Cd0  1  0.70637000  0.76833000  0.36905000  1.0
  Cd  Cd1  1  0.79363000  0.23166000  0.86906000  1.0
  Cd  Cd2  1  0.29363000  0.23167000  0.63094000  1.0
  Cd  Cd3  1  0.20637000  0.76833000  0.13095000  1.0
  H  H4  1  0.76764000  0.95816000  0.55724000  1.0
  H  H5  1  0.73236000  0.04184000  0.05724000  1.0
  H  H6  1  0.23235000  0.04185000  0.44276000  1.0
  H  H7  1  0.26765000  0.95815000  0.94276000  1.0
  H  H8  1  0.81813000  0.76535000  0.59772000  1.0
  H  H9  1  0.68186000  0.23465000  0.09772000  1.0
  H  H10  1  0.18186000  0.23466000  0.40228000  1.0
  H  H11  1  0.31814000  0.76534000  0.90228000  1.0
  H  H12  1  0.67496000  0.74120000  0.13947000  1.0
  H  H13  1  0.82504000  0.25880000  0.63947000  1.0
  H  H14  1  0.32504000  0.25880000  0.86053000  1.0
  H  H15  1  0.17496000  0.74120000  0.36053000  1.0
  H  H16  1  0.63100000  0.56811000  0.18959000  1.0
  H  H17  1  0.86899000  0.43189000  0.68959000  1.0
  H  H18  1  0.36900000  0.43189000  0.81041000  1.0
  H  H19  1  0.13100000  0.56811000  0.31041000  1.0
  C  C20  1  0.70053000  0.38536000  0.40761000  1.0
  C  C21  1  0.79946000  0.61464000  0.90762000  1.0
  C  C22  1  0.29947000  0.61464000  0.59238000  1.0
  C  C23  1  0.20054000  0.38535000  0.09238000  1.0
  C  C24  1  0.68218000  0.31894000  0.29572000  1.0
  C  C25  1  0.81782000  0.68106000  0.79572000  1.0
  C  C26  1  0.31783000  0.68106000  0.70428000  1.0
  C  C27  1  0.18218000  0.31894000  0.20428000  1.0
  C  C28  1  0.67252000  0.15759000  0.34311000  1.0
  C  C29  1  0.82747000  0.84240000  0.84311000  1.0
  C  C30  1  0.32748000  0.84241000  0.65689000  1.0
  C  C31  1  0.17253000  0.15759000  0.15689000  1.0
  C  C32  1  0.68634000  0.22544000  0.45482000  1.0
  C  C33  1  0.81365000  0.77456000  0.95482000  1.0
  C  C34  1  0.31366000  0.77457000  0.54518000  1.0
  C  C35  1  0.18635000  0.22543000  0.04518000  1.0
  O  O36  1  0.72204000  0.51956000  0.44894000  1.0
  O  O37  1  0.77796000  0.48044000  0.94895000  1.0
  O  O38  1  0.27797000  0.48045000  0.55105000  1.0
  O  O39  1  0.22204000  0.51955000  0.05105000  1.0
  O  O40  1  0.67539000  0.37510000  0.19835000  1.0
  O  O41  1  0.82460000  0.62490000  0.69835000  1.0
  O  O42  1  0.32461000  0.62490000  0.80165000  1.0
  O  O43  1  0.17539000  0.37510000  0.30165000  1.0
  O  O44  1  0.65448000  0.02418000  0.29877000  1.0
  O  O45  1  0.84552000  0.97583000  0.79877000  1.0
  O  O46  1  0.34552000  0.97582000  0.70123000  1.0
  O  O47  1  0.15447000  0.02417000  0.20123000  1.0
  O  O48  1  0.68240000  0.17138000  0.55387000  1.0
  O  O49  1  0.81760000  0.82862000  0.05388000  1.0
  O  O50  1  0.31760000  0.82863000  0.44612000  1.0
  O  O51  1  0.18241000  0.17137000  0.94612000  1.0
  O  O52  1  0.82365000  0.84118000  0.53409000  1.0
  O  O53  1  0.67635000  0.15882000  0.03409000  1.0
  O  O54  1  0.17634000  0.15882000  0.46591000  1.0
  O  O55  1  0.32366000  0.84118000  0.96591000  1.0
  O  O56  1  0.58547000  0.69439000  0.19563000  1.0
  O  O57  1  0.91453000  0.30561000  0.69563000  1.0
  O  O58  1  0.41453000  0.30561000  0.80438000  1.0
  O  O59  1  0.08546000  0.69439000  0.30437000  1.0
