# generated using pymatgen
data_CoH20C32N4O7
_symmetry_space_group_name_H-M   'P 1'
_cell_length_a   9.90994000
_cell_length_b   13.01650000
_cell_length_c   14.55020000
_cell_angle_alpha   107.58900000
_cell_angle_beta   97.99820000
_cell_angle_gamma   103.29900000
_symmetry_Int_Tables_number   1
_chemical_formula_structural   CoH20C32N4O7
_chemical_formula_sum   'Co2 H40 C64 N8 O14'
_cell_volume   1696.53192746
_cell_formula_units_Z   2
loop_
 _symmetry_equiv_pos_site_id
 _symmetry_equiv_pos_as_xyz
  1  'x, y, z'
loop_
 _atom_site_type_symbol
 _atom_site_label
 _atom_site_symmetry_multiplicity
 _atom_site_fract_x
 _atom_site_fract_y
 _atom_site_fract_z
 _atom_site_occupancy
  Co  Co0  1  0.52764000  0.52049000  0.15400000  1.0
  Co  Co1  1  0.47236000  0.47968000  0.84587000  1.0
  H  H2  1  0.81405000  0.67346000  0.25011000  1.0
  H  H3  1  0.91976000  0.87785000  0.34391000  1.0
  H  H4  1  0.49378000  0.91276000  0.29918000  1.0
  H  H5  1  0.40577000  0.70611000  0.20345000  1.0
  H  H6  1  0.06121000  0.30086000  0.44611000  1.0
  H  H7  1  0.06881000  0.48603000  0.56755000  1.0
  H  H8  1  0.75430000  0.31533000  0.68964000  1.0
  H  H9  1  0.73969000  0.13119000  0.56237000  1.0
  H  H10  1  0.18494000  0.55623000  0.72780000  1.0
  H  H11  1  0.34848000  0.75091000  0.79293000  1.0
  H  H12  1  0.99357000  0.88612000  0.81779000  1.0
  H  H13  1  0.82578000  0.69009000  0.74602000  1.0
  H  H14  1  0.52213000  0.12778000  0.94901000  1.0
  H  H15  1  0.63498000  0.32554000  0.05895000  1.0
  H  H16  1  0.24633000  0.36936000  0.11026000  1.0
  H  H17  1  0.11858000  0.17178000  0.00612000  1.0
  H  H18  1  0.69006000  0.43576000  0.42306000  1.0
  H  H19  1  0.32712000  0.56458000  0.40714000  1.0
  H  H20  1  0.93095000  0.53622000  0.16192000  1.0
  H  H21  1  0.18077000  0.54133000  0.15285000  1.0
  H  H22  1  0.18611000  0.32646000  0.74962000  1.0
  H  H23  1  0.08092000  0.12210000  0.65571000  1.0
  H  H24  1  0.50724000  0.08790000  0.70022000  1.0
  H  H25  1  0.59467000  0.29423000  0.79624000  1.0
  H  H26  1  0.93937000  0.69936000  0.55443000  1.0
  H  H27  1  0.93088000  0.51410000  0.43265000  1.0
  H  H28  1  0.24516000  0.68439000  0.31009000  1.0
  H  H29  1  0.26036000  0.86869000  0.43758000  1.0
  H  H30  1  0.81406000  0.44331000  0.27187000  1.0
  H  H31  1  0.65098000  0.24842000  0.20730000  1.0
  H  H32  1  0.00660000  0.11400000  0.18237000  1.0
  H  H33  1  0.17384000  0.31017000  0.25364000  1.0
  H  H34  1  0.47751000  0.87231000  0.05075000  1.0
  H  H35  1  0.36474000  0.67471000  0.94043000  1.0
  H  H36  1  0.75367000  0.63064000  0.88999000  1.0
  H  H37  1  0.88160000  0.82799000  0.99489000  1.0
  H  H38  1  0.30959000  0.56414000  0.57665000  1.0
  H  H39  1  0.67263000  0.43541000  0.59260000  1.0
  H  H40  1  0.06897000  0.46365000  0.83782000  1.0
  H  H41  1  0.81924000  0.45863000  0.84690000  1.0
  C  C42  1  0.74725000  0.72969000  0.26302000  1.0
  C  C43  1  0.80523000  0.84306000  0.31600000  1.0
  C  C44  1  0.71471000  0.91436000  0.33297000  1.0
  C  C45  1  0.56713000  0.86163000  0.29012000  1.0
  C  C46  1  0.51785000  0.74785000  0.23769000  1.0
  C  C47  1  0.88608000  0.09652000  0.41730000  1.0
  C  C48  1  0.99529000  0.30490000  0.50046000  1.0
  C  C49  1  0.00072000  0.40827000  0.56885000  1.0
  C  C50  1  0.91340000  0.41088000  0.63681000  1.0
  C  C51  1  0.82224000  0.31084000  0.63664000  1.0
  C  C52  1  0.81462000  0.20893000  0.56602000  1.0
  C  C53  1  0.90060000  0.20503000  0.49695000  1.0
  C  C54  1  0.99569000  0.61251000  0.73222000  1.0
  C  C55  1  0.14224000  0.62780000  0.74501000  1.0
  C  C56  1  0.23376000  0.73666000  0.78274000  1.0
  C  C57  1  0.18135000  0.83006000  0.81111000  1.0
  C  C58  1  0.03369000  0.81307000  0.79769000  1.0
  C  C59  1  0.94065000  0.70464000  0.75773000  1.0
  C  C60  1  0.28454000  0.94443000  0.85648000  1.0
  C  C61  1  0.30737000  0.13102000  0.96391000  1.0
  C  C62  1  0.45780000  0.17889000  0.98339000  1.0
  C  C63  1  0.52022000  0.28970000  0.04332000  1.0
  C  C64  1  0.30321000  0.31373000  0.07216000  1.0
  C  C65  1  0.23276000  0.20394000  0.01386000  1.0
  C  C66  1  0.51517000  0.50367000  0.30664000  1.0
  C  C67  1  0.50884000  0.50066000  0.40579000  1.0
  C  C68  1  0.60797000  0.46446000  0.45716000  1.0
  C  C69  1  0.40132000  0.53606000  0.44848000  1.0
  C  C70  1  0.96164000  0.52067000  0.09121000  1.0
  C  C71  1  0.10154000  0.52418000  0.08616000  1.0
  C  C72  1  0.14100000  0.50354000  0.99483000  1.0
  C  C73  1  0.29202000  0.50708000  0.99064000  1.0
  C  C74  1  0.25311000  0.27038000  0.73685000  1.0
  C  C75  1  0.19540000  0.15698000  0.68386000  1.0
  C  C76  1  0.28604000  0.08580000  0.66666667  1.0
  C  C77  1  0.43359000  0.13879000  0.70933000  1.0
  C  C78  1  0.48260000  0.25243000  0.76200000  1.0
  C  C79  1  0.11463000  0.90391000  0.58267000  1.0
  C  C80  1  0.00502000  0.69521000  0.49990000  1.0
  C  C81  1  0.99907000  0.59182000  0.43135000  1.0
  C  C82  1  0.08612000  0.58907000  0.36318000  1.0
  C  C83  1  0.17751000  0.68902000  0.36329000  1.0
  C  C84  1  0.18548000  0.79095000  0.43396000  1.0
  C  C85  1  0.09994000  0.79499000  0.50336000  1.0
  C  C86  1  0.00362000  0.38737000  0.26768000  1.0
  C  C87  1  0.85697000  0.37182000  0.25490000  1.0
  C  C88  1  0.76573000  0.26287000  0.21744000  1.0
  C  C89  1  0.81847000  0.16957000  0.18930000  1.0
  C  C90  1  0.96620000  0.18689000  0.20238000  1.0
  C  C91  1  0.05895000  0.29541000  0.24207000  1.0
  C  C92  1  0.71561000  0.05492000  0.14524000  1.0
  C  C93  1  0.69259000  0.86891000  0.03655000  1.0
  C  C94  1  0.54197000  0.82125000  0.01651000  1.0
  C  C95  1  0.47953000  0.71052000  0.95636000  1.0
  C  C96  1  0.69680000  0.68627000  0.92810000  1.0
  C  C97  1  0.76731000  0.79589000  0.98680000  1.0
  C  C98  1  0.48469000  0.49644000  0.69316000  1.0
  C  C99  1  0.49088000  0.49930000  0.59395000  1.0
  C  C100  1  0.39169000  0.53544000  0.54255000  1.0
  C  C101  1  0.59838000  0.46387000  0.55124000  1.0
  C  C102  1  0.03833000  0.47921000  0.90854000  1.0
  C  C103  1  0.89842000  0.47573000  0.91360000  1.0
  C  C104  1  0.85897000  0.49637000  0.00492000  1.0
  C  C105  1  0.70800000  0.49297000  0.00916000  1.0
  N  N106  1  0.60576000  0.68162000  0.22380000  1.0
  N  N107  1  0.75327000  0.02443000  0.38851000  1.0
  N  N108  1  0.22938000  0.02574000  0.90580000  1.0
  N  N109  1  0.44559000  0.35906000  0.08566000  1.0
  N  N110  1  0.39453000  0.31861000  0.77618000  1.0
  N  N111  1  0.24742000  0.97580000  0.61077000  1.0
  N  N112  1  0.77068000  0.97401000  0.09483000  1.0
  N  N113  1  0.55429000  0.64106000  0.91427000  1.0
  O  O114  1  0.98709000  0.08169000  0.37657000  1.0
  O  O115  1  0.89737000  0.50767000  0.70129000  1.0
  O  O116  1  0.41066000  0.95969000  0.84632000  1.0
  O  O117  1  0.62356000  0.49608000  0.26800000  1.0
  O  O118  1  0.41238000  0.51702000  0.25106000  1.0
  O  O119  1  0.38275000  0.54920000  0.07279000  1.0
  O  O120  1  0.31410000  0.47116000  0.90386000  1.0
  O  O121  1  0.01275000  0.91936000  0.62219000  1.0
  O  O122  1  0.10172000  0.49225000  0.29855000  1.0
  O  O123  1  0.59086000  0.03915000  0.15807000  1.0
  O  O124  1  0.37630000  0.50401000  0.73182000  1.0
  O  O125  1  0.58758000  0.48326000  0.74878000  1.0
  O  O126  1  0.61734000  0.45100000  0.92697000  1.0
  O  O127  1  0.68589000  0.52891000  0.09592000  1.0
