# generated using pymatgen
data_ZnH25C28NO4
_symmetry_space_group_name_H-M   'P 1'
_cell_length_a   11.85980000
_cell_length_b   13.10440000
_cell_length_c   13.10490000
_cell_angle_alpha   96.90340000
_cell_angle_beta   90.70260000
_cell_angle_gamma   90.70740000
_symmetry_Int_Tables_number   1
_chemical_formula_structural   ZnH25C28NO4
_chemical_formula_sum   'Zn2 H50 C56 N2 O8'
_cell_volume   2021.59176470
_cell_formula_units_Z   2
loop_
 _symmetry_equiv_pos_site_id
 _symmetry_equiv_pos_as_xyz
  1  'x, y, z'
loop_
 _atom_site_type_symbol
 _atom_site_label
 _atom_site_symmetry_multiplicity
 _atom_site_fract_x
 _atom_site_fract_y
 _atom_site_fract_z
 _atom_site_occupancy
  Zn  Zn0  1  0.38075000  0.50622000  0.51619000  1.0
  Zn  Zn1  1  0.61924000  0.48383000  0.49378000  1.0
  H  H2  1  0.19403000  0.41062000  0.41380000  1.0
  H  H3  1  0.36712000  0.49865000  0.83095000  1.0
  H  H4  1  0.03062000  0.81597000  0.62903000  1.0
  H  H5  1  0.36278000  0.82511000  0.54275000  1.0
  H  H6  1  0.63287000  0.16908000  0.50141000  1.0
  H  H7  1  0.28076000  0.49345000  0.19077000  1.0
  H  H8  1  0.72008000  0.44589000  0.81267000  1.0
  H  H9  1  0.71923000  0.80924000  0.50650000  1.0
  H  H10  1  0.27993000  0.18737000  0.55418000  1.0
  H  H11  1  0.80592000  0.58620000  0.58935000  1.0
  H  H12  1  0.15742000  0.68933000  0.81528000  1.0
  H  H13  1  0.24543000  0.58176000  0.78313000  1.0
  H  H14  1  0.30693000  0.70542000  0.81473000  1.0
  H  H15  1  0.31703000  0.67194000  0.63065000  1.0
  H  H16  1  0.20549000  0.75802000  0.65393000  1.0
  H  H17  1  0.84249000  0.18474000  0.31063000  1.0
  H  H18  1  0.75442000  0.21690000  0.41816000  1.0
  H  H19  1  0.69299000  0.18531000  0.29448000  1.0
  H  H20  1  0.68296000  0.36941000  0.32802000  1.0
  H  H21  1  0.79448000  0.34613000  0.24194000  1.0
  H  H22  1  0.82888000  0.31721000  0.88723000  1.0
  H  H23  1  0.88586000  0.44405000  0.89777000  1.0
  H  H24  1  0.93000000  0.35914000  0.98508000  1.0
  H  H25  1  0.79270000  0.48504000  0.06970000  1.0
  H  H26  1  0.74359000  0.35779000  0.06385000  1.0
  H  H27  1  0.12204000  0.43526000  0.09024000  1.0
  H  H28  1  0.13681000  0.57082000  0.11642000  1.0
  H  H29  1  0.05478000  0.51614000  0.00907000  1.0
  H  H30  1  0.23935000  0.57473000  0.94994000  1.0
  H  H31  1  0.63723000  0.45725000  0.17488000  1.0
  H  H32  1  0.22223000  0.44156000  0.92106000  1.0
  H  H33  1  0.17108000  0.11274000  0.68284000  1.0
  H  H34  1  0.11411000  0.10223000  0.55600000  1.0
  H  H35  1  0.06997000  0.01485000  0.64088000  1.0
  H  H36  1  0.20729000  0.93028000  0.51497000  1.0
  H  H37  1  0.25641000  0.93614000  0.64222000  1.0
  H  H38  1  0.87789000  0.90976000  0.56478000  1.0
  H  H39  1  0.86316000  0.88361000  0.42922000  1.0
  H  H40  1  0.94524000  0.99094000  0.48394000  1.0
  H  H41  1  0.76067000  0.05012000  0.42532000  1.0
  H  H42  1  0.77778000  0.07898000  0.55850000  1.0
  H  H43  1  0.07986000  0.23788000  0.45218000  1.0
  H  H44  1  0.16643000  0.09387000  0.34093000  1.0
  H  H45  1  0.15103000  0.08633000  0.15011000  1.0
  H  H46  1  0.05428000  0.22637000  0.07221000  1.0
  H  H47  1  0.96942000  0.37101000  0.18407000  1.0
  H  H48  1  0.92006000  0.54785000  0.76211000  1.0
  H  H49  1  0.83351000  0.65909000  0.90612000  1.0
  H  H50  1  0.84899000  0.84993000  0.91369000  1.0
  H  H51  1  0.94575000  0.92782000  0.77367000  1.0
  C  C52  1  0.53181000  0.69324000  0.51680000  1.0
  C  C53  1  0.02734000  0.46280000  0.46505000  1.0
  C  C54  1  0.98843000  0.78181000  0.69044000  1.0
  C  C55  1  0.01729000  0.31302000  0.32542000  1.0
  C  C56  1  0.07451000  0.23502000  0.36867000  1.0
  C  C57  1  0.12249000  0.15390000  0.30608000  1.0
  C  C58  1  0.11424000  0.14997000  0.19925000  1.0
  C  C59  1  0.05954000  0.22837000  0.15559000  1.0
  C  C60  1  0.01159000  0.30959000  0.21822000  1.0
  C  C61  1  0.98270000  0.67459000  0.68699000  1.0
  C  C62  1  0.92544000  0.63135000  0.76498000  1.0
  C  C63  1  0.87748000  0.69394000  0.84610000  1.0
  C  C64  1  0.97262000  0.53495000  0.53719000  1.0
  C  C65  1  0.88577000  0.80078000  0.85005000  1.0
  C  C66  1  0.94048000  0.84444000  0.77166000  1.0
  C  C67  1  0.84427000  0.40314000  0.39540000  1.0
  C  C68  1  0.15570000  0.60456000  0.59689000  1.0
  C  C69  1  0.96145000  0.39462000  0.39460000  1.0
  C  C70  1  0.03852000  0.60540000  0.60538000  1.0
  C  C71  1  0.46219000  0.29824000  0.50845000  1.0
  C  C72  1  0.85332000  0.53396000  0.53534000  1.0
  C  C73  1  0.14664000  0.46464000  0.46605000  1.0
  C  C74  1  0.46055000  0.47657000  0.19190000  1.0
  C  C75  1  0.54301000  0.47808000  0.81385000  1.0
  C  C76  1  0.53944000  0.80812000  0.52340000  1.0
  C  C77  1  0.45700000  0.18615000  0.52196000  1.0
  C  C78  1  0.46821000  0.48318000  0.30677000  1.0
  C  C79  1  0.65326000  0.44673000  0.96512000  1.0
  C  C80  1  0.34665000  0.48796000  0.03772000  1.0
  C  C81  1  0.34674000  0.03488000  0.55328000  1.0
  C  C82  1  0.65335000  0.96231000  0.51206000  1.0
  C  C83  1  0.53784000  0.49160000  0.70178000  1.0
  C  C84  1  0.64641000  0.45608000  0.86138000  1.0
  C  C85  1  0.35502000  0.48585000  0.14260000  1.0
  C  C86  1  0.35361000  0.13864000  0.54399000  1.0
  C  C87  1  0.64498000  0.85742000  0.51413000  1.0
  C  C88  1  0.44549000  0.48558000  0.87080000  1.0
  C  C89  1  0.55750000  0.46366000  0.13440000  1.0
  C  C90  1  0.55453000  0.12923000  0.51448000  1.0
  C  C91  1  0.44250000  0.86559000  0.53633000  1.0
  C  C92  1  0.44729000  0.47804000  0.97752000  1.0
  C  C93  1  0.55373000  0.46205000  0.02631000  1.0
  C  C94  1  0.55271000  0.02250000  0.52197000  1.0
  C  C95  1  0.44625000  0.97369000  0.53797000  1.0
  C  C96  1  0.23203000  0.67931000  0.66193000  1.0
  C  C97  1  0.23483000  0.66343000  0.77577000  1.0
  C  C98  1  0.76794000  0.33810000  0.32064000  1.0
  C  C99  1  0.76508000  0.22426000  0.33650000  1.0
  C  C100  1  0.76247000  0.41897000  0.01553000  1.0
  C  C101  1  0.85678000  0.38296000  0.94215000  1.0
  C  C102  1  0.23455000  0.50300000  0.98571000  1.0
  C  C103  1  0.13151000  0.50646000  0.05445000  1.0
  C  C104  1  0.23754000  0.98448000  0.58104000  1.0
  C  C105  1  0.14321000  0.05781000  0.61707000  1.0
  C  C106  1  0.76542000  0.01431000  0.49705000  1.0
  C  C107  1  0.86848000  0.94557000  0.49360000  1.0
  N  N108  1  0.20681000  0.53215000  0.52868000  1.0
  N  N109  1  0.79316000  0.47135000  0.46781000  1.0
  O  O110  1  0.43306000  0.65343000  0.50425000  1.0
  O  O111  1  0.37204000  0.34970000  0.52405000  1.0
  O  O112  1  0.37727000  0.47699000  0.35642000  1.0
  O  O113  1  0.62798000  0.47596000  0.65033000  1.0
  O  O114  1  0.62273000  0.64359000  0.52290000  1.0
  O  O115  1  0.55661000  0.33392000  0.48203000  1.0
  O  O116  1  0.56695000  0.49578000  0.34655000  1.0
  O  O117  1  0.44341000  0.51798000  0.66609000  1.0
