# generated using pymatgen
data_ZnH3C8Br3(NO2)2
_symmetry_space_group_name_H-M   'P 1'
_cell_length_a   10.54420000
_cell_length_b   11.21860000
_cell_length_c   13.35650000
_cell_angle_alpha   84.14860000
_cell_angle_beta   73.62000000
_cell_angle_gamma   87.44460000
_symmetry_Int_Tables_number   1
_chemical_formula_structural   ZnH3C8Br3(NO2)2
_chemical_formula_sum   'Zn2 H6 C16 Br6 N4 O8'
_cell_volume   1507.72383784
_cell_formula_units_Z   2
loop_
 _symmetry_equiv_pos_site_id
 _symmetry_equiv_pos_as_xyz
  1  'x, y, z'
loop_
 _atom_site_type_symbol
 _atom_site_label
 _atom_site_symmetry_multiplicity
 _atom_site_fract_x
 _atom_site_fract_y
 _atom_site_fract_z
 _atom_site_occupancy
  Zn  Zn0  1  0.64165000  0.50971000  0.49364000  1.0
  Zn  Zn1  1  0.35835000  0.49028000  0.50636000  1.0
  H  H2  1  0.61892000  0.10060000  0.58434000  1.0
  H  H3  1  0.38109000  0.89939000  0.41566000  1.0
  H  H4  1  0.75576000  0.53892000  0.90941000  1.0
  H  H5  1  0.64071000  0.53899000  0.83975000  1.0
  H  H6  1  0.24423000  0.46109000  0.09059000  1.0
  H  H7  1  0.35928000  0.46103000  0.16026000  1.0
  C  C8  1  0.45086000  0.72620000  0.47291000  1.0
  C  C9  1  0.92781000  0.50478000  0.51621000  1.0
  C  C10  1  0.59615000  0.49083000  0.09567000  1.0
  C  C11  1  0.40385000  0.50917000  0.90434000  1.0
  C  C12  1  0.44419000  0.85930000  0.46266000  1.0
  C  C13  1  0.55583000  0.14069000  0.53734000  1.0
  C  C14  1  0.50409000  0.93449000  0.50694000  1.0
  C  C15  1  0.49593000  0.06550000  0.49305000  1.0
  C  C16  1  0.54915000  0.27379000  0.52709000  1.0
  C  C17  1  0.57409000  0.48355000  0.29951000  1.0
  C  C18  1  0.42591000  0.51644000  0.70049000  1.0
  C  C19  1  0.40457000  0.51686000  0.81214000  1.0
  C  C20  1  0.59542000  0.48313000  0.18786000  1.0
  C  C21  1  0.43290000  0.49867000  0.00098000  1.0
  C  C22  1  0.56710000  0.50133000  0.99902000  1.0
  C  C23  1  0.07220000  0.49523000  0.48379000  1.0
  Br  Br24  1  0.87782000  0.69431000  0.37273000  1.0
  Br  Br25  1  0.12217000  0.30567000  0.62724000  1.0
  Br  Br26  1  0.39788000  0.12939000  0.39819000  1.0
  Br  Br27  1  0.60216000  0.87060000  0.60180000  1.0
  Br  Br28  1  0.83781000  0.42857000  0.65137000  1.0
  Br  Br29  1  0.16219000  0.57148000  0.34865000  1.0
  N  N30  1  0.15890000  0.43862000  0.52525000  1.0
  N  N31  1  0.84110000  0.56138000  0.47475000  1.0
  N  N32  1  0.66700000  0.51133000  0.90617000  1.0
  N  N33  1  0.33299000  0.48868000  0.09384000  1.0
  O  O34  1  0.56282000  0.67629000  0.46633000  1.0
  O  O35  1  0.43718000  0.32370000  0.53366000  1.0
  O  O36  1  0.34248000  0.67298000  0.48421000  1.0
  O  O37  1  0.65752000  0.32702000  0.51581000  1.0
  O  O38  1  0.67275000  0.49104000  0.33502000  1.0
  O  O39  1  0.32724000  0.50894000  0.66498000  1.0
  O  O40  1  0.45174000  0.47758000  0.35034000  1.0
  O  O41  1  0.54825000  0.52242000  0.64966000  1.0
