# generated using pymatgen
data_Zn4H35C48N11O16
_symmetry_space_group_name_H-M   'P 1'
_cell_length_a   9.63622000
_cell_length_b   11.09920000
_cell_length_c   28.94640000
_cell_angle_alpha   89.94370000
_cell_angle_beta   90.64570000
_cell_angle_gamma   89.83600000
_symmetry_Int_Tables_number   1
_chemical_formula_structural   Zn4H35C48N11O16
_chemical_formula_sum   'Zn4 H35 C48 N11 O16'
_cell_volume   3095.73203327
_cell_formula_units_Z   1
loop_
 _symmetry_equiv_pos_site_id
 _symmetry_equiv_pos_as_xyz
  1  'x, y, z'
loop_
 _atom_site_type_symbol
 _atom_site_label
 _atom_site_symmetry_multiplicity
 _atom_site_fract_x
 _atom_site_fract_y
 _atom_site_fract_z
 _atom_site_occupancy
  Zn  Zn0  1  0.35891000  0.49440000  0.50132000  1.0
  Zn  Zn1  1  0.64384000  0.49155000  0.49786000  1.0
  Zn  Zn2  1  0.64051000  0.49132000  0.11786000  1.0
  Zn  Zn3  1  0.35521000  0.49005000  0.11863000  1.0
  H  H4  1  0.87565000  0.34759000  0.54391000  1.0
  H  H5  1  0.85730000  0.63321000  0.45115000  1.0
  H  H6  1  0.14070000  0.36016000  0.54481000  1.0
  H  H7  1  0.26875000  0.10103000  0.50038000  1.0
  H  H8  1  0.71314000  0.11896000  0.49713000  1.0
  H  H9  1  0.28340000  0.87563000  0.49940000  1.0
  H  H10  1  0.70494000  0.49913000  0.97433000  1.0
  H  H11  1  0.71875000  0.50655000  0.88810000  1.0
  H  H12  1  0.27158000  0.50315000  0.88039000  1.0
  H  H13  1  0.73373000  0.50326000  0.73681000  1.0
  H  H14  1  0.29872000  0.50401000  0.64374000  1.0
  H  H15  1  0.28644000  0.50934000  0.72999000  1.0
  H  H16  1  0.71964000  0.50187000  0.26617000  1.0
  H  H17  1  0.27448000  0.49560000  0.26346000  1.0
  H  H18  1  0.71529000  0.50383000  0.35310000  1.0
  H  H19  1  0.12360000  0.34879000  0.07187000  1.0
  H  H20  1  0.14173000  0.62894000  0.16677000  1.0
  H  H21  1  0.85831000  0.35950000  0.07240000  1.0
  H  H22  1  0.72971000  0.09873000  0.11822000  1.0
  H  H23  1  0.28514000  0.11697000  0.12048000  1.0
  H  H24  1  0.71616000  0.87314000  0.11791000  1.0
  H  H25  1  0.23694000  0.69164000  0.45874000  1.0
  H  H26  1  0.07756000  0.73225000  0.43186000  1.0
  H  H27  1  0.76062000  0.79609000  0.50614000  1.0
  H  H28  1  0.84036000  0.93679000  0.50740000  1.0
  H  H29  1  0.24261000  0.47617000  0.38792000  1.0
  H  H30  1  0.15635000  0.46886000  0.33455000  1.0
  H  H31  1  0.76180000  0.68603000  0.16089000  1.0
  H  H32  1  0.92179000  0.72847000  0.18616000  1.0
  H  H33  1  0.23979000  0.79437000  0.10957000  1.0
  H  H34  1  0.15902000  0.93504000  0.10894000  1.0
  H  H35  1  0.22757000  0.49478000  0.00450000  1.0
  H  H36  1  0.14501000  0.51089000  0.95028000  1.0
  H  H37  1  0.77542000  0.49795000  0.61252000  1.0
  H  H38  1  0.85911000  0.51159000  0.66666667  1.0
  C  C39  1  0.48718000  0.25749000  0.49951000  1.0
  C  C40  1  0.51674000  0.49679000  0.59020000  1.0
  C  C41  1  0.50646000  0.73526000  0.49796000  1.0
  C  C42  1  0.50093000  0.49738000  0.40865000  1.0
  C  C43  1  0.51062000  0.25529000  0.11923000  1.0
  C  C44  1  0.48569000  0.49191000  0.02746000  1.0
  C  C45  1  0.49392000  0.73304000  0.11828000  1.0
  C  C46  1  0.49516000  0.49832000  0.20836000  1.0
  C  C47  1  0.06858000  0.58626000  0.47457000  1.0
  C  C48  1  0.93272000  0.41379000  0.52396000  1.0
  C  C49  1  0.92173000  0.57372000  0.47253000  1.0
  C  C50  1  0.07588000  0.42219000  0.52477000  1.0
  C  C51  1  0.50559000  0.86893000  0.49775000  1.0
  C  C52  1  0.49144000  0.12230000  0.49869000  1.0
  C  C53  1  0.63031000  0.93768000  0.49789000  1.0
  C  C54  1  0.36829000  0.05456000  0.49923000  1.0
  C  C55  1  0.61934000  0.06426000  0.49777000  1.0
  C  C56  1  0.37727000  0.93002000  0.49847000  1.0
  C  C57  1  0.48351000  0.49510000  0.97629000  1.0
  C  C58  1  0.61099000  0.49942000  0.95304000  1.0
  C  C59  1  0.61914000  0.50409000  0.90545000  1.0
  C  C60  1  0.49487000  0.50566000  0.87876000  1.0
  C  C61  1  0.36692000  0.50232000  0.90110000  1.0
  C  C62  1  0.35769000  0.49597000  0.94963000  1.0
  C  C63  1  0.50004000  0.50877000  0.82989000  1.0
  C  C64  1  0.50595000  0.50914000  0.78777000  1.0
  C  C65  1  0.51052000  0.50703000  0.73891000  1.0
  C  C66  1  0.63804000  0.50352000  0.71629000  1.0
  C  C67  1  0.64639000  0.49839000  0.66772000  1.0
  C  C68  1  0.52014000  0.49894000  0.64132000  1.0
  C  C69  1  0.39304000  0.50332000  0.66485000  1.0
  C  C70  1  0.38577000  0.50682000  0.71246000  1.0
  C  C71  1  0.49408000  0.49911000  0.35738000  1.0
  C  C72  1  0.49616000  0.49910000  0.26015000  1.0
  C  C73  1  0.36602000  0.49596000  0.33219000  1.0
  C  C74  1  0.62249000  0.50129000  0.28500000  1.0
  C  C75  1  0.37099000  0.49703000  0.28351000  1.0
  C  C76  1  0.61939000  0.50213000  0.33282000  1.0
  C  C77  1  0.93012000  0.58154000  0.14419000  1.0
  C  C78  1  0.06639000  0.41340000  0.09262000  1.0
  C  C79  1  0.07717000  0.57036000  0.14524000  1.0
  C  C80  1  0.92309000  0.42060000  0.09269000  1.0
  C  C81  1  0.49405000  0.86676000  0.11889000  1.0
  C  C82  1  0.50689000  0.12010000  0.11940000  1.0
  C  C83  1  0.36895000  0.93560000  0.11885000  1.0
  C  C84  1  0.63041000  0.05229000  0.11879000  1.0
  C  C85  1  0.37923000  0.06217000  0.11971000  1.0
  C  C86  1  0.62207000  0.92772000  0.11883000  1.0
  N  N87  1  0.14376000  0.50665000  0.50041000  1.0
  N  N88  1  0.85782000  0.49057000  0.49713000  1.0
  N  N89  1  0.85516000  0.50303000  0.11809000  1.0
  N  N90  1  0.14127000  0.48928000  0.11961000  1.0
  N  N91  1  0.13354000  0.67439000  0.45165000  1.0
  N  N92  1  0.75972000  0.88484000  0.49691000  1.0
  N  N93  1  0.23944000  0.49584000  0.35352000  1.0
  N  N94  1  0.86468000  0.66756000  0.16833000  1.0
  N  N95  1  0.23983000  0.88269000  0.11933000  1.0
  N  N96  1  0.22973000  0.48884000  0.96943000  1.0
  N  N97  1  0.77388000  0.49095000  0.64757000  1.0
  O  O98  1  0.36979000  0.30834000  0.50513000  1.0
  O  O99  1  0.60262000  0.31171000  0.49447000  1.0
  O  O100  1  0.63199000  0.48462000  0.56859000  1.0
  O  O101  1  0.39877000  0.50765000  0.56984000  1.0
  O  O102  1  0.62146000  0.67943000  0.50428000  1.0
  O  O103  1  0.39044000  0.68054000  0.49208000  1.0
  O  O104  1  0.38798000  0.47974000  0.43095000  1.0
  O  O105  1  0.61892000  0.51297000  0.42823000  1.0
  O  O106  1  0.62808000  0.30597000  0.11423000  1.0
  O  O107  1  0.39490000  0.30972000  0.12405000  1.0
  O  O108  1  0.36945000  0.47907000  0.04845000  1.0
  O  O109  1  0.60250000  0.50262000  0.04840000  1.0
  O  O110  1  0.37957000  0.67756000  0.11092000  1.0
  O  O111  1  0.60984000  0.67823000  0.12498000  1.0
  O  O112  1  0.61049000  0.48134000  0.18827000  1.0
  O  O113  1  0.37832000  0.51467000  0.18800000  1.0
