# generated using pymatgen
data_CuH10C17N5O4
_symmetry_space_group_name_H-M   'P 1'
_cell_length_a   10.88050000
_cell_length_b   10.88050000
_cell_length_c   16.27680000
_cell_angle_alpha   105.92800000
_cell_angle_beta   105.92800000
_cell_angle_gamma   94.66330000
_symmetry_Int_Tables_number   1
_chemical_formula_structural   CuH10C17N5O4
_chemical_formula_sum   'Cu4 H40 C68 N20 O16'
_cell_volume   1756.07183214
_cell_formula_units_Z   4
loop_
 _symmetry_equiv_pos_site_id
 _symmetry_equiv_pos_as_xyz
  1  'x, y, z'
loop_
 _atom_site_type_symbol
 _atom_site_label
 _atom_site_symmetry_multiplicity
 _atom_site_fract_x
 _atom_site_fract_y
 _atom_site_fract_z
 _atom_site_occupancy
  Cu  Cu0  1  0.46265000  0.53737000  0.75001000  1.0
  Cu  Cu1  1  0.53736000  0.46264000  0.25000000  1.0
  Cu  Cu2  1  0.00001000  0.00000000  0.50000000  1.0
  Cu  Cu3  1  0.00000000  0.00000000  0.00000000  1.0
  H  H4  1  0.72984000  0.50009000  0.74446000  1.0
  H  H5  1  0.49991000  0.27019000  0.75554000  1.0
  H  H6  1  0.27017000  0.49990000  0.25554000  1.0
  H  H7  1  0.50010000  0.72981000  0.24446000  1.0
  H  H8  1  0.86779000  0.54012000  0.65102000  1.0
  H  H9  1  0.45988000  0.13224000  0.84897000  1.0
  H  H10  1  0.13223000  0.45987000  0.34898000  1.0
  H  H11  1  0.54011000  0.86776000  0.15103000  1.0
  H  H12  1  0.78371000  0.64853000  0.53494000  1.0
  H  H13  1  0.35147000  0.21629000  0.96505000  1.0
  H  H14  1  0.21629000  0.35147000  0.46506000  1.0
  H  H15  1  0.64852000  0.78372000  0.03495000  1.0
  H  H16  1  0.43430000  0.66155000  0.61187000  1.0
  H  H17  1  0.33845000  0.56572000  0.88814000  1.0
  H  H18  1  0.56571000  0.33844000  0.38813000  1.0
  H  H19  1  0.66156000  0.43429000  0.11186000  1.0
  H  H20  1  0.39030000  0.96934000  0.30513000  1.0
  H  H21  1  0.03065000  0.60970000  0.19487000  1.0
  H  H22  1  0.60970000  0.03066000  0.69487000  1.0
  H  H23  1  0.96934000  0.39033000  0.80514000  1.0
  H  H24  1  0.20290000  0.08475000  0.26532000  1.0
  H  H25  1  0.91524000  0.79710000  0.23469000  1.0
  H  H26  1  0.79710000  0.91524000  0.73468000  1.0
  H  H27  1  0.08475000  0.20292000  0.76531000  1.0
  H  H28  1  0.04072000  0.09488000  0.35091000  1.0
  H  H29  1  0.90510000  0.95928000  0.14909000  1.0
  H  H30  1  0.95929000  0.90511000  0.64908000  1.0
  H  H31  1  0.09487000  0.04073000  0.85090000  1.0
  H  H32  1  0.23641000  0.88248000  0.50446000  1.0
  H  H33  1  0.11753000  0.76360000  0.99555000  1.0
  H  H34  1  0.76360000  0.11751000  0.49554000  1.0
  H  H35  1  0.88246000  0.23641000  0.00445000  1.0
  H  H36  1  0.29829000  0.85285000  0.89638000  1.0
  H  H37  1  0.14715000  0.70171000  0.60362000  1.0
  H  H38  1  0.70171000  0.14716000  0.10361000  1.0
  H  H39  1  0.85285000  0.29829000  0.39638000  1.0
  H  H40  1  0.66235000  0.70581000  0.41244000  1.0
  H  H41  1  0.29418000  0.33764000  0.08754000  1.0
  H  H42  1  0.33766000  0.29420000  0.58756000  1.0
  H  H43  1  0.70580000  0.66236000  0.91245000  1.0
  C  C44  1  0.49839000  0.79239000  0.84203000  1.0
  C  C45  1  0.20760000  0.50159000  0.65798000  1.0
  C  C46  1  0.50161000  0.20761000  0.15797000  1.0
  C  C47  1  0.79241000  0.49840000  0.34203000  1.0
  C  C48  1  0.50471000  0.90156000  0.92419000  1.0
  C  C49  1  0.09844000  0.49527000  0.57580000  1.0
  C  C50  1  0.49528000  0.09844000  0.07581000  1.0
  C  C51  1  0.90157000  0.50472000  0.42419000  1.0
  C  C52  1  0.61885000  0.98530000  0.98338000  1.0
  C  C53  1  0.01471000  0.38114000  0.51661000  1.0
  C  C54  1  0.38115000  0.01471000  0.01662000  1.0
  C  C55  1  0.98529000  0.61885000  0.48339000  1.0
  C  C56  1  0.38730000  0.91735000  0.94169000  1.0
  C  C57  1  0.08265000  0.61270000  0.55831000  1.0
  C  C58  1  0.61269000  0.08266000  0.05831000  1.0
  C  C59  1  0.91735000  0.38730000  0.44169000  1.0
  C  C60  1  0.74711000  0.97007000  0.96812000  1.0
  C  C61  1  0.02993000  0.25288000  0.53187000  1.0
  C  C62  1  0.25289000  0.02993000  0.03187000  1.0
  C  C63  1  0.97008000  0.74711000  0.46814000  1.0
  C  C64  1  0.69469000  0.54288000  0.69094000  1.0
  C  C65  1  0.45712000  0.30532000  0.80905000  1.0
  C  C66  1  0.30530000  0.45711000  0.30905000  1.0
  C  C67  1  0.54288000  0.69469000  0.19096000  1.0
  C  C68  1  0.77161000  0.56698000  0.63952000  1.0
  C  C69  1  0.43302000  0.22841000  0.86048000  1.0
  C  C70  1  0.22840000  0.43301000  0.36048000  1.0
  C  C71  1  0.56698000  0.77159000  0.13953000  1.0
  C  C72  1  0.72481000  0.62792000  0.57533000  1.0
  C  C73  1  0.37206000  0.27520000  0.92466000  1.0
  C  C74  1  0.27520000  0.37206000  0.42467000  1.0
  C  C75  1  0.62792000  0.72480000  0.07534000  1.0
  C  C76  1  0.60167000  0.66333000  0.56412000  1.0
  C  C77  1  0.33666000  0.39834000  0.93588000  1.0
  C  C78  1  0.39834000  0.33666000  0.43588000  1.0
  C  C79  1  0.66333000  0.60166000  0.06412000  1.0
  C  C80  1  0.52960000  0.63458000  0.61760000  1.0
  C  C81  1  0.36542000  0.47042000  0.88240000  1.0
  C  C82  1  0.47041000  0.36541000  0.38240000  1.0
  C  C83  1  0.63458000  0.52958000  0.11760000  1.0
  C  C84  1  0.54603000  0.73202000  0.50150000  1.0
  C  C85  1  0.26797000  0.45397000  0.99850000  1.0
  C  C86  1  0.45396000  0.26796000  0.49850000  1.0
  C  C87  1  0.73202000  0.54604000  0.00150000  1.0
  C  C88  1  0.42895000  0.84143000  0.43245000  1.0
  C  C89  1  0.15858000  0.57105000  0.06755000  1.0
  C  C90  1  0.57106000  0.15857000  0.56755000  1.0
  C  C91  1  0.84142000  0.42895000  0.93245000  1.0
  C  C92  1  0.32572000  0.91419000  0.40664000  1.0
  C  C93  1  0.08580000  0.67428000  0.09336000  1.0
  C  C94  1  0.67428000  0.08580000  0.59336000  1.0
  C  C95  1  0.91419000  0.32573000  0.90664000  1.0
  C  C96  1  0.31664000  0.97335000  0.33921000  1.0
  C  C97  1  0.02663000  0.68336000  0.16080000  1.0
  C  C98  1  0.68336000  0.02664000  0.66079000  1.0
  C  C99  1  0.97335000  0.31665000  0.83920000  1.0
  C  C100  1  0.21335000  0.03856000  0.31789000  1.0
  C  C101  1  0.96143000  0.78665000  0.18211000  1.0
  C  C102  1  0.78666000  0.96144000  0.68210000  1.0
  C  C103  1  0.03855000  0.21336000  0.81788000  1.0
  C  C104  1  0.12296000  0.04457000  0.36467000  1.0
  C  C105  1  0.95542000  0.87704000  0.13533000  1.0
  C  C106  1  0.87704000  0.95541000  0.63532000  1.0
  C  C107  1  0.04456000  0.12298000  0.86466000  1.0
  C  C108  1  0.23174000  0.92581000  0.45109000  1.0
  C  C109  1  0.07419000  0.76826000  0.04892000  1.0
  C  C110  1  0.76826000  0.07418000  0.54891000  1.0
  C  C111  1  0.92580000  0.23174000  0.95108000  1.0
  N  N112  1  0.57551000  0.57568000  0.67919000  1.0
  N  N113  1  0.42432000  0.42450000  0.82081000  1.0
  N  N114  1  0.42449000  0.42431000  0.32081000  1.0
  N  N115  1  0.57568000  0.57550000  0.17919000  1.0
  N  N116  1  0.44166000  0.78915000  0.50083000  1.0
  N  N117  1  0.21085000  0.55835000  0.99917000  1.0
  N  N118  1  0.55833000  0.21083000  0.49917000  1.0
  N  N119  1  0.78915000  0.44167000  0.00083000  1.0
  N  N120  1  0.59351000  0.75111000  0.43614000  1.0
  N  N121  1  0.24888000  0.40648000  0.06386000  1.0
  N  N122  1  0.40650000  0.24888000  0.56387000  1.0
  N  N123  1  0.75112000  0.59352000  0.93614000  1.0
  N  N124  1  0.51948000  0.81931000  0.39060000  1.0
  N  N125  1  0.18068000  0.48051000  0.10941000  1.0
  N  N126  1  0.48053000  0.18069000  0.60942000  1.0
  N  N127  1  0.81931000  0.51949000  0.89059000  1.0
  N  N128  1  0.13271000  0.98950000  0.43056000  1.0
  N  N129  1  0.01051000  0.86730000  0.06945000  1.0
  N  N130  1  0.86730000  0.01050000  0.56944000  1.0
  N  N131  1  0.98948000  0.13271000  0.93055000  1.0
  O  O132  1  0.53624000  0.68800000  0.85952000  1.0
  O  O133  1  0.31202000  0.46379000  0.64050000  1.0
  O  O134  1  0.46377000  0.31200000  0.14048000  1.0
  O  O135  1  0.68800000  0.53622000  0.35951000  1.0
  O  O136  1  0.44658000  0.80017000  0.76617000  1.0
  O  O137  1  0.19976000  0.55334000  0.73382000  1.0
  O  O138  1  0.55341000  0.19981000  0.23383000  1.0
  O  O139  1  0.80025000  0.44665000  0.26618000  1.0
  O  O140  1  0.84639000  0.04552000  0.03210000  1.0
  O  O141  1  0.95447000  0.15361000  0.46790000  1.0
  O  O142  1  0.15360000  0.95449000  0.96789000  1.0
  O  O143  1  0.04555000  0.84640000  0.53211000  1.0
  O  O144  1  0.75576000  0.88878000  0.89949000  1.0
  O  O145  1  0.11125000  0.24423000  0.60048000  1.0
  O  O146  1  0.24423000  0.11124000  0.10049000  1.0
  O  O147  1  0.88876000  0.75576000  0.39953000  1.0
