# generated using pymatgen
data_ZnH6C6N5O3
_symmetry_space_group_name_H-M   'P 1'
_cell_length_a   9.44104000
_cell_length_b   10.15310000
_cell_length_c   26.23880000
_cell_angle_alpha   90.97230000
_cell_angle_beta   89.99990000
_cell_angle_gamma   89.99990000
_symmetry_Int_Tables_number   1
_chemical_formula_structural   ZnH6C6N5O3
_chemical_formula_sum   'Zn8 H48 C48 N40 O24'
_cell_volume   2514.77963368
_cell_formula_units_Z   8
loop_
 _symmetry_equiv_pos_site_id
 _symmetry_equiv_pos_as_xyz
  1  'x, y, z'
loop_
 _atom_site_type_symbol
 _atom_site_label
 _atom_site_symmetry_multiplicity
 _atom_site_fract_x
 _atom_site_fract_y
 _atom_site_fract_z
 _atom_site_occupancy
  Zn  Zn0  1  0.57722000  0.16540000  0.30055000  1.0
  Zn  Zn1  1  0.07722000  0.33460000  0.69945000  1.0
  Zn  Zn2  1  0.42278000  0.83460000  0.69945000  1.0
  Zn  Zn3  1  0.92278000  0.66540000  0.30055000  1.0
  Zn  Zn4  1  0.42241000  0.37441000  0.20462000  1.0
  Zn  Zn5  1  0.92241000  0.12559000  0.79538000  1.0
  Zn  Zn6  1  0.57759000  0.62559000  0.79539000  1.0
  Zn  Zn7  1  0.07759000  0.87441000  0.20462000  1.0
  H  H8  1  0.75226000  0.19790000  0.47272000  1.0
  H  H9  1  0.25228000  0.30211000  0.52728000  1.0
  H  H10  1  0.24772000  0.80211000  0.52728000  1.0
  H  H11  1  0.74773000  0.69788000  0.47272000  1.0
  H  H12  1  0.22764000  0.33864000  0.03648000  1.0
  H  H13  1  0.72765000  0.16136000  0.96352000  1.0
  H  H14  1  0.77236000  0.66135000  0.96353000  1.0
  H  H15  1  0.27237000  0.83864000  0.03647000  1.0
  H  H16  1  0.29965000  0.81614000  0.27729000  1.0
  H  H17  1  0.79964000  0.68386000  0.72271000  1.0
  H  H18  1  0.70036000  0.18385000  0.72271000  1.0
  H  H19  1  0.20036000  0.31614000  0.27729000  1.0
  H  H20  1  0.44664000  0.88551000  0.30613000  1.0
  H  H21  1  0.94662000  0.61448000  0.69387000  1.0
  H  H22  1  0.55338000  0.11448000  0.69387000  1.0
  H  H23  1  0.05337000  0.38552000  0.30613000  1.0
  H  H24  1  0.18980000  0.25151000  0.14331000  1.0
  H  H25  1  0.68980000  0.24849000  0.85669000  1.0
  H  H26  1  0.81020000  0.74849000  0.85670000  1.0
  H  H27  1  0.31021000  0.75151000  0.14331000  1.0
  H  H28  1  0.09920000  0.10520000  0.14510000  1.0
  H  H29  1  0.59920000  0.39480000  0.85490000  1.0
  H  H30  1  0.90081000  0.89480000  0.85490000  1.0
  H  H31  1  0.40081000  0.60521000  0.14510000  1.0
  H  H32  1  0.55411000  0.65564000  0.19989000  1.0
  H  H33  1  0.05411000  0.84437000  0.80012000  1.0
  H  H34  1  0.44589000  0.34436000  0.80012000  1.0
  H  H35  1  0.94589000  0.15564000  0.19989000  1.0
  H  H36  1  0.70172000  0.72367000  0.22870000  1.0
  H  H37  1  0.20172000  0.77634000  0.77130000  1.0
  H  H38  1  0.29828000  0.27634000  0.77130000  1.0
  H  H39  1  0.79828000  0.22367000  0.22870000  1.0
  H  H40  1  0.80167000  0.29060000  0.36419000  1.0
  H  H41  1  0.30167000  0.20940000  0.63582000  1.0
  H  H42  1  0.19834000  0.70941000  0.63581000  1.0
  H  H43  1  0.69833000  0.79060000  0.36418000  1.0
  H  H44  1  0.89860000  0.43295000  0.36113000  1.0
  H  H45  1  0.39860000  0.06705000  0.63887000  1.0
  H  H46  1  0.10140000  0.56705000  0.63887000  1.0
  H  H47  1  0.60140000  0.93296000  0.36113000  1.0
  H  H48  1  0.63524000  0.02310000  0.58094000  1.0
  H  H49  1  0.13525000  0.47690000  0.41906000  1.0
  H  H50  1  0.36474000  0.97692000  0.41906000  1.0
  H  H51  1  0.86475000  0.52308000  0.58094000  1.0
  H  H52  1  0.64075000  0.53328000  0.07925000  1.0
  H  H53  1  0.14076000  0.96671000  0.92075000  1.0
  H  H54  1  0.35924000  0.46671000  0.92075000  1.0
  H  H55  1  0.85926000  0.03328000  0.07925000  1.0
  C  C56  1  0.59247000  0.13562000  0.41020000  1.0
  C  C57  1  0.09248000  0.36438000  0.58980000  1.0
  C  C58  1  0.40752000  0.86439000  0.58980000  1.0
  C  C59  1  0.90752000  0.63561000  0.41020000  1.0
  C  C60  1  0.62138000  0.08261000  0.50299000  1.0
  C  C61  1  0.12140000  0.41739000  0.49701000  1.0
  C  C62  1  0.37859000  0.91741000  0.49702000  1.0
  C  C63  1  0.87860000  0.58259000  0.50298000  1.0
  C  C64  1  0.54414000  0.06792000  0.45662000  1.0
  C  C65  1  0.04415000  0.43208000  0.54338000  1.0
  C  C66  1  0.45584000  0.93209000  0.54338000  1.0
  C  C67  1  0.95585000  0.56790000  0.45662000  1.0
  C  C68  1  0.57557000  0.01382000  0.54554000  1.0
  C  C69  1  0.07558000  0.48618000  0.45446000  1.0
  C  C70  1  0.42440000  0.98619000  0.45447000  1.0
  C  C71  1  0.92441000  0.51380000  0.54553000  1.0
  C  C72  1  0.39871000  0.39970000  0.09537000  1.0
  C  C73  1  0.89873000  0.10030000  0.90463000  1.0
  C  C74  1  0.60129000  0.60030000  0.90463000  1.0
  C  C75  1  0.10130000  0.89970000  0.09537000  1.0
  C  C76  1  0.45066000  0.45021000  0.04628000  1.0
  C  C77  1  0.95066000  0.04980000  0.95372000  1.0
  C  C78  1  0.54933000  0.54978000  0.95373000  1.0
  C  C79  1  0.04934000  0.95021000  0.04628000  1.0
  C  C80  1  0.36966000  0.42996000  0.00101000  1.0
  C  C81  1  0.86967000  0.07003000  0.99900000  1.0
  C  C82  1  0.63033000  0.57003000  0.99900000  1.0
  C  C83  1  0.13034000  0.92996000  0.00100000  1.0
  C  C84  1  0.57898000  0.51949000  0.04452000  1.0
  C  C85  1  0.07898000  0.98051000  0.95548000  1.0
  C  C86  1  0.42102000  0.48050000  0.95549000  1.0
  C  C87  1  0.92103000  0.01950000  0.04451000  1.0
  C  C88  1  0.75785000  0.40891000  0.30493000  1.0
  C  C89  1  0.25784000  0.09109000  0.69507000  1.0
  C  C90  1  0.24216000  0.59109000  0.69507000  1.0
  C  C91  1  0.74216000  0.90892000  0.30493000  1.0
  C  C92  1  0.66658000  0.53533000  0.24816000  1.0
  C  C93  1  0.16659000  0.96468000  0.75184000  1.0
  C  C94  1  0.33341000  0.46467000  0.75184000  1.0
  C  C95  1  0.83341000  0.03533000  0.24816000  1.0
  C  C96  1  0.33390000  0.00448000  0.25733000  1.0
  C  C97  1  0.83390000  0.49553000  0.74266000  1.0
  C  C98  1  0.66611000  0.99553000  0.74267000  1.0
  C  C99  1  0.16610000  0.50447000  0.25733000  1.0
  C  C100  1  0.23985000  0.13077000  0.20117000  1.0
  C  C101  1  0.73985000  0.36922000  0.79883000  1.0
  C  C102  1  0.76015000  0.86922000  0.79884000  1.0
  C  C103  1  0.26015000  0.63078000  0.20116000  1.0
  N  N104  1  0.35310000  0.89915000  0.28754000  1.0
  N  N105  1  0.85309000  0.60084000  0.71246000  1.0
  N  N106  1  0.64691000  0.10083000  0.71246000  1.0
  N  N107  1  0.14690000  0.39916000  0.28754000  1.0
  N  N108  1  0.22734000  0.00988000  0.22225000  1.0
  N  N109  1  0.72733000  0.49012000  0.77775000  1.0
  N  N110  1  0.77267000  0.99012000  0.77775000  1.0
  N  N111  1  0.27266000  0.50988000  0.22225000  1.0
  N  N112  1  0.14758000  0.17845000  0.16605000  1.0
  N  N113  1  0.64758000  0.32155000  0.83395000  1.0
  N  N114  1  0.85242000  0.82155000  0.83396000  1.0
  N  N115  1  0.35243000  0.67845000  0.16605000  1.0
  N  N116  1  0.34777000  0.19857000  0.22193000  1.0
  N  N117  1  0.84776000  0.30143000  0.77807000  1.0
  N  N118  1  0.65223000  0.80143000  0.77808000  1.0
  N  N119  1  0.15224000  0.69857000  0.22192000  1.0
  N  N120  1  0.40916000  0.11614000  0.25849000  1.0
  N  N121  1  0.90916000  0.38386000  0.74151000  1.0
  N  N122  1  0.59084000  0.88386000  0.74151000  1.0
  N  N123  1  0.09084000  0.61614000  0.25849000  1.0
  N  N124  1  0.65076000  0.34138000  0.28350000  1.0
  N  N125  1  0.15076000  0.15863000  0.71650000  1.0
  N  N126  1  0.34924000  0.65862000  0.71650000  1.0
  N  N127  1  0.84924000  0.84138000  0.28350000  1.0
  N  N128  1  0.59110000  0.42375000  0.24656000  1.0
  N  N129  1  0.09110000  0.07625000  0.75344000  1.0
  N  N130  1  0.40890000  0.57625000  0.75344000  1.0
  N  N131  1  0.90889000  0.92375000  0.24656000  1.0
  N  N132  1  0.77186000  0.52973000  0.28381000  1.0
  N  N133  1  0.27186000  0.97027000  0.71619000  1.0
  N  N134  1  0.22815000  0.47027000  0.71619000  1.0
  N  N135  1  0.72814000  0.02974000  0.28381000  1.0
  N  N136  1  0.64842000  0.64089000  0.21798000  1.0
  N  N137  1  0.14842000  0.85911000  0.78202000  1.0
  N  N138  1  0.35157000  0.35911000  0.78202000  1.0
  N  N139  1  0.85157000  0.14090000  0.21798000  1.0
  N  N140  1  0.84725000  0.36042000  0.34080000  1.0
  N  N141  1  0.34725000  0.13958000  0.65920000  1.0
  N  N142  1  0.15276000  0.63958000  0.65920000  1.0
  N  N143  1  0.65275000  0.86043000  0.34080000  1.0
  O  O144  1  0.51951000  0.11288000  0.36888000  1.0
  O  O145  1  0.01951000  0.38712000  0.63112000  1.0
  O  O146  1  0.48049000  0.88712000  0.63112000  1.0
  O  O147  1  0.98049000  0.61288000  0.36888000  1.0
  O  O148  1  0.70260000  0.20702000  0.41149000  1.0
  O  O149  1  0.20261000  0.29299000  0.58851000  1.0
  O  O150  1  0.29739000  0.79300000  0.58852000  1.0
  O  O151  1  0.79739000  0.70700000  0.41148000  1.0
  O  O152  1  0.73745000  0.16018000  0.50733000  1.0
  O  O153  1  0.23747000  0.33982000  0.49267000  1.0
  O  O154  1  0.26253000  0.83984000  0.49267000  1.0
  O  O155  1  0.76254000  0.66017000  0.50733000  1.0
  O  O156  1  0.47725000  0.42291000  0.13534000  1.0
  O  O157  1  0.97726000  0.07710000  0.86467000  1.0
  O  O158  1  0.52274000  0.57708000  0.86466000  1.0
  O  O159  1  0.02275000  0.92292000  0.13534000  1.0
  O  O160  1  0.28059000  0.34044000  0.09738000  1.0
  O  O161  1  0.78059000  0.15957000  0.90262000  1.0
  O  O162  1  0.71942000  0.65956000  0.90263000  1.0
  O  O163  1  0.21943000  0.84044000  0.09737000  1.0
  O  O164  1  0.24506000  0.36416000  0.00035000  1.0
  O  O165  1  0.74507000  0.13584000  0.99965000  1.0
  O  O166  1  0.75493000  0.63584000  0.99966000  1.0
  O  O167  1  0.25495000  0.86415000  0.00034000  1.0
