# generated using pymatgen
data_CuH16C16(NO2)2
_symmetry_space_group_name_H-M   'P 1'
_cell_length_a   9.56832000
_cell_length_b   9.87289000
_cell_length_c   10.27862060
_cell_angle_alpha   104.02301185
_cell_angle_beta   112.61345435
_cell_angle_gamma   106.60300000
_symmetry_Int_Tables_number   1
_chemical_formula_structural   CuH16C16(NO2)2
_chemical_formula_sum   'Cu2 H32 C32 N4 O8'
_cell_volume   787.96524774
_cell_formula_units_Z   2
loop_
 _symmetry_equiv_pos_site_id
 _symmetry_equiv_pos_as_xyz
  1  'x, y, z'
loop_
 _atom_site_type_symbol
 _atom_site_label
 _atom_site_symmetry_multiplicity
 _atom_site_fract_x
 _atom_site_fract_y
 _atom_site_fract_z
 _atom_site_occupancy
  Cu  Cu0  1  0.99810000  0.31536000  0.37493000  1.0
  Cu  Cu1  1  0.00191000  0.68464000  0.62509000  1.0
  H  H2  1  0.66619000  0.37012000  0.57669000  1.0
  H  H3  1  0.33378000  0.62988000  0.42330000  1.0
  H  H4  1  0.68458000  0.21322000  0.62363000  1.0
  H  H5  1  0.31542000  0.78678000  0.37636000  1.0
  H  H6  1  0.38438000  0.14958000  0.46924000  1.0
  H  H7  1  0.61562000  0.85043000  0.53077000  1.0
  H  H8  1  0.44442000  0.02539000  0.37047000  1.0
  H  H9  1  0.55558000  0.97459000  0.62954000  1.0
  H  H10  1  0.46706000  0.17626000  0.21285000  1.0
  H  H11  1  0.53292000  0.82373000  0.78716000  1.0
  H  H12  1  0.41839000  0.31054000  0.31442000  1.0
  H  H13  1  0.58159000  0.68942000  0.68557000  1.0
  H  H14  1  0.17576000  0.11110000  0.05383000  1.0
  H  H15  1  0.82421000  0.88886000  0.94616000  1.0
  H  H16  1  0.17429000  0.96982000  0.13205000  1.0
  H  H17  1  0.82568000  0.03015000  0.86796000  1.0
  H  H18  1  0.71054000  0.07333000  0.08680000  1.0
  H  H19  1  0.28944000  0.92665000  0.91319000  1.0
  H  H20  1  0.47811000  0.06013000  0.84998000  1.0
  H  H21  1  0.52186000  0.93987000  0.15002000  1.0
  H  H22  1  0.72195000  0.55759000  0.03574000  1.0
  H  H23  1  0.27809000  0.44243000  0.96425000  1.0
  H  H24  1  0.94150000  0.54796000  0.26016000  1.0
  H  H25  1  0.05851000  0.45204000  0.73985000  1.0
  H  H26  1  0.23881000  0.11717000  0.78206000  1.0
  H  H27  1  0.76120000  0.88285000  0.21793000  1.0
  H  H28  1  0.01471000  0.13241000  0.57149000  1.0
  H  H29  1  0.98529000  0.86763000  0.42853000  1.0
  H  H30  1  0.35111000  0.49408000  0.55826000  1.0
  H  H31  1  0.64892000  0.50590000  0.44172000  1.0
  H  H32  1  0.59403000  0.49973000  0.77295000  1.0
  H  H33  1  0.40598000  0.50025000  0.22703000  1.0
  C  C34  1  0.75518000  0.23717000  0.45545000  1.0
  C  C35  1  0.24482000  0.76285000  0.54455000  1.0
  C  C36  1  0.64399000  0.24912000  0.52705000  1.0
  C  C37  1  0.35602000  0.75089000  0.47296000  1.0
  C  C38  1  0.45967000  0.14522000  0.41131000  1.0
  C  C39  1  0.54035000  0.85477000  0.58872000  1.0
  C  C40  1  0.39566000  0.18862000  0.27379000  1.0
  C  C41  1  0.60433000  0.81135000  0.72622000  1.0
  C  C42  1  0.20889000  0.09366000  0.16166000  1.0
  C  C43  1  0.79108000  0.90632000  0.83835000  1.0
  C  C44  1  0.10056000  0.13749000  0.22452000  1.0
  C  C45  1  0.89944000  0.86253000  0.77549000  1.0
  C  C46  1  0.70467000  0.17675000  0.07008000  1.0
  C  C47  1  0.29531000  0.82324000  0.92991000  1.0
  C  C48  1  0.57651000  0.17058000  0.94121000  1.0
  C  C49  1  0.42346000  0.82942000  0.05878000  1.0
  C  C50  1  0.57741000  0.30862000  0.92690000  1.0
  C  C51  1  0.42261000  0.69140000  0.07309000  1.0
  C  C52  1  0.71364000  0.44675000  0.04064000  1.0
  C  C53  1  0.28638000  0.55325000  0.95936000  1.0
  C  C54  1  0.83624000  0.44335000  0.16645000  1.0
  C  C55  1  0.16377000  0.55663000  0.83355000  1.0
  C  C56  1  0.43851000  0.30903000  0.79800000  1.0
  C  C57  1  0.56150000  0.69098000  0.20199000  1.0
  C  C58  1  0.27285000  0.20409000  0.73832000  1.0
  C  C59  1  0.72716000  0.79593000  0.26168000  1.0
  C  C60  1  0.14494000  0.21135000  0.61970000  1.0
  C  C61  1  0.85507000  0.78866000  0.38031000  1.0
  C  C62  1  0.33362000  0.41504000  0.61394000  1.0
  C  C63  1  0.66639000  0.58496000  0.38605000  1.0
  C  C64  1  0.46777000  0.41705000  0.73363000  1.0
  C  C65  1  0.53222000  0.58295000  0.26634000  1.0
  N  N66  1  0.82981000  0.31097000  0.18279000  1.0
  N  N67  1  0.17020000  0.68902000  0.81721000  1.0
  N  N68  1  0.17491000  0.31503000  0.55839000  1.0
  N  N69  1  0.82509000  0.68498000  0.44162000  1.0
  O  O70  1  0.73099000  0.10838000  0.37109000  1.0
  O  O71  1  0.26903000  0.89165000  0.62892000  1.0
  O  O72  1  0.87408000  0.36562000  0.48769000  1.0
  O  O73  1  0.12592000  0.63440000  0.51230000  1.0
  O  O74  1  0.13520000  0.28384000  0.27395000  1.0
  O  O75  1  0.86480000  0.71618000  0.72606000  1.0
  O  O76  1  0.98685000  0.03792000  0.22669000  1.0
  O  O77  1  0.01314000  0.96211000  0.77331000  1.0
