# generated using pymatgen
data_CdH9C19BrN2O5
_symmetry_space_group_name_H-M   'P 1'
_cell_length_a   7.93269000
_cell_length_b   14.23440000
_cell_length_c   16.51500000
_cell_angle_alpha   113.88400000
_cell_angle_beta   90.00000000
_cell_angle_gamma   90.00000000
_symmetry_Int_Tables_number   1
_chemical_formula_structural   CdH9C19BrN2O5
_chemical_formula_sum   'Cd4 H36 C76 Br4 N8 O20'
_cell_volume   1705.13511122
_cell_formula_units_Z   4
loop_
 _symmetry_equiv_pos_site_id
 _symmetry_equiv_pos_as_xyz
  1  'x, y, z'
loop_
 _atom_site_type_symbol
 _atom_site_label
 _atom_site_symmetry_multiplicity
 _atom_site_fract_x
 _atom_site_fract_y
 _atom_site_fract_z
 _atom_site_occupancy
  Cd  Cd0  1  0.49692000  0.34167000  0.39636000  1.0
  Cd  Cd1  1  0.99692000  0.65833000  0.10364000  1.0
  Cd  Cd2  1  0.50308000  0.65833000  0.60364000  1.0
  Cd  Cd3  1  0.00308000  0.34167000  0.89636000  1.0
  H  H4  1  0.05861000  0.64262000  0.59044000  1.0
  H  H5  1  0.55861000  0.35738000  0.90956000  1.0
  H  H6  1  0.94139000  0.35738000  0.40956000  1.0
  H  H7  1  0.44138000  0.64262000  0.09044000  1.0
  H  H8  1  0.86264000  0.82025000  0.45181000  1.0
  H  H9  1  0.36263000  0.17975000  0.04820000  1.0
  H  H10  1  0.13737000  0.17976000  0.54820000  1.0
  H  H11  1  0.63737000  0.82025000  0.95180000  1.0
  H  H12  1  0.19247000  0.56435000  0.31786000  1.0
  H  H13  1  0.69246000  0.43565000  0.18214000  1.0
  H  H14  1  0.80754000  0.43565000  0.68214000  1.0
  H  H15  1  0.30753000  0.56435000  0.81786000  1.0
  H  H16  1  0.34822000  0.44566000  0.62995000  1.0
  H  H17  1  0.84822000  0.55434000  0.87005000  1.0
  H  H18  1  0.65179000  0.55434000  0.37005000  1.0
  H  H19  1  0.15178000  0.44566000  0.12995000  1.0
  H  H20  1  0.36235000  0.38227000  0.75155000  1.0
  H  H21  1  0.86235000  0.61773000  0.74845000  1.0
  H  H22  1  0.63766000  0.61773000  0.24845000  1.0
  H  H23  1  0.13765000  0.38227000  0.25155000  1.0
  H  H24  1  0.50207000  0.21471000  0.72405000  1.0
  H  H25  1  0.00207000  0.78529000  0.77595000  1.0
  H  H26  1  0.49793000  0.78529000  0.27595000  1.0
  H  H27  1  0.99793000  0.21471000  0.22405000  1.0
  H  H28  1  0.84849000  0.93926000  0.38276000  1.0
  H  H29  1  0.34849000  0.06073000  0.11725000  1.0
  H  H30  1  0.15151000  0.06073000  0.61724000  1.0
  H  H31  1  0.65151000  0.93927000  0.88275000  1.0
  H  H32  1  0.86959000  0.97647000  0.24800000  1.0
  H  H33  1  0.36959000  0.02353000  0.25200000  1.0
  H  H34  1  0.13041000  0.02353000  0.75200000  1.0
  H  H35  1  0.63041000  0.97647000  0.74800000  1.0
  H  H36  1  0.72192000  0.12669000  0.24041000  1.0
  H  H37  1  0.22192000  0.87331000  0.25959000  1.0
  H  H38  1  0.27809000  0.87331000  0.75959000  1.0
  H  H39  1  0.77808000  0.12669000  0.74041000  1.0
  C  C40  1  0.13572000  0.59409000  0.45403000  1.0
  C  C41  1  0.63571000  0.40591000  0.04597000  1.0
  C  C42  1  0.86429000  0.40591000  0.54597000  1.0
  C  C43  1  0.36428000  0.59409000  0.95403000  1.0
  C  C44  1  0.04873000  0.65685000  0.53063000  1.0
  C  C45  1  0.54873000  0.34315000  0.96937000  1.0
  C  C46  1  0.95127000  0.34315000  0.46937000  1.0
  C  C47  1  0.45127000  0.65685000  0.03063000  1.0
  C  C48  1  0.94999000  0.73637000  0.52804000  1.0
  C  C49  1  0.44999000  0.26363000  0.97196000  1.0
  C  C50  1  0.05002000  0.26363000  0.47197000  1.0
  C  C51  1  0.55001000  0.73637000  0.02804000  1.0
  C  C52  1  0.93952000  0.75728000  0.45272000  1.0
  C  C53  1  0.43952000  0.24273000  0.04728000  1.0
  C  C54  1  0.06048000  0.24273000  0.54728000  1.0
  C  C55  1  0.56047000  0.75727000  0.95272000  1.0
  C  C56  1  0.02857000  0.69462000  0.37659000  1.0
  C  C57  1  0.52857000  0.30538000  0.12342000  1.0
  C  C58  1  0.97143000  0.30538000  0.62342000  1.0
  C  C59  1  0.47143000  0.69462000  0.87658000  1.0
  C  C60  1  0.12388000  0.61235000  0.37728000  1.0
  C  C61  1  0.62388000  0.38765000  0.12272000  1.0
  C  C62  1  0.87612000  0.38765000  0.62272000  1.0
  C  C63  1  0.37612000  0.61235000  0.87728000  1.0
  C  C64  1  0.24835000  0.51104000  0.45674000  1.0
  C  C65  1  0.74835000  0.48896000  0.04326000  1.0
  C  C66  1  0.75165000  0.48897000  0.54326000  1.0
  C  C67  1  0.25165000  0.51103000  0.95674000  1.0
  C  C68  1  0.01722000  0.71261000  0.29273000  1.0
  C  C69  1  0.51722000  0.28739000  0.20727000  1.0
  C  C70  1  0.98278000  0.28740000  0.70727000  1.0
  C  C71  1  0.48278000  0.71261000  0.79273000  1.0
  C  C72  1  0.40763000  0.37253000  0.61945000  1.0
  C  C73  1  0.90763000  0.62747000  0.88055000  1.0
  C  C74  1  0.59237000  0.62747000  0.38055000  1.0
  C  C75  1  0.09237000  0.37253000  0.11945000  1.0
  C  C76  1  0.41780000  0.33706000  0.68695000  1.0
  C  C77  1  0.91780000  0.66294000  0.81305000  1.0
  C  C78  1  0.58220000  0.66294000  0.31305000  1.0
  C  C79  1  0.08220000  0.33706000  0.18695000  1.0
  C  C80  1  0.49567000  0.24281000  0.67176000  1.0
  C  C81  1  0.99567000  0.75719000  0.82824000  1.0
  C  C82  1  0.50433000  0.75719000  0.32824000  1.0
  C  C83  1  0.00433000  0.24281000  0.17175000  1.0
  C  C84  1  0.56217000  0.18812000  0.58784000  1.0
  C  C85  1  0.06217000  0.81188000  0.91216000  1.0
  C  C86  1  0.43783000  0.81188000  0.41216000  1.0
  C  C87  1  0.93783000  0.18812000  0.08784000  1.0
  C  C88  1  0.65921000  0.08902000  0.54537000  1.0
  C  C89  1  0.15920000  0.91098000  0.95463000  1.0
  C  C90  1  0.34079000  0.91098000  0.45463000  1.0
  C  C91  1  0.84079000  0.08902000  0.04537000  1.0
  C  C92  1  0.69868000  0.07857000  0.45260000  1.0
  C  C93  1  0.19868000  0.92142000  0.04740000  1.0
  C  C94  1  0.30132000  0.92142000  0.54740000  1.0
  C  C95  1  0.80133000  0.07858000  0.95260000  1.0
  C  C96  1  0.78832000  0.00788000  0.38188000  1.0
  C  C97  1  0.28832000  0.99212000  0.11813000  1.0
  C  C98  1  0.21168000  0.99212000  0.61812000  1.0
  C  C99  1  0.71168000  0.00788000  0.88187000  1.0
  C  C100  1  0.79832000  0.02767000  0.30516000  1.0
  C  C101  1  0.29832000  0.97233000  0.19484000  1.0
  C  C102  1  0.20168000  0.97233000  0.69483000  1.0
  C  C103  1  0.70168000  0.02767000  0.80516000  1.0
  C  C104  1  0.71885000  0.11297000  0.30070000  1.0
  C  C105  1  0.21885000  0.88703000  0.19930000  1.0
  C  C106  1  0.28115000  0.88703000  0.69930000  1.0
  C  C107  1  0.78115000  0.11297000  0.80070000  1.0
  C  C108  1  0.62681000  0.16311000  0.44244000  1.0
  C  C109  1  0.12681000  0.83689000  0.05756000  1.0
  C  C110  1  0.37319000  0.83689000  0.55756000  1.0
  C  C111  1  0.87319000  0.16311000  0.94243000  1.0
  C  C112  1  0.54493000  0.23035000  0.52489000  1.0
  C  C113  1  0.04493000  0.76965000  0.97511000  1.0
  C  C114  1  0.45507000  0.76964000  0.47511000  1.0
  C  C115  1  0.95507000  0.23035000  0.02489000  1.0
  Br  Br116  1  0.82473000  0.81710000  0.63142000  1.0
  Br  Br117  1  0.32473000  0.18289000  0.86858000  1.0
  Br  Br118  1  0.17527000  0.18289000  0.36859000  1.0
  Br  Br119  1  0.67527000  0.81710000  0.13141000  1.0
  N  N120  1  0.47100000  0.31869000  0.53730000  1.0
  N  N121  1  0.97100000  0.68131000  0.96270000  1.0
  N  N122  1  0.52900000  0.68131000  0.46270000  1.0
  N  N123  1  0.02900000  0.31869000  0.03730000  1.0
  N  N124  1  0.63331000  0.18197000  0.37017000  1.0
  N  N125  1  0.13331000  0.81803000  0.12983000  1.0
  N  N126  1  0.36670000  0.81803000  0.62983000  1.0
  N  N127  1  0.86670000  0.18197000  0.87016000  1.0
  O  O128  1  0.27141000  0.43242000  0.38435000  1.0
  O  O129  1  0.77142000  0.56758000  0.11566000  1.0
  O  O130  1  0.72859000  0.56758000  0.61566000  1.0
  O  O131  1  0.22858000  0.43242000  0.88434000  1.0
  O  O132  1  0.31691000  0.52341000  0.52987000  1.0
  O  O133  1  0.81691000  0.47660000  0.97013000  1.0
  O  O134  1  0.68309000  0.47660000  0.47013000  1.0
  O  O135  1  0.18309000  0.52340000  0.02987000  1.0
  O  O136  1  0.10504000  0.65082000  0.22724000  1.0
  O  O137  1  0.60504000  0.34918000  0.27276000  1.0
  O  O138  1  0.89496000  0.34918000  0.77276000  1.0
  O  O139  1  0.39496000  0.65082000  0.72724000  1.0
  O  O140  1  0.92352000  0.78287000  0.29039000  1.0
  O  O141  1  0.42352000  0.21713000  0.20961000  1.0
  O  O142  1  0.07648000  0.21713000  0.70961000  1.0
  O  O143  1  0.57648000  0.78287000  0.79039000  1.0
  O  O144  1  0.69797000  0.02928000  0.57883000  1.0
  O  O145  1  0.19797000  0.97073000  0.92117000  1.0
  O  O146  1  0.30203000  0.97072000  0.42117000  1.0
  O  O147  1  0.80204000  0.02927000  0.07883000  1.0
