# generated using pymatgen
data_Li2H9C3SNO7
_symmetry_space_group_name_H-M   'P 1'
_cell_length_a   5.00961000
_cell_length_b   9.02508000
_cell_length_c   9.79814000
_cell_angle_alpha   72.65260000
_cell_angle_beta   82.63670000
_cell_angle_gamma   89.30990000
_symmetry_Int_Tables_number   1
_chemical_formula_structural   Li2H9C3SNO7
_chemical_formula_sum   'Li4 H18 C6 S2 N2 O14'
_cell_volume   419.19766156
_cell_formula_units_Z   2
loop_
 _symmetry_equiv_pos_site_id
 _symmetry_equiv_pos_as_xyz
  1  'x, y, z'
loop_
 _atom_site_type_symbol
 _atom_site_label
 _atom_site_symmetry_multiplicity
 _atom_site_fract_x
 _atom_site_fract_y
 _atom_site_fract_z
 _atom_site_occupancy
  Li  Li0  1  0.77755000  0.10869000  0.60489000  1.0
  Li  Li1  1  0.22246000  0.89131000  0.39511000  1.0
  Li  Li2  1  0.74917000  0.75167000  0.28045000  1.0
  Li  Li3  1  0.25084000  0.24832000  0.71955000  1.0
  H  H4  1  0.35227000  0.89182000  0.76587000  1.0
  H  H5  1  0.64773000  0.10818000  0.23413000  1.0
  H  H6  1  0.02929000  0.85356000  0.75474000  1.0
  H  H7  1  0.97071000  0.14644000  0.24526000  1.0
  H  H8  1  0.63475000  0.47048000  0.33543000  1.0
  H  H9  1  0.36525000  0.52952000  0.66457000  1.0
  H  H10  1  0.25663000  0.62122000  0.87343000  1.0
  H  H11  1  0.74337000  0.37879000  0.12657000  1.0
  H  H12  1  0.98026000  0.66442000  0.98738000  1.0
  H  H13  1  0.01974000  0.33558000  0.01262000  1.0
  H  H14  1  0.38697000  0.59042000  0.11609000  1.0
  H  H15  1  0.61303000  0.40958000  0.88391000  1.0
  H  H16  1  0.57114000  0.75034000  0.99230000  1.0
  H  H17  1  0.42885000  0.24965000  0.00770000  1.0
  H  H18  1  0.95143000  0.47423000  0.32873000  1.0
  H  H19  1  0.04857000  0.52576000  0.67127000  1.0
  H  H20  1  0.09772000  0.94168000  0.87402000  1.0
  H  H21  1  0.90228000  0.05831000  0.12598000  1.0
  C  C22  1  0.25962000  0.80757000  0.13929000  1.0
  C  C23  1  0.74037000  0.19242000  0.86071000  1.0
  C  C24  1  0.36681000  0.70838000  0.04380000  1.0
  C  C25  1  0.63319000  0.29162000  0.95620000  1.0
  C  C26  1  0.18426000  0.70187000  0.93356000  1.0
  C  C27  1  0.81574000  0.29813000  0.06645000  1.0
  S  S28  1  0.67391000  0.77768000  0.58051000  1.0
  S  S29  1  0.32609000  0.22233000  0.41948000  1.0
  N  N30  1  0.16612000  0.85698000  0.82612000  1.0
  N  N31  1  0.83387000  0.14302000  0.17388000  1.0
  O  O32  1  0.38562000  0.79023000  0.56024000  1.0
  O  O33  1  0.61438000  0.20978000  0.43975000  1.0
  O  O34  1  0.73283000  0.88143000  0.66916000  1.0
  O  O35  1  0.26717000  0.11859000  0.33083000  1.0
  O  O36  1  0.02676000  0.86291000  0.12503000  1.0
  O  O37  1  0.97324000  0.13708000  0.87498000  1.0
  O  O38  1  0.84339000  0.83115000  0.43662000  1.0
  O  O39  1  0.15662000  0.16885000  0.56337000  1.0
  O  O40  1  0.40422000  0.82722000  0.23070000  1.0
  O  O41  1  0.59579000  0.17277000  0.76930000  1.0
  O  O42  1  0.72952000  0.61490000  0.65830000  1.0
  O  O43  1  0.27048000  0.38511000  0.34169000  1.0
  O  O44  1  0.79552000  0.53869000  0.29890000  1.0
  O  O45  1  0.20448000  0.46131000  0.70110000  1.0
