# generated using pymatgen
data_CuH9C15N2O4F3
_symmetry_space_group_name_H-M   'P 1'
_cell_length_a   8.84772000
_cell_length_b   10.38180000
_cell_length_c   16.42030000
_cell_angle_alpha   89.99970000
_cell_angle_beta   89.99950000
_cell_angle_gamma   107.52900000
_symmetry_Int_Tables_number   1
_chemical_formula_structural   CuH9C15N2O4F3
_chemical_formula_sum   'Cu4 H36 C60 N8 O16 F12'
_cell_volume   1438.25286712
_cell_formula_units_Z   4
loop_
 _symmetry_equiv_pos_site_id
 _symmetry_equiv_pos_as_xyz
  1  'x, y, z'
loop_
 _atom_site_type_symbol
 _atom_site_label
 _atom_site_symmetry_multiplicity
 _atom_site_fract_x
 _atom_site_fract_y
 _atom_site_fract_z
 _atom_site_occupancy
  Cu  Cu0  1  0.33715000  0.10244000  0.16057000  1.0
  Cu  Cu1  1  0.83714000  0.10244000  0.33942000  1.0
  Cu  Cu2  1  0.66286000  0.89756000  0.83943000  1.0
  Cu  Cu3  1  0.16286000  0.89756000  0.66057000  1.0
  H  H4  1  0.17514000  0.32434000  0.12519000  1.0
  H  H5  1  0.67514000  0.32434000  0.37481000  1.0
  H  H6  1  0.82487000  0.67566000  0.87481000  1.0
  H  H7  1  0.32486000  0.67566000  0.62519000  1.0
  H  H8  1  0.02680000  0.37358000  0.00410000  1.0
  H  H9  1  0.52681000  0.37358000  0.49590000  1.0
  H  H10  1  0.97320000  0.62642000  0.99591000  1.0
  H  H11  1  0.47319000  0.62642000  0.50409000  1.0
  H  H12  1  0.00592000  0.23174000  0.87769000  1.0
  H  H13  1  0.50591000  0.23174000  0.62231000  1.0
  H  H14  1  0.99408000  0.76826000  0.12231000  1.0
  H  H15  1  0.49408000  0.76826000  0.37769000  1.0
  H  H16  1  0.13498000  0.04642000  0.87747000  1.0
  H  H17  1  0.63497000  0.04642000  0.62253000  1.0
  H  H18  1  0.86502000  0.95358000  0.12254000  1.0
  H  H19  1  0.36502000  0.95357000  0.37746000  1.0
  H  H20  1  0.28936000  0.91847000  0.95459000  1.0
  H  H21  1  0.78936000  0.91847000  0.54541000  1.0
  H  H22  1  0.71063000  0.08153000  0.04541000  1.0
  H  H23  1  0.21064000  0.08153000  0.45459000  1.0
  H  H24  1  0.28813000  0.74050000  0.98846000  1.0
  H  H25  1  0.78812000  0.74050000  0.51154000  1.0
  H  H26  1  0.71187000  0.25950000  0.01154000  1.0
  H  H27  1  0.21187000  0.25950000  0.48846000  1.0
  H  H28  1  0.37689000  0.54247000  0.01550000  1.0
  H  H29  1  0.87689000  0.54247000  0.48450000  1.0
  H  H30  1  0.62311000  0.45752000  0.98450000  1.0
  H  H31  1  0.12311000  0.45753000  0.51550000  1.0
  H  H32  1  0.54139000  0.53680000  0.13886000  1.0
  H  H33  1  0.04138000  0.53680000  0.36114000  1.0
  H  H34  1  0.45861000  0.46320000  0.86114000  1.0
  H  H35  1  0.95862000  0.46320000  0.63886000  1.0
  H  H36  1  0.61468000  0.73461000  0.23223000  1.0
  H  H37  1  0.11468000  0.73461000  0.26777000  1.0
  H  H38  1  0.38533000  0.26538000  0.76777000  1.0
  H  H39  1  0.88532000  0.26539000  0.73223000  1.0
  C  C40  1  0.16314000  0.26657000  0.06893000  1.0
  C  C41  1  0.66314000  0.26657000  0.43107000  1.0
  C  C42  1  0.83686000  0.73343000  0.93107000  1.0
  C  C43  1  0.33686000  0.73343000  0.56893000  1.0
  C  C44  1  0.08159000  0.29291000  0.00101000  1.0
  C  C45  1  0.58159000  0.29291000  0.49899000  1.0
  C  C46  1  0.91841000  0.70709000  0.99900000  1.0
  C  C47  1  0.41841000  0.70709000  0.50100000  1.0
  C  C48  1  0.07069000  0.21487000  0.93101000  1.0
  C  C49  1  0.57069000  0.21487000  0.56899000  1.0
  C  C50  1  0.92931000  0.78514000  0.06900000  1.0
  C  C51  1  0.42931000  0.78513000  0.43101000  1.0
  C  C52  1  0.14225000  0.11195000  0.93016000  1.0
  C  C53  1  0.64224000  0.11195000  0.56984000  1.0
  C  C54  1  0.85775000  0.88805000  0.06984000  1.0
  C  C55  1  0.35776000  0.88805000  0.43016000  1.0
  C  C56  1  0.22168000  0.09145000  0.00014000  1.0
  C  C57  1  0.72168000  0.09145000  0.49986000  1.0
  C  C58  1  0.77832000  0.90855000  0.99986000  1.0
  C  C59  1  0.27832000  0.90855000  0.50014000  1.0
  C  C60  1  0.29222000  0.98314000  0.00753000  1.0
  C  C61  1  0.79222000  0.98314000  0.49247000  1.0
  C  C62  1  0.70777000  0.01685000  0.99247000  1.0
  C  C63  1  0.20778000  0.01686000  0.50753000  1.0
  C  C64  1  0.40181000  0.85226000  0.09473000  1.0
  C  C65  1  0.90181000  0.85226000  0.40527000  1.0
  C  C66  1  0.59819000  0.14773000  0.90527000  1.0
  C  C67  1  0.09819000  0.14774000  0.59473000  1.0
  C  C68  1  0.36084000  0.74019000  0.04186000  1.0
  C  C69  1  0.86083000  0.74019000  0.45814000  1.0
  C  C70  1  0.63916000  0.25981000  0.95814000  1.0
  C  C71  1  0.13917000  0.25981000  0.54186000  1.0
  C  C72  1  0.41106000  0.62805000  0.05712000  1.0
  C  C73  1  0.91105000  0.62805000  0.44288000  1.0
  C  C74  1  0.58894000  0.37195000  0.94288000  1.0
  C  C75  1  0.08895000  0.37195000  0.55712000  1.0
  C  C76  1  0.50289000  0.62487000  0.12580000  1.0
  C  C77  1  0.00289000  0.62487000  0.37420000  1.0
  C  C78  1  0.49711000  0.37512000  0.87420000  1.0
  C  C79  1  0.99711000  0.37513000  0.62579000  1.0
  C  C80  1  0.54263000  0.73472000  0.17853000  1.0
  C  C81  1  0.04263000  0.73472000  0.32147000  1.0
  C  C82  1  0.45737000  0.26528000  0.82147000  1.0
  C  C83  1  0.95737000  0.26528000  0.67853000  1.0
  C  C84  1  0.49304000  0.84926000  0.16519000  1.0
  C  C85  1  0.99304000  0.84926000  0.33481000  1.0
  C  C86  1  0.50696000  0.15074000  0.83481000  1.0
  C  C87  1  0.00696000  0.15074000  0.66519000  1.0
  C  C88  1  0.54728000  0.96084000  0.22739000  1.0
  C  C89  1  0.04728000  0.96084000  0.27261000  1.0
  C  C90  1  0.45274000  0.03916000  0.77261000  1.0
  C  C91  1  0.95273000  0.03916000  0.72739000  1.0
  C  C92  1  0.33611000  0.28249000  0.29782000  1.0
  C  C93  1  0.83610000  0.28249000  0.20217000  1.0
  C  C94  1  0.66390000  0.71752000  0.70217000  1.0
  C  C95  1  0.16390000  0.71752000  0.79783000  1.0
  C  C96  1  0.34553000  0.43079000  0.32151000  1.0
  C  C97  1  0.84552000  0.43079000  0.17850000  1.0
  C  C98  1  0.65447000  0.56921000  0.67849000  1.0
  C  C99  1  0.15447000  0.56921000  0.82150000  1.0
  N  N100  1  0.23118000  0.16810000  0.06828000  1.0
  N  N101  1  0.73117000  0.16810000  0.43172000  1.0
  N  N102  1  0.76882000  0.83190000  0.93172000  1.0
  N  N103  1  0.26883000  0.83190000  0.56828000  1.0
  N  N104  1  0.34953000  0.96473000  0.07800000  1.0
  N  N105  1  0.84953000  0.96473000  0.42200000  1.0
  N  N106  1  0.65047000  0.03526000  0.92201000  1.0
  N  N107  1  0.15047000  0.03527000  0.57800000  1.0
  O  O108  1  0.49848000  0.06520000  0.22769000  1.0
  O  O109  1  0.99848000  0.06520000  0.27231000  1.0
  O  O110  1  0.50153000  0.93480000  0.77231000  1.0
  O  O111  1  0.00153000  0.93481000  0.72769000  1.0
  O  O112  1  0.64361000  0.94494000  0.28045000  1.0
  O  O113  1  0.14361000  0.94494000  0.21955000  1.0
  O  O114  1  0.35641000  0.05506000  0.71955000  1.0
  O  O115  1  0.85639000  0.05506000  0.78045000  1.0
  O  O116  1  0.35179000  0.27118000  0.22107000  1.0
  O  O117  1  0.85179000  0.27118000  0.27893000  1.0
  O  O118  1  0.64822000  0.72882000  0.77893000  1.0
  O  O119  1  0.14822000  0.72883000  0.72107000  1.0
  O  O120  1  0.31965000  0.19991000  0.35396000  1.0
  O  O121  1  0.81964000  0.19992000  0.14604000  1.0
  O  O122  1  0.68035000  0.80009000  0.64604000  1.0
  O  O123  1  0.18036000  0.80009000  0.85396000  1.0
  F  F124  1  0.50097000  0.50897000  0.32816000  1.0
  F  F125  1  0.00096000  0.50897000  0.17184000  1.0
  F  F126  1  0.49903000  0.49103000  0.67183000  1.0
  F  F127  1  0.99904000  0.49103000  0.82817000  1.0
  F  F128  1  0.27368000  0.49171000  0.26714000  1.0
  F  F129  1  0.77367000  0.49171000  0.23286000  1.0
  F  F130  1  0.72633000  0.50829000  0.73286000  1.0
  F  F131  1  0.22633000  0.50830000  0.76714000  1.0
  F  F132  1  0.27738000  0.43748000  0.39550000  1.0
  F  F133  1  0.77737000  0.43749000  0.10450000  1.0
  F  F134  1  0.72263000  0.56252000  0.60449000  1.0
  F  F135  1  0.22263000  0.56252000  0.89550000  1.0
