# generated using pymatgen
data_Pr2H22C8S3(NO10)2
_symmetry_space_group_name_H-M   'P 1'
_cell_length_a   6.65271000
_cell_length_b   12.66140000
_cell_length_c   13.55250000
_cell_angle_alpha   79.26900000
_cell_angle_beta   75.82650000
_cell_angle_gamma   74.77310000
_symmetry_Int_Tables_number   1
_chemical_formula_structural   Pr2H22C8S3(NO10)2
_chemical_formula_sum   'Pr4 H44 C16 S6 N4 O40'
_cell_volume   1058.85227522
_cell_formula_units_Z   2
loop_
 _symmetry_equiv_pos_site_id
 _symmetry_equiv_pos_as_xyz
  1  'x, y, z'
loop_
 _atom_site_type_symbol
 _atom_site_label
 _atom_site_symmetry_multiplicity
 _atom_site_fract_x
 _atom_site_fract_y
 _atom_site_fract_z
 _atom_site_occupancy
  Pr  Pr0  1  0.72207000  0.54909000  0.13121000  1.0
  Pr  Pr1  1  0.40238000  0.95092000  0.36877000  1.0
  Pr  Pr2  1  0.27793000  0.45091000  0.86879000  1.0
  Pr  Pr3  1  0.59762000  0.04908000  0.63123000  1.0
  H  H4  1  0.34778000  0.74730000  0.97501000  1.0
  H  H5  1  0.07043000  0.75266000  0.52510000  1.0
  H  H6  1  0.65223000  0.25270000  0.02499000  1.0
  H  H7  1  0.92957000  0.24734000  0.47490000  1.0
  H  H8  1  0.20067000  0.79170000  0.87437000  1.0
  H  H9  1  0.86708000  0.70829000  0.62554000  1.0
  H  H10  1  0.79933000  0.20830000  0.12563000  1.0
  H  H11  1  0.13291000  0.29171000  0.37446000  1.0
  H  H12  1  0.29591000  0.97608000  0.90977000  1.0
  H  H13  1  0.18180000  0.52392000  0.59040000  1.0
  H  H14  1  0.70409000  0.02392000  0.09023000  1.0
  H  H15  1  0.81820000  0.47608000  0.40960000  1.0
  H  H16  1  0.35618000  0.91002000  0.03161000  1.0
  H  H17  1  0.29796000  0.58983000  0.46859000  1.0
  H  H18  1  0.64382000  0.08998000  0.96839000  1.0
  H  H19  1  0.70203000  0.41017000  0.53141000  1.0
  H  H20  1  0.78629000  0.88490000  0.96771000  1.0
  H  H21  1  0.63924000  0.61533000  0.53189000  1.0
  H  H22  1  0.21371000  0.11510000  0.03229000  1.0
  H  H23  1  0.36076000  0.38466000  0.46811000  1.0
  H  H24  1  0.94926000  0.96370000  0.87524000  1.0
  H  H25  1  0.78824000  0.53653000  0.62459000  1.0
  H  H26  1  0.05074000  0.03630000  0.12476000  1.0
  H  H27  1  0.21176000  0.46347000  0.37541000  1.0
  H  H28  1  0.03604000  0.85829000  0.08203000  1.0
  H  H29  1  0.97666000  0.64167000  0.41789000  1.0
  H  H30  1  0.96396000  0.14171000  0.91797000  1.0
  H  H31  1  0.02334000  0.35833000  0.58212000  1.0
  H  H32  1  0.89223000  0.63821000  0.27826000  1.0
  H  H33  1  0.80861000  0.86179000  0.22173000  1.0
  H  H34  1  0.10777000  0.36178000  0.72174000  1.0
  H  H35  1  0.19139000  0.13821000  0.77827000  1.0
  H  H36  1  0.64562000  0.68220000  0.31907000  1.0
  H  H37  1  0.64690000  0.81785000  0.18076000  1.0
  H  H38  1  0.35438000  0.31780000  0.68093000  1.0
  H  H39  1  0.35310000  0.18215000  0.81924000  1.0
  H  H40  1  0.77751000  0.32687000  0.27998000  1.0
  H  H41  1  0.38472000  0.17299000  0.21996000  1.0
  H  H42  1  0.22249000  0.67313000  0.72002000  1.0
  H  H43  1  0.61529000  0.82701000  0.78004000  1.0
  H  H44  1  0.54674000  0.36286000  0.26256000  1.0
  H  H45  1  0.17237000  0.13718000  0.23728000  1.0
  H  H46  1  0.45326000  0.63714000  0.73744000  1.0
  H  H47  1  0.82763000  0.86282000  0.76272000  1.0
  C  C48  1  0.06161000  0.68920000  0.00633000  1.0
  C  C49  1  0.75751000  0.81082000  0.49357000  1.0
  C  C50  1  0.93840000  0.31080000  0.99367000  1.0
  C  C51  1  0.24248000  0.18917000  0.50642000  1.0
  C  C52  1  0.18749000  0.77664000  0.95794000  1.0
  C  C53  1  0.92243000  0.72336000  0.54198000  1.0
  C  C54  1  0.81251000  0.22336000  0.04206000  1.0
  C  C55  1  0.07757000  0.27664000  0.45802000  1.0
  C  C56  1  0.22862000  0.95602000  0.99152000  1.0
  C  C57  1  0.17627000  0.54390000  0.50862000  1.0
  C  C58  1  0.77138000  0.04398000  0.00848000  1.0
  C  C59  1  0.82373000  0.45610000  0.49138000  1.0
  C  C60  1  0.89032000  0.94189000  0.95764000  1.0
  C  C61  1  0.78996000  0.55824000  0.54216000  1.0
  C  C62  1  0.10968000  0.05811000  0.04235000  1.0
  C  C63  1  0.21004000  0.44176000  0.45784000  1.0
  S  S64  1  0.71216000  0.59125000  0.85603000  1.0
  S  S65  1  0.15937000  0.90870000  0.64405000  1.0
  S  S66  1  0.28784000  0.40875000  0.14397000  1.0
  S  S67  1  0.84063000  0.09130000  0.35595000  1.0
  S  S68  1  0.23643000  0.75002000  0.24997000  1.0
  S  S69  1  0.76357000  0.24998000  0.75004000  1.0
  N  N70  1  0.08076000  0.88165000  0.00252000  1.0
  N  N71  1  0.96521000  0.61835000  0.49740000  1.0
  N  N72  1  0.91924000  0.11835000  0.99748000  1.0
  N  N73  1  0.03479000  0.38165000  0.50260000  1.0
  O  O74  1  0.90433000  0.71112000  0.08008000  1.0
  O  O75  1  0.69577000  0.78896000  0.41979000  1.0
  O  O76  1  0.09568000  0.28889000  0.91993000  1.0
  O  O77  1  0.30423000  0.21104000  0.58021000  1.0
  O  O78  1  0.12239000  0.59810000  0.97102000  1.0
  O  O79  1  0.69185000  0.90190000  0.52892000  1.0
  O  O80  1  0.87761000  0.40190000  0.02898000  1.0
  O  O81  1  0.30815000  0.09810000  0.47107000  1.0
  O  O82  1  0.67713000  0.63559000  0.95476000  1.0
  O  O83  1  0.26734000  0.86444000  0.54529000  1.0
  O  O84  1  0.32287000  0.36441000  0.04524000  1.0
  O  O85  1  0.73265000  0.13556000  0.45471000  1.0
  O  O86  1  0.59914000  0.50094000  0.87100000  1.0
  O  O87  1  0.97095000  0.99901000  0.62914000  1.0
  O  O88  1  0.40086000  0.49906000  0.12901000  1.0
  O  O89  1  0.02905000  0.00099000  0.37086000  1.0
  O  O90  1  0.62699000  0.68224000  0.77880000  1.0
  O  O91  1  0.08804000  0.81768000  0.72121000  1.0
  O  O92  1  0.37301000  0.31776000  0.22120000  1.0
  O  O93  1  0.91196000  0.18232000  0.27879000  1.0
  O  O94  1  0.94225000  0.54786000  0.81571000  1.0
  O  O95  1  0.30585000  0.95203000  0.68445000  1.0
  O  O96  1  0.05775000  0.45213000  0.18430000  1.0
  O  O97  1  0.69415000  0.04798000  0.31555000  1.0
  O  O98  1  0.42583000  0.72005000  0.16552000  1.0
  O  O99  1  0.31146000  0.78001000  0.33445000  1.0
  O  O100  1  0.57417000  0.27995000  0.83448000  1.0
  O  O101  1  0.68855000  0.21999000  0.66555000  1.0
  O  O102  1  0.13572000  0.65455000  0.29134000  1.0
  O  O103  1  0.08156000  0.84549000  0.20857000  1.0
  O  O104  1  0.86428000  0.34545000  0.70866000  1.0
  O  O105  1  0.91845000  0.15451000  0.79143000  1.0
  O  O106  1  0.75075000  0.61994000  0.28975000  1.0
  O  O107  1  0.66034000  0.88005000  0.21024000  1.0
  O  O108  1  0.24925000  0.38006000  0.71025000  1.0
  O  O109  1  0.33966000  0.11995000  0.78975000  1.0
  O  O110  1  0.66048000  0.39353000  0.27584000  1.0
  O  O111  1  0.32998000  0.10641000  0.22406000  1.0
  O  O112  1  0.33952000  0.60647000  0.72417000  1.0
  O  O113  1  0.67002000  0.89359000  0.77594000  1.0
