# generated using pymatgen
data_GdH10(C3O2)4
_symmetry_space_group_name_H-M   'P 1'
_cell_length_a   13.15690000
_cell_length_b   13.60390000
_cell_length_c   17.84950000
_cell_angle_alpha   90.00020000
_cell_angle_beta   90.00010000
_cell_angle_gamma   91.74040000
_symmetry_Int_Tables_number   1
_chemical_formula_structural   GdH10(C3O2)4
_chemical_formula_sum   'Gd8 H80 C96 O64'
_cell_volume   3193.32168934
_cell_formula_units_Z   8
loop_
 _symmetry_equiv_pos_site_id
 _symmetry_equiv_pos_as_xyz
  1  'x, y, z'
loop_
 _atom_site_type_symbol
 _atom_site_label
 _atom_site_symmetry_multiplicity
 _atom_site_fract_x
 _atom_site_fract_y
 _atom_site_fract_z
 _atom_site_occupancy
  Gd  Gd0  1  0.90647000  0.35927000  0.97260000  1.0
  Gd  Gd1  1  0.59353000  0.14073000  0.47259000  1.0
  Gd  Gd2  1  0.09353000  0.64074000  0.02740000  1.0
  Gd  Gd3  1  0.40646000  0.85926000  0.52740000  1.0
  Gd  Gd4  1  0.65475000  0.09878000  0.01782000  1.0
  Gd  Gd5  1  0.84526000  0.40122000  0.51782000  1.0
  Gd  Gd6  1  0.34525000  0.90122000  0.98218000  1.0
  Gd  Gd7  1  0.15474000  0.59878000  0.48218000  1.0
  H  H8  1  0.97428000  0.52121000  0.86655000  1.0
  H  H9  1  0.52572000  0.97879000  0.36655000  1.0
  H  H10  1  0.02572000  0.47879000  0.13345000  1.0
  H  H11  1  0.47428000  0.02121000  0.63345000  1.0
  H  H12  1  0.99864000  0.42151000  0.82554000  1.0
  H  H13  1  0.50136000  0.07849000  0.32554000  1.0
  H  H14  1  0.00136000  0.57849000  0.17447000  1.0
  H  H15  1  0.49864000  0.92151000  0.67446000  1.0
  H  H16  1  0.69386000  0.33062000  0.91273000  1.0
  H  H17  1  0.80614000  0.16938000  0.41273000  1.0
  H  H18  1  0.30615000  0.66938000  0.08727000  1.0
  H  H19  1  0.19385000  0.83062000  0.58727000  1.0
  H  H20  1  0.75973000  0.37678000  0.84494000  1.0
  H  H21  1  0.74028000  0.12322000  0.34494000  1.0
  H  H22  1  0.24028000  0.62322000  0.15506000  1.0
  H  H23  1  0.25972000  0.87678000  0.65506000  1.0
  H  H24  1  0.79865000  0.08409000  0.14249000  1.0
  H  H25  1  0.70135000  0.41591000  0.64249000  1.0
  H  H26  1  0.20135000  0.91591000  0.85751000  1.0
  H  H27  1  0.29865000  0.58409000  0.35751000  1.0
  H  H28  1  0.86654000  0.11817000  0.07474000  1.0
  H  H29  1  0.63346000  0.38183000  0.57474000  1.0
  H  H30  1  0.13346000  0.88183000  0.92526000  1.0
  H  H31  1  0.36654000  0.61816000  0.42526000  1.0
  H  H32  1  0.66666667  0.94014000  0.12943000  1.0
  H  H33  1  0.83337000  0.55986000  0.62943000  1.0
  H  H34  1  0.33337000  0.05986000  0.87057000  1.0
  H  H35  1  0.16663000  0.44013000  0.37057000  1.0
  H  H36  1  0.55063000  0.96357000  0.12790000  1.0
  H  H37  1  0.94937000  0.53643000  0.62791000  1.0
  H  H38  1  0.44937000  0.03643000  0.87210000  1.0
  H  H39  1  0.05063000  0.46357000  0.37210000  1.0
  H  H40  1  0.94352000  0.36754000  0.24519000  1.0
  H  H41  1  0.55648000  0.13246000  0.74519000  1.0
  H  H42  1  0.05648000  0.63246000  0.75481000  1.0
  H  H43  1  0.44352000  0.86754000  0.25481000  1.0
  H  H44  1  0.00258000  0.12044000  0.38734000  1.0
  H  H45  1  0.49742000  0.37955000  0.88734000  1.0
  H  H46  1  0.99742000  0.87955000  0.61266000  1.0
  H  H47  1  0.50259000  0.62045000  0.11266000  1.0
  H  H48  1  0.04986000  0.02132000  0.27510000  1.0
  H  H49  1  0.45013000  0.47868000  0.77510000  1.0
  H  H50  1  0.95013000  0.97867000  0.72490000  1.0
  H  H51  1  0.54987000  0.52132000  0.22490000  1.0
  H  H52  1  0.03364000  0.09387000  0.14735000  1.0
  H  H53  1  0.46636000  0.40613000  0.64735000  1.0
  H  H54  1  0.96636000  0.90612000  0.85265000  1.0
  H  H55  1  0.53364000  0.59387000  0.35265000  1.0
  H  H56  1  0.64505000  0.26033000  0.24404000  1.0
  H  H57  1  0.85495000  0.23967000  0.74403000  1.0
  H  H58  1  0.35495000  0.73967000  0.75596000  1.0
  H  H59  1  0.14504000  0.76033000  0.25596000  1.0
  H  H60  1  0.75501000  0.52055000  0.35923000  1.0
  H  H61  1  0.74500000  0.97946000  0.85923000  1.0
  H  H62  1  0.24499000  0.47945000  0.64077000  1.0
  H  H63  1  0.25501000  0.02055000  0.14076000  1.0
  H  H64  1  0.81473000  0.59199000  0.23745000  1.0
  H  H65  1  0.68527000  0.90800000  0.73746000  1.0
  H  H66  1  0.18527000  0.40801000  0.76255000  1.0
  H  H67  1  0.31473000  0.09199000  0.26255000  1.0
  H  H68  1  0.80018000  0.49037000  0.12056000  1.0
  H  H69  1  0.69982000  0.00963000  0.62056000  1.0
  H  H70  1  0.19981000  0.50964000  0.87944000  1.0
  H  H71  1  0.30018000  0.99036000  0.37944000  1.0
  H  H72  1  0.21340000  0.20630000  0.99431000  1.0
  H  H73  1  0.28659000  0.29370000  0.49431000  1.0
  H  H74  1  0.78660000  0.79371000  0.00568000  1.0
  H  H75  1  0.71341000  0.70630000  0.50569000  1.0
  H  H76  1  0.30411000  0.51133000  0.01649000  1.0
  H  H77  1  0.19589000  0.98867000  0.51648000  1.0
  H  H78  1  0.69589000  0.48868000  0.98351000  1.0
  H  H79  1  0.80411000  0.01132000  0.48351000  1.0
  H  H80  1  0.47508000  0.46344000  0.06113000  1.0
  H  H81  1  0.02492000  0.03656000  0.56112000  1.0
  H  H82  1  0.52493000  0.53657000  0.93888000  1.0
  H  H83  1  0.97508000  0.96344000  0.43887000  1.0
  H  H84  1  0.51442000  0.28563000  0.07231000  1.0
  H  H85  1  0.98558000  0.21437000  0.57231000  1.0
  H  H86  1  0.48559000  0.71437000  0.92770000  1.0
  H  H87  1  0.01442000  0.78563000  0.42770000  1.0
  C  C88  1  0.97155000  0.27652000  0.11234000  1.0
  C  C89  1  0.52845000  0.22348000  0.61234000  1.0
  C  C90  1  0.02845000  0.72348000  0.88766000  1.0
  C  C91  1  0.47155000  0.77652000  0.38766000  1.0
  C  C92  1  0.98818000  0.23506000  0.18842000  1.0
  C  C93  1  0.51182000  0.26494000  0.68842000  1.0
  C  C94  1  0.01181000  0.76494000  0.81158000  1.0
  C  C95  1  0.48819000  0.73506000  0.31158000  1.0
  C  C96  1  0.96733000  0.29197000  0.25156000  1.0
  C  C97  1  0.53267000  0.20803000  0.75156000  1.0
  C  C98  1  0.03266000  0.70803000  0.74844000  1.0
  C  C99  1  0.46733000  0.79197000  0.24844000  1.0
  C  C100  1  0.97018000  0.24948000  0.32278000  1.0
  C  C101  1  0.52982000  0.25052000  0.82277000  1.0
  C  C102  1  0.02982000  0.75052000  0.67722000  1.0
  C  C103  1  0.47017000  0.74947000  0.17723000  1.0
  C  C104  1  0.99972000  0.15176000  0.33121000  1.0
  C  C105  1  0.50028000  0.34824000  0.83120000  1.0
  C  C106  1  0.00028000  0.84824000  0.66880000  1.0
  C  C107  1  0.49972000  0.65176000  0.16880000  1.0
  C  C108  1  0.02516000  0.09654000  0.26852000  1.0
  C  C109  1  0.47484000  0.40346000  0.76851000  1.0
  C  C110  1  0.97484000  0.90346000  0.73149000  1.0
  C  C111  1  0.52516000  0.59654000  0.23149000  1.0
  C  C112  1  0.01723000  0.13726000  0.19704000  1.0
  C  C113  1  0.48277000  0.36274000  0.69704000  1.0
  C  C114  1  0.98277000  0.86274000  0.80297000  1.0
  C  C115  1  0.51723000  0.63726000  0.30297000  1.0
  C  C116  1  0.93319000  0.30498000  0.38878000  1.0
  C  C117  1  0.56681000  0.19503000  0.88877000  1.0
  C  C118  1  0.06680000  0.69502000  0.61122000  1.0
  C  C119  1  0.43319000  0.80498000  0.11122000  1.0
  C  C120  1  0.71882000  0.30619000  0.10638000  1.0
  C  C121  1  0.78118000  0.19380000  0.60638000  1.0
  C  C122  1  0.28118000  0.69381000  0.89362000  1.0
  C  C123  1  0.21882000  0.80619000  0.39362000  1.0
  C  C124  1  0.72210000  0.36941000  0.17515000  1.0
  C  C125  1  0.77791000  0.13059000  0.67515000  1.0
  C  C126  1  0.27790000  0.63059000  0.82485000  1.0
  C  C127  1  0.22210000  0.86941000  0.32485000  1.0
  C  C128  1  0.68296000  0.33263000  0.24277000  1.0
  C  C129  1  0.81705000  0.16737000  0.74277000  1.0
  C  C130  1  0.31705000  0.66737000  0.75723000  1.0
  C  C131  1  0.18295000  0.83263000  0.25723000  1.0
  C  C132  1  0.69576000  0.38645000  0.30907000  1.0
  C  C133  1  0.80425000  0.11355000  0.80907000  1.0
  C  C134  1  0.30425000  0.61355000  0.69093000  1.0
  C  C135  1  0.19575000  0.88645000  0.19093000  1.0
  C  C136  1  0.74439000  0.47969000  0.30714000  1.0
  C  C137  1  0.75561000  0.02031000  0.80714000  1.0
  C  C138  1  0.25561000  0.52031000  0.69286000  1.0
  C  C139  1  0.24439000  0.97969000  0.19286000  1.0
  C  C140  1  0.77914000  0.51848000  0.23908000  1.0
  C  C141  1  0.72086000  0.98151000  0.73908000  1.0
  C  C142  1  0.22086000  0.48152000  0.76092000  1.0
  C  C143  1  0.27914000  0.01848000  0.26092000  1.0
  C  C144  1  0.76966000  0.46312000  0.17350000  1.0
  C  C145  1  0.73034000  0.03688000  0.67350000  1.0
  C  C146  1  0.23034000  0.53688000  0.82650000  1.0
  C  C147  1  0.26965000  0.96312000  0.32650000  1.0
  C  C148  1  0.66563000  0.33978000  0.38218000  1.0
  C  C149  1  0.83437000  0.16022000  0.88218000  1.0
  C  C150  1  0.33437000  0.66022000  0.61782000  1.0
  C  C151  1  0.16562000  0.83978000  0.11782000  1.0
  C  C152  1  0.39492000  0.12961000  0.03338000  1.0
  C  C153  1  0.10508000  0.37039000  0.53339000  1.0
  C  C154  1  0.60508000  0.87039000  0.96662000  1.0
  C  C155  1  0.89493000  0.62961000  0.46662000  1.0
  C  C156  1  0.36759000  0.23534000  0.03233000  1.0
  C  C157  1  0.13241000  0.26466000  0.53233000  1.0
  C  C158  1  0.63241000  0.76467000  0.96767000  1.0
  C  C159  1  0.86759000  0.73533000  0.46767000  1.0
  C  C160  1  0.27095000  0.26245000  0.00865000  1.0
  C  C161  1  0.22905000  0.23755000  0.50865000  1.0
  C  C162  1  0.72905000  0.73756000  0.99135000  1.0
  C  C163  1  0.77096000  0.76245000  0.49136000  1.0
  C  C164  1  0.24791000  0.36201000  0.00391000  1.0
  C  C165  1  0.25209000  0.13799000  0.50391000  1.0
  C  C166  1  0.75209000  0.63799000  0.99609000  1.0
  C  C167  1  0.74791000  0.86201000  0.49609000  1.0
  C  C168  1  0.32247000  0.43431000  0.02128000  1.0
  C  C169  1  0.17753000  0.06570000  0.52127000  1.0
  C  C170  1  0.67753000  0.56570000  0.97873000  1.0
  C  C171  1  0.82247000  0.93430000  0.47872000  1.0
  C  C172  1  0.41794000  0.40708000  0.04627000  1.0
  C  C173  1  0.08206000  0.09292000  0.54626000  1.0
  C  C174  1  0.58206000  0.59292000  0.95374000  1.0
  C  C175  1  0.91794000  0.90708000  0.45373000  1.0
  C  C176  1  0.44044000  0.30804000  0.05248000  1.0
  C  C177  1  0.05955000  0.19196000  0.55248000  1.0
  C  C178  1  0.55956000  0.69197000  0.94752000  1.0
  C  C179  1  0.94045000  0.80804000  0.44752000  1.0
  C  C180  1  0.14280000  0.39105000  0.98397000  1.0
  C  C181  1  0.35720000  0.10895000  0.48397000  1.0
  C  C182  1  0.85721000  0.60897000  0.01603000  1.0
  C  C183  1  0.64279000  0.89104000  0.51602000  1.0
  O  O184  1  0.94498000  0.21892000  0.05875000  1.0
  O  O185  1  0.55502000  0.28108000  0.55875000  1.0
  O  O186  1  0.05502000  0.78107000  0.94125000  1.0
  O  O187  1  0.44498000  0.71892000  0.44125000  1.0
  O  O188  1  0.97852000  0.36945000  0.10132000  1.0
  O  O189  1  0.52148000  0.13055000  0.60131000  1.0
  O  O190  1  0.02148000  0.63055000  0.89868000  1.0
  O  O191  1  0.47852000  0.86945000  0.39869000  1.0
  O  O192  1  0.88872000  0.25617000  0.44156000  1.0
  O  O193  1  0.61128000  0.24383000  0.94156000  1.0
  O  O194  1  0.11128000  0.74382000  0.55844000  1.0
  O  O195  1  0.38872000  0.75617000  0.05844000  1.0
  O  O196  1  0.94164000  0.39849000  0.39240000  1.0
  O  O197  1  0.55837000  0.10151000  0.89239000  1.0
  O  O198  1  0.05836000  0.60150000  0.60761000  1.0
  O  O199  1  0.44163000  0.89849000  0.10761000  1.0
  O  O200  1  0.76541000  0.33687000  0.04805000  1.0
  O  O201  1  0.73459000  0.16312000  0.54805000  1.0
  O  O202  1  0.23459000  0.66313000  0.95195000  1.0
  O  O203  1  0.26540000  0.83687000  0.45195000  1.0
  O  O204  1  0.67076000  0.22366000  0.11002000  1.0
  O  O205  1  0.82924000  0.27634000  0.61002000  1.0
  O  O206  1  0.32924000  0.77634000  0.88998000  1.0
  O  O207  1  0.17076000  0.72366000  0.38997000  1.0
  O  O208  1  0.60271000  0.26715000  0.38164000  1.0
  O  O209  1  0.89730000  0.23286000  0.88164000  1.0
  O  O210  1  0.39730000  0.73285000  0.61836000  1.0
  O  O211  1  0.10269000  0.76715000  0.11836000  1.0
  O  O212  1  0.70882000  0.37271000  0.44144000  1.0
  O  O213  1  0.79119000  0.12730000  0.94144000  1.0
  O  O214  1  0.29118000  0.62729000  0.55856000  1.0
  O  O215  1  0.20882000  0.87270000  0.05856000  1.0
  O  O216  1  0.48682000  0.10837000  0.04671000  1.0
  O  O217  1  0.01318000  0.39163000  0.54671000  1.0
  O  O218  1  0.51318000  0.89163000  0.95329000  1.0
  O  O219  1  0.98682000  0.60836000  0.45329000  1.0
  O  O220  1  0.32554000  0.06499000  0.01897000  1.0
  O  O221  1  0.17446000  0.43500000  0.51897000  1.0
  O  O222  1  0.67446000  0.93501000  0.98103000  1.0
  O  O223  1  0.82554000  0.56499000  0.48104000  1.0
  O  O224  1  0.11710000  0.47950000  0.99675000  1.0
  O  O225  1  0.38290000  0.02050000  0.49675000  1.0
  O  O226  1  0.88291000  0.52050000  0.00325000  1.0
  O  O227  1  0.61709000  0.97950000  0.50324000  1.0
  O  O228  1  0.08144000  0.32680000  0.95643000  1.0
  O  O229  1  0.41856000  0.17320000  0.45642000  1.0
  O  O230  1  0.91856000  0.67321000  0.04357000  1.0
  O  O231  1  0.58145000  0.82680000  0.54357000  1.0
  O  O232  1  0.94885000  0.45213000  0.85753000  1.0
  O  O233  1  0.55115000  0.04787000  0.35752000  1.0
  O  O234  1  0.05115000  0.54787000  0.14247000  1.0
  O  O235  1  0.44885000  0.95213000  0.64247000  1.0
  O  O236  1  0.75052000  0.37830000  0.89889000  1.0
  O  O237  1  0.74949000  0.12170000  0.39889000  1.0
  O  O238  1  0.24948000  0.62170000  0.10111000  1.0
  O  O239  1  0.25051000  0.87830000  0.60111000  1.0
  O  O240  1  0.81154000  0.06949000  0.09002000  1.0
  O  O241  1  0.68846000  0.43051000  0.59002000  1.0
  O  O242  1  0.18846000  0.93051000  0.90999000  1.0
  O  O243  1  0.31154000  0.56949000  0.40999000  1.0
  O  O244  1  0.62058000  0.99483000  0.13062000  1.0
  O  O245  1  0.87942000  0.50517000  0.63063000  1.0
  O  O246  1  0.37942000  0.00517000  0.86938000  1.0
  O  O247  1  0.12058000  0.49483000  0.36938000  1.0
