# generated using pymatgen
data_CuH11C18N5O6
_symmetry_space_group_name_H-M   'P 1'
_cell_length_a   8.64950000
_cell_length_b   10.87560000
_cell_length_c   25.00160000
_cell_angle_alpha   81.86550000
_cell_angle_beta   89.99990000
_cell_angle_gamma   89.99970000
_symmetry_Int_Tables_number   1
_chemical_formula_structural   CuH11C18N5O6
_chemical_formula_sum   'Cu4 H44 C72 N20 O24'
_cell_volume   2328.20011461
_cell_formula_units_Z   4
loop_
 _symmetry_equiv_pos_site_id
 _symmetry_equiv_pos_as_xyz
  1  'x, y, z'
loop_
 _atom_site_type_symbol
 _atom_site_label
 _atom_site_symmetry_multiplicity
 _atom_site_fract_x
 _atom_site_fract_y
 _atom_site_fract_z
 _atom_site_occupancy
  Cu  Cu0  1  0.22094000  0.16164000  0.26347000  1.0
  Cu  Cu1  1  0.72094000  0.33836000  0.23653000  1.0
  Cu  Cu2  1  0.77906000  0.83836000  0.73653000  1.0
  Cu  Cu3  1  0.27906000  0.66164000  0.76347000  1.0
  H  H4  1  0.32737000  0.45569000  0.09547000  1.0
  H  H5  1  0.82736000  0.04431000  0.40454000  1.0
  H  H6  1  0.67264000  0.54431000  0.90453000  1.0
  H  H7  1  0.17264000  0.95569000  0.59547000  1.0
  H  H8  1  0.35081000  0.36074000  0.19117000  1.0
  H  H9  1  0.85082000  0.13926000  0.30883000  1.0
  H  H10  1  0.64918000  0.63927000  0.80882000  1.0
  H  H11  1  0.14919000  0.86074000  0.69117000  1.0
  H  H12  1  0.97421000  0.18439000  0.07570000  1.0
  H  H13  1  0.47421000  0.31561000  0.42430000  1.0
  H  H14  1  0.02580000  0.81561000  0.92430000  1.0
  H  H15  1  0.52579000  0.68439000  0.57570000  1.0
  H  H16  1  0.21576000  0.80110000  0.20689000  1.0
  H  H17  1  0.71576000  0.69890000  0.29311000  1.0
  H  H18  1  0.78423000  0.19890000  0.79311000  1.0
  H  H19  1  0.28424000  0.30111000  0.70688000  1.0
  H  H20  1  0.23326000  0.57226000  0.20750000  1.0
  H  H21  1  0.73326000  0.92774000  0.29251000  1.0
  H  H22  1  0.76674000  0.42775000  0.79250000  1.0
  H  H23  1  0.26674000  0.07226000  0.70749000  1.0
  H  H24  1  0.94144000  0.74454000  0.35110000  1.0
  H  H25  1  0.44145000  0.75546000  0.14890000  1.0
  H  H26  1  0.05855000  0.25545000  0.64891000  1.0
  H  H27  1  0.55855000  0.24454000  0.85110000  1.0
  H  H28  1  0.00742000  0.10152000  0.17462000  1.0
  H  H29  1  0.50742000  0.39848000  0.32538000  1.0
  H  H30  1  0.99258000  0.89848000  0.82537000  1.0
  H  H31  1  0.49258000  0.60152000  0.67463000  1.0
  H  H32  1  0.05330000  0.37075000  0.92190000  1.0
  H  H33  1  0.55330000  0.12925000  0.57810000  1.0
  H  H34  1  0.94671000  0.62925000  0.07810000  1.0
  H  H35  1  0.44671000  0.87075000  0.42190000  1.0
  H  H36  1  0.07793000  0.46906000  0.82465000  1.0
  H  H37  1  0.57794000  0.03094000  0.67535000  1.0
  H  H38  1  0.92206000  0.53094000  0.17535000  1.0
  H  H39  1  0.42207000  0.96906000  0.32465000  1.0
  H  H40  1  0.39132000  0.72979000  0.86428000  1.0
  H  H41  1  0.89132000  0.77021000  0.63572000  1.0
  H  H42  1  0.60868000  0.27021000  0.13572000  1.0
  H  H43  1  0.10868000  0.22979000  0.36429000  1.0
  H  H44  1  0.38621000  0.63894000  0.96225000  1.0
  H  H45  1  0.88621000  0.86106000  0.53774000  1.0
  H  H46  1  0.61379000  0.36106000  0.03774000  1.0
  H  H47  1  0.11379000  0.13894000  0.46226000  1.0
  C  C48  1  0.00895000  0.57949000  0.31816000  1.0
  C  C49  1  0.50896000  0.92051000  0.18184000  1.0
  C  C50  1  0.99105000  0.42051000  0.68184000  1.0
  C  C51  1  0.49104000  0.07949000  0.81816000  1.0
  C  C52  1  0.08044000  0.78736000  0.27949000  1.0
  C  C53  1  0.58045000  0.71264000  0.22051000  1.0
  C  C54  1  0.91955000  0.21264000  0.72051000  1.0
  C  C55  1  0.41955000  0.28736000  0.77949000  1.0
  C  C56  1  0.09216000  0.52742000  0.27863000  1.0
  C  C57  1  0.59217000  0.97258000  0.22137000  1.0
  C  C58  1  0.90783000  0.47258000  0.72137000  1.0
  C  C59  1  0.40783000  0.02742000  0.77863000  1.0
  C  C60  1  0.25544000  0.37677000  0.11113000  1.0
  C  C61  1  0.75545000  0.12324000  0.38887000  1.0
  C  C62  1  0.74456000  0.62323000  0.88887000  1.0
  C  C63  1  0.24456000  0.87677000  0.61113000  1.0
  C  C64  1  0.26818000  0.32430000  0.16458000  1.0
  C  C65  1  0.76818000  0.17571000  0.33542000  1.0
  C  C66  1  0.73182000  0.67571000  0.83542000  1.0
  C  C67  1  0.23182000  0.82429000  0.66458000  1.0
  C  C68  1  0.14978000  0.32523000  0.07797000  1.0
  C  C69  1  0.64978000  0.17477000  0.42203000  1.0
  C  C70  1  0.85022000  0.67477000  0.92203000  1.0
  C  C71  1  0.35022000  0.82523000  0.57797000  1.0
  C  C72  1  0.05803000  0.22525000  0.10050000  1.0
  C  C73  1  0.55803000  0.27476000  0.39950000  1.0
  C  C74  1  0.94197000  0.77475000  0.89949000  1.0
  C  C75  1  0.44197000  0.72524000  0.60050000  1.0
  C  C76  1  0.21929000  0.49829000  0.94923000  1.0
  C  C77  1  0.71929000  0.00171000  0.55077000  1.0
  C  C78  1  0.78071000  0.50171000  0.05077000  1.0
  C  C79  1  0.28072000  0.99829000  0.44924000  1.0
  C  C80  1  0.15905000  0.73778000  0.23850000  1.0
  C  C81  1  0.65906000  0.76222000  0.26150000  1.0
  C  C82  1  0.84094000  0.26222000  0.76150000  1.0
  C  C83  1  0.34095000  0.23778000  0.73850000  1.0
  C  C84  1  0.16618000  0.60971000  0.23845000  1.0
  C  C85  1  0.66619000  0.89029000  0.26155000  1.0
  C  C86  1  0.83381000  0.39029000  0.76155000  1.0
  C  C87  1  0.33381000  0.10972000  0.73845000  1.0
  C  C88  1  0.00375000  0.70711000  0.31919000  1.0
  C  C89  1  0.50376000  0.79289000  0.18081000  1.0
  C  C90  1  0.99625000  0.29289000  0.68081000  1.0
  C  C91  1  0.49624000  0.20711000  0.81919000  1.0
  C  C92  1  0.07912000  0.92464000  0.28285000  1.0
  C  C93  1  0.57912000  0.57536000  0.21715000  1.0
  C  C94  1  0.92087000  0.07536000  0.71715000  1.0
  C  C95  1  0.42088000  0.42464000  0.78285000  1.0
  C  C96  1  0.07669000  0.17844000  0.15496000  1.0
  C  C97  1  0.57669000  0.32156000  0.34504000  1.0
  C  C98  1  0.92331000  0.82156000  0.84504000  1.0
  C  C99  1  0.42331000  0.67844000  0.65496000  1.0
  C  C100  1  0.12939000  0.44981000  0.91034000  1.0
  C  C101  1  0.62939000  0.05019000  0.58966000  1.0
  C  C102  1  0.87061000  0.55019000  0.08966000  1.0
  C  C103  1  0.37062000  0.94981000  0.41034000  1.0
  C  C104  1  0.14199000  0.50420000  0.85684000  1.0
  C  C105  1  0.64199000  0.99580000  0.64316000  1.0
  C  C106  1  0.85801000  0.49580000  0.14316000  1.0
  C  C107  1  0.35801000  0.00420000  0.35684000  1.0
  C  C108  1  0.31882000  0.65042000  0.87860000  1.0
  C  C109  1  0.81882000  0.84957000  0.62140000  1.0
  C  C110  1  0.68118000  0.34957000  0.12140000  1.0
  C  C111  1  0.18118000  0.15043000  0.37860000  1.0
  C  C112  1  0.31484000  0.60053000  0.93278000  1.0
  C  C113  1  0.81483000  0.89947000  0.56722000  1.0
  C  C114  1  0.68517000  0.39947000  0.06722000  1.0
  C  C115  1  0.18517000  0.10053000  0.43278000  1.0
  C  C116  1  0.09746000  0.39081000  0.27400000  1.0
  C  C117  1  0.59746000  0.10919000  0.22600000  1.0
  C  C118  1  0.90254000  0.60919000  0.72600000  1.0
  C  C119  1  0.40254000  0.89081000  0.77400000  1.0
  N  N120  1  0.18078000  0.22660000  0.18602000  1.0
  N  N121  1  0.68078000  0.27341000  0.31398000  1.0
  N  N122  1  0.81922000  0.77341000  0.81397000  1.0
  N  N123  1  0.31922000  0.72659000  0.68602000  1.0
  N  N124  1  0.92432000  0.50094000  0.36082000  1.0
  N  N125  1  0.42432000  0.99906000  0.13919000  1.0
  N  N126  1  0.07569000  0.49905000  0.63919000  1.0
  N  N127  1  0.57566000  0.00094000  0.86082000  1.0
  N  N128  1  0.23533000  0.60219000  0.84126000  1.0
  N  N129  1  0.73533000  0.89781000  0.65873000  1.0
  N  N130  1  0.76467000  0.39781000  0.15873000  1.0
  N  N131  1  0.26467000  0.10219000  0.34127000  1.0
  N  N132  1  0.12978000  0.36930000  0.02207000  1.0
  N  N133  1  0.62977000  0.13070000  0.47793000  1.0
  N  N134  1  0.87023000  0.63070000  0.97792000  1.0
  N  N135  1  0.37023000  0.86930000  0.52207000  1.0
  N  N136  1  0.22849000  0.45108000  0.00467000  1.0
  N  N137  1  0.72849000  0.04892000  0.49533000  1.0
  N  N138  1  0.77152000  0.54892000  0.99533000  1.0
  N  N139  1  0.27152000  0.95109000  0.50467000  1.0
  O  O140  1  0.17661000  0.98899000  0.25069000  1.0
  O  O141  1  0.67662000  0.51101000  0.24931000  1.0
  O  O142  1  0.82337000  0.01101000  0.74931000  1.0
  O  O143  1  0.32338000  0.48899000  0.75069000  1.0
  O  O144  1  0.99133000  0.96567000  0.31580000  1.0
  O  O145  1  0.49133000  0.53432000  0.18420000  1.0
  O  O146  1  0.00867000  0.03432000  0.68420000  1.0
  O  O147  1  0.50867000  0.46568000  0.81580000  1.0
  O  O148  1  0.97163000  0.39326000  0.37509000  1.0
  O  O149  1  0.47161000  0.10675000  0.12492000  1.0
  O  O150  1  0.02840000  0.60674000  0.62492000  1.0
  O  O151  1  0.52836000  0.89325000  0.87508000  1.0
  O  O152  1  0.81009000  0.54651000  0.38079000  1.0
  O  O153  1  0.31009000  0.95349000  0.11921000  1.0
  O  O154  1  0.18992000  0.45348000  0.61921000  1.0
  O  O155  1  0.68989000  0.04651000  0.88080000  1.0
  O  O156  1  0.97835000  0.33731000  0.26059000  1.0
  O  O157  1  0.47835000  0.16268000  0.23941000  1.0
  O  O158  1  0.02165000  0.66268000  0.73941000  1.0
  O  O159  1  0.52165000  0.83731000  0.76059000  1.0
  O  O160  1  0.23115000  0.33957000  0.28108000  1.0
  O  O161  1  0.73115000  0.16043000  0.21892000  1.0
  O  O162  1  0.76885000  0.66043000  0.71891000  1.0
  O  O163  1  0.26884000  0.83957000  0.78108000  1.0
