# generated using pymatgen
data_CoH15C23(NO2)2
_symmetry_space_group_name_H-M   'P 1'
_cell_length_a   12.95790000
_cell_length_b   12.95780000
_cell_length_c   14.95510000
_cell_angle_alpha   67.18620000
_cell_angle_beta   67.18600000
_cell_angle_gamma   63.11610000
_symmetry_Int_Tables_number   1
_chemical_formula_structural   CoH15C23(NO2)2
_chemical_formula_sum   'Co4 H60 C92 N8 O16'
_cell_volume   1994.36496838
_cell_formula_units_Z   4
loop_
 _symmetry_equiv_pos_site_id
 _symmetry_equiv_pos_as_xyz
  1  'x, y, z'
loop_
 _atom_site_type_symbol
 _atom_site_label
 _atom_site_symmetry_multiplicity
 _atom_site_fract_x
 _atom_site_fract_y
 _atom_site_fract_z
 _atom_site_occupancy
  Co  Co0  1  0.46897000  0.91384000  0.14784000  1.0
  Co  Co1  1  0.08616000  0.53102000  0.35216000  1.0
  Co  Co2  1  0.53102000  0.08616000  0.85216000  1.0
  Co  Co3  1  0.91384000  0.46898000  0.64784000  1.0
  H  H4  1  0.31453000  0.76119000  0.13022000  1.0
  H  H5  1  0.23881000  0.68547000  0.36978000  1.0
  H  H6  1  0.68548000  0.23881000  0.86979000  1.0
  H  H7  1  0.76119000  0.31453000  0.63022000  1.0
  H  H8  1  0.08819000  0.72595000  0.00453000  1.0
  H  H9  1  0.27405000  0.91182000  0.49546000  1.0
  H  H10  1  0.91181000  0.27405000  0.99547000  1.0
  H  H11  1  0.72595000  0.08819000  0.50454000  1.0
  H  H12  1  0.28184000  0.96852000  0.83108000  1.0
  H  H13  1  0.03148000  0.71816000  0.66892000  1.0
  H  H14  1  0.71816000  0.03148000  0.16892000  1.0
  H  H15  1  0.96852000  0.28184000  0.33108000  1.0
  H  H16  1  0.24226000  0.75775000  0.75000000  1.0
  H  H17  1  0.75774000  0.24226000  0.25000000  1.0
  H  H18  1  0.98157000  0.04702000  0.88306000  1.0
  H  H19  1  0.95298000  0.01843000  0.61694000  1.0
  H  H20  1  0.01843000  0.95299000  0.11694000  1.0
  H  H21  1  0.04701000  0.98157000  0.38306000  1.0
  H  H22  1  0.87548000  0.12452000  0.75000000  1.0
  H  H23  1  0.12452000  0.87548000  0.25000000  1.0
  H  H24  1  0.22718000  0.01081000  0.11380000  1.0
  H  H25  1  0.98919000  0.77281000  0.38620000  1.0
  H  H26  1  0.77282000  0.98919000  0.88620000  1.0
  H  H27  1  0.01081000  0.22718000  0.61380000  1.0
  H  H28  1  0.05155000  0.19685000  0.10461000  1.0
  H  H29  1  0.80315000  0.94845000  0.39539000  1.0
  H  H30  1  0.94845000  0.80315000  0.89539000  1.0
  H  H31  1  0.19685000  0.05155000  0.60461000  1.0
  H  H32  1  0.24623000  0.36056000  0.15122000  1.0
  H  H33  1  0.63944000  0.75377000  0.34878000  1.0
  H  H34  1  0.75377000  0.63944000  0.84878000  1.0
  H  H35  1  0.36056000  0.24623000  0.65122000  1.0
  H  H36  1  0.41397000  0.16353000  0.16229000  1.0
  H  H37  1  0.83647000  0.58602000  0.33772000  1.0
  H  H38  1  0.58603000  0.83647000  0.83771000  1.0
  H  H39  1  0.16353000  0.41397000  0.66229000  1.0
  H  H40  1  0.05023000  0.48095000  0.13426000  1.0
  H  H41  1  0.51905000  0.94977000  0.36574000  1.0
  H  H42  1  0.94977000  0.51905000  0.86573000  1.0
  H  H43  1  0.48095000  0.05023000  0.63426000  1.0
  H  H44  1  0.90042000  0.35608000  0.12668000  1.0
  H  H45  1  0.64393000  0.09957000  0.37332000  1.0
  H  H46  1  0.09957000  0.64393000  0.87332000  1.0
  H  H47  1  0.35608000  0.90042000  0.62668000  1.0
  H  H48  1  0.69024000  0.47172000  0.14013000  1.0
  H  H49  1  0.52828000  0.30976000  0.35987000  1.0
  H  H50  1  0.30975000  0.52828000  0.85987000  1.0
  H  H51  1  0.47172000  0.69024000  0.64013000  1.0
  H  H52  1  0.51717000  0.66286000  0.15485000  1.0
  H  H53  1  0.33715000  0.48284000  0.34515000  1.0
  H  H54  1  0.48283000  0.33715000  0.84515000  1.0
  H  H55  1  0.66286000  0.51716000  0.65485000  1.0
  H  H56  1  0.73274000  0.82828000  0.14098000  1.0
  H  H57  1  0.17172000  0.26726000  0.35902000  1.0
  H  H58  1  0.26726000  0.17172000  0.85902000  1.0
  H  H59  1  0.82828000  0.73274000  0.64098000  1.0
  H  H60  1  0.91356000  0.64541000  0.13057000  1.0
  H  H61  1  0.35459000  0.08644000  0.36943000  1.0
  H  H62  1  0.08644000  0.35459000  0.86943000  1.0
  H  H63  1  0.64541000  0.91356000  0.63057000  1.0
  C  C64  1  0.39609000  0.92212000  0.96704000  1.0
  C  C65  1  0.07788000  0.60392000  0.53296000  1.0
  C  C66  1  0.60391000  0.07788000  0.03296000  1.0
  C  C67  1  0.92212000  0.39609000  0.46704000  1.0
  C  C68  1  0.31002000  0.86767000  0.97805000  1.0
  C  C69  1  0.13233000  0.68998000  0.52195000  1.0
  C  C70  1  0.68998000  0.13233000  0.02195000  1.0
  C  C71  1  0.86767000  0.31002000  0.47805000  1.0
  C  C72  1  0.27892000  0.78443000  0.06701000  1.0
  C  C73  1  0.21557000  0.72108000  0.43299000  1.0
  C  C74  1  0.72108000  0.21557000  0.93299000  1.0
  C  C75  1  0.78443000  0.27892000  0.56701000  1.0
  C  C76  1  0.19933000  0.73334000  0.07597000  1.0
  C  C77  1  0.26666000  0.80067000  0.42403000  1.0
  C  C78  1  0.80067000  0.26666000  0.92403000  1.0
  C  C79  1  0.73334000  0.19933000  0.57597000  1.0
  C  C80  1  0.15080000  0.76607000  0.99568000  1.0
  C  C81  1  0.23393000  0.84920000  0.50432000  1.0
  C  C82  1  0.84920000  0.23393000  0.00432000  1.0
  C  C83  1  0.76607000  0.15080000  0.49568000  1.0
  C  C84  1  0.17849000  0.85211000  0.90753000  1.0
  C  C85  1  0.14789000  0.82152000  0.59247000  1.0
  C  C86  1  0.82152000  0.14789000  0.09247000  1.0
  C  C87  1  0.85211000  0.17849000  0.40753000  1.0
  C  C88  1  0.25866000  0.90205000  0.89922000  1.0
  C  C89  1  0.09796000  0.74134000  0.60078000  1.0
  C  C90  1  0.74134000  0.09796000  0.10078000  1.0
  C  C91  1  0.90204000  0.25866000  0.39922000  1.0
  C  C92  1  0.16079000  0.65019000  0.17351000  1.0
  C  C93  1  0.34981000  0.83921000  0.32648000  1.0
  C  C94  1  0.83921000  0.34981000  0.82649000  1.0
  C  C95  1  0.65019000  0.16079000  0.67352000  1.0
  C  C96  1  0.11821000  0.89669000  0.82592000  1.0
  C  C97  1  0.10331000  0.88179000  0.67408000  1.0
  C  C98  1  0.88179000  0.10331000  0.17408000  1.0
  C  C99  1  0.89669000  0.11821000  0.32592000  1.0
  C  C100  1  0.16181000  0.83819000  0.75000000  1.0
  C  C101  1  0.83819000  0.16181000  0.25000000  1.0
  C  C102  1  0.01532000  0.00056000  0.82469000  1.0
  C  C103  1  0.99944000  0.98468000  0.67531000  1.0
  C  C104  1  0.98468000  0.99944000  0.17531000  1.0
  C  C105  1  0.00056000  0.01532000  0.32469000  1.0
  C  C106  1  0.95593000  0.04407000  0.75000000  1.0
  C  C107  1  0.04407000  0.95593000  0.25000000  1.0
  C  C108  1  0.22828000  0.09041000  0.12142000  1.0
  C  C109  1  0.90959000  0.77172000  0.37858000  1.0
  C  C110  1  0.77172000  0.90959000  0.87858000  1.0
  C  C111  1  0.09041000  0.22828000  0.62142000  1.0
  C  C112  1  0.12995000  0.19551000  0.11633000  1.0
  C  C113  1  0.80449000  0.87005000  0.38367000  1.0
  C  C114  1  0.87005000  0.80449000  0.88367000  1.0
  C  C115  1  0.19550000  0.12995000  0.61633000  1.0
  C  C116  1  0.13203000  0.29719000  0.12792000  1.0
  C  C117  1  0.70280000  0.86797000  0.37208000  1.0
  C  C118  1  0.86797000  0.70280000  0.87207000  1.0
  C  C119  1  0.29720000  0.13203000  0.62792000  1.0
  C  C120  1  0.23874000  0.28482000  0.14222000  1.0
  C  C121  1  0.71519000  0.76126000  0.35778000  1.0
  C  C122  1  0.76126000  0.71519000  0.85777000  1.0
  C  C123  1  0.28481000  0.23874000  0.64222000  1.0
  C  C124  1  0.33261000  0.17558000  0.14786000  1.0
  C  C125  1  0.82441000  0.66739000  0.35214000  1.0
  C  C126  1  0.66739000  0.82441000  0.85214000  1.0
  C  C127  1  0.17559000  0.33260000  0.64787000  1.0
  C  C128  1  0.03172000  0.40947000  0.12896000  1.0
  C  C129  1  0.59053000  0.96829000  0.37103000  1.0
  C  C130  1  0.96829000  0.59053000  0.87103000  1.0
  C  C131  1  0.40947000  0.03170000  0.62897000  1.0
  C  C132  1  0.91982000  0.42876000  0.12875000  1.0
  C  C133  1  0.57124000  0.08017000  0.37124000  1.0
  C  C134  1  0.08017000  0.57124000  0.87125000  1.0
  C  C135  1  0.42876000  0.91983000  0.62875000  1.0
  C  C136  1  0.81887000  0.54000000  0.13455000  1.0
  C  C137  1  0.46000000  0.18113000  0.36545000  1.0
  C  C138  1  0.18113000  0.46000000  0.86545000  1.0
  C  C139  1  0.54000000  0.81886000  0.63455000  1.0
  C  C140  1  0.70383000  0.54842000  0.14120000  1.0
  C  C141  1  0.45157000  0.29617000  0.35880000  1.0
  C  C142  1  0.29617000  0.45158000  0.85880000  1.0
  C  C143  1  0.54843000  0.70383000  0.64120000  1.0
  C  C144  1  0.60698000  0.65439000  0.14891000  1.0
  C  C145  1  0.34562000  0.39302000  0.35109000  1.0
  C  C146  1  0.39302000  0.34562000  0.85109000  1.0
  C  C147  1  0.65439000  0.60698000  0.64891000  1.0
  C  C148  1  0.72745000  0.74653000  0.14161000  1.0
  C  C149  1  0.25347000  0.27255000  0.35839000  1.0
  C  C150  1  0.27255000  0.25347000  0.85839000  1.0
  C  C151  1  0.74653000  0.72745000  0.64161000  1.0
  C  C152  1  0.82821000  0.64409000  0.13479000  1.0
  C  C153  1  0.35591000  0.17179000  0.36521000  1.0
  C  C154  1  0.17179000  0.35591000  0.86521000  1.0
  C  C155  1  0.64410000  0.82821000  0.63479000  1.0
  N  N156  1  0.32908000  0.07817000  0.13778000  1.0
  N  N157  1  0.92183000  0.67092000  0.36222000  1.0
  N  N158  1  0.67092000  0.92183000  0.86222000  1.0
  N  N159  1  0.07817000  0.32907000  0.63778000  1.0
  N  N160  1  0.61704000  0.75350000  0.14939000  1.0
  N  N161  1  0.24650000  0.38295000  0.35061000  1.0
  N  N162  1  0.38296000  0.24650000  0.85061000  1.0
  N  N163  1  0.75351000  0.61705000  0.64939000  1.0
  O  O164  1  0.44678000  0.88374000  0.03726000  1.0
  O  O165  1  0.11626000  0.55322000  0.46274000  1.0
  O  O166  1  0.55322000  0.11626000  0.96274000  1.0
  O  O167  1  0.88374000  0.44678000  0.53726000  1.0
  O  O168  1  0.41615000  0.00171000  0.88593000  1.0
  O  O169  1  0.99829000  0.58385000  0.61407000  1.0
  O  O170  1  0.58385000  0.99829000  0.11406000  1.0
  O  O171  1  0.00171000  0.41615000  0.38594000  1.0
  O  O172  1  0.18594000  0.64324000  0.25082000  1.0
  O  O173  1  0.35676000  0.81406000  0.24918000  1.0
  O  O174  1  0.81406000  0.35676000  0.74918000  1.0
  O  O175  1  0.64324000  0.18594000  0.75082000  1.0
  O  O176  1  0.10093000  0.59025000  0.18115000  1.0
  O  O177  1  0.40975000  0.89907000  0.31885000  1.0
  O  O178  1  0.89907000  0.40975000  0.81885000  1.0
  O  O179  1  0.59025000  0.10094000  0.68115000  1.0
