# generated using pymatgen
data_Co3H40C68(NO3)4
_symmetry_space_group_name_H-M   'P 1'
_cell_length_a   15.80800000
_cell_length_b   15.80800000
_cell_length_c   16.53710000
_cell_angle_alpha   67.58160000
_cell_angle_beta   67.58220000
_cell_angle_gamma   69.64040000
_symmetry_Int_Tables_number   1
_chemical_formula_structural   Co3H40C68(NO3)4
_chemical_formula_sum   'Co6 H80 C136 N8 O24'
_cell_volume   3430.92801928
_cell_formula_units_Z   2
loop_
 _symmetry_equiv_pos_site_id
 _symmetry_equiv_pos_as_xyz
  1  'x, y, z'
loop_
 _atom_site_type_symbol
 _atom_site_label
 _atom_site_symmetry_multiplicity
 _atom_site_fract_x
 _atom_site_fract_y
 _atom_site_fract_z
 _atom_site_occupancy
  Co  Co0  1  0.35303000  0.90668000  0.51539000  1.0
  Co  Co1  1  0.47173000  0.93391000  0.29637000  1.0
  Co  Co2  1  0.60055000  0.97396000  0.06636000  1.0
  Co  Co3  1  0.90670000  0.35303000  0.01538000  1.0
  Co  Co4  1  0.93392000  0.47172000  0.79637000  1.0
  Co  Co5  1  0.97395000  0.60054000  0.56637000  1.0
  H  H6  1  0.12373000  0.13008000  0.49744000  1.0
  H  H7  1  0.01084000  0.28581000  0.46289000  1.0
  H  H8  1  0.15068000  0.32424000  0.17498000  1.0
  H  H9  1  0.26534000  0.16946000  0.21165000  1.0
  H  H10  1  0.79053000  0.53627000  0.40926000  1.0
  H  H11  1  0.66956000  0.68585000  0.37772000  1.0
  H  H12  1  0.84025000  0.76662000  0.10061000  1.0
  H  H13  1  0.95963000  0.61504000  0.12879000  1.0
  H  H14  1  0.23708000  0.67460000  0.49167000  1.0
  H  H15  1  0.27244000  0.53132000  0.44577000  1.0
  H  H16  1  0.55661000  0.55954000  0.29990000  1.0
  H  H17  1  0.52045000  0.70673000  0.34369000  1.0
  H  H18  1  0.36310000  0.26965000  0.34400000  1.0
  H  H19  1  0.40886000  0.14490000  0.26874000  1.0
  H  H20  1  0.68627000  0.19835000  0.13578000  1.0
  H  H21  1  0.64057000  0.32429000  0.20856000  1.0
  H  H22  1  0.43498000  0.89471000  0.99047000  1.0
  H  H23  1  0.33623000  0.83372000  0.95022000  1.0
  H  H24  1  0.22854000  0.69110000  0.23579000  1.0
  H  H25  1  0.32280000  0.75930000  0.27464000  1.0
  H  H26  1  0.08998000  0.76626000  0.90865000  1.0
  H  H27  1  0.02132000  0.68127000  0.85781000  1.0
  H  H28  1  0.10953000  0.42343000  0.05138000  1.0
  H  H29  1  0.18312000  0.50519000  0.10084000  1.0
  H  H30  1  0.40955000  0.12175000  0.07829000  1.0
  H  H31  1  0.32182000  0.24121000  0.96706000  1.0
  H  H32  1  0.39893000  0.25735000  0.79908000  1.0
  H  H33  1  0.55615000  0.15304000  0.75021000  1.0
  H  H34  1  0.68432000  0.05285000  0.72126000  1.0
  H  H35  1  0.83063000  0.92598000  0.70190000  1.0
  H  H36  1  0.88201000  0.81660000  0.84113000  1.0
  H  H37  1  0.78478000  0.84468000  0.99366000  1.0
  H  H38  1  0.56489000  0.80427000  0.44754000  1.0
  H  H39  1  0.69165000  0.69371000  0.52085000  1.0
  H  H40  1  0.65270000  0.64454000  0.69126000  1.0
  H  H41  1  0.49128000  0.70904000  0.78214000  1.0
  H  H42  1  0.35187000  0.77538000  0.84712000  1.0
  H  H43  1  0.19234000  0.86947000  0.90833000  1.0
  H  H44  1  0.09857000  0.98111000  0.79900000  1.0
  H  H45  1  0.16923000  0.98744000  0.63248000  1.0
  H  H46  1  0.13007000  0.12375000  0.99742000  1.0
  H  H47  1  0.28579000  0.01083000  0.96291000  1.0
  H  H48  1  0.32425000  0.15065000  0.67499000  1.0
  H  H49  1  0.16948000  0.26532000  0.71163000  1.0
  H  H50  1  0.53625000  0.79054000  0.90927000  1.0
  H  H51  1  0.68582000  0.66956000  0.87775000  1.0
  H  H52  1  0.76663000  0.84022000  0.60065000  1.0
  H  H53  1  0.61505000  0.95961000  0.62879000  1.0
  H  H54  1  0.67462000  0.23709000  0.99165000  1.0
  H  H55  1  0.53133000  0.27245000  0.94577000  1.0
  H  H56  1  0.55953000  0.55663000  0.79990000  1.0
  H  H57  1  0.70674000  0.52046000  0.84368000  1.0
  H  H58  1  0.26966000  0.36309000  0.84402000  1.0
  H  H59  1  0.14490000  0.40884000  0.76878000  1.0
  H  H60  1  0.19833000  0.68626000  0.63580000  1.0
  H  H61  1  0.32429000  0.64057000  0.70856000  1.0
  H  H62  1  0.89470000  0.43498000  0.49048000  1.0
  H  H63  1  0.83372000  0.33623000  0.45023000  1.0
  H  H64  1  0.69110000  0.22854000  0.73580000  1.0
  H  H65  1  0.75930000  0.32279000  0.77465000  1.0
  H  H66  1  0.76626000  0.08999000  0.40863000  1.0
  H  H67  1  0.68126000  0.02132000  0.35781000  1.0
  H  H68  1  0.42343000  0.10954000  0.55139000  1.0
  H  H69  1  0.50520000  0.18312000  0.60083000  1.0
  H  H70  1  0.12173000  0.40955000  0.57829000  1.0
  H  H71  1  0.24118000  0.32182000  0.46707000  1.0
  H  H72  1  0.25733000  0.39893000  0.29908000  1.0
  H  H73  1  0.15304000  0.55616000  0.25020000  1.0
  H  H74  1  0.05285000  0.68432000  0.22126000  1.0
  H  H75  1  0.92598000  0.83063000  0.20190000  1.0
  H  H76  1  0.81660000  0.88200000  0.34113000  1.0
  H  H77  1  0.84468000  0.78478000  0.49366000  1.0
  H  H78  1  0.80427000  0.56490000  0.94754000  1.0
  H  H79  1  0.69371000  0.69166000  0.02084000  1.0
  H  H80  1  0.64454000  0.65271000  0.19125000  1.0
  H  H81  1  0.70904000  0.49129000  0.28214000  1.0
  H  H82  1  0.77539000  0.35187000  0.34711000  1.0
  H  H83  1  0.86947000  0.19233000  0.40833000  1.0
  H  H84  1  0.98111000  0.09856000  0.29901000  1.0
  H  H85  1  0.98744000  0.16923000  0.13248000  1.0
  C  C86  1  0.27020000  0.04879000  0.38045000  1.0
  C  C87  1  0.20101000  0.14031000  0.35676000  1.0
  C  C88  1  0.12873000  0.17341000  0.42718000  1.0
  C  C89  1  0.06587000  0.25980000  0.40790000  1.0
  C  C90  1  0.07288000  0.31548000  0.31652000  1.0
  C  C91  1  0.14530000  0.28179000  0.24562000  1.0
  C  C92  1  0.20870000  0.19557000  0.26586000  1.0
  C  C93  1  0.00800000  0.40316000  0.29817000  1.0
  C  C94  1  0.95006000  0.47836000  0.28631000  1.0
  C  C95  1  0.88313000  0.56506000  0.27078000  1.0
  C  C96  1  0.80124000  0.58657000  0.34146000  1.0
  C  C97  1  0.73409000  0.67038000  0.32420000  1.0
  C  C98  1  0.74709000  0.73552000  0.23711000  1.0
  C  C99  1  0.82981000  0.71536000  0.16776000  1.0
  C  C100  1  0.89666000  0.63128000  0.18346000  1.0
  C  C101  1  0.67195000  0.82271000  0.21617000  1.0
  C  C102  1  0.35904000  0.77876000  0.45577000  1.0
  C  C103  1  0.37750000  0.69832000  0.42177000  1.0
  C  C104  1  0.30731000  0.64948000  0.44975000  1.0
  C  C105  1  0.32689000  0.56915000  0.42400000  1.0
  C  C106  1  0.41787000  0.53527000  0.37059000  1.0
  C  C107  1  0.48731000  0.58590000  0.34188000  1.0
  C  C108  1  0.46741000  0.66683000  0.36637000  1.0
  C  C109  1  0.44216000  0.45284000  0.34410000  1.0
  C  C110  1  0.46932000  0.38351000  0.31673000  1.0
  C  C111  1  0.49798000  0.30721000  0.28009000  1.0
  C  C112  1  0.43340000  0.25475000  0.29753000  1.0
  C  C113  1  0.45882000  0.18485000  0.25590000  1.0
  C  C114  1  0.54979000  0.16399000  0.19717000  1.0
  C  C115  1  0.61555000  0.21363000  0.18147000  1.0
  C  C116  1  0.59002000  0.28451000  0.22232000  1.0
  C  C117  1  0.57359000  0.09282000  0.14938000  1.0
  C  C118  1  0.44506000  0.87061000  0.15586000  1.0
  C  C119  1  0.38559000  0.83024000  0.13480000  1.0
  C  C120  1  0.38905000  0.85038000  0.04357000  1.0
  C  C121  1  0.33402000  0.81569000  0.02130000  1.0
  C  C122  1  0.27565000  0.75704000  0.09008000  1.0
  C  C123  1  0.27281000  0.73661000  0.18186000  1.0
  C  C124  1  0.32608000  0.77409000  0.20376000  1.0
  C  C125  1  0.22321000  0.71887000  0.06533000  1.0
  C  C126  1  0.18266000  0.68651000  0.03819000  1.0
  C  C127  1  0.14099000  0.64163000  0.00856000  1.0
  C  C128  1  0.09470000  0.69099000  0.93982000  1.0
  C  C129  1  0.05613000  0.64397000  0.91157000  1.0
  C  C130  1  0.06120000  0.54739000  0.95209000  1.0
  C  C131  1  0.10709000  0.49829000  0.02044000  1.0
  C  C132  1  0.14701000  0.54393000  0.04816000  1.0
  C  C133  1  0.01530000  0.49510000  0.92820000  1.0
  C  C134  1  0.43882000  0.13154000  0.00480000  1.0
  C  C135  1  0.39104000  0.19743000  0.94274000  1.0
  C  C136  1  0.43389000  0.20612000  0.84971000  1.0
  C  C137  1  0.52197000  0.14806000  0.82229000  1.0
  C  C138  1  0.56571000  0.08266000  0.88852000  1.0
  C  C139  1  0.65669000  0.01475000  0.86798000  1.0
  C  C140  1  0.70845000  0.00584000  0.78035000  1.0
  C  C141  1  0.79055000  0.93494000  0.76941000  1.0
  C  C142  1  0.81943000  0.87442000  0.84632000  1.0
  C  C143  1  0.76592000  0.88872000  0.93105000  1.0
  C  C144  1  0.55191000  0.78101000  0.52141000  1.0
  C  C145  1  0.62152000  0.71966000  0.56250000  1.0
  C  C146  1  0.59958000  0.69256000  0.65749000  1.0
  C  C147  1  0.50948000  0.72829000  0.70804000  1.0
  C  C148  1  0.44311000  0.79033000  0.66227000  1.0
  C  C149  1  0.34679000  0.83572000  0.70736000  1.0
  C  C150  1  0.31027000  0.82437000  0.80129000  1.0
  C  C151  1  0.22083000  0.87679000  0.83541000  1.0
  C  C152  1  0.16844000  0.93813000  0.77512000  1.0
  C  C153  1  0.20713000  0.94305000  0.68299000  1.0
  C  C154  1  0.04879000  0.27021000  0.88042000  1.0
  C  C155  1  0.14032000  0.20101000  0.85674000  1.0
  C  C156  1  0.17341000  0.12873000  0.92718000  1.0
  C  C157  1  0.25981000  0.06586000  0.90791000  1.0
  C  C158  1  0.31547000  0.07287000  0.81652000  1.0
  C  C159  1  0.28180000  0.14528000  0.74561000  1.0
  C  C160  1  0.19558000  0.20869000  0.76585000  1.0
  C  C161  1  0.40315000  0.00799000  0.79819000  1.0
  C  C162  1  0.47837000  0.95007000  0.78630000  1.0
  C  C163  1  0.56506000  0.88312000  0.77079000  1.0
  C  C164  1  0.58657000  0.80123000  0.84147000  1.0
  C  C165  1  0.67037000  0.73408000  0.82422000  1.0
  C  C166  1  0.73552000  0.74708000  0.73714000  1.0
  C  C167  1  0.71536000  0.82980000  0.66778000  1.0
  C  C168  1  0.63128000  0.89666000  0.68347000  1.0
  C  C169  1  0.82270000  0.67193000  0.71619000  1.0
  C  C170  1  0.77878000  0.35905000  0.95576000  1.0
  C  C171  1  0.69834000  0.37750000  0.92175000  1.0
  C  C172  1  0.64950000  0.30732000  0.94973000  1.0
  C  C173  1  0.56915000  0.32690000  0.92399000  1.0
  C  C174  1  0.53528000  0.41788000  0.87059000  1.0
  C  C175  1  0.58591000  0.48733000  0.84187000  1.0
  C  C176  1  0.66685000  0.46742000  0.86635000  1.0
  C  C177  1  0.45284000  0.44218000  0.84411000  1.0
  C  C178  1  0.38351000  0.46934000  0.81674000  1.0
  C  C179  1  0.30719000  0.49798000  0.78011000  1.0
  C  C180  1  0.25474000  0.43340000  0.79755000  1.0
  C  C181  1  0.18483000  0.45882000  0.75592000  1.0
  C  C182  1  0.16396000  0.54978000  0.69719000  1.0
  C  C183  1  0.21361000  0.61555000  0.68149000  1.0
  C  C184  1  0.28450000  0.59002000  0.72233000  1.0
  C  C185  1  0.09280000  0.57359000  0.64939000  1.0
  C  C186  1  0.87061000  0.44506000  0.65587000  1.0
  C  C187  1  0.83024000  0.38559000  0.63480000  1.0
  C  C188  1  0.85038000  0.38905000  0.54358000  1.0
  C  C189  1  0.81568000  0.33402000  0.52131000  1.0
  C  C190  1  0.75704000  0.27565000  0.59009000  1.0
  C  C191  1  0.73661000  0.27281000  0.68187000  1.0
  C  C192  1  0.77409000  0.32608000  0.70377000  1.0
  C  C193  1  0.71887000  0.22321000  0.56532000  1.0
  C  C194  1  0.68652000  0.18266000  0.53818000  1.0
  C  C195  1  0.64163000  0.14100000  0.50855000  1.0
  C  C196  1  0.69099000  0.09470000  0.43982000  1.0
  C  C197  1  0.64397000  0.05613000  0.41157000  1.0
  C  C198  1  0.54739000  0.06119000  0.45209000  1.0
  C  C199  1  0.49829000  0.10709000  0.52044000  1.0
  C  C200  1  0.54394000  0.14701000  0.54815000  1.0
  C  C201  1  0.49509000  0.01529000  0.42821000  1.0
  C  C202  1  0.13153000  0.43881000  0.50480000  1.0
  C  C203  1  0.19741000  0.39103000  0.44274000  1.0
  C  C204  1  0.20610000  0.43389000  0.34971000  1.0
  C  C205  1  0.14806000  0.52197000  0.32229000  1.0
  C  C206  1  0.08265000  0.56571000  0.38851000  1.0
  C  C207  1  0.01475000  0.65670000  0.36797000  1.0
  C  C208  1  0.00584000  0.70846000  0.28034000  1.0
  C  C209  1  0.93493000  0.79054000  0.26941000  1.0
  C  C210  1  0.87441000  0.81943000  0.34631000  1.0
  C  C211  1  0.88871000  0.76593000  0.43105000  1.0
  C  C212  1  0.78101000  0.55192000  0.02140000  1.0
  C  C213  1  0.71967000  0.62153000  0.06248000  1.0
  C  C214  1  0.69257000  0.59959000  0.15748000  1.0
  C  C215  1  0.72830000  0.50949000  0.20803000  1.0
  C  C216  1  0.79034000  0.44312000  0.16226000  1.0
  C  C217  1  0.83573000  0.34680000  0.20736000  1.0
  C  C218  1  0.82438000  0.31027000  0.30128000  1.0
  C  C219  1  0.87680000  0.22083000  0.33541000  1.0
  C  C220  1  0.93813000  0.16844000  0.27512000  1.0
  C  C221  1  0.94305000  0.20713000  0.18299000  1.0
  N  N222  1  0.52430000  0.07585000  0.97849000  1.0
  N  N223  1  0.68663000  0.95719000  0.94210000  1.0
  N  N224  1  0.46468000  0.81536000  0.57007000  1.0
  N  N225  1  0.29414000  0.89353000  0.64982000  1.0
  N  N226  1  0.07585000  0.52429000  0.47848000  1.0
  N  N227  1  0.95719000  0.68664000  0.44209000  1.0
  N  N228  1  0.81537000  0.46469000  0.07006000  1.0
  N  N229  1  0.89354000  0.29414000  0.14982000  1.0
  O  O230  1  0.24926000  0.99730000  0.46298000  1.0
  O  O231  1  0.34532000  0.03064000  0.31768000  1.0
  O  O232  1  0.59584000  0.83461000  0.27984000  1.0
  O  O233  1  0.68991000  0.87638000  0.13434000  1.0
  O  O234  1  0.29233000  0.79144000  0.52566000  1.0
  O  O235  1  0.41743000  0.83402000  0.41754000  1.0
  O  O236  1  0.51936000  0.03511000  0.17685000  1.0
  O  O237  1  0.64239000  0.08957000  0.07819000  1.0
  O  O238  1  0.41732000  0.88324000  0.23397000  1.0
  O  O239  1  0.51837000  0.88997000  0.09067000  1.0
  O  O240  1  0.01464000  0.41103000  0.97994000  1.0
  O  O241  1  0.97899000  0.53609000  0.86239000  1.0
  O  O242  1  0.99731000  0.24926000  0.96295000  1.0
  O  O243  1  0.03066000  0.34534000  0.81765000  1.0
  O  O244  1  0.83461000  0.59581000  0.77987000  1.0
  O  O245  1  0.87636000  0.68989000  0.63437000  1.0
  O  O246  1  0.79144000  0.29233000  0.02565000  1.0
  O  O247  1  0.83404000  0.41744000  0.91753000  1.0
  O  O248  1  0.03508000  0.51935000  0.67687000  1.0
  O  O249  1  0.08957000  0.64238000  0.57821000  1.0
  O  O250  1  0.88325000  0.41731000  0.73398000  1.0
  O  O251  1  0.88995000  0.51837000  0.59069000  1.0
  O  O252  1  0.41102000  0.01461000  0.47998000  1.0
  O  O253  1  0.53608000  0.97898000  0.36242000  1.0
