# generated using pymatgen
data_CdH16C12(NO)6
_symmetry_space_group_name_H-M   'P 1'
_cell_length_a   8.31711000
_cell_length_b   9.26956000
_cell_length_c   11.39230000
_cell_angle_alpha   90.00020000
_cell_angle_beta   90.00010000
_cell_angle_gamma   65.53500000
_symmetry_Int_Tables_number   1
_chemical_formula_structural   CdH16C12(NO)6
_chemical_formula_sum   'Cd2 H32 C24 N12 O12'
_cell_volume   799.44150331
_cell_formula_units_Z   2
loop_
 _symmetry_equiv_pos_site_id
 _symmetry_equiv_pos_as_xyz
  1  'x, y, z'
loop_
 _atom_site_type_symbol
 _atom_site_label
 _atom_site_symmetry_multiplicity
 _atom_site_fract_x
 _atom_site_fract_y
 _atom_site_fract_z
 _atom_site_occupancy
  Cd  Cd0  1  0.50000000  0.50000000  1.00000000  1.0
  Cd  Cd1  1  0.00000000  0.50000000  0.50000000  1.0
  H  H2  1  0.40097000  0.65845000  0.71890000  1.0
  H  H3  1  0.09903000  0.34156000  0.21891000  1.0
  H  H4  1  0.59903000  0.34156000  0.28110000  1.0
  H  H5  1  0.90097000  0.65845000  0.78110000  1.0
  H  H6  1  0.45300000  0.06731000  0.84268000  1.0
  H  H7  1  0.04701000  0.93268000  0.34268000  1.0
  H  H8  1  0.54700000  0.93268000  0.15732000  1.0
  H  H9  1  0.95300000  0.06732000  0.65732000  1.0
  H  H10  1  0.22920000  0.65575000  0.16471000  1.0
  H  H11  1  0.27080000  0.34425000  0.66471000  1.0
  H  H12  1  0.77080000  0.34425000  0.83529000  1.0
  H  H13  1  0.72920000  0.65575000  0.33529000  1.0
  H  H14  1  0.63120000  0.84163000  0.55205000  1.0
  H  H15  1  0.86880000  0.15837000  0.05205000  1.0
  H  H16  1  0.36880000  0.15837000  0.44795000  1.0
  H  H17  1  0.13120000  0.84163000  0.94796000  1.0
  H  H18  1  0.57861000  0.03173000  0.61369000  1.0
  H  H19  1  0.92139000  0.96828000  0.11369000  1.0
  H  H20  1  0.42140000  0.96827000  0.38631000  1.0
  H  H21  1  0.07861000  0.03173000  0.88631000  1.0
  H  H22  1  0.26173000  0.07573000  0.63175000  1.0
  H  H23  1  0.23828000  0.92427000  0.13175000  1.0
  H  H24  1  0.73828000  0.92427000  0.36825000  1.0
  H  H25  1  0.76172000  0.07573000  0.86825000  1.0
  H  H26  1  0.31284000  0.88344000  0.57420000  1.0
  H  H27  1  0.18716000  0.11656000  0.07420000  1.0
  H  H28  1  0.68715000  0.11657000  0.42580000  1.0
  H  H29  1  0.81284000  0.88344000  0.92581000  1.0
  H  H30  1  0.40774000  0.65460000  0.22457000  1.0
  H  H31  1  0.09226000  0.34540000  0.72457000  1.0
  H  H32  1  0.59226000  0.34541000  0.77542000  1.0
  H  H33  1  0.90774000  0.65459000  0.27543000  1.0
  C  C34  1  0.42876000  0.74005000  0.77466000  1.0
  C  C35  1  0.07124000  0.25995000  0.27466000  1.0
  C  C36  1  0.57124000  0.25995000  0.22534000  1.0
  C  C37  1  0.92876000  0.74005000  0.72534000  1.0
  C  C38  1  0.45562000  0.94935000  0.83830000  1.0
  C  C39  1  0.04439000  0.05065000  0.33830000  1.0
  C  C40  1  0.54438000  0.05065000  0.16170000  1.0
  C  C41  1  0.95562000  0.94935000  0.66170000  1.0
  C  C42  1  0.11224000  0.50274000  0.95959000  1.0
  C  C43  1  0.38775000  0.49726000  0.45959000  1.0
  C  C44  1  0.88776000  0.49725000  0.04041000  1.0
  C  C45  1  0.61225000  0.50275000  0.54041000  1.0
  C  C46  1  0.01714000  0.56245000  0.07150000  1.0
  C  C47  1  0.48286000  0.43755000  0.57150000  1.0
  C  C48  1  0.98286000  0.43754000  0.92850000  1.0
  C  C49  1  0.51714000  0.56246000  0.42849000  1.0
  C  C50  1  0.52596000  0.96185000  0.56050000  1.0
  C  C51  1  0.97404000  0.03815000  0.06051000  1.0
  C  C52  1  0.47404000  0.03815000  0.43950000  1.0
  C  C53  1  0.02596000  0.96186000  0.93950000  1.0
  C  C54  1  0.36666000  0.95550000  0.62308000  1.0
  C  C55  1  0.13334000  0.04450000  0.12308000  1.0
  C  C56  1  0.63333000  0.04450000  0.37692000  1.0
  C  C57  1  0.86666000  0.95551000  0.87692000  1.0
  N  N58  1  0.41228000  0.88597000  0.74079000  1.0
  N  N59  1  0.08772000  0.11403000  0.24079000  1.0
  N  N60  1  0.58772000  0.11403000  0.25921000  1.0
  N  N61  1  0.91228000  0.88597000  0.75922000  1.0
  N  N62  1  0.47987000  0.71552000  0.88558000  1.0
  N  N63  1  0.02014000  0.28448000  0.38558000  1.0
  N  N64  1  0.52013000  0.28448000  0.11442000  1.0
  N  N65  1  0.97987000  0.71552000  0.61442000  1.0
  N  N66  1  0.49738000  0.84800000  0.92677000  1.0
  N  N67  1  0.00263000  0.15200000  0.42678000  1.0
  N  N68  1  0.50263000  0.15200000  0.07323000  1.0
  N  N69  1  0.99738000  0.84800000  0.57323000  1.0
  O  O70  1  0.33964000  0.67106000  0.14948000  1.0
  O  O71  1  0.16036000  0.32894000  0.64949000  1.0
  O  O72  1  0.66035000  0.32894000  0.85051000  1.0
  O  O73  1  0.83965000  0.67106000  0.35051000  1.0
  O  O74  1  0.24414000  0.50593000  0.90758000  1.0
  O  O75  1  0.25586000  0.49408000  0.40758000  1.0
  O  O76  1  0.75586000  0.49406000  0.09242000  1.0
  O  O77  1  0.74414000  0.50593000  0.59242000  1.0
  O  O78  1  0.03620000  0.63750000  0.15929000  1.0
  O  O79  1  0.46380000  0.36250000  0.65929000  1.0
  O  O80  1  0.96380000  0.36250000  0.84071000  1.0
  O  O81  1  0.53620000  0.63750000  0.34071000  1.0
