# generated using pymatgen
data_Zr3H23C33N3O16
_symmetry_space_group_name_H-M   'P 1'
_cell_length_a   14.04690000
_cell_length_b   14.05810000
_cell_length_c   14.14670000
_cell_angle_alpha   88.05590000
_cell_angle_beta   85.92210000
_cell_angle_gamma   89.20970000
_symmetry_Int_Tables_number   1
_chemical_formula_structural   Zr3H23C33N3O16
_chemical_formula_sum   'Zr6 H46 C66 N6 O32'
_cell_volume   2784.72944393
_cell_formula_units_Z   2
loop_
 _symmetry_equiv_pos_site_id
 _symmetry_equiv_pos_as_xyz
  1  'x, y, z'
loop_
 _atom_site_type_symbol
 _atom_site_label
 _atom_site_symmetry_multiplicity
 _atom_site_fract_x
 _atom_site_fract_y
 _atom_site_fract_z
 _atom_site_occupancy
  Zr  Zr0  1  0.81435000  0.19491000  0.95279000  1.0
  Zr  Zr1  1  0.71489000  0.99156000  0.85527000  1.0
  Zr  Zr2  1  0.03535000  0.07604000  0.95993000  1.0
  Zr  Zr3  1  0.92487000  0.09733000  0.74183000  1.0
  Zr  Zr4  1  0.82646000  0.96722000  0.06923000  1.0
  Zr  Zr5  1  0.93998000  0.87370000  0.85774000  1.0
  H  H6  1  0.16595000  0.44386000  0.20470000  1.0
  H  H7  1  0.15426000  0.63069000  0.21747000  1.0
  H  H8  1  0.59239000  0.62448000  0.61228000  1.0
  H  H9  1  0.60774000  0.43658000  0.60308000  1.0
  H  H10  1  0.21299000  0.74042000  0.48764000  1.0
  H  H11  1  0.19130000  0.75177000  0.30313000  1.0
  H  H12  1  0.54377000  0.31723000  0.32430000  1.0
  H  H13  1  0.56562000  0.30130000  0.50949000  1.0
  H  H14  1  0.42986000  0.72494000  0.19482000  1.0
  H  H15  1  0.24589000  0.71940000  0.16879000  1.0
  H  H16  1  0.31769000  0.34570000  0.62544000  1.0
  H  H17  1  0.50264000  0.34950000  0.65159000  1.0
  H  H18  1  0.73838000  0.17714000  0.77298000  1.0
  H  H19  1  0.90845000  0.13316000  0.11751000  1.0
  H  H20  1  0.09360000  0.99697000  0.79162000  1.0
  H  H21  1  0.77164000  0.81807000  0.95095000  1.0
  H  H22  1  0.20843000  0.33426000  0.88531000  1.0
  H  H23  1  0.16684000  0.30853000  0.67643000  1.0
  H  H24  1  0.57141000  0.39646000  0.89846000  1.0
  H  H25  1  0.48728000  0.22927000  0.79581000  1.0
  H  H26  1  0.18555000  0.67116000  0.91550000  1.0
  H  H27  1  0.24640000  0.83461000  0.03847000  1.0
  H  H28  1  0.57409000  0.77081000  0.14267000  1.0
  H  H29  1  0.53845000  0.73491000  0.93388000  1.0
  H  H30  1  0.27705000  0.48677000  0.94242000  1.0
  H  H31  1  0.47139000  0.58044000  0.87894000  1.0
  H  H32  1  0.55212000  0.04548000  0.26190000  1.0
  H  H33  1  0.60117000  0.25138000  0.19459000  1.0
  H  H34  1  0.52699000  0.05011000  0.62092000  1.0
  H  H35  1  0.69313000  0.16488000  0.51985000  1.0
  H  H36  1  0.06377000  0.87723000  0.27632000  1.0
  H  H37  1  0.22502000  0.00956000  0.19335000  1.0
  H  H38  1  0.20221000  0.01519000  0.54820000  1.0
  H  H39  1  0.13142000  0.81106000  0.59729000  1.0
  H  H40  1  0.32717000  0.07525000  0.31806000  1.0
  H  H41  1  0.42478000  0.98218000  0.48926000  1.0
  H  H42  1  0.65513000  0.75700000  0.66034000  1.0
  H  H43  1  0.86297000  0.70053000  0.59985000  1.0
  H  H44  1  0.86237000  0.34255000  0.54630000  1.0
  H  H45  1  0.74659000  0.42716000  0.71850000  1.0
  H  H46  1  0.03007000  0.65831000  0.09746000  1.0
  H  H47  1  0.89093000  0.72031000  0.26396000  1.0
  H  H48  1  0.89275000  0.36964000  0.20988000  1.0
  H  H49  1  0.10054000  0.32860000  0.13501000  1.0
  H  H50  1  0.83679000  0.44759000  0.35890000  1.0
  H  H51  1  0.91934000  0.62329000  0.45107000  1.0
  C  C52  1  0.01404000  0.44594000  0.25787000  1.0
  C  C53  1  0.10545000  0.48253000  0.23720000  1.0
  C  C54  1  0.09962000  0.58171000  0.24500000  1.0
  C  C55  1  0.00602000  0.60731000  0.27340000  1.0
  C  C56  1  0.74197000  0.62457000  0.55198000  1.0
  C  C57  1  0.65207000  0.58620000  0.57774000  1.0
  C  C58  1  0.65983000  0.48685000  0.57228000  1.0
  C  C59  1  0.75296000  0.46291000  0.54026000  1.0
  C  C60  1  0.25569000  0.89116000  0.47014000  1.0
  C  C61  1  0.23453000  0.80014000  0.44076000  1.0
  C  C62  1  0.22213000  0.80646000  0.34327000  1.0
  C  C63  1  0.24023000  0.89955000  0.31030000  1.0
  C  C64  1  0.49601000  0.16799000  0.33923000  1.0
  C  C65  1  0.52029000  0.25755000  0.37037000  1.0
  C  C66  1  0.53331000  0.24880000  0.46769000  1.0
  C  C67  1  0.51348000  0.15549000  0.49860000  1.0
  C  C68  1  0.44916000  0.67022000  0.05001000  1.0
  C  C69  1  0.39922000  0.69179000  0.13601000  1.0
  C  C70  1  0.30167000  0.68749000  0.12307000  1.0
  C  C71  1  0.28949000  0.65950000  0.03109000  1.0
  C  C72  1  0.29889000  0.39941000  0.77044000  1.0
  C  C73  1  0.34884000  0.37775000  0.68458000  1.0
  C  C74  1  0.44665000  0.38046000  0.69796000  1.0
  C  C75  1  0.45873000  0.40747000  0.79028000  1.0
  C  C76  1  0.98841000  0.27649000  0.05775000  1.0
  C  C77  1  0.60342000  0.19951000  0.88623000  1.0
  C  C78  1  0.84406000  0.30876000  0.74223000  1.0
  C  C79  1  0.69688000  0.14108000  0.14889000  1.0
  C  C80  1  0.76554000  0.80062000  0.74483000  1.0
  C  C81  1  0.14354000  0.86627000  0.93550000  1.0
  C  C82  1  0.71932000  0.07214000  0.64221000  1.0
  C  C83  1  0.62764000  0.86944000  0.03349000  1.0
  C  C84  1  0.03483000  0.98250000  0.16576000  1.0
  C  C85  1  0.11607000  0.20551000  0.78302000  1.0
  C  C86  1  0.04573000  0.92421000  0.65273000  1.0
  C  C87  1  0.92002000  0.76335000  0.07067000  1.0
  C  C88  1  0.21610000  0.34749000  0.80848000  1.0
  C  C89  1  0.16456000  0.29413000  0.75280000  1.0
  C  C90  1  0.52949000  0.36032000  0.84865000  1.0
  C  C91  1  0.53511000  0.26443000  0.84065000  1.0
  C  C92  1  0.21905000  0.70575000  0.97238000  1.0
  C  C93  1  0.20590000  0.80016000  0.98663000  1.0
  C  C94  1  0.57782000  0.78236000  0.06587000  1.0
  C  C95  1  0.52978000  0.72468000  0.01103000  1.0
  C  C96  1  0.34600000  0.49639000  0.90280000  1.0
  C  C97  1  0.40254000  0.57071000  0.91869000  1.0
  C  C98  1  0.54730000  0.12322000  0.25940000  1.0
  C  C99  1  0.60810000  0.17401000  0.19882000  1.0
  C  C100  1  0.56171000  0.10330000  0.57247000  1.0
  C  C101  1  0.65707000  0.11773000  0.57329000  1.0
  C  C102  1  0.09872000  0.93088000  0.22896000  1.0
  C  C103  1  0.19237000  0.95053000  0.23567000  1.0
  C  C104  1  0.20034000  0.93755000  0.54677000  1.0
  C  C105  1  0.13118000  0.88855000  0.59898000  1.0
  C  C106  1  0.33851000  0.02468000  0.37642000  1.0
  C  C107  1  0.41348000  0.03308000  0.43112000  1.0
  C  C108  1  0.73260000  0.75416000  0.66222000  1.0
  C  C109  1  0.78513000  0.70042000  0.59954000  1.0
  C  C110  1  0.80816000  0.38578000  0.58459000  1.0
  C  C111  1  0.79541000  0.37832000  0.68058000  1.0
  C  C112  1  0.97354000  0.69986000  0.13396000  1.0
  C  C113  1  0.95267000  0.68499000  0.22846000  1.0
  C  C114  1  0.97063000  0.37329000  0.20612000  1.0
  C  C115  1  0.02281000  0.32666000  0.13742000  1.0
  C  C116  1  0.88298000  0.50826000  0.36638000  1.0
  C  C117  1  0.87323000  0.56251000  0.44383000  1.0
  N  N118  1  0.95670000  0.52151000  0.29482000  1.0
  N  N119  1  0.79968000  0.54924000  0.51558000  1.0
  N  N120  1  0.27498000  0.94801000  0.38632000  1.0
  N  N121  1  0.47708000  0.10964000  0.42194000  1.0
  N  N122  1  0.38099000  0.63635000  0.99032000  1.0
  N  N123  1  0.36733000  0.43093000  0.83099000  1.0
  O  O124  1  0.04960000  0.21799000  0.02018000  1.0
  O  O125  1  0.59643000  0.11046000  0.87321000  1.0
  O  O126  1  0.82884000  0.31529000  0.83187000  1.0
  O  O127  1  0.73794000  0.20483000  0.09336000  1.0
  O  O128  1  0.73298000  0.05857000  0.16650000  1.0
  O  O129  1  0.89460000  0.24422000  0.70006000  1.0
  O  O130  1  0.66789000  0.23872000  0.93067000  1.0
  O  O131  1  0.90494000  0.29302000  0.02879000  1.0
  O  O132  1  0.76389000  0.05520000  0.97036000  1.0
  O  O133  1  0.93512000  0.14442000  0.88007000  1.0
  O  O134  1  0.77783000  0.13640000  0.81107000  1.0
  O  O135  1  0.90083000  0.10694000  0.05597000  1.0
  O  O136  1  0.70257000  0.85551000  0.78562000  1.0
  O  O137  1  0.15066000  0.95467000  0.95195000  1.0
  O  O138  1  0.80903000  0.08655000  0.63050000  1.0
  O  O139  1  0.68349000  0.90213000  0.09206000  1.0
  O  O140  1  0.94562000  0.96542000  0.17804000  1.0
  O  O141  1  0.06288000  0.17188000  0.72250000  1.0
  O  O142  1  0.00644000  0.86245000  0.71145000  1.0
  O  O143  1  0.93871000  0.75632000  0.98146000  1.0
  O  O144  1  0.01277000  0.00880000  0.63824000  1.0
  O  O145  1  0.85824000  0.82022000  0.10998000  1.0
  O  O146  1  0.67673000  0.02448000  0.71114000  1.0
  O  O147  1  0.13328000  0.16354000  0.86225000  1.0
  O  O148  1  0.07387000  0.04112000  0.10376000  1.0
  O  O149  1  0.61264000  0.90918000  0.95249000  1.0
  O  O150  1  0.84760000  0.78134000  0.77560000  1.0
  O  O151  1  0.08684000  0.83061000  0.87954000  1.0
  O  O152  1  0.94977000  0.95563000  0.97761000  1.0
  O  O153  1  0.85619000  0.97771000  0.79728000  1.0
  O  O154  1  0.02985000  0.00597000  0.82131000  1.0
  O  O155  1  0.79859000  0.88096000  0.93958000  1.0
