# generated using pymatgen
data_ZnH11C14(BrN2)2
_symmetry_space_group_name_H-M   'P 1'
_cell_length_a   14.67830000
_cell_length_b   14.68070000
_cell_length_c   15.02220000
_cell_angle_alpha   101.27400000
_cell_angle_beta   118.11500000
_cell_angle_gamma   108.51700000
_symmetry_Int_Tables_number   1
_chemical_formula_structural   ZnH11C14(BrN2)2
_chemical_formula_sum   'Zn4 H44 C56 Br8 N16'
_cell_volume   2466.00539708
_cell_formula_units_Z   4
loop_
 _symmetry_equiv_pos_site_id
 _symmetry_equiv_pos_as_xyz
  1  'x, y, z'
loop_
 _atom_site_type_symbol
 _atom_site_label
 _atom_site_symmetry_multiplicity
 _atom_site_fract_x
 _atom_site_fract_y
 _atom_site_fract_z
 _atom_site_occupancy
  Zn  Zn0  1  0.98196000  0.63579000  0.59356000  1.0
  Zn  Zn1  1  0.04218000  0.38851000  0.40640000  1.0
  Zn  Zn2  1  0.84894000  0.47905000  0.33886000  1.0
  Zn  Zn3  1  0.14008000  0.51005000  0.66110000  1.0
  H  H4  1  0.83573000  0.49717000  0.66306000  1.0
  H  H5  1  0.37506000  0.67712000  0.71961000  1.0
  H  H6  1  0.20985000  0.55144000  0.91278000  1.0
  H  H7  1  0.95750000  0.65538000  0.28025000  1.0
  H  H8  1  0.63847000  0.29692000  0.08748000  1.0
  H  H9  1  0.96903000  0.31533000  0.68373000  1.0
  H  H10  1  0.71943000  0.61442000  0.21376000  1.0
  H  H11  1  0.63165000  0.28523000  0.31621000  1.0
  H  H12  1  0.25431000  0.33317000  0.44199000  1.0
  H  H13  1  0.40063000  0.50571000  0.78628000  1.0
  H  H14  1  0.09355000  0.47137000  0.11260000  1.0
  H  H15  1  0.13094000  0.81266000  0.10339000  1.0
  H  H16  1  0.35859000  0.98056000  0.88754000  1.0
  H  H17  1  0.70930000  0.02770000  0.89682000  1.0
  H  H18  1  0.83408000  0.17267000  0.33686000  1.0
  H  H19  1  0.78184000  0.89565000  0.49262000  1.0
  H  H20  1  0.78668000  0.02010000  0.34937000  1.0
  H  H21  1  0.40281000  0.28915000  0.50714000  1.0
  H  H22  1  0.67054000  0.43708000  0.65051000  1.0
  H  H23  1  0.89114000  0.81242000  0.55796000  1.0
  H  H24  1  0.29172000  0.55132000  0.08124000  1.0
  H  H25  1  0.37097000  0.69173000  0.13479000  1.0
  H  H26  1  0.36763000  0.62986000  0.22454000  1.0
  H  H27  1  0.93575000  0.73021000  0.14235000  1.0
  H  H28  1  0.86658000  0.66876000  0.99697000  1.0
  H  H29  1  0.84809000  0.59009000  0.06945000  1.0
  H  H30  1  0.46967000  0.21008000  0.91905000  1.0
  H  H31  1  0.55659000  0.23597000  0.86554000  1.0
  H  H32  1  0.40492000  0.14279000  0.77575000  1.0
  H  H33  1  0.58793000  0.79353000  0.85751000  1.0
  H  H34  1  0.67194000  0.86958000  0.00293000  1.0
  H  H35  1  0.52081000  0.77851000  0.93049000  1.0
  H  H36  1  0.65622000  0.74597000  0.16445000  1.0
  H  H37  1  0.70578000  0.88348000  0.21205000  1.0
  H  H38  1  0.80533000  0.83288000  0.22632000  1.0
  H  H39  1  0.78264000  0.13522000  0.62360000  1.0
  H  H40  1  0.77482000  0.00887000  0.59214000  1.0
  H  H41  1  0.91338000  0.12482000  0.67776000  1.0
  H  H42  1  0.58132000  0.49138000  0.83552000  1.0
  H  H43  1  0.67125000  0.49324000  0.78788000  1.0
  H  H44  1  0.60664000  0.57866000  0.77370000  1.0
  H  H45  1  0.51141000  0.15900000  0.37617000  1.0
  H  H46  1  0.41655000  0.18263000  0.40765000  1.0
  H  H47  1  0.44690000  0.23563000  0.32203000  1.0
  C  C48  1  0.79940000  0.45556000  0.57645000  1.0
  C  C49  1  0.01547000  0.56407000  0.01413000  1.0
  C  C50  1  0.58514000  0.83568000  0.92455000  1.0
  C  C51  1  0.31521000  0.62610000  0.14085000  1.0
  C  C52  1  0.91113000  0.66045000  0.07541000  1.0
  C  C53  1  0.48489000  0.17408000  0.85941000  1.0
  C  C54  1  0.73023000  0.82312000  0.23100000  1.0
  C  C55  1  0.82259000  0.08964000  0.60406000  1.0
  C  C56  1  0.59199000  0.49885000  0.76898000  1.0
  C  C57  1  0.48540000  0.21850000  0.39572000  1.0
  C  C58  1  0.51712000  0.00682000  0.79761000  1.0
  C  C59  1  0.54982000  0.00112000  0.98598000  1.0
  C  C60  1  0.20945000  0.71975000  0.20249000  1.0
  C  C61  1  0.82034000  0.09386000  0.50389000  1.0
  C  C62  1  0.75749000  0.82622000  0.34174000  1.0
  C  C63  1  0.58983000  0.31632000  0.49595000  1.0
  C  C64  1  0.27210000  0.37405000  0.52138000  1.0
  C  C65  1  0.48436000  0.41558000  0.65819000  1.0
  C  C66  1  0.78503000  0.00687000  0.41775000  1.0
  C  C67  1  0.76882000  0.90561000  0.41799000  1.0
  C  C68  1  0.58892000  0.36711000  0.58204000  1.0
  C  C69  1  0.48742000  0.35071000  0.58182000  1.0
  C  C70  1  0.87912000  0.22297000  0.42347000  1.0
  C  C71  1  0.71317000  0.28213000  0.12175000  1.0
  C  C72  1  0.31198000  0.70669000  0.69486000  1.0
  C  C73  1  0.16056000  0.59168000  0.87837000  1.0
  C  C74  1  0.01187000  0.61712000  0.30506000  1.0
  C  C75  1  0.85256000  0.75075000  0.47859000  1.0
  C  C76  1  0.83845000  0.22063000  0.15932000  1.0
  C  C77  1  0.21602000  0.79769000  0.66331000  1.0
  C  C78  1  0.06140000  0.67927000  0.84068000  1.0
  C  C79  1  0.13456000  0.55284000  0.33681000  1.0
  C  C80  1  0.94766000  0.29600000  0.60040000  1.0
  C  C81  1  0.76695000  0.65087000  0.30331000  1.0
  C  C82  1  0.69558000  0.34721000  0.39950000  1.0
  C  C83  1  0.34754000  0.46364000  0.69670000  1.0
  C  C84  1  0.69080000  0.36579000  0.49269000  1.0
  C  C85  1  0.37396000  0.41383000  0.62884000  1.0
  C  C86  1  0.87306000  0.19809000  0.50719000  1.0
  C  C87  1  0.78504000  0.74518000  0.37113000  1.0
  C  C88  1  0.72358000  0.19584000  0.07667000  1.0
  C  C89  1  0.33109000  0.81115000  0.72081000  1.0
  C  C90  1  0.11929000  0.64713000  0.92337000  1.0
  C  C91  1  0.09059000  0.61044000  0.27933000  1.0
  C  C92  1  0.20824000  0.63317000  0.12104000  1.0
  C  C93  1  0.01673000  0.65075000  0.09493000  1.0
  C  C94  1  0.51186000  0.08694000  0.87910000  1.0
  C  C95  1  0.55580000  0.92170000  0.90516000  1.0
  C  C96  1  0.10294000  0.54768000  0.11066000  1.0
  C  C97  1  0.12211000  0.73614000  0.10451000  1.0
  C  C98  1  0.43686000  0.99197000  0.88946000  1.0
  C  C99  1  0.63155000  0.01755000  0.89560000  1.0
  C  C100  1  0.10513000  0.63333000  0.19477000  1.0
  C  C101  1  0.11944000  0.64987000  0.02106000  1.0
  C  C102  1  0.43850000  0.91019000  0.80535000  1.0
  C  C103  1  0.62861000  0.09823000  0.97906000  1.0
  Br  Br104  1  0.91819000  0.14151000  0.16458000  1.0
  Br  Br105  1  0.87663000  0.45033000  0.87705000  1.0
  Br  Br106  1  0.49425000  0.01155000  0.66197000  1.0
  Br  Br107  1  0.57319000  0.99942000  0.12307000  1.0
  Br  Br108  1  0.34985000  0.83260000  0.33801000  1.0
  Br  Br109  1  0.16860000  0.90219000  0.65292000  1.0
  Br  Br110  1  0.97685000  0.75362000  0.83529000  1.0
  Br  Br111  1  0.24955000  0.51589000  0.34730000  1.0
  N  N112  1  0.86105000  0.48784000  0.53504000  1.0
  N  N113  1  0.19574000  0.63859000  0.63099000  1.0
  N  N114  1  0.13036000  0.59206000  0.77895000  1.0
  N  N115  1  0.00754000  0.56472000  0.36888000  1.0
  N  N116  1  0.81311000  0.35144000  0.22102000  1.0
  N  N117  1  0.89208000  0.31333000  0.24483000  1.0
  N  N118  1  0.13606000  0.69521000  0.61120000  1.0
  N  N119  1  0.06844000  0.64722000  0.75510000  1.0
  N  N120  1  0.19292000  0.39803000  0.52544000  1.0
  N  N121  1  0.08397000  0.52486000  0.38872000  1.0
  N  N122  1  0.99588000  0.37111000  0.57373000  1.0
  N  N123  1  0.81861000  0.60450000  0.36548000  1.0
  N  N124  1  0.79734000  0.42218000  0.42620000  1.0
  N  N125  1  0.23903000  0.45324000  0.63458000  1.0
  N  N126  1  0.95273000  0.32604000  0.46488000  1.0
  N  N127  1  0.87245000  0.66751000  0.47459000  1.0
