# generated using pymatgen
data_NiH9C4NO6
_symmetry_space_group_name_H-M   'P 1'
_cell_length_a   7.52977000
_cell_length_b   8.78045000
_cell_length_c   11.81940000
_cell_angle_alpha   89.99980000
_cell_angle_beta   90.00000000
_cell_angle_gamma   89.99980000
_symmetry_Int_Tables_number   1
_chemical_formula_structural   NiH9C4NO6
_chemical_formula_sum   'Ni4 H36 C16 N4 O24'
_cell_volume   781.43690067
_cell_formula_units_Z   4
loop_
 _symmetry_equiv_pos_site_id
 _symmetry_equiv_pos_as_xyz
  1  'x, y, z'
loop_
 _atom_site_type_symbol
 _atom_site_label
 _atom_site_symmetry_multiplicity
 _atom_site_fract_x
 _atom_site_fract_y
 _atom_site_fract_z
 _atom_site_occupancy
  Ni  Ni0  1  0.10176000  0.93171000  0.07592000  1.0
  Ni  Ni1  1  0.89824000  0.56829000  0.57592000  1.0
  Ni  Ni2  1  0.39824000  0.43171000  0.92407000  1.0
  Ni  Ni3  1  0.60176000  0.06829000  0.42408000  1.0
  H  H4  1  0.87935000  0.93993000  0.24215000  1.0
  H  H5  1  0.12065000  0.56006000  0.74216000  1.0
  H  H6  1  0.62065000  0.43994000  0.75784000  1.0
  H  H7  1  0.37934000  0.06007000  0.25785000  1.0
  H  H8  1  0.80370000  0.80893000  0.15633000  1.0
  H  H9  1  0.19631000  0.69106000  0.65634000  1.0
  H  H10  1  0.69631000  0.30894000  0.84366000  1.0
  H  H11  1  0.30369000  0.19107000  0.34367000  1.0
  H  H12  1  0.93789000  0.70510000  0.33364000  1.0
  H  H13  1  0.06212000  0.79490000  0.83364000  1.0
  H  H14  1  0.56212000  0.20509000  0.66636000  1.0
  H  H15  1  0.43788000  0.29490000  0.16636000  1.0
  H  H16  1  0.07006000  0.49056000  0.23922000  1.0
  H  H17  1  0.92994000  0.00944000  0.73921000  1.0
  H  H18  1  0.42995000  0.99056000  0.76079000  1.0
  H  H19  1  0.57006000  0.50944000  0.26078000  1.0
  H  H20  1  0.88277000  0.55012000  0.16281000  1.0
  H  H21  1  0.11724000  0.94987000  0.66280000  1.0
  H  H22  1  0.61725000  0.05013000  0.83720000  1.0
  H  H23  1  0.38276000  0.44989000  0.33719000  1.0
  H  H24  1  0.18969000  0.20817000  0.08106000  1.0
  H  H25  1  0.81030000  0.29184000  0.58106000  1.0
  H  H26  1  0.31029000  0.70816000  0.91894000  1.0
  H  H27  1  0.68970000  0.79183000  0.41895000  1.0
  H  H28  1  0.99089000  0.20503000  0.13089000  1.0
  H  H29  1  0.00910000  0.29496000  0.63090000  1.0
  H  H30  1  0.50909000  0.70504000  0.86910000  1.0
  H  H31  1  0.49089000  0.79497000  0.36911000  1.0
  H  H32  1  0.82210000  0.91063000  0.93762000  1.0
  H  H33  1  0.17791000  0.58936000  0.43763000  1.0
  H  H34  1  0.67791000  0.41064000  0.06237000  1.0
  H  H35  1  0.32210000  0.08937000  0.56238000  1.0
  H  H36  1  0.81543000  0.06952000  0.00730000  1.0
  H  H37  1  0.18457000  0.43047000  0.50731000  1.0
  H  H38  1  0.68457000  0.56953000  0.99269000  1.0
  H  H39  1  0.31543000  0.93048000  0.49270000  1.0
  C  C40  1  0.19592000  0.78735000  0.28421000  1.0
  C  C41  1  0.80408000  0.71264000  0.78420000  1.0
  C  C42  1  0.30408000  0.28736000  0.71581000  1.0
  C  C43  1  0.69592000  0.21265000  0.21579000  1.0
  C  C44  1  0.00899000  0.73064000  0.25482000  1.0
  C  C45  1  0.99101000  0.76936000  0.75482000  1.0
  C  C46  1  0.49102000  0.23064000  0.74518000  1.0
  C  C47  1  0.50898000  0.26936000  0.24518000  1.0
  C  C48  1  0.01952000  0.58273000  0.18568000  1.0
  C  C49  1  0.98048000  0.91727000  0.68568000  1.0
  C  C50  1  0.48049000  0.08273000  0.81432000  1.0
  C  C51  1  0.51951000  0.41727000  0.31431000  1.0
  C  C52  1  0.12772000  0.58830000  0.07666000  1.0
  C  C53  1  0.87228000  0.91169000  0.57665000  1.0
  C  C54  1  0.37229000  0.08831000  0.92335000  1.0
  C  C55  1  0.62772000  0.41171000  0.42335000  1.0
  N  N56  1  0.91837000  0.85157000  0.19030000  1.0
  N  N57  1  0.08163000  0.64843000  0.69030000  1.0
  N  N58  1  0.58163000  0.35157000  0.80970000  1.0
  N  N59  1  0.41836000  0.14843000  0.30970000  1.0
  O  O60  1  0.27274000  0.87322000  0.21278000  1.0
  O  O61  1  0.72725000  0.62679000  0.71278000  1.0
  O  O62  1  0.22726000  0.37321000  0.78722000  1.0
  O  O63  1  0.77274000  0.12678000  0.28723000  1.0
  O  O64  1  0.26755000  0.74508000  0.37727000  1.0
  O  O65  1  0.73244000  0.75492000  0.87728000  1.0
  O  O66  1  0.23244000  0.24508000  0.62273000  1.0
  O  O67  1  0.76755000  0.25492000  0.12273000  1.0
  O  O68  1  0.12891000  0.70909000  0.01596000  1.0
  O  O69  1  0.87110000  0.79091000  0.51597000  1.0
  O  O70  1  0.37110000  0.20909000  0.98404000  1.0
  O  O71  1  0.62889000  0.29091000  0.48404000  1.0
  O  O72  1  0.20907000  0.46743000  0.04939000  1.0
  O  O73  1  0.79094000  0.03257000  0.54938000  1.0
  O  O74  1  0.29095000  0.96743000  0.95062000  1.0
  O  O75  1  0.70906000  0.53256000  0.45061000  1.0
  O  O76  1  0.10989000  0.15594000  0.13563000  1.0
  O  O77  1  0.89009000  0.34406000  0.63563000  1.0
  O  O78  1  0.39009000  0.65594000  0.86436000  1.0
  O  O79  1  0.60989000  0.84407000  0.36437000  1.0
  O  O80  1  0.89114000  0.00366000  0.96090000  1.0
  O  O81  1  0.10887000  0.49633000  0.46091000  1.0
  O  O82  1  0.60886000  0.50367000  0.03908000  1.0
  O  O83  1  0.39114000  0.99634000  0.53910000  1.0
