# generated using pymatgen
data_Cd3H8C8N6(ClO2)2
_symmetry_space_group_name_H-M   'P 1'
_cell_length_a   6.76754000
_cell_length_b   8.19772000
_cell_length_c   14.23600000
_cell_angle_alpha   89.99990000
_cell_angle_beta   89.99990000
_cell_angle_gamma   110.18100000
_symmetry_Int_Tables_number   1
_chemical_formula_structural   Cd3H8C8N6(ClO2)2
_chemical_formula_sum   'Cd6 H16 C16 N12 Cl4 O8'
_cell_volume   741.30324371
_cell_formula_units_Z   2
loop_
 _symmetry_equiv_pos_site_id
 _symmetry_equiv_pos_as_xyz
  1  'x, y, z'
loop_
 _atom_site_type_symbol
 _atom_site_label
 _atom_site_symmetry_multiplicity
 _atom_site_fract_x
 _atom_site_fract_y
 _atom_site_fract_z
 _atom_site_occupancy
  Cd  Cd0  1  0.70189000  0.82838000  0.71849000  1.0
  Cd  Cd1  1  0.29812000  0.67163000  0.21849000  1.0
  Cd  Cd2  1  0.29811000  0.17162000  0.28152000  1.0
  Cd  Cd3  1  0.70188000  0.32838000  0.78151000  1.0
  Cd  Cd4  1  0.50000000  0.50000000  0.50000000  1.0
  Cd  Cd5  1  0.50000000  0.00000000  0.00000000  1.0
  H  H6  1  0.62766000  0.17005000  0.44965000  1.0
  H  H7  1  0.37235000  0.32995000  0.94965000  1.0
  H  H8  1  0.37234000  0.82995000  0.55035000  1.0
  H  H9  1  0.62765000  0.67005000  0.05035000  1.0
  H  H10  1  0.73408000  0.01858000  0.49949000  1.0
  H  H11  1  0.26593000  0.48142000  0.99949000  1.0
  H  H12  1  0.26592000  0.98142000  0.50051000  1.0
  H  H13  1  0.73408000  0.51858000  0.00051000  1.0
  H  H14  1  0.19632000  0.66617000  0.82350000  1.0
  H  H15  1  0.80367000  0.83383000  0.32350000  1.0
  H  H16  1  0.80368000  0.33383000  0.17650000  1.0
  H  H17  1  0.19633000  0.16617000  0.67650000  1.0
  H  H18  1  0.99864000  0.64226000  0.41818000  1.0
  H  H19  1  0.00136000  0.85774000  0.91818000  1.0
  H  H20  1  0.00136000  0.35774000  0.58182000  1.0
  H  H21  1  0.99865000  0.14226000  0.08182000  1.0
  C  C22  1  0.60747000  0.07310000  0.50502000  1.0
  C  C23  1  0.39253000  0.42690000  0.00503000  1.0
  C  C24  1  0.39253000  0.92690000  0.49497000  1.0
  C  C25  1  0.60747000  0.57310000  0.99498000  1.0
  C  C26  1  0.19229000  0.60786000  0.75479000  1.0
  C  C27  1  0.80771000  0.89215000  0.25479000  1.0
  C  C28  1  0.80771000  0.39215000  0.24520000  1.0
  C  C29  1  0.19229000  0.10786000  0.74520000  1.0
  C  C30  1  0.90711000  0.54935000  0.36689000  1.0
  C  C31  1  0.09288000  0.95065000  0.86689000  1.0
  C  C32  1  0.09288000  0.45065000  0.63311000  1.0
  C  C33  1  0.90712000  0.04934000  0.13311000  1.0
  C  C34  1  0.62414000  0.16122000  0.59930000  1.0
  C  C35  1  0.37587000  0.33878000  0.09931000  1.0
  C  C36  1  0.37586000  0.83878000  0.40069000  1.0
  C  C37  1  0.62413000  0.66122000  0.90070000  1.0
  N  N38  1  0.97682000  0.51760000  0.28226000  1.0
  N  N39  1  0.02318000  0.98240000  0.78226000  1.0
  N  N40  1  0.02318000  0.48240000  0.71774000  1.0
  N  N41  1  0.97682000  0.01760000  0.21774000  1.0
  N  N42  1  0.70714000  0.45157000  0.38159000  1.0
  N  N43  1  0.29286000  0.04843000  0.88160000  1.0
  N  N44  1  0.29286000  0.54843000  0.61840000  1.0
  N  N45  1  0.70714000  0.95157000  0.11840000  1.0
  N  N46  1  0.35700000  0.65111000  0.69661000  1.0
  N  N47  1  0.64300000  0.84889000  0.19661000  1.0
  N  N48  1  0.64300000  0.34888000  0.30339000  1.0
  N  N49  1  0.35700000  0.15112000  0.80339000  1.0
  Cl  Cl50  1  0.83717000  0.74715000  0.56372000  1.0
  Cl  Cl51  1  0.16283000  0.75285000  0.06371000  1.0
  Cl  Cl52  1  0.16283000  0.25285000  0.43629000  1.0
  Cl  Cl53  1  0.83717000  0.24715000  0.93629000  1.0
  O  O54  1  0.68457000  0.09565000  0.67110000  1.0
  O  O55  1  0.31543000  0.40435000  0.17110000  1.0
  O  O56  1  0.31543000  0.90435000  0.32890000  1.0
  O  O57  1  0.68457000  0.59565000  0.82890000  1.0
  O  O58  1  0.41742000  0.69939000  0.39155000  1.0
  O  O59  1  0.58258000  0.80061000  0.89155000  1.0
  O  O60  1  0.58258000  0.30061000  0.60845000  1.0
  O  O61  1  0.41741000  0.19939000  0.10845000  1.0
