# generated using pymatgen
data_MnH16C21(NO)4
_symmetry_space_group_name_H-M   'P 1'
_cell_length_a   10.13660000
_cell_length_b   12.57230000
_cell_length_c   16.09560000
_cell_angle_alpha   90.00020000
_cell_angle_beta   90.00020000
_cell_angle_gamma   74.12600000
_symmetry_Int_Tables_number   1
_chemical_formula_structural   MnH16C21(NO)4
_chemical_formula_sum   'Mn4 H64 C84 N16 O16'
_cell_volume   1973.00677441
_cell_formula_units_Z   4
loop_
 _symmetry_equiv_pos_site_id
 _symmetry_equiv_pos_as_xyz
  1  'x, y, z'
loop_
 _atom_site_type_symbol
 _atom_site_label
 _atom_site_symmetry_multiplicity
 _atom_site_fract_x
 _atom_site_fract_y
 _atom_site_fract_z
 _atom_site_occupancy
  Mn  Mn0  1  0.65244000  0.57101000  0.05674000  1.0
  Mn  Mn1  1  0.34756000  0.92900000  0.55674000  1.0
  Mn  Mn2  1  0.34754000  0.42900000  0.94326000  1.0
  Mn  Mn3  1  0.65247000  0.07100000  0.44326000  1.0
  H  H4  1  0.45458000  0.96900000  0.89903000  1.0
  H  H5  1  0.54541000  0.53102000  0.39902000  1.0
  H  H6  1  0.54541000  0.03102000  0.10097000  1.0
  H  H7  1  0.45459000  0.46898000  0.60097000  1.0
  H  H8  1  0.87384000  0.48096000  0.92048000  1.0
  H  H9  1  0.12616000  0.01903000  0.42048000  1.0
  H  H10  1  0.12614000  0.51904000  0.07951000  1.0
  H  H11  1  0.87387000  0.98096000  0.57952000  1.0
  H  H12  1  0.94834000  0.36401000  0.02660000  1.0
  H  H13  1  0.05165000  0.13599000  0.52659000  1.0
  H  H14  1  0.05164000  0.63600000  0.97341000  1.0
  H  H15  1  0.94835000  0.86400000  0.47341000  1.0
  H  H16  1  0.00827000  0.18794000  0.93859000  1.0
  H  H17  1  0.99173000  0.31207000  0.43858000  1.0
  H  H18  1  0.99172000  0.81208000  0.06142000  1.0
  H  H19  1  0.00828000  0.68792000  0.56142000  1.0
  H  H20  1  0.22096000  0.04620000  0.90102000  1.0
  H  H21  1  0.77904000  0.45380000  0.40102000  1.0
  H  H22  1  0.77903000  0.95381000  0.09898000  1.0
  H  H23  1  0.22097000  0.54618000  0.59898000  1.0
  H  H24  1  0.66707000  0.77591000  0.91242000  1.0
  H  H25  1  0.33294000  0.72409000  0.41241000  1.0
  H  H26  1  0.33292000  0.22409000  0.08758000  1.0
  H  H27  1  0.66708000  0.27592000  0.58758000  1.0
  H  H28  1  0.04846000  0.07446000  0.19199000  1.0
  H  H29  1  0.95153000  0.42555000  0.69199000  1.0
  H  H30  1  0.95153000  0.92555000  0.80801000  1.0
  H  H31  1  0.04848000  0.57446000  0.30801000  1.0
  H  H32  1  0.11642000  0.21290000  0.77299000  1.0
  H  H33  1  0.88358000  0.28709000  0.27300000  1.0
  H  H34  1  0.88356000  0.78710000  0.22701000  1.0
  H  H35  1  0.11644000  0.71290000  0.72701000  1.0
  H  H36  1  0.77838000  0.14524000  0.16435000  1.0
  H  H37  1  0.22161000  0.35476000  0.66435000  1.0
  H  H38  1  0.22162000  0.85477000  0.83566000  1.0
  H  H39  1  0.77839000  0.64522000  0.33566000  1.0
  H  H40  1  0.59079000  0.35249000  0.15668000  1.0
  H  H41  1  0.40920000  0.14751000  0.65667000  1.0
  H  H42  1  0.40920000  0.64751000  0.84333000  1.0
  H  H43  1  0.59081000  0.85248000  0.34333000  1.0
  H  H44  1  0.67483000  0.28348000  0.77494000  1.0
  H  H45  1  0.32518000  0.21651000  0.27494000  1.0
  H  H46  1  0.32516000  0.71651000  0.22505000  1.0
  H  H47  1  0.67484000  0.78350000  0.72506000  1.0
  H  H48  1  0.38080000  0.77618000  0.10127000  1.0
  H  H49  1  0.61920000  0.72382000  0.60126000  1.0
  H  H50  1  0.61918000  0.22382000  0.89873000  1.0
  H  H51  1  0.38082000  0.27618000  0.39873000  1.0
  H  H52  1  0.26292000  0.93380000  0.15558000  1.0
  H  H53  1  0.73708000  0.56621000  0.65557000  1.0
  H  H54  1  0.73708000  0.06622000  0.84442000  1.0
  H  H55  1  0.26293000  0.43379000  0.34442000  1.0
  H  H56  1  0.88247000  0.17181000  0.64389000  1.0
  H  H57  1  0.11753000  0.32818000  0.14390000  1.0
  H  H58  1  0.11752000  0.82818000  0.35610000  1.0
  H  H59  1  0.88248000  0.67181000  0.85610000  1.0
  H  H60  1  0.82931000  0.09682000  0.72315000  1.0
  H  H61  1  0.17070000  0.40318000  0.22315000  1.0
  H  H62  1  0.17068000  0.90318000  0.27684000  1.0
  H  H63  1  0.82931000  0.59682000  0.77684000  1.0
  H  H64  1  0.00717000  0.08309000  0.70782000  1.0
  H  H65  1  0.99284000  0.41690000  0.20782000  1.0
  H  H66  1  0.99282000  0.91690000  0.29218000  1.0
  H  H67  1  0.00717000  0.58310000  0.79218000  1.0
  C  C68  1  0.25655000  0.98022000  0.02599000  1.0
  C  C69  1  0.74345000  0.51979000  0.52598000  1.0
  C  C70  1  0.74344000  0.01979000  0.97402000  1.0
  C  C71  1  0.25656000  0.48020000  0.47402000  1.0
  C  C72  1  0.76021000  0.38887000  0.85061000  1.0
  C  C73  1  0.23979000  0.11112000  0.35061000  1.0
  C  C74  1  0.23976000  0.61113000  0.14938000  1.0
  C  C75  1  0.76023000  0.88888000  0.64938000  1.0
  C  C76  1  0.13498000  0.37448000  0.88165000  1.0
  C  C77  1  0.86503000  0.12553000  0.38166000  1.0
  C  C78  1  0.86500000  0.62554000  0.11834000  1.0
  C  C79  1  0.13500000  0.87446000  0.61834000  1.0
  C  C80  1  0.00798000  0.34979000  0.84916000  1.0
  C  C81  1  0.99202000  0.15021000  0.34917000  1.0
  C  C82  1  0.99200000  0.65022000  0.15083000  1.0
  C  C83  1  0.00800000  0.84978000  0.65084000  1.0
  C  C84  1  0.47090000  0.90051000  0.94211000  1.0
  C  C85  1  0.52911000  0.59950000  0.44210000  1.0
  C  C86  1  0.52910000  0.09950000  0.05790000  1.0
  C  C87  1  0.47090000  0.40050000  0.55790000  1.0
  C  C88  1  0.89686000  0.23579000  0.76713000  1.0
  C  C89  1  0.10314000  0.26421000  0.26713000  1.0
  C  C90  1  0.10312000  0.76421000  0.23286000  1.0
  C  C91  1  0.89687000  0.73579000  0.73287000  1.0
  C  C92  1  0.88009000  0.41323000  0.87710000  1.0
  C  C93  1  0.11992000  0.08676000  0.37710000  1.0
  C  C94  1  0.11989000  0.58677000  0.12289000  1.0
  C  C95  1  0.88011000  0.91323000  0.62289000  1.0
  C  C96  1  0.87242000  0.33441000  0.06039000  1.0
  C  C97  1  0.12757000  0.16559000  0.56039000  1.0
  C  C98  1  0.12757000  0.66560000  0.93961000  1.0
  C  C99  1  0.87242000  0.83440000  0.43962000  1.0
  C  C100  1  0.62436000  0.45281000  0.88548000  1.0
  C  C101  1  0.37565000  0.04719000  0.38548000  1.0
  C  C102  1  0.37561000  0.54719000  0.11451000  1.0
  C  C103  1  0.62438000  0.95281000  0.61451000  1.0
  C  C104  1  0.01602000  0.14121000  0.06760000  1.0
  C  C105  1  0.98398000  0.35879000  0.56759000  1.0
  C  C106  1  0.98398000  0.85880000  0.93241000  1.0
  C  C107  1  0.01603000  0.64120000  0.43241000  1.0
  C  C108  1  0.06516000  0.13260000  0.98611000  1.0
  C  C109  1  0.93483000  0.36741000  0.48611000  1.0
  C  C110  1  0.93484000  0.86742000  0.01389000  1.0
  C  C111  1  0.06516000  0.63258000  0.51389000  1.0
  C  C112  1  0.18494000  0.05253000  0.96508000  1.0
  C  C113  1  0.81506000  0.44747000  0.46508000  1.0
  C  C114  1  0.81505000  0.94748000  0.03492000  1.0
  C  C115  1  0.18495000  0.55252000  0.53492000  1.0
  C  C116  1  0.57557000  0.80506000  0.94999000  1.0
  C  C117  1  0.42443000  0.69495000  0.44997000  1.0
  C  C118  1  0.42442000  0.19495000  0.05002000  1.0
  C  C119  1  0.57559000  0.30506000  0.55002000  1.0
  C  C120  1  0.08565000  0.06756000  0.12827000  1.0
  C  C121  1  0.91435000  0.43245000  0.62826000  1.0
  C  C122  1  0.91435000  0.93245000  0.87174000  1.0
  C  C123  1  0.08566000  0.56755000  0.37174000  1.0
  C  C124  1  0.01581000  0.26160000  0.79429000  1.0
  C  C125  1  0.98420000  0.23840000  0.29429000  1.0
  C  C126  1  0.98417000  0.73841000  0.20571000  1.0
  C  C127  1  0.01583000  0.76160000  0.70571000  1.0
  C  C128  1  0.78303000  0.22037000  0.13308000  1.0
  C  C129  1  0.21696000  0.27963000  0.63308000  1.0
  C  C130  1  0.21697000  0.77964000  0.86693000  1.0
  C  C131  1  0.78305000  0.72035000  0.36692000  1.0
  C  C132  1  0.69295000  0.32397000  0.13073000  1.0
  C  C133  1  0.30704000  0.17604000  0.63072000  1.0
  C  C134  1  0.30704000  0.67604000  0.86928000  1.0
  C  C135  1  0.69296000  0.82395000  0.36927000  1.0
  C  C136  1  0.76961000  0.30065000  0.79555000  1.0
  C  C137  1  0.23040000  0.19934000  0.29555000  1.0
  C  C138  1  0.23038000  0.69934000  0.20445000  1.0
  C  C139  1  0.76962000  0.80066000  0.70445000  1.0
  C  C140  1  0.43239000  0.80273000  0.04961000  1.0
  C  C141  1  0.56760000  0.69728000  0.54961000  1.0
  C  C142  1  0.56759000  0.19727000  0.95039000  1.0
  C  C143  1  0.43242000  0.30273000  0.45039000  1.0
  C  C144  1  0.20611000  0.98811000  0.10742000  1.0
  C  C145  1  0.79388000  0.51190000  0.60741000  1.0
  C  C146  1  0.79389000  0.01190000  0.89259000  1.0
  C  C147  1  0.20612000  0.48810000  0.39259000  1.0
  C  C148  1  0.90478000  0.14194000  0.70804000  1.0
  C  C149  1  0.09522000  0.35806000  0.20804000  1.0
  C  C150  1  0.09520000  0.85806000  0.29196000  1.0
  C  C151  1  0.90479000  0.64194000  0.79196000  1.0
  N  N152  1  0.89657000  0.22746000  0.08726000  1.0
  N  N153  1  0.10342000  0.27254000  0.58725000  1.0
  N  N154  1  0.10342000  0.77255000  0.91275000  1.0
  N  N155  1  0.89658000  0.72745000  0.41275000  1.0
  N  N156  1  0.37988000  0.89877000  0.00642000  1.0
  N  N157  1  0.62012000  0.60124000  0.50642000  1.0
  N  N158  1  0.62011000  0.10124000  0.99358000  1.0
  N  N159  1  0.37989000  0.39876000  0.49358000  1.0
  N  N160  1  0.55016000  0.74495000  0.01710000  1.0
  N  N161  1  0.44983000  0.75505000  0.51709000  1.0
  N  N162  1  0.44982000  0.25505000  0.98290000  1.0
  N  N163  1  0.55019000  0.24495000  0.48290000  1.0
  N  N164  1  0.74986000  0.39437000  0.08567000  1.0
  N  N165  1  0.25013000  0.10563000  0.58567000  1.0
  N  N166  1  0.25013000  0.60564000  0.91433000  1.0
  N  N167  1  0.74987000  0.89435000  0.41433000  1.0
  O  O168  1  0.13647000  0.40072000  0.95864000  1.0
  O  O169  1  0.86354000  0.09927000  0.45864000  1.0
  O  O170  1  0.86351000  0.59929000  0.04135000  1.0
  O  O171  1  0.13649000  0.90071000  0.54135000  1.0
  O  O172  1  0.23545000  0.36980000  0.83321000  1.0
  O  O173  1  0.76455000  0.13021000  0.33322000  1.0
  O  O174  1  0.76452000  0.63022000  0.16678000  1.0
  O  O175  1  0.23548000  0.86978000  0.66678000  1.0
  O  O176  1  0.52004000  0.41902000  0.86694000  1.0
  O  O177  1  0.47996000  0.08098000  0.36695000  1.0
  O  O178  1  0.47993000  0.58097000  0.13305000  1.0
  O  O179  1  0.52006000  0.91903000  0.63305000  1.0
  O  O180  1  0.62025000  0.53572000  0.93182000  1.0
  O  O181  1  0.37976000  0.96428000  0.43183000  1.0
  O  O182  1  0.37972000  0.46427000  0.06817000  1.0
  O  O183  1  0.62028000  0.03573000  0.56818000  1.0
