# generated using pymatgen
data_BaH14C10(NO3)4
_symmetry_space_group_name_H-M   'P 1'
_cell_length_a   6.39314000
_cell_length_b   10.49140000
_cell_length_c   13.86830000
_cell_angle_alpha   93.01250000
_cell_angle_beta   103.30800000
_cell_angle_gamma   107.72500000
_symmetry_Int_Tables_number   1
_chemical_formula_structural   BaH14C10(NO3)4
_chemical_formula_sum   'Ba2 H28 C20 N8 O24'
_cell_volume   854.65922122
_cell_formula_units_Z   2
loop_
 _symmetry_equiv_pos_site_id
 _symmetry_equiv_pos_as_xyz
  1  'x, y, z'
loop_
 _atom_site_type_symbol
 _atom_site_label
 _atom_site_symmetry_multiplicity
 _atom_site_fract_x
 _atom_site_fract_y
 _atom_site_fract_z
 _atom_site_occupancy
  Ba  Ba0  1  0.46791000  0.25005000  0.25006000  1.0
  Ba  Ba1  1  0.53209000  0.74995000  0.74994000  1.0
  H  H2  1  0.26060000  0.03329000  0.02716000  1.0
  H  H3  1  0.29984000  0.53312000  0.52700000  1.0
  H  H4  1  0.73940000  0.96671000  0.97284000  1.0
  H  H5  1  0.70016000  0.46688000  0.47300000  1.0
  H  H6  1  0.05540000  0.29588000  0.33734000  1.0
  H  H7  1  0.07770000  0.79597000  0.83736000  1.0
  H  H8  1  0.94460000  0.70412000  0.66266000  1.0
  H  H9  1  0.92230000  0.20403000  0.16264000  1.0
  H  H10  1  0.16950000  0.24235000  0.43092000  1.0
  H  H11  1  0.00346000  0.74240000  0.93091000  1.0
  H  H12  1  0.83051000  0.75766000  0.56908000  1.0
  H  H13  1  0.99654000  0.25760000  0.06909000  1.0
  H  H14  1  0.72153000  0.01074000  0.16661000  1.0
  H  H15  1  0.95601000  0.51082000  0.66666667  1.0
  H  H16  1  0.27847000  0.98926000  0.83339000  1.0
  H  H17  1  0.04399000  0.48918000  0.33340000  1.0
  H  H18  1  0.87556000  0.09956000  0.27406000  1.0
  H  H19  1  0.99818000  0.59964000  0.77405000  1.0
  H  H20  1  0.12444000  0.90044000  0.72594000  1.0
  H  H21  1  0.00182000  0.40036000  0.22595000  1.0
  H  H22  1  0.33975000  0.99760000  0.44465000  1.0
  H  H23  1  0.60208000  0.49777000  0.94443000  1.0
  H  H24  1  0.66026000  0.00241000  0.55535000  1.0
  H  H25  1  0.39792000  0.50223000  0.05557000  1.0
  H  H26  1  0.13692000  0.65028000  0.23232000  1.0
  H  H27  1  0.24535000  0.15025000  0.73228000  1.0
  H  H28  1  0.86307000  0.34972000  0.76768000  1.0
  H  H29  1  0.75465000  0.84975000  0.26772000  1.0
  C  C30  1  0.17693000  0.88457000  0.11735000  1.0
  C  C31  1  0.32510000  0.38444000  0.61723000  1.0
  C  C32  1  0.82307000  0.11542000  0.88265000  1.0
  C  C33  1  0.67490000  0.61556000  0.38276000  1.0
  C  C34  1  0.20289000  0.87033000  0.22421000  1.0
  C  C35  1  0.39180000  0.37021000  0.72406000  1.0
  C  C36  1  0.79711000  0.12967000  0.77579000  1.0
  C  C37  1  0.60820000  0.62979000  0.27594000  1.0
  C  C38  1  0.18347000  0.75185000  0.26955000  1.0
  C  C39  1  0.33779000  0.25182000  0.76946000  1.0
  C  C40  1  0.81653000  0.24815000  0.73045000  1.0
  C  C41  1  0.66221000  0.74818000  0.23054000  1.0
  C  C42  1  0.24178000  0.79460000  0.37161000  1.0
  C  C43  1  0.42422000  0.29467000  0.87151000  1.0
  C  C44  1  0.75822000  0.20540000  0.62839000  1.0
  C  C45  1  0.57577000  0.70532000  0.12849000  1.0
  C  C46  1  0.40602000  0.22298000  0.96026000  1.0
  C  C47  1  0.27674000  0.72279000  0.46031000  1.0
  C  C48  1  0.59398000  0.77702000  0.03974000  1.0
  C  C49  1  0.72325000  0.27721000  0.53969000  1.0
  N  N50  1  0.26647000  0.97940000  0.29352000  1.0
  N  N51  1  0.50662000  0.47933000  0.79331000  1.0
  N  N52  1  0.73354000  0.02060000  0.70648000  1.0
  N  N53  1  0.49338000  0.52067000  0.20669000  1.0
  N  N54  1  0.28705000  0.93137000  0.38078000  1.0
  N  N55  1  0.52507000  0.43140000  0.88061000  1.0
  N  N56  1  0.71295000  0.06863000  0.61922000  1.0
  N  N57  1  0.47493000  0.56859000  0.11939000  1.0
  O  O58  1  0.23561000  0.01142000  0.09943000  1.0
  O  O59  1  0.37535000  0.51125000  0.59927000  1.0
  O  O60  1  0.76440000  0.98858000  0.90057000  1.0
  O  O61  1  0.62465000  0.48875000  0.40073000  1.0
  O  O62  1  0.11067000  0.78273000  0.05463000  1.0
  O  O63  1  0.22662000  0.28253000  0.55452000  1.0
  O  O64  1  0.88933000  0.21727000  0.94537000  1.0
  O  O65  1  0.77338000  0.71747000  0.44547000  1.0
  O  O66  1  0.46910000  0.29242000  0.04477000  1.0
  O  O67  1  0.36706000  0.79216000  0.54487000  1.0
  O  O68  1  0.53090000  0.70758000  0.95523000  1.0
  O  O69  1  0.63293000  0.20784000  0.45513000  1.0
  O  O70  1  0.31823000  0.09295000  0.94204000  1.0
  O  O71  1  0.21673000  0.59279000  0.44200000  1.0
  O  O72  1  0.68177000  0.90704000  0.05796000  1.0
  O  O73  1  0.78327000  0.40721000  0.55800000  1.0
  O  O74  1  0.12637000  0.22549000  0.35660000  1.0
  O  O75  1  0.95566000  0.72554000  0.85661000  1.0
  O  O76  1  0.87363000  0.77451000  0.64340000  1.0
  O  O77  1  0.04435000  0.27445000  0.14339000  1.0
  O  O78  1  0.74208000  0.08788000  0.21704000  1.0
  O  O79  1  0.06303000  0.58793000  0.71703000  1.0
  O  O80  1  0.25792000  0.91211000  0.78296000  1.0
  O  O81  1  0.93697000  0.41207000  0.28297000  1.0
