# generated using pymatgen
data_CoH6(C3N)4
_symmetry_space_group_name_H-M   'P 1'
_cell_length_a   13.25470000
_cell_length_b   13.25310000
_cell_length_c   13.85330000
_cell_angle_alpha   89.99650000
_cell_angle_beta   89.99990000
_cell_angle_gamma   89.99940000
_symmetry_Int_Tables_number   1
_chemical_formula_structural   CoH6(C3N)4
_chemical_formula_sum   'Co4 H24 C48 N16'
_cell_volume   2433.55191697
_cell_formula_units_Z   4
loop_
 _symmetry_equiv_pos_site_id
 _symmetry_equiv_pos_as_xyz
  1  'x, y, z'
loop_
 _atom_site_type_symbol
 _atom_site_label
 _atom_site_symmetry_multiplicity
 _atom_site_fract_x
 _atom_site_fract_y
 _atom_site_fract_z
 _atom_site_occupancy
  Co  Co0  1  0.99556000  0.02711000  0.12781000  1.0
  Co  Co1  1  0.00445000  0.97285000  0.62785000  1.0
  Co  Co2  1  0.99556000  0.97290000  0.37218000  1.0
  Co  Co3  1  0.00445000  0.02715000  0.87216000  1.0
  H  H4  1  0.00504000  0.26200000  0.15656000  1.0
  H  H5  1  0.22918000  0.08239000  0.11452000  1.0
  H  H6  1  0.40305000  0.05390000  0.10288000  1.0
  H  H7  1  0.58913000  0.05451000  0.10367000  1.0
  H  H8  1  0.99216000  0.43645000  0.15572000  1.0
  H  H9  1  0.99240000  0.62250000  0.15497000  1.0
  H  H10  1  0.99497000  0.73801000  0.65657000  1.0
  H  H11  1  0.77082000  0.91757000  0.61456000  1.0
  H  H12  1  0.59695000  0.94608000  0.60290000  1.0
  H  H13  1  0.41087000  0.94547000  0.60368000  1.0
  H  H14  1  0.00787000  0.56362000  0.65577000  1.0
  H  H15  1  0.00759000  0.37758000  0.65512000  1.0
  H  H16  1  0.00503000  0.73801000  0.34342000  1.0
  H  H17  1  0.22918000  0.91762000  0.38547000  1.0
  H  H18  1  0.40306000  0.94610000  0.39711000  1.0
  H  H19  1  0.58913000  0.94549000  0.39633000  1.0
  H  H20  1  0.99216000  0.56354000  0.34428000  1.0
  H  H21  1  0.99239000  0.37749000  0.34505000  1.0
  H  H22  1  0.99497000  0.26202000  0.84342000  1.0
  H  H23  1  0.77082000  0.08243000  0.88545000  1.0
  H  H24  1  0.59694000  0.05392000  0.89711000  1.0
  H  H25  1  0.41086000  0.05452000  0.89632000  1.0
  H  H26  1  0.00786000  0.43640000  0.84422000  1.0
  H  H27  1  0.00759000  0.62245000  0.84490000  1.0
  C  C28  1  0.00275000  0.24551000  0.07983000  1.0
  C  C29  1  0.21259000  0.04220000  0.18095000  1.0
  C  C30  1  0.44320000  0.03064000  0.16793000  1.0
  C  C31  1  0.54779000  0.03076000  0.16789000  1.0
  C  C32  1  0.99580000  0.47643000  0.08698000  1.0
  C  C33  1  0.99582000  0.58100000  0.08700000  1.0
  C  C34  1  0.99529000  0.81282000  0.07837000  1.0
  C  C35  1  0.77965000  0.02848000  0.17635000  1.0
  C  C36  1  0.99726000  0.75450000  0.57983000  1.0
  C  C37  1  0.78740000  0.95778000  0.68098000  1.0
  C  C38  1  0.55680000  0.96935000  0.66794000  1.0
  C  C39  1  0.45221000  0.96923000  0.66790000  1.0
  C  C40  1  0.00422000  0.52361000  0.58705000  1.0
  C  C41  1  0.00417000  0.41904000  0.58713000  1.0
  C  C42  1  0.00470000  0.18713000  0.57848000  1.0
  C  C43  1  0.22036000  0.97146000  0.67638000  1.0
  C  C44  1  0.00275000  0.75450000  0.42016000  1.0
  C  C45  1  0.21259000  0.95780000  0.31904000  1.0
  C  C46  1  0.44320000  0.96936000  0.33207000  1.0
  C  C47  1  0.54779000  0.96924000  0.33210000  1.0
  C  C48  1  0.99580000  0.52357000  0.41302000  1.0
  C  C49  1  0.99582000  0.41900000  0.41301000  1.0
  C  C50  1  0.99527000  0.18719000  0.42164000  1.0
  C  C51  1  0.77965000  0.97150000  0.32362000  1.0
  C  C52  1  0.99725000  0.24551000  0.92016000  1.0
  C  C53  1  0.78740000  0.04222000  0.81903000  1.0
  C  C54  1  0.55680000  0.03066000  0.83206000  1.0
  C  C55  1  0.45221000  0.03077000  0.83210000  1.0
  C  C56  1  0.00421000  0.47640000  0.91295000  1.0
  C  C57  1  0.00417000  0.58098000  0.91288000  1.0
  C  C58  1  0.00469000  0.81287000  0.92153000  1.0
  C  C59  1  0.22036000  0.02850000  0.82364000  1.0
  C  C60  1  0.27837000  0.00000000  0.25000000  1.0
  C  C61  1  0.38818000  1.00000000  0.25000000  1.0
  C  C62  1  0.60251000  0.99999000  0.24999000  1.0
  C  C63  1  0.71145000  0.99999000  0.24999000  1.0
  C  C64  1  0.72163000  0.00000000  0.75000000  1.0
  C  C65  1  0.61181000  1.00000000  0.75000000  1.0
  C  C66  1  0.39748000  1.00000000  0.75000000  1.0
  C  C67  1  0.28855000  0.99998000  0.75001000  1.0
  C  C68  1  0.00001000  0.31140000  0.99999000  1.0
  C  C69  1  0.00000000  0.42127000  0.99997000  1.0
  C  C70  1  0.99999000  0.63582000  0.99993000  1.0
  C  C71  1  0.99999000  0.74469000  0.99993000  1.0
  C  C72  1  0.00001000  0.68861000  0.50000000  1.0
  C  C73  1  0.00001000  0.57874000  0.50002000  1.0
  C  C74  1  0.99999000  0.36419000  0.50008000  1.0
  C  C75  1  0.99998000  0.25531000  0.50008000  1.0
  N  N76  1  0.11608000  0.02649000  0.20746000  1.0
  N  N77  1  0.00191000  0.14893000  0.04952000  1.0
  N  N78  1  0.99750000  0.90817000  0.05195000  1.0
  N  N79  1  0.87503000  0.02061000  0.20164000  1.0
  N  N80  1  0.88392000  0.97349000  0.70749000  1.0
  N  N81  1  0.99809000  0.85108000  0.54952000  1.0
  N  N82  1  0.00252000  0.09180000  0.55200000  1.0
  N  N83  1  0.12498000  0.97933000  0.70168000  1.0
  N  N84  1  0.11608000  0.97351000  0.29252000  1.0
  N  N85  1  0.00190000  0.85108000  0.45046000  1.0
  N  N86  1  0.99749000  0.09183000  0.44805000  1.0
  N  N87  1  0.87503000  0.97937000  0.29834000  1.0
  N  N88  1  0.88392000  0.02650000  0.79253000  1.0
  N  N89  1  0.99810000  0.14894000  0.95047000  1.0
  N  N90  1  0.00252000  0.90820000  0.94800000  1.0
  N  N91  1  0.12498000  0.02063000  0.79834000  1.0
