# generated using pymatgen
data_NiH14C16(NO3)2
_symmetry_space_group_name_H-M   'P 1'
_cell_length_a   7.59763000
_cell_length_b   8.68474000
_cell_length_c   13.02130000
_cell_angle_alpha   104.33230000
_cell_angle_beta   90.43550000
_cell_angle_gamma   107.77730000
_symmetry_Int_Tables_number   1
_chemical_formula_structural   NiH14C16(NO3)2
_chemical_formula_sum   'Ni2 H28 C32 N4 O12'
_cell_volume   789.47166628
_cell_formula_units_Z   2
loop_
 _symmetry_equiv_pos_site_id
 _symmetry_equiv_pos_as_xyz
  1  'x, y, z'
loop_
 _atom_site_type_symbol
 _atom_site_label
 _atom_site_symmetry_multiplicity
 _atom_site_fract_x
 _atom_site_fract_y
 _atom_site_fract_z
 _atom_site_occupancy
  Ni  Ni0  1  0.85742000  0.25190000  0.75863000  1.0
  Ni  Ni1  1  0.14258000  0.74811000  0.24137000  1.0
  H  H2  1  0.18071000  0.57377000  0.84615000  1.0
  H  H3  1  0.81930000  0.42623000  0.15385000  1.0
  H  H4  1  0.43630000  0.73381000  0.75555000  1.0
  H  H5  1  0.56369000  0.26621000  0.24444000  1.0
  H  H6  1  0.43223000  0.64714000  0.55726000  1.0
  H  H7  1  0.56775000  0.35286000  0.44273000  1.0
  H  H8  1  0.25838000  0.43034000  0.37573000  1.0
  H  H9  1  0.74163000  0.56967000  0.62428000  1.0
  H  H10  1  0.02047000  0.16427000  0.29207000  1.0
  H  H11  1  0.97955000  0.83573000  0.70793000  1.0
  H  H12  1  0.75262000  0.90645000  0.31289000  1.0
  H  H13  1  0.24738000  0.09355000  0.68711000  1.0
  H  H14  1  0.55096000  0.77127000  0.43771000  1.0
  H  H15  1  0.44903000  0.22874000  0.56229000  1.0
  H  H16  1  0.59101000  0.92033000  0.63419000  1.0
  H  H17  1  0.40898000  0.07968000  0.36581000  1.0
  H  H18  1  0.15621000  0.93692000  0.96693000  1.0
  H  H19  1  0.84378000  0.06306000  0.03306000  1.0
  H  H20  1  0.45537000  0.93073000  0.90851000  1.0
  H  H21  1  0.54463000  0.06926000  0.09149000  1.0
  H  H22  1  0.81721000  0.41336000  0.93285000  1.0
  H  H23  1  0.18279000  0.58665000  0.06716000  1.0
  H  H24  1  0.99339000  0.33268000  0.94287000  1.0
  H  H25  1  0.00661000  0.66732000  0.05713000  1.0
  H  H26  1  0.75868000  0.65694000  0.87121000  1.0
  H  H27  1  0.24133000  0.34304000  0.12878000  1.0
  H  H28  1  0.61915000  0.48377000  0.81330000  1.0
  H  H29  1  0.38085000  0.51622000  0.18669000  1.0
  C  C30  1  0.18474000  0.53783000  0.76025000  1.0
  C  C31  1  0.81526000  0.46217000  0.23975000  1.0
  C  C32  1  0.32466000  0.62812000  0.70788000  1.0
  C  C33  1  0.67534000  0.37188000  0.29212000  1.0
  C  C34  1  0.32297000  0.57907000  0.59813000  1.0
  C  C35  1  0.67701000  0.42093000  0.40187000  1.0
  C  C36  1  0.18098000  0.43631000  0.53903000  1.0
  C  C37  1  0.81901000  0.56369000  0.46097000  1.0
  C  C38  1  0.16291000  0.36707000  0.42579000  1.0
  C  C39  1  0.83709000  0.63293000  0.57421000  1.0
  C  C40  1  0.02842000  0.21882000  0.37756000  1.0
  C  C41  1  0.97159000  0.78118000  0.62244000  1.0
  C  C42  1  0.89913000  0.12768000  0.43829000  1.0
  C  C43  1  0.10088000  0.87232000  0.56171000  1.0
  C  C44  1  0.76416000  0.96882000  0.39750000  1.0
  C  C45  1  0.23584000  0.03119000  0.60250000  1.0
  C  C46  1  0.65474000  0.89409000  0.46754000  1.0
  C  C47  1  0.34526000  0.10592000  0.53246000  1.0
  C  C48  1  0.67450000  0.97476000  0.57678000  1.0
  C  C49  1  0.32549000  0.02524000  0.42322000  1.0
  C  C50  1  0.91045000  0.19960000  0.54873000  1.0
  C  C51  1  0.08955000  0.80040000  0.45127000  1.0
  C  C52  1  0.04936000  0.35134000  0.59854000  1.0
  C  C53  1  0.95063000  0.64866000  0.40146000  1.0
  C  C54  1  0.13116000  0.14378000  0.90671000  1.0
  C  C55  1  0.86885000  0.85623000  0.09329000  1.0
  C  C56  1  0.23447000  0.03160000  0.92805000  1.0
  C  C57  1  0.76552000  0.96840000  0.07195000  1.0
  C  C58  1  0.40099000  0.02781000  0.89612000  1.0
  C  C59  1  0.59900000  0.97218000  0.10389000  1.0
  C  C60  1  0.52545000  0.15198000  0.84670000  1.0
  C  C61  1  0.47456000  0.84801000  0.15332000  1.0
  N  N62  1  0.04997000  0.40091000  0.70660000  1.0
  N  N63  1  0.95004000  0.59909000  0.29340000  1.0
  N  N64  1  0.79853000  0.12629000  0.61677000  1.0
  N  N65  1  0.20147000  0.87371000  0.38323000  1.0
  O  O66  1  0.06299000  0.11144000  0.81282000  1.0
  O  O67  1  0.93701000  0.88855000  0.18718000  1.0
  O  O68  1  0.10428000  0.25494000  0.98617000  1.0
  O  O69  1  0.89571000  0.74506000  0.01383000  1.0
  O  O70  1  0.66161000  0.10212000  0.80437000  1.0
  O  O71  1  0.33839000  0.89789000  0.19564000  1.0
  O  O72  1  0.50132000  0.28895000  0.84876000  1.0
  O  O73  1  0.49868000  0.71105000  0.15125000  1.0
  O  O74  1  0.92526000  0.39310000  0.89915000  1.0
  O  O75  1  0.07473000  0.60691000  0.10085000  1.0
  O  O76  1  0.68680000  0.59432000  0.80243000  1.0
  O  O77  1  0.31320000  0.40568000  0.19756000  1.0
