# generated using pymatgen
data_ZnH27C37(NO)4
_symmetry_space_group_name_H-M   'P 1'
_cell_length_a   10.91980000
_cell_length_b   18.32450000
_cell_length_c   19.21870000
_cell_angle_alpha   89.06480000
_cell_angle_beta   89.09690000
_cell_angle_gamma   88.87800000
_symmetry_Int_Tables_number   1
_chemical_formula_structural   ZnH27C37(NO)4
_chemical_formula_sum   'Zn2 H54 C74 N8 O8'
_cell_volume   3843.95128861
_cell_formula_units_Z   2
loop_
 _symmetry_equiv_pos_site_id
 _symmetry_equiv_pos_as_xyz
  1  'x, y, z'
loop_
 _atom_site_type_symbol
 _atom_site_label
 _atom_site_symmetry_multiplicity
 _atom_site_fract_x
 _atom_site_fract_y
 _atom_site_fract_z
 _atom_site_occupancy
  Zn  Zn0  1  0.48549000  0.57782000  0.49744000  1.0
  Zn  Zn1  1  0.48177000  0.42399000  0.49627000  1.0
  H  H2  1  0.74141000  0.16879000  0.59053000  1.0
  H  H3  1  0.22923000  0.82383000  0.40586000  1.0
  H  H4  1  0.74817000  0.40104000  0.62284000  1.0
  H  H5  1  0.19988000  0.59193000  0.37679000  1.0
  H  H6  1  0.97076000  0.30508000  0.46028000  1.0
  H  H7  1  0.01664000  0.69351000  0.55111000  1.0
  H  H8  1  0.89420000  0.18237000  0.49308000  1.0
  H  H9  1  0.09776000  0.81407000  0.51313000  1.0
  H  H10  1  0.10093000  0.38909000  0.54018000  1.0
  H  H11  1  0.86568000  0.60860000  0.46744000  1.0
  H  H12  1  0.45016000  0.40739000  0.72967000  1.0
  H  H13  1  0.57914000  0.61956000  0.28952000  1.0
  H  H14  1  0.48610000  0.41409000  0.85694000  1.0
  H  H15  1  0.64767000  0.62108000  0.16526000  1.0
  H  H16  1  0.75185000  0.58079000  0.81915000  1.0
  H  H17  1  0.50089000  0.40702000  0.14155000  1.0
  H  H18  1  0.39244000  0.83428000  0.60089000  1.0
  H  H19  1  0.60425000  0.16839000  0.40045000  1.0
  H  H20  1  0.58158000  0.82868000  0.40149000  1.0
  H  H21  1  0.37761000  0.17365000  0.58725000  1.0
  H  H22  1  0.57120000  0.69266000  0.40850000  1.0
  H  H23  1  0.38048000  0.30923000  0.57827000  1.0
  H  H24  1  0.67193000  0.93089000  0.45479000  1.0
  H  H25  1  0.30689000  0.07094000  0.54015000  1.0
  H  H26  1  0.67268000  0.06549000  0.45205000  1.0
  H  H27  1  0.30708000  0.93639000  0.54400000  1.0
  H  H28  1  0.39668000  0.69392000  0.79466000  1.0
  H  H29  1  0.32707000  0.73095000  0.87060000  1.0
  H  H30  1  0.45432000  0.77487000  0.83081000  1.0
  H  H31  1  0.52147000  0.70409000  0.93750000  1.0
  H  H32  1  0.59120000  0.66814000  0.86207000  1.0
  H  H33  1  0.43425000  0.57141000  0.85825000  1.0
  H  H34  1  0.35989000  0.60699000  0.93199000  1.0
  H  H35  1  0.94239000  0.42628000  0.20273000  1.0
  H  H36  1  0.02840000  0.39796000  0.12854000  1.0
  H  H37  1  0.06229000  0.48132000  0.16903000  1.0
  H  H38  1  0.94246000  0.50634000  0.05985000  1.0
  H  H39  1  0.85702000  0.53410000  0.13360000  1.0
  H  H40  1  0.74435000  0.41689000  0.13455000  1.0
  H  H41  1  0.83063000  0.38712000  0.06237000  1.0
  H  H42  1  0.23208000  0.64066000  0.15177000  1.0
  H  H43  1  0.18479000  0.66468000  0.06639000  1.0
  H  H44  1  0.11658000  0.58992000  0.11106000  1.0
  H  H45  1  0.27116000  0.54391000  0.02270000  1.0
  H  H46  1  0.31792000  0.52045000  0.10750000  1.0
  H  H47  1  0.45379000  0.62785000  0.10861000  1.0
  H  H48  1  0.40639000  0.65480000  0.02543000  1.0
  H  H49  1  0.60600000  0.32931000  0.90978000  1.0
  H  H50  1  0.70572000  0.32725000  0.83609000  1.0
  H  H51  1  0.69635000  0.25016000  0.89266000  1.0
  H  H52  1  0.88696000  0.31513000  0.91764000  1.0
  H  H53  1  0.78515000  0.32042000  0.98926000  1.0
  H  H54  1  0.82377000  0.44039000  0.87800000  1.0
  H  H55  1  0.89826000  0.43627000  0.95834000  1.0
  C  C56  1  0.47510000  0.51258000  0.36254000  1.0
  C  C57  1  0.53293000  0.49499000  0.62897000  1.0
  C  C58  1  0.72010000  0.49963000  0.48684000  1.0
  C  C59  1  0.24855000  0.49675000  0.51165000  1.0
  C  C60  1  0.73596000  0.28450000  0.61208000  1.0
  C  C61  1  0.22235000  0.70818000  0.38510000  1.0
  C  C62  1  0.78091000  0.35362000  0.59420000  1.0
  C  C63  1  0.17686000  0.64032000  0.40677000  1.0
  C  C64  1  0.86567000  0.36157000  0.53925000  1.0
  C  C65  1  0.10286000  0.63484000  0.46665000  1.0
  C  C66  1  0.90582000  0.29907000  0.50358000  1.0
  C  C67  1  0.07447000  0.69796000  0.50445000  1.0
  C  C68  1  0.86190000  0.23008000  0.52176000  1.0
  C  C69  1  0.12041000  0.76552000  0.48305000  1.0
  C  C70  1  0.77687000  0.22214000  0.57581000  1.0
  C  C71  1  0.19400000  0.77133000  0.42349000  1.0
  C  C72  1  0.04769000  0.43712000  0.52395000  1.0
  C  C73  1  0.91915000  0.56082000  0.48399000  1.0
  C  C74  1  0.11167000  0.50068000  0.50761000  1.0
  C  C75  1  0.85536000  0.49684000  0.49853000  1.0
  C  C76  1  0.04642000  0.56449000  0.48752000  1.0
  C  C77  1  0.92026000  0.43320000  0.52038000  1.0
  C  C78  1  0.51462000  0.44600000  0.74993000  1.0
  C  C79  1  0.56472000  0.57262000  0.25690000  1.0
  C  C80  1  0.53657000  0.44911000  0.82076000  1.0
  C  C81  1  0.60209000  0.57340000  0.18736000  1.0
  C  C82  1  0.62001000  0.49854000  0.84716000  1.0
  C  C83  1  0.57834000  0.51424000  0.14460000  1.0
  C  C84  1  0.68437000  0.54314000  0.80023000  1.0
  C  C85  1  0.52070000  0.45332000  0.17415000  1.0
  C  C86  1  0.65928000  0.54257000  0.72858000  1.0
  C  C87  1  0.48644000  0.45093000  0.24485000  1.0
  C  C88  1  0.57160000  0.49422000  0.70331000  1.0
  C  C89  1  0.50703000  0.51206000  0.28671000  1.0
  C  C90  1  0.53379000  0.55413000  0.95345000  1.0
  C  C91  1  0.69850000  0.47319000  0.03897000  1.0
  C  C92  1  0.52316000  0.55898000  0.02630000  1.0
  C  C93  1  0.70940000  0.46830000  0.96581000  1.0
  C  C94  1  0.60291000  0.51625000  0.06811000  1.0
  C  C95  1  0.62455000  0.50736000  0.92419000  1.0
  C  C96  1  0.43037000  0.72952000  0.55603000  1.0
  C  C97  1  0.55516000  0.27289000  0.44229000  1.0
  C  C98  1  0.43252000  0.80563000  0.55661000  1.0
  C  C99  1  0.55447000  0.19674000  0.44176000  1.0
  C  C100  1  0.48798000  0.84368000  0.50106000  1.0
  C  C101  1  0.48950000  0.15849000  0.49368000  1.0
  C  C102  1  0.53990000  0.80234000  0.44696000  1.0
  C  C103  1  0.42607000  0.19978000  0.54394000  1.0
  C  C104  1  0.53407000  0.72665000  0.45010000  1.0
  C  C105  1  0.42845000  0.27547000  0.54000000  1.0
  C  C106  1  0.59119000  0.96153000  0.47279000  1.0
  C  C107  1  0.38795000  0.04045000  0.52246000  1.0
  C  C108  1  0.59144000  0.03738000  0.47120000  1.0
  C  C109  1  0.38798000  0.96465000  0.52455000  1.0
  C  C110  1  0.48968000  0.07810000  0.49573000  1.0
  C  C111  1  0.48940000  0.92402000  0.49956000  1.0
  C  C112  1  0.72550000  0.59169000  0.68399000  1.0
  C  C113  1  0.42855000  0.38619000  0.27025000  1.0
  C  C114  1  0.45047000  0.59976000  0.90705000  1.0
  C  C115  1  0.50215000  0.67538000  0.88905000  1.0
  C  C116  1  0.41554000  0.72132000  0.84374000  1.0
  C  C117  1  0.79053000  0.43603000  0.08656000  1.0
  C  C118  1  0.89563000  0.48571000  0.10724000  1.0
  C  C119  1  0.98721000  0.44582000  0.15446000  1.0
  C  C120  1  0.42359000  0.60652000  0.05880000  1.0
  C  C121  1  0.30203000  0.56720000  0.07180000  1.0
  C  C122  1  0.20326000  0.61824000  0.10199000  1.0
  C  C123  1  0.81207000  0.42312000  0.93276000  1.0
  C  C124  1  0.79878000  0.33935000  0.93511000  1.0
  C  C125  1  0.69631000  0.31013000  0.89095000  1.0
  C  C126  1  0.37180000  0.69224000  0.61328000  1.0
  C  C127  1  0.62926000  0.30989000  0.39109000  1.0
  C  C128  1  0.64568000  0.27622000  0.66601000  1.0
  C  C129  1  0.29783000  0.71384000  0.32398000  1.0
  N  N130  1  0.48057000  0.69042000  0.50336000  1.0
  N  N131  1  0.49168000  0.31183000  0.49047000  1.0
  N  N132  1  0.78554000  0.63249000  0.65161000  1.0
  N  N133  1  0.38194000  0.33104000  0.28499000  1.0
  N  N134  1  0.32122000  0.66776000  0.66194000  1.0
  N  N135  1  0.69578000  0.33364000  0.34878000  1.0
  N  N136  1  0.56983000  0.26718000  0.70872000  1.0
  N  N137  1  0.36008000  0.71991000  0.27425000  1.0
  O  O138  1  0.46328000  0.57462000  0.39137000  1.0
  O  O139  1  0.49863000  0.43501000  0.60394000  1.0
  O  O140  1  0.46486000  0.45090000  0.39289000  1.0
  O  O141  1  0.53707000  0.55634000  0.59730000  1.0
  O  O142  1  0.67049000  0.56166000  0.47408000  1.0
  O  O143  1  0.29742000  0.43314000  0.50907000  1.0
  O  O144  1  0.66462000  0.43920000  0.49058000  1.0
  O  O145  1  0.30543000  0.55634000  0.51645000  1.0
