# generated using pymatgen
data_CdH7C9(NO)3
_symmetry_space_group_name_H-M   'P 1'
_cell_length_a   5.82665000
_cell_length_b   20.86380000
_cell_length_c   20.86320000
_cell_angle_alpha   90.00310000
_cell_angle_beta   90.00000000
_cell_angle_gamma   89.99870000
_symmetry_Int_Tables_number   1
_chemical_formula_structural   CdH7C9(NO)3
_chemical_formula_sum   'Cd8 H56 C72 N24 O24'
_cell_volume   2536.25702426
_cell_formula_units_Z   8
loop_
 _symmetry_equiv_pos_site_id
 _symmetry_equiv_pos_as_xyz
  1  'x, y, z'
loop_
 _atom_site_type_symbol
 _atom_site_label
 _atom_site_symmetry_multiplicity
 _atom_site_fract_x
 _atom_site_fract_y
 _atom_site_fract_z
 _atom_site_occupancy
  Cd  Cd0  1  0.00986000  0.26614000  0.33092000  1.0
  Cd  Cd1  1  0.00987000  0.23387000  0.16908000  1.0
  Cd  Cd2  1  0.50987000  0.33092000  0.23386000  1.0
  Cd  Cd3  1  0.50985000  0.16908000  0.26614000  1.0
  Cd  Cd4  1  0.99013000  0.73386000  0.66908000  1.0
  Cd  Cd5  1  0.99014000  0.76614000  0.83092000  1.0
  Cd  Cd6  1  0.49013000  0.66908000  0.76614000  1.0
  Cd  Cd7  1  0.49013000  0.83092000  0.73386000  1.0
  H  H8  1  0.98239000  0.14738000  0.27502000  1.0
  H  H9  1  0.98241000  0.35263000  0.22498000  1.0
  H  H10  1  0.48241000  0.27501000  0.35262000  1.0
  H  H11  1  0.48241000  0.22499000  0.14737000  1.0
  H  H12  1  0.01758000  0.85262000  0.72499000  1.0
  H  H13  1  0.01760000  0.64738000  0.77502000  1.0
  H  H14  1  0.51760000  0.72498000  0.64738000  1.0
  H  H15  1  0.51759000  0.77502000  0.85262000  1.0
  H  H16  1  0.10777000  0.99365000  0.66849000  1.0
  H  H17  1  0.10779000  0.50634000  0.83150000  1.0
  H  H18  1  0.60778000  0.66848000  0.50635000  1.0
  H  H19  1  0.60784000  0.83152000  0.99367000  1.0
  H  H20  1  0.89219000  0.00636000  0.33151000  1.0
  H  H21  1  0.89222000  0.49364000  0.16848000  1.0
  H  H22  1  0.39223000  0.33151000  0.49367000  1.0
  H  H23  1  0.39223000  0.16848000  0.00634000  1.0
  H  H24  1  0.45784000  0.99371000  0.57181000  1.0
  H  H25  1  0.45786000  0.50629000  0.92818000  1.0
  H  H26  1  0.95783000  0.57183000  0.50630000  1.0
  H  H27  1  0.95788000  0.92816000  0.99370000  1.0
  H  H28  1  0.54211000  0.00631000  0.42819000  1.0
  H  H29  1  0.54214000  0.49369000  0.07180000  1.0
  H  H30  1  0.04214000  0.42818000  0.49370000  1.0
  H  H31  1  0.04215000  0.07182000  0.00631000  1.0
  H  H32  1  0.58563000  0.08340000  0.50244000  1.0
  H  H33  1  0.58565000  0.41661000  0.99755000  1.0
  H  H34  1  0.08562000  0.50245000  0.41662000  1.0
  H  H35  1  0.08562000  0.99754000  0.08338000  1.0
  H  H36  1  0.41434000  0.91662000  0.49756000  1.0
  H  H37  1  0.41437000  0.58337000  0.00243000  1.0
  H  H38  1  0.91440000  0.49756000  0.58338000  1.0
  H  H39  1  0.91439000  0.00244000  0.91663000  1.0
  H  H40  1  0.23944000  0.08393000  0.59899000  1.0
  H  H41  1  0.23947000  0.41607000  0.90100000  1.0
  H  H42  1  0.73945000  0.59898000  0.41607000  1.0
  H  H43  1  0.73947000  0.90102000  0.08394000  1.0
  H  H44  1  0.76051000  0.91609000  0.40102000  1.0
  H  H45  1  0.76055000  0.58392000  0.09898000  1.0
  H  H46  1  0.26056000  0.40102000  0.58394000  1.0
  H  H47  1  0.26056000  0.09898000  0.91607000  1.0
  H  H48  1  0.39411000  0.22983000  0.45413000  1.0
  H  H49  1  0.39412000  0.27016000  0.04586000  1.0
  H  H50  1  0.89411000  0.45414000  0.27016000  1.0
  H  H51  1  0.89412000  0.04586000  0.22983000  1.0
  H  H52  1  0.60586000  0.77018000  0.54587000  1.0
  H  H53  1  0.60589000  0.72983000  0.95413000  1.0
  H  H54  1  0.10585000  0.54587000  0.72983000  1.0
  H  H55  1  0.10592000  0.95412000  0.77017000  1.0
  H  H56  1  0.76700000  0.13445000  0.42274000  1.0
  H  H57  1  0.76703000  0.36556000  0.07725000  1.0
  H  H58  1  0.26699000  0.42274000  0.36556000  1.0
  H  H59  1  0.26700000  0.07726000  0.13444000  1.0
  H  H60  1  0.23298000  0.86556000  0.57726000  1.0
  H  H61  1  0.23299000  0.63443000  0.92273000  1.0
  H  H62  1  0.73300000  0.57727000  0.63444000  1.0
  H  H63  1  0.73303000  0.92273000  0.86558000  1.0
  C  C64  1  0.69597000  0.93098000  0.66275000  1.0
  C  C65  1  0.69598000  0.56901000  0.83724000  1.0
  C  C66  1  0.19596000  0.66275000  0.56902000  1.0
  C  C67  1  0.19600000  0.83725000  0.93099000  1.0
  C  C68  1  0.30400000  0.06903000  0.33726000  1.0
  C  C69  1  0.30404000  0.43098000  0.16274000  1.0
  C  C70  1  0.80402000  0.33725000  0.43099000  1.0
  C  C71  1  0.80404000  0.16275000  0.06902000  1.0
  C  C72  1  0.99423000  0.01322000  0.63195000  1.0
  C  C73  1  0.99425000  0.48677000  0.86803000  1.0
  C  C74  1  0.49423000  0.63195000  0.48678000  1.0
  C  C75  1  0.49429000  0.86805000  0.01324000  1.0
  C  C76  1  0.00572000  0.98679000  0.36805000  1.0
  C  C77  1  0.00576000  0.51322000  0.13195000  1.0
  C  C78  1  0.50578000  0.36805000  0.51324000  1.0
  C  C79  1  0.50577000  0.13195000  0.98677000  1.0
  C  C80  1  0.77528000  0.98668000  0.62335000  1.0
  C  C81  1  0.77529000  0.51331000  0.87664000  1.0
  C  C82  1  0.27528000  0.62335000  0.51332000  1.0
  C  C83  1  0.27533000  0.87664000  0.98669000  1.0
  C  C84  1  0.22467000  0.01333000  0.37666000  1.0
  C  C85  1  0.22471000  0.48668000  0.12334000  1.0
  C  C86  1  0.72471000  0.37665000  0.48669000  1.0
  C  C87  1  0.72471000  0.12335000  0.01332000  1.0
  C  C88  1  0.63034000  0.01294000  0.57669000  1.0
  C  C89  1  0.63035000  0.48705000  0.92330000  1.0
  C  C90  1  0.13033000  0.57670000  0.48706000  1.0
  C  C91  1  0.13037000  0.92329000  0.01294000  1.0
  C  C92  1  0.36961000  0.98708000  0.42331000  1.0
  C  C93  1  0.36965000  0.51293000  0.07669000  1.0
  C  C94  1  0.86966000  0.42330000  0.51294000  1.0
  C  C95  1  0.86966000  0.07670000  0.98707000  1.0
  C  C96  1  0.70304000  0.06277000  0.53740000  1.0
  C  C97  1  0.70305000  0.43722000  0.96258000  1.0
  C  C98  1  0.20303000  0.53742000  0.43723000  1.0
  C  C99  1  0.20305000  0.96258000  0.06277000  1.0
  C  C100  1  0.29693000  0.93724000  0.46260000  1.0
  C  C101  1  0.29696000  0.56276000  0.03739000  1.0
  C  C102  1  0.79697000  0.46260000  0.56277000  1.0
  C  C103  1  0.79697000  0.03740000  0.93725000  1.0
  C  C104  1  0.92644000  0.08621000  0.54447000  1.0
  C  C105  1  0.92646000  0.41378000  0.95551000  1.0
  C  C106  1  0.42643000  0.54448000  0.41379000  1.0
  C  C107  1  0.42646000  0.95552000  0.08621000  1.0
  C  C108  1  0.07350000  0.91381000  0.45553000  1.0
  C  C109  1  0.07356000  0.58620000  0.04447000  1.0
  C  C110  1  0.57357000  0.45553000  0.58621000  1.0
  C  C111  1  0.57357000  0.04446000  0.91380000  1.0
  C  C112  1  0.06997000  0.06299000  0.59296000  1.0
  C  C113  1  0.06999000  0.43700000  0.90702000  1.0
  C  C114  1  0.56997000  0.59296000  0.43700000  1.0
  C  C115  1  0.57001000  0.90704000  0.06301000  1.0
  C  C116  1  0.92998000  0.93702000  0.40704000  1.0
  C  C117  1  0.93003000  0.56299000  0.09295000  1.0
  C  C118  1  0.43003000  0.40705000  0.56300000  1.0
  C  C119  1  0.43003000  0.09295000  0.93701000  1.0
  C  C120  1  0.24473000  0.19928000  0.46120000  1.0
  C  C121  1  0.24474000  0.30071000  0.03880000  1.0
  C  C122  1  0.74472000  0.46119000  0.30072000  1.0
  C  C123  1  0.74473000  0.03881000  0.19929000  1.0
  C  C124  1  0.75524000  0.80072000  0.53881000  1.0
  C  C125  1  0.75527000  0.69928000  0.96119000  1.0
  C  C126  1  0.25525000  0.53882000  0.69928000  1.0
  C  C127  1  0.25531000  0.96118000  0.80072000  1.0
  C  C128  1  0.92536000  0.15213000  0.44401000  1.0
  C  C129  1  0.92538000  0.34786000  0.05598000  1.0
  C  C130  1  0.42535000  0.44402000  0.34787000  1.0
  C  C131  1  0.42536000  0.05599000  0.15213000  1.0
  C  C132  1  0.07461000  0.84788000  0.55599000  1.0
  C  C133  1  0.07463000  0.65213000  0.94400000  1.0
  C  C134  1  0.57463000  0.55599000  0.65213000  1.0
  C  C135  1  0.57467000  0.94400000  0.84788000  1.0
  N  N136  1  0.01200000  0.13300000  0.50134000  1.0
  N  N137  1  0.01201000  0.36699000  0.99865000  1.0
  N  N138  1  0.51198000  0.50135000  0.36700000  1.0
  N  N139  1  0.51198000  0.99866000  0.13300000  1.0
  N  N140  1  0.98796000  0.86701000  0.49866000  1.0
  N  N141  1  0.98801000  0.63300000  0.00133000  1.0
  N  N142  1  0.48801000  0.49866000  0.63300000  1.0
  N  N143  1  0.48803000  0.00133000  0.86701000  1.0
  N  N144  1  0.21733000  0.16288000  0.51263000  1.0
  N  N145  1  0.21734000  0.33710000  0.98735000  1.0
  N  N146  1  0.71731000  0.51264000  0.33712000  1.0
  N  N147  1  0.71731000  0.98737000  0.16289000  1.0
  N  N148  1  0.78263000  0.83713000  0.48737000  1.0
  N  N149  1  0.78269000  0.66288000  0.01263000  1.0
  N  N150  1  0.28269000  0.48737000  0.66288000  1.0
  N  N151  1  0.28272000  0.01263000  0.83712000  1.0
  N  N152  1  0.06931000  0.19417000  0.41783000  1.0
  N  N153  1  0.06933000  0.30583000  0.08217000  1.0
  N  N154  1  0.56931000  0.41784000  0.30583000  1.0
  N  N155  1  0.56932000  0.08217000  0.19416000  1.0
  N  N156  1  0.93066000  0.80584000  0.58216000  1.0
  N  N157  1  0.93067000  0.69416000  0.91782000  1.0
  N  N158  1  0.43065000  0.58217000  0.69416000  1.0
  N  N159  1  0.43072000  0.91782000  0.80585000  1.0
  O  O160  1  0.81842000  0.91292000  0.71004000  1.0
  O  O161  1  0.81843000  0.58708000  0.78995000  1.0
  O  O162  1  0.31842000  0.71005000  0.58707000  1.0
  O  O163  1  0.31844000  0.78995000  0.91293000  1.0
  O  O164  1  0.18156000  0.08709000  0.28995000  1.0
  O  O165  1  0.18159000  0.41291000  0.21004000  1.0
  O  O166  1  0.68156000  0.28995000  0.41293000  1.0
  O  O167  1  0.68160000  0.21005000  0.08708000  1.0
  O  O168  1  0.50656000  0.90370000  0.64755000  1.0
  O  O169  1  0.50656000  0.59629000  0.85244000  1.0
  O  O170  1  0.00657000  0.64756000  0.59631000  1.0
  O  O171  1  0.00659000  0.85245000  0.90370000  1.0
  O  O172  1  0.49340000  0.09631000  0.35246000  1.0
  O  O173  1  0.49344000  0.40369000  0.14754000  1.0
  O  O174  1  0.99342000  0.35244000  0.40370000  1.0
  O  O175  1  0.99344000  0.14755000  0.09631000  1.0
  O  O176  1  0.89328000  0.18598000  0.26371000  1.0
  O  O177  1  0.89330000  0.31403000  0.23629000  1.0
  O  O178  1  0.39330000  0.26371000  0.31402000  1.0
  O  O179  1  0.39331000  0.23629000  0.18597000  1.0
  O  O180  1  0.10670000  0.81403000  0.73629000  1.0
  O  O181  1  0.10670000  0.68598000  0.76371000  1.0
  O  O182  1  0.60670000  0.73629000  0.68597000  1.0
  O  O183  1  0.60670000  0.76371000  0.81403000  1.0
