# generated using pymatgen
data_NiH7C9N2O5
_symmetry_space_group_name_H-M   'P 1'
_cell_length_a   5.82917000
_cell_length_b   8.05115000
_cell_length_c   26.93030000
_cell_angle_alpha   89.99600000
_cell_angle_beta   89.99900000
_cell_angle_gamma   89.99880000
_symmetry_Int_Tables_number   1
_chemical_formula_structural   NiH7C9N2O5
_chemical_formula_sum   'Ni4 H28 C36 N8 O20'
_cell_volume   1263.87996459
_cell_formula_units_Z   4
loop_
 _symmetry_equiv_pos_site_id
 _symmetry_equiv_pos_as_xyz
  1  'x, y, z'
loop_
 _atom_site_type_symbol
 _atom_site_label
 _atom_site_symmetry_multiplicity
 _atom_site_fract_x
 _atom_site_fract_y
 _atom_site_fract_z
 _atom_site_occupancy
  Ni  Ni0  1  0.97120000  0.24582000  0.71683000  1.0
  Ni  Ni1  1  0.02883000  0.24583000  0.28317000  1.0
  Ni  Ni2  1  0.47113000  0.75414000  0.78317000  1.0
  Ni  Ni3  1  0.52889000  0.75416000  0.21683000  1.0
  H  H4  1  0.31170000  0.35507000  0.60323000  1.0
  H  H5  1  0.05805000  0.12977000  0.84324000  1.0
  H  H6  1  0.85202000  0.37332000  0.86358000  1.0
  H  H7  1  0.62457000  0.23973000  0.84610000  1.0
  H  H8  1  0.54174000  0.36516000  0.68181000  1.0
  H  H9  1  0.06506000  0.08653000  0.62050000  1.0
  H  H10  1  0.86582000  0.07421000  0.53716000  1.0
  H  H11  1  0.68830000  0.35504000  0.39677000  1.0
  H  H12  1  0.94193000  0.12981000  0.15677000  1.0
  H  H13  1  0.14791000  0.37338000  0.13643000  1.0
  H  H14  1  0.37538000  0.23977000  0.15390000  1.0
  H  H15  1  0.45830000  0.36514000  0.31818000  1.0
  H  H16  1  0.93494000  0.08653000  0.37949000  1.0
  H  H17  1  0.13413000  0.07424000  0.46284000  1.0
  H  H18  1  0.81166000  0.64496000  0.89679000  1.0
  H  H19  1  0.55812000  0.87022000  0.65678000  1.0
  H  H20  1  0.35222000  0.62660000  0.63644000  1.0
  H  H21  1  0.12471000  0.76015000  0.65389000  1.0
  H  H22  1  0.04163000  0.63483000  0.81819000  1.0
  H  H23  1  0.56495000  0.91354000  0.87947000  1.0
  H  H24  1  0.36579000  0.92581000  0.96283000  1.0
  H  H25  1  0.18836000  0.64500000  0.10321000  1.0
  H  H26  1  0.44190000  0.87021000  0.34322000  1.0
  H  H27  1  0.64777000  0.62657000  0.36355000  1.0
  H  H28  1  0.87530000  0.76012000  0.34612000  1.0
  H  H29  1  0.95838000  0.63485000  0.18181000  1.0
  H  H30  1  0.43505000  0.91357000  0.12052000  1.0
  H  H31  1  0.63418000  0.92582000  0.03716000  1.0
  C  C32  1  0.47996000  0.29680000  0.60496000  1.0
  C  C33  1  0.95766000  0.17996000  0.81176000  1.0
  C  C34  1  0.77867000  0.30433000  0.83225000  1.0
  C  C35  1  0.83061000  0.03681000  0.78642000  1.0
  C  C36  1  0.69726000  0.42970000  0.79345000  1.0
  C  C37  1  0.60507000  0.30221000  0.64887000  1.0
  C  C38  1  0.57427000  0.21715000  0.56372000  1.0
  C  C39  1  0.90005000  0.14600000  0.61387000  1.0
  C  C40  1  0.78886000  0.13934000  0.56840000  1.0
  C  C41  1  0.52005000  0.29678000  0.39503000  1.0
  C  C42  1  0.04232000  0.17998000  0.18824000  1.0
  C  C43  1  0.22130000  0.30438000  0.16775000  1.0
  C  C44  1  0.16937000  0.03681000  0.21359000  1.0
  C  C45  1  0.30276000  0.42971000  0.20655000  1.0
  C  C46  1  0.39496000  0.30219000  0.35113000  1.0
  C  C47  1  0.42571000  0.21715000  0.43628000  1.0
  C  C48  1  0.09996000  0.14600000  0.38612000  1.0
  C  C49  1  0.21112000  0.13935000  0.43159000  1.0
  C  C50  1  0.97988000  0.70323000  0.89504000  1.0
  C  C51  1  0.45770000  0.82001000  0.68825000  1.0
  C  C52  1  0.27880000  0.69560000  0.66776000  1.0
  C  C53  1  0.33059000  0.96319000  0.71359000  1.0
  C  C54  1  0.19736000  0.57025000  0.70656000  1.0
  C  C55  1  0.10495000  0.69779000  0.85113000  1.0
  C  C56  1  0.07424000  0.78287000  0.93628000  1.0
  C  C57  1  0.39996000  0.85407000  0.88611000  1.0
  C  C58  1  0.28881000  0.86070000  0.93159000  1.0
  C  C59  1  0.02013000  0.70325000  0.10496000  1.0
  C  C60  1  0.54234000  0.82001000  0.31175000  1.0
  C  C61  1  0.72121000  0.69559000  0.33224000  1.0
  C  C62  1  0.66942000  0.96319000  0.28641000  1.0
  C  C63  1  0.80268000  0.57025000  0.29344000  1.0
  C  C64  1  0.89505000  0.69782000  0.14886000  1.0
  C  C65  1  0.92575000  0.78288000  0.06371000  1.0
  C  C66  1  0.60004000  0.85409000  0.11388000  1.0
  C  C67  1  0.71117000  0.86071000  0.06840000  1.0
  N  N68  1  0.81047000  0.22813000  0.65310000  1.0
  N  N69  1  0.44132000  0.21841000  0.51974000  1.0
  N  N70  1  0.18957000  0.22812000  0.34690000  1.0
  N  N71  1  0.55864000  0.21840000  0.48026000  1.0
  N  N72  1  0.31037000  0.77188000  0.84690000  1.0
  N  N73  1  0.94132000  0.78163000  0.98026000  1.0
  N  N74  1  0.68965000  0.77190000  0.15310000  1.0
  N  N75  1  0.05868000  0.78164000  0.01974000  1.0
  O  O76  1  0.74049000  0.92126000  0.81107000  1.0
  O  O77  1  0.70894000  0.40060000  0.74772000  1.0
  O  O78  1  0.61681000  0.56315000  0.81317000  1.0
  O  O79  1  0.81664000  0.05203000  0.73886000  1.0
  O  O80  1  0.10863000  0.25468000  0.77820000  1.0
  O  O81  1  0.25949000  0.92128000  0.18894000  1.0
  O  O82  1  0.29110000  0.40056000  0.25228000  1.0
  O  O83  1  0.38318000  0.56318000  0.18683000  1.0
  O  O84  1  0.18334000  0.05201000  0.26115000  1.0
  O  O85  1  0.89136000  0.25471000  0.22181000  1.0
  O  O86  1  0.24048000  0.07870000  0.68893000  1.0
  O  O87  1  0.20892000  0.59941000  0.75229000  1.0
  O  O88  1  0.11697000  0.43677000  0.68683000  1.0
  O  O89  1  0.31664000  0.94799000  0.76114000  1.0
  O  O90  1  0.60868000  0.74529000  0.72182000  1.0
  O  O91  1  0.75951000  0.07870000  0.31107000  1.0
  O  O92  1  0.79108000  0.59942000  0.24772000  1.0
  O  O93  1  0.88308000  0.43678000  0.31317000  1.0
  O  O94  1  0.68336000  0.94801000  0.23886000  1.0
  O  O95  1  0.39136000  0.74529000  0.27818000  1.0
