# generated using pymatgen
data_CuH6C4N3
_symmetry_space_group_name_H-M   'P 1'
_cell_length_a   5.60241000
_cell_length_b   13.47000000
_cell_length_c   13.70470000
_cell_angle_alpha   90.00000000
_cell_angle_beta   90.00000000
_cell_angle_gamma   90.00000000
_symmetry_Int_Tables_number   1
_chemical_formula_structural   CuH6C4N3
_chemical_formula_sum   'Cu8 H48 C32 N24'
_cell_volume   1034.21782196
_cell_formula_units_Z   8
loop_
 _symmetry_equiv_pos_site_id
 _symmetry_equiv_pos_as_xyz
  1  'x, y, z'
loop_
 _atom_site_type_symbol
 _atom_site_label
 _atom_site_symmetry_multiplicity
 _atom_site_fract_x
 _atom_site_fract_y
 _atom_site_fract_z
 _atom_site_occupancy
  Cu  Cu0  1  0.80959000  0.52060000  0.39844000  1.0
  Cu  Cu1  1  0.30876000  0.90267000  0.47867000  1.0
  Cu  Cu2  1  0.30875000  0.59733000  0.02133000  1.0
  Cu  Cu3  1  0.80958000  0.97940000  0.10157000  1.0
  Cu  Cu4  1  0.19041000  0.47941000  0.60155000  1.0
  Cu  Cu5  1  0.69124000  0.09733000  0.52134000  1.0
  Cu  Cu6  1  0.69124000  0.40266000  0.97867000  1.0
  Cu  Cu7  1  0.19044000  0.02059000  0.89844000  1.0
  H  H8  1  0.25217000  0.67661000  0.22378000  1.0
  H  H9  1  0.76500000  0.72485000  0.32046000  1.0
  H  H10  1  0.76498000  0.77517000  0.17954000  1.0
  H  H11  1  0.25218000  0.82340000  0.27621000  1.0
  H  H12  1  0.74783000  0.32340000  0.77620000  1.0
  H  H13  1  0.23499000  0.27516000  0.67954000  1.0
  H  H14  1  0.23500000  0.22484000  0.82047000  1.0
  H  H15  1  0.74784000  0.17659000  0.72380000  1.0
  H  H16  1  0.40341000  0.65596000  0.33741000  1.0
  H  H17  1  0.90099000  0.84211000  0.34796000  1.0
  H  H18  1  0.90100000  0.65789000  0.15206000  1.0
  H  H19  1  0.40336000  0.84406000  0.16259000  1.0
  H  H20  1  0.59660000  0.34404000  0.66258000  1.0
  H  H21  1  0.09899000  0.15789000  0.65204000  1.0
  H  H22  1  0.09901000  0.34211000  0.84794000  1.0
  H  H23  1  0.59665000  0.15593000  0.83742000  1.0
  H  H24  1  0.16741000  0.57715000  0.30115000  1.0
  H  H25  1  0.66096000  0.79790000  0.41914000  1.0
  H  H26  1  0.66097000  0.70210000  0.08086000  1.0
  H  H27  1  0.16740000  0.92285000  0.19886000  1.0
  H  H28  1  0.83257000  0.42285000  0.69884000  1.0
  H  H29  1  0.33902000  0.20210000  0.58086000  1.0
  H  H30  1  0.33903000  0.29790000  0.91914000  1.0
  H  H31  1  0.83261000  0.07714000  0.80116000  1.0
  H  H32  1  0.00927000  0.33977000  0.14087000  1.0
  H  H33  1  0.52302000  0.63728000  0.64879000  1.0
  H  H34  1  0.52309000  0.86274000  0.85125000  1.0
  H  H35  1  0.00931000  0.16023000  0.35912000  1.0
  H  H36  1  0.99079000  0.66027000  0.85910000  1.0
  H  H37  1  0.47703000  0.36273000  0.35120000  1.0
  H  H38  1  0.47698000  0.13726000  0.14879000  1.0
  H  H39  1  0.99068000  0.83979000  0.64087000  1.0
  H  H40  1  0.96634000  0.34117000  0.27069000  1.0
  H  H41  1  0.45229000  0.76615000  0.66324000  1.0
  H  H42  1  0.45226000  0.73388000  0.83675000  1.0
  H  H43  1  0.96638000  0.15881000  0.22932000  1.0
  H  H44  1  0.03355000  0.65877000  0.72929000  1.0
  H  H45  1  0.54769000  0.23384000  0.33676000  1.0
  H  H46  1  0.54771000  0.26613000  0.16323000  1.0
  H  H47  1  0.03366000  0.84116000  0.77067000  1.0
  H  H48  1  0.15675000  0.42907000  0.21399000  1.0
  H  H49  1  0.64877000  0.72750000  0.56970000  1.0
  H  H50  1  0.64878000  0.77246000  0.93030000  1.0
  H  H51  1  0.15672000  0.07094000  0.28601000  1.0
  H  H52  1  0.84326000  0.57094000  0.78607000  1.0
  H  H53  1  0.35119000  0.27254000  0.43030000  1.0
  H  H54  1  0.35122000  0.22749000  0.06970000  1.0
  H  H55  1  0.84331000  0.92906000  0.71402000  1.0
  C  C56  1  0.49437000  0.55614000  0.22272000  1.0
  C  C57  1  0.99407000  0.72356000  0.44319000  1.0
  C  C58  1  0.99407000  0.77645000  0.05681000  1.0
  C  C59  1  0.49437000  0.94387000  0.27728000  1.0
  C  C60  1  0.50563000  0.44385000  0.77728000  1.0
  C  C61  1  0.00592000  0.27644000  0.55679000  1.0
  C  C62  1  0.00593000  0.22355000  0.94319000  1.0
  C  C63  1  0.50566000  0.05613000  0.72272000  1.0
  C  C64  1  0.78191000  0.45457000  0.19251000  1.0
  C  C65  1  0.27994000  0.69359000  0.54377000  1.0
  C  C66  1  0.27998000  0.80642000  0.95624000  1.0
  C  C67  1  0.78190000  0.04544000  0.30749000  1.0
  C  C68  1  0.21809000  0.54543000  0.80748000  1.0
  C  C69  1  0.72006000  0.30643000  0.45621000  1.0
  C  C70  1  0.72004000  0.19359000  0.04376000  1.0
  C  C71  1  0.21811000  0.95456000  0.69252000  1.0
  C  C72  1  0.32107000  0.62023000  0.27394000  1.0
  C  C73  1  0.82207000  0.77478000  0.37901000  1.0
  C  C74  1  0.82206000  0.72522000  0.12100000  1.0
  C  C75  1  0.32107000  0.87979000  0.22607000  1.0
  C  C76  1  0.67890000  0.37978000  0.72606000  1.0
  C  C77  1  0.17792000  0.22522000  0.62099000  1.0
  C  C78  1  0.17792000  0.27478000  0.87900000  1.0
  C  C79  1  0.67894000  0.12020000  0.77394000  1.0
  C  C80  1  0.98983000  0.38729000  0.20526000  1.0
  C  C81  1  0.48720000  0.70681000  0.61010000  1.0
  C  C82  1  0.48723000  0.79320000  0.88990000  1.0
  C  C83  1  0.98980000  0.11270000  0.29474000  1.0
  C  C84  1  0.01020000  0.61270000  0.79473000  1.0
  C  C85  1  0.51279000  0.29320000  0.38989000  1.0
  C  C86  1  0.51279000  0.20679000  0.11010000  1.0
  C  C87  1  0.01021000  0.88730000  0.70527000  1.0
  N  N88  1  0.68177000  0.50922000  0.26606000  1.0
  N  N89  1  0.17986000  0.76809000  0.48977000  1.0
  N  N90  1  0.17986000  0.73191000  0.01023000  1.0
  N  N91  1  0.68176000  0.99079000  0.23393000  1.0
  N  N92  1  0.31825000  0.49078000  0.73392000  1.0
  N  N93  1  0.82012000  0.23192000  0.51021000  1.0
  N  N94  1  0.82015000  0.26808000  0.98977000  1.0
  N  N95  1  0.31825000  0.00920000  0.76609000  1.0
  N  N96  1  0.48020000  0.53364000  0.12751000  1.0
  N  N97  1  0.98070000  0.62676000  0.46524000  1.0
  N  N98  1  0.98070000  0.87324000  0.03476000  1.0
  N  N99  1  0.48021000  0.96637000  0.37249000  1.0
  N  N100  1  0.51977000  0.46636000  0.87249000  1.0
  N  N101  1  0.01932000  0.37324000  0.53476000  1.0
  N  N102  1  0.01931000  0.12675000  0.96525000  1.0
  N  N103  1  0.51979000  0.03363000  0.62752000  1.0
  N  N104  1  0.66504000  0.46817000  0.10820000  1.0
  N  N105  1  0.16413000  0.60761000  0.53035000  1.0
  N  N106  1  0.16415000  0.89238000  0.96966000  1.0
  N  N107  1  0.66505000  0.03184000  0.39180000  1.0
  N  N108  1  0.33492000  0.53183000  0.89178000  1.0
  N  N109  1  0.83589000  0.39239000  0.46965000  1.0
  N  N110  1  0.83585000  0.10762000  0.03035000  1.0
  N  N111  1  0.33494000  0.96817000  0.60821000  1.0
