# generated using pymatgen
data_DyH3C4O9
_symmetry_space_group_name_H-M   'P 1'
_cell_length_a   9.93607000
_cell_length_b   10.65560000
_cell_length_c   12.00050000
_cell_angle_alpha   107.43200000
_cell_angle_beta   89.99910000
_cell_angle_gamma   89.99950000
_symmetry_Int_Tables_number   1
_chemical_formula_structural   DyH3C4O9
_chemical_formula_sum   'Dy4 H12 C16 O36'
_cell_volume   1212.19802752
_cell_formula_units_Z   4
loop_
 _symmetry_equiv_pos_site_id
 _symmetry_equiv_pos_as_xyz
  1  'x, y, z'
loop_
 _atom_site_type_symbol
 _atom_site_label
 _atom_site_symmetry_multiplicity
 _atom_site_fract_x
 _atom_site_fract_y
 _atom_site_fract_z
 _atom_site_occupancy
  Dy  Dy0  1  0.42935000  0.20578000  0.88522000  1.0
  Dy  Dy1  1  0.92935000  0.29423000  0.61479000  1.0
  Dy  Dy2  1  0.57065000  0.79420000  0.11477000  1.0
  Dy  Dy3  1  0.07065000  0.70581000  0.38523000  1.0
  H  H4  1  0.24287000  0.09254000  0.66106000  1.0
  H  H5  1  0.74287000  0.40745000  0.83895000  1.0
  H  H6  1  0.75714000  0.90746000  0.33894000  1.0
  H  H7  1  0.25713000  0.59255000  0.16106000  1.0
  H  H8  1  0.44998000  0.13161000  0.61216000  1.0
  H  H9  1  0.94998000  0.36840000  0.88785000  1.0
  H  H10  1  0.55001000  0.86842000  0.38784000  1.0
  H  H11  1  0.05001000  0.63155000  0.11215000  1.0
  H  H12  1  0.33828000  0.98340000  0.68412000  1.0
  H  H13  1  0.83828000  0.51660000  0.81589000  1.0
  H  H14  1  0.66173000  0.01659000  0.31586000  1.0
  H  H15  1  0.16174000  0.48341000  0.18415000  1.0
  C  C16  1  0.18313000  0.34487000  0.80145000  1.0
  C  C17  1  0.68313000  0.15513000  0.69856000  1.0
  C  C18  1  0.81686000  0.65511000  0.19856000  1.0
  C  C19  1  0.31686000  0.84487000  0.30143000  1.0
  C  C20  1  0.12349000  0.28494000  0.89424000  1.0
  C  C21  1  0.62349000  0.21507000  0.60577000  1.0
  C  C22  1  0.87650000  0.71501000  0.10575000  1.0
  C  C23  1  0.37649000  0.78497000  0.39424000  1.0
  C  C24  1  0.55969000  0.49546000  0.95777000  1.0
  C  C25  1  0.05969000  0.00454000  0.54221000  1.0
  C  C26  1  0.44030000  0.50451000  0.04220000  1.0
  C  C27  1  0.94030000  0.99550000  0.45779000  1.0
  C  C28  1  0.46027000  0.94718000  0.95222000  1.0
  C  C29  1  0.96026000  0.55283000  0.54778000  1.0
  C  C30  1  0.53976000  0.05280000  0.04776000  1.0
  C  C31  1  0.03976000  0.44721000  0.45225000  1.0
  O  O32  1  0.30951000  0.34302000  0.79547000  1.0
  O  O33  1  0.80951000  0.15698000  0.70453000  1.0
  O  O34  1  0.69048000  0.65695000  0.20453000  1.0
  O  O35  1  0.19048000  0.84303000  0.29545000  1.0
  O  O36  1  0.10156000  0.38599000  0.73981000  1.0
  O  O37  1  0.60156000  0.11401000  0.76020000  1.0
  O  O38  1  0.89843000  0.61402000  0.26022000  1.0
  O  O39  1  0.39844000  0.88598000  0.23979000  1.0
  O  O40  1  0.19450000  0.20981000  0.93036000  1.0
  O  O41  1  0.69450000  0.29021000  0.56966000  1.0
  O  O42  1  0.80551000  0.79014000  0.06962000  1.0
  O  O43  1  0.30549000  0.70984000  0.43037000  1.0
  O  O44  1  0.00066000  0.31577000  0.93241000  1.0
  O  O45  1  0.50066000  0.18424000  0.56760000  1.0
  O  O46  1  0.99932000  0.68415000  0.06757000  1.0
  O  O47  1  0.49932000  0.81582000  0.43242000  1.0
  O  O48  1  0.58960000  0.38053000  0.89159000  1.0
  O  O49  1  0.08960000  0.11947000  0.60841000  1.0
  O  O50  1  0.41039000  0.61945000  0.10839000  1.0
  O  O51  1  0.91039000  0.88057000  0.39161000  1.0
  O  O52  1  0.62005000  0.59981000  0.96050000  1.0
  O  O53  1  0.12005000  0.90019000  0.53948000  1.0
  O  O54  1  0.37994000  0.40017000  0.03947000  1.0
  O  O55  1  0.87994000  0.09985000  0.46051000  1.0
  O  O56  1  0.40064000  0.98706000  0.87598000  1.0
  O  O57  1  0.90064000  0.51295000  0.62403000  1.0
  O  O58  1  0.59939000  0.01292000  0.12400000  1.0
  O  O59  1  0.09939000  0.48709000  0.37601000  1.0
  O  O60  1  0.46226000  0.83096000  0.95888000  1.0
  O  O61  1  0.96226000  0.66904000  0.54112000  1.0
  O  O62  1  0.53775000  0.16901000  0.04110000  1.0
  O  O63  1  0.03776000  0.33099000  0.45890000  1.0
  O  O64  1  0.33574000  0.07611000  0.68713000  1.0
  O  O65  1  0.83575000  0.42389000  0.81288000  1.0
  O  O66  1  0.66426000  0.92388000  0.31286000  1.0
  O  O67  1  0.16426000  0.57611000  0.18714000  1.0
