# generated using pymatgen
data_ZnH12C14N2O5
_symmetry_space_group_name_H-M   'P 1'
_cell_length_a   7.43767000
_cell_length_b   9.27282000
_cell_length_c   23.24480000
_cell_angle_alpha   86.34020000
_cell_angle_beta   80.83850000
_cell_angle_gamma   66.36410000
_symmetry_Int_Tables_number   1
_chemical_formula_structural   ZnH12C14N2O5
_chemical_formula_sum   'Zn4 H48 C56 N8 O20'
_cell_volume   1449.93071891
_cell_formula_units_Z   4
loop_
 _symmetry_equiv_pos_site_id
 _symmetry_equiv_pos_as_xyz
  1  'x, y, z'
loop_
 _atom_site_type_symbol
 _atom_site_label
 _atom_site_symmetry_multiplicity
 _atom_site_fract_x
 _atom_site_fract_y
 _atom_site_fract_z
 _atom_site_occupancy
  Zn  Zn0  1  0.47233000  0.83758000  0.25469000  1.0
  Zn  Zn1  1  0.56605000  0.16245000  0.74531000  1.0
  Zn  Zn2  1  0.06160000  0.66221000  0.75476000  1.0
  Zn  Zn3  1  0.47723000  0.33755000  0.24523000  1.0
  H  H4  1  0.05393000  0.89804000  0.29183000  1.0
  H  H5  1  0.24476000  0.10212000  0.70824000  1.0
  H  H6  1  0.70352000  0.60216000  0.79185000  1.0
  H  H7  1  0.09596000  0.39752000  0.20822000  1.0
  H  H8  1  0.43232000  0.09977000  0.33149000  1.0
  H  H9  1  0.86369000  0.90051000  0.66848000  1.0
  H  H10  1  0.28311000  0.40014000  0.83159000  1.0
  H  H11  1  0.51362000  0.59952000  0.16857000  1.0
  H  H12  1  0.33283000  0.17501000  0.43567000  1.0
  H  H13  1  0.94301000  0.82534000  0.56429000  1.0
  H  H14  1  0.25809000  0.32429000  0.93569000  1.0
  H  H15  1  0.51792000  0.67537000  0.06444000  1.0
  H  H16  1  0.08545000  0.23808000  0.51479000  1.0
  H  H17  1  0.83807000  0.76242000  0.48516000  1.0
  H  H18  1  0.07365000  0.26088000  0.01478000  1.0
  H  H19  1  0.35016000  0.73908000  0.98505000  1.0
  H  H20  1  0.03449000  0.29681000  0.61970000  1.0
  H  H21  1  0.95077000  0.70360000  0.38026000  1.0
  H  H22  1  0.08074000  0.20207000  0.11971000  1.0
  H  H23  1  0.40509000  0.79766000  0.88018000  1.0
  H  H24  1  0.35607000  0.82936000  0.65962000  1.0
  H  H25  1  0.84432000  0.17115000  0.34036000  1.0
  H  H26  1  0.93486000  0.66955000  0.15971000  1.0
  H  H27  1  0.76552000  0.32993000  0.84044000  1.0
  H  H28  1  0.43265000  0.75151000  0.55516000  1.0
  H  H29  1  0.73922000  0.24897000  0.44483000  1.0
  H  H30  1  0.93439000  0.74735000  0.05525000  1.0
  H  H31  1  0.73656000  0.25218000  0.94487000  1.0
  H  H32  1  0.30327000  0.71935000  0.47047000  1.0
  H  H33  1  0.49302000  0.28130000  0.52952000  1.0
  H  H34  1  0.77287000  0.77983000  0.97059000  1.0
  H  H35  1  0.52254000  0.22015000  0.02924000  1.0
  H  H36  1  0.38810000  0.66962000  0.36356000  1.0
  H  H37  1  0.42165000  0.33082000  0.63644000  1.0
  H  H38  1  0.80863000  0.83008000  0.86370000  1.0
  H  H39  1  0.50072000  0.16983000  0.13612000  1.0
  H  H40  1  0.10169000  0.77666000  0.19457000  1.0
  H  H41  1  0.07493000  0.22291000  0.80549000  1.0
  H  H42  1  0.63042000  0.72307000  0.69473000  1.0
  H  H43  1  0.04713000  0.27698000  0.30533000  1.0
  H  H44  1  0.88986000  0.03592000  0.14950000  1.0
  H  H45  1  0.07709000  0.96383000  0.85052000  1.0
  H  H46  1  0.67706000  0.46422000  0.64947000  1.0
  H  H47  1  0.78968000  0.53573000  0.35057000  1.0
  H  H48  1  0.89535000  0.13387000  0.21197000  1.0
  H  H49  1  0.24280000  0.86570000  0.78807000  1.0
  H  H50  1  0.78079000  0.36582000  0.71185000  1.0
  H  H51  1  0.85706000  0.63423000  0.28820000  1.0
  C  C52  1  0.39944000  0.02053000  0.36388000  1.0
  C  C53  1  0.78390000  0.97980000  0.63608000  1.0
  C  C54  1  0.17075000  0.47921000  0.86398000  1.0
  C  C55  1  0.51274000  0.52055000  0.13611000  1.0
  C  C56  1  0.34659000  0.06005000  0.42244000  1.0
  C  C57  1  0.82877000  0.94036000  0.57750000  1.0
  C  C58  1  0.15699000  0.43934000  0.92251000  1.0
  C  C59  1  0.51830000  0.56041000  0.07757000  1.0
  C  C60  1  0.31379000  0.95125000  0.46286000  1.0
  C  C61  1  0.72762000  0.04925000  0.53708000  1.0
  C  C62  1  0.01528000  0.54794000  0.96296000  1.0
  C  C63  1  0.52568000  0.45190000  0.03705000  1.0
  C  C64  1  0.26562000  0.98881000  0.52561000  1.0
  C  C65  1  0.77968000  0.01171000  0.47434000  1.0
  C  C66  1  0.00435000  0.51015000  0.02570000  1.0
  C  C67  1  0.54044000  0.48961000  0.97432000  1.0
  C  C68  1  0.14962000  0.14333000  0.54518000  1.0
  C  C69  1  0.83774000  0.85719000  0.45478000  1.0
  C  C70  1  0.04277000  0.35562000  0.04520000  1.0
  C  C71  1  0.44461000  0.64420000  0.95472000  1.0
  C  C72  1  0.11919000  0.17628000  0.60434000  1.0
  C  C73  1  0.89949000  0.82417000  0.39563000  1.0
  C  C74  1  0.04493000  0.32263000  0.10437000  1.0
  C  C75  1  0.47399000  0.67710000  0.89558000  1.0
  C  C76  1  0.30077000  0.91667000  0.62593000  1.0
  C  C77  1  0.84281000  0.08384000  0.37404000  1.0
  C  C78  1  0.96691000  0.58224000  0.12602000  1.0
  C  C79  1  0.67656000  0.41731000  0.87408000  1.0
  C  C80  1  0.33966000  0.87329000  0.56757000  1.0
  C  C81  1  0.78015000  0.12721000  0.43241000  1.0
  C  C82  1  0.96279000  0.62563000  0.06767000  1.0
  C  C83  1  0.65637000  0.37400000  0.93242000  1.0
  C  C84  1  0.33218000  0.80708000  0.44143000  1.0
  C  C85  1  0.58058000  0.19341000  0.55854000  1.0
  C  C86  1  0.88962000  0.69220000  0.94155000  1.0
  C  C87  1  0.52244000  0.30773000  0.05836000  1.0
  C  C88  1  0.37984000  0.77807000  0.38186000  1.0
  C  C89  1  0.53996000  0.22235000  0.61812000  1.0
  C  C90  1  0.90861000  0.72152000  0.88199000  1.0
  C  C91  1  0.51069000  0.27836000  0.11792000  1.0
  C  C92  1  0.26823000  0.90697000  0.15423000  1.0
  C  C93  1  0.33167000  0.09260000  0.84578000  1.0
  C  C94  1  0.92708000  0.59272000  0.65425000  1.0
  C  C95  1  0.17307000  0.40741000  0.34577000  1.0
  C  C96  1  0.10624000  0.89174000  0.20178000  1.0
  C  C97  1  0.20169000  0.10783000  0.79826000  1.0
  C  C98  1  0.74994000  0.60785000  0.70183000  1.0
  C  C99  1  0.05840000  0.39226000  0.29822000  1.0
  C  C100  1  0.90442000  0.02171000  0.19622000  1.0
  C  C101  1  0.12411000  0.97795000  0.80379000  1.0
  C  C102  1  0.67768000  0.47812000  0.69620000  1.0
  C  C103  1  0.85077000  0.52187000  0.30384000  1.0
  C  C104  1  0.73041000  0.98713000  0.22631000  1.0
  C  C105  1  0.94549000  0.01258000  0.77367000  1.0
  C  C106  1  0.46922000  0.51277000  0.72638000  1.0
  C  C107  1  0.70705000  0.48721000  0.27363000  1.0
  N  N108  1  0.41496000  0.88263000  0.34361000  1.0
  N  N109  1  0.64152000  0.11774000  0.65637000  1.0
  N  N110  1  0.04862000  0.61722000  0.84373000  1.0
  N  N111  1  0.50798000  0.38260000  0.15627000  1.0
  N  N112  1  0.19524000  0.06589000  0.64426000  1.0
  N  N113  1  0.90479000  0.93460000  0.35571000  1.0
  N  N114  1  0.01042000  0.43302000  0.14432000  1.0
  N  N115  1  0.58994000  0.56657000  0.85571000  1.0
  O  O116  1  0.43340000  0.89071000  0.17055000  1.0
  O  O117  1  0.49661000  0.10918000  0.82944000  1.0
  O  O118  1  0.07605000  0.60885000  0.67061000  1.0
  O  O119  1  0.35457000  0.39090000  0.32941000  1.0
  O  O120  1  0.23164000  0.92972000  0.10303000  1.0
  O  O121  1  0.26702000  0.06970000  0.89698000  1.0
  O  O122  1  0.91301000  0.57032000  0.60304000  1.0
  O  O123  1  0.08551000  0.43022000  0.39697000  1.0
  O  O124  1  0.16214000  0.89238000  0.25773000  1.0
  O  O125  1  0.31381000  0.10721000  0.74229000  1.0
  O  O126  1  0.80680000  0.60662000  0.75777000  1.0
  O  O127  1  0.16972000  0.39347000  0.24227000  1.0
  O  O128  1  0.75219000  0.84434000  0.23356000  1.0
  O  O129  1  0.83171000  0.15539000  0.76644000  1.0
  O  O130  1  0.34818000  0.65556000  0.73355000  1.0
  O  O131  1  0.73613000  0.34441000  0.26633000  1.0
  O  O132  1  0.56252000  0.09977000  0.24161000  1.0
  O  O133  1  0.90545000  0.89996000  0.75835000  1.0
  O  O134  1  0.41398000  0.40021000  0.74182000  1.0
  O  O135  1  0.55442000  0.59975000  0.25830000  1.0
