# generated using pymatgen
data_Cu3H12C18(NO6)2
_symmetry_space_group_name_H-M   'P 1'
_cell_length_a   5.68665000
_cell_length_b   9.60997000
_cell_length_c   10.03380000
_cell_angle_alpha   66.20530000
_cell_angle_beta   80.87250000
_cell_angle_gamma   85.44850000
_symmetry_Int_Tables_number   1
_chemical_formula_structural   Cu3H12C18(NO6)2
_chemical_formula_sum   'Cu3 H12 C18 N2 O12'
_cell_volume   495.29810649
_cell_formula_units_Z   1
loop_
 _symmetry_equiv_pos_site_id
 _symmetry_equiv_pos_as_xyz
  1  'x, y, z'
loop_
 _atom_site_type_symbol
 _atom_site_label
 _atom_site_symmetry_multiplicity
 _atom_site_fract_x
 _atom_site_fract_y
 _atom_site_fract_z
 _atom_site_occupancy
  Cu  Cu0  1  0.52479000  0.83889000  0.12777000  1.0
  Cu  Cu1  1  0.47684000  0.16066000  0.87246000  1.0
  Cu  Cu2  1  0.99930000  0.00123000  0.99937000  1.0
  H  H3  1  0.69639000  0.57038000  0.54328000  1.0
  H  H4  1  0.30418000  0.42977000  0.45640000  1.0
  H  H5  1  0.13496000  0.56016000  0.85997000  1.0
  H  H6  1  0.86528000  0.43977000  0.14000000  1.0
  H  H7  1  0.23831000  0.90636000  0.41600000  1.0
  H  H8  1  0.76166000  0.09399000  0.58409000  1.0
  H  H9  1  0.76892000  0.80282000  0.87061000  1.0
  H  H10  1  0.23011000  0.19696000  0.12872000  1.0
  H  H11  1  0.94951000  0.71279000  0.98824000  1.0
  H  H12  1  0.05029000  0.28786000  0.01090000  1.0
  H  H13  1  0.35974000  0.89846000  0.89206000  1.0
  H  H14  1  0.63680000  0.09987000  0.11067000  1.0
  C  C15  1  0.95903000  0.74564000  0.46476000  1.0
  C  C16  1  0.04110000  0.25464000  0.53524000  1.0
  C  C17  1  0.88489000  0.81561000  0.31443000  1.0
  C  C18  1  0.11568000  0.18468000  0.68543000  1.0
  C  C19  1  0.83969000  0.61780000  0.57116000  1.0
  C  C20  1  0.16069000  0.38238000  0.42864000  1.0
  C  C21  1  0.90115000  0.55051000  0.71342000  1.0
  C  C22  1  0.09922000  0.44954000  0.28641000  1.0
  C  C23  1  0.76711000  0.41428000  0.82757000  1.0
  C  C24  1  0.23357000  0.58550000  0.17188000  1.0
  C  C25  1  0.08514000  0.61061000  0.74957000  1.0
  C  C26  1  0.91500000  0.38943000  0.25039000  1.0
  C  C27  1  0.20497000  0.73938000  0.64198000  1.0
  C  C28  1  0.79511000  0.26079000  0.35808000  1.0
  C  C29  1  0.38642000  0.80312000  0.68168000  1.0
  C  C30  1  0.61371000  0.19695000  0.31850000  1.0
  C  C31  1  0.14400000  0.80724000  0.49884000  1.0
  C  C32  1  0.85607000  0.19304000  0.50131000  1.0
  N  N33  1  0.53169000  0.85464000  0.71797000  1.0
  N  N34  1  0.46850000  0.14531000  0.28223000  1.0
  O  O35  1  0.68401000  0.77476000  0.30298000  1.0
  O  O36  1  0.31710000  0.22430000  0.69699000  1.0
  O  O37  1  0.02840000  0.90834000  0.21217000  1.0
  O  O38  1  0.97120000  0.09264000  0.78800000  1.0
  O  O39  1  0.63151000  0.35515000  0.77425000  1.0
  O  O40  1  0.37052000  0.64424000  0.22475000  1.0
  O  O41  1  0.79533000  0.36875000  0.96050000  1.0
  O  O42  1  0.20444000  0.63103000  0.03912000  1.0
  O  O43  1  0.81079000  0.78478000  0.96719000  1.0
  O  O44  1  0.18969000  0.21629000  0.03152000  1.0
  O  O45  1  0.33812000  0.94910000  0.96131000  1.0
  O  O46  1  0.65904000  0.04957000  0.04121000  1.0
