# generated using pymatgen
data_SmH6(C2O3)3
_symmetry_space_group_name_H-M   'P 1'
_cell_length_a   8.27046000
_cell_length_b   8.54124000
_cell_length_c   9.01584000
_cell_angle_alpha   94.60790000
_cell_angle_beta   116.65800000
_cell_angle_gamma   111.04300000
_symmetry_Int_Tables_number   1
_chemical_formula_structural   SmH6(C2O3)3
_chemical_formula_sum   'Sm2 H12 C12 O18'
_cell_volume   508.47979369
_cell_formula_units_Z   2
loop_
 _symmetry_equiv_pos_site_id
 _symmetry_equiv_pos_as_xyz
  1  'x, y, z'
loop_
 _atom_site_type_symbol
 _atom_site_label
 _atom_site_symmetry_multiplicity
 _atom_site_fract_x
 _atom_site_fract_y
 _atom_site_fract_z
 _atom_site_occupancy
  Sm  Sm0  1  0.41135000  0.98154000  0.22764000  1.0
  Sm  Sm1  1  0.58864000  0.01846000  0.77236000  1.0
  H  H2  1  0.14489000  0.10737000  0.94040000  1.0
  H  H3  1  0.85511000  0.89263000  0.05960000  1.0
  H  H4  1  0.59768000  0.80087000  0.09498000  1.0
  H  H5  1  0.40231000  0.19913000  0.90503000  1.0
  H  H6  1  0.53347000  0.67606000  0.20408000  1.0
  H  H7  1  0.46653000  0.32393000  0.79592000  1.0
  H  H8  1  0.29853000  0.69334000  0.38298000  1.0
  H  H9  1  0.70147000  0.30666000  0.61702000  1.0
  H  H10  1  0.20156000  0.59062000  0.18674000  1.0
  H  H11  1  0.79844000  0.40939000  0.81326000  1.0
  H  H12  1  0.33793000  0.27794000  0.09957000  1.0
  H  H13  1  0.66206000  0.72206000  0.90043000  1.0
  C  C14  1  0.15256000  0.77892000  0.80830000  1.0
  C  C15  1  0.84744000  0.22108000  0.19170000  1.0
  C  C16  1  0.96431000  0.66897000  0.64849000  1.0
  C  C17  1  0.03567000  0.33102000  0.35150000  1.0
  C  C18  1  0.60736000  0.44169000  0.38086000  1.0
  C  C19  1  0.39265000  0.55832000  0.61914000  1.0
  C  C20  1  0.16222000  0.99327000  0.38446000  1.0
  C  C21  1  0.83779000  0.00673000  0.61555000  1.0
  C  C22  1  0.80082000  0.57478000  0.51985000  1.0
  C  C23  1  0.19919000  0.42523000  0.48016000  1.0
  C  C24  1  0.04407000  0.99700000  0.46202000  1.0
  C  C25  1  0.95593000  0.00300000  0.53798000  1.0
  O  O26  1  0.14062000  0.78837000  0.94404000  1.0
  O  O27  1  0.85938000  0.21164000  0.05596000  1.0
  O  O28  1  0.29198000  0.15762000  0.02884000  1.0
  O  O29  1  0.70802000  0.84238000  0.97116000  1.0
  O  O30  1  0.09540000  0.98021000  0.22445000  1.0
  O  O31  1  0.90460000  0.01979000  0.77555000  1.0
  O  O32  1  0.23273000  0.69911000  0.26088000  1.0
  O  O33  1  0.76727000  0.30089000  0.73912000  1.0
  O  O34  1  0.33797000  0.00489000  0.48184000  1.0
  O  O35  1  0.66203000  0.99512000  0.51817000  1.0
  O  O36  1  0.31119000  0.85601000  0.80252000  1.0
  O  O37  1  0.68881000  0.14399000  0.19748000  1.0
  O  O38  1  0.53246000  0.78176000  0.16597000  1.0
  O  O39  1  0.46754000  0.21824000  0.83403000  1.0
  O  O40  1  0.56139000  0.28903000  0.40382000  1.0
  O  O41  1  0.43861000  0.71097000  0.59618000  1.0
  O  O42  1  0.49762000  0.47788000  0.25059000  1.0
  O  O43  1  0.50239000  0.52212000  0.74942000  1.0
