# generated using pymatgen
data_Zn4H10C29(N2O13)2
_symmetry_space_group_name_H-M   'P 1'
_cell_length_a   13.15900000
_cell_length_b   13.22780000
_cell_length_c   15.15230000
_cell_angle_alpha   83.76910000
_cell_angle_beta   79.52140000
_cell_angle_gamma   88.00020000
_symmetry_Int_Tables_number   1
_chemical_formula_structural   Zn4H10C29(N2O13)2
_chemical_formula_sum   'Zn4 H10 C29 N4 O26'
_cell_volume   2577.86303551
_cell_formula_units_Z   1
loop_
 _symmetry_equiv_pos_site_id
 _symmetry_equiv_pos_as_xyz
  1  'x, y, z'
loop_
 _atom_site_type_symbol
 _atom_site_label
 _atom_site_symmetry_multiplicity
 _atom_site_fract_x
 _atom_site_fract_y
 _atom_site_fract_z
 _atom_site_occupancy
  Zn  Zn0  1  0.59304000  0.57619000  0.54975000  1.0
  Zn  Zn1  1  0.57716000  0.39755000  0.42423000  1.0
  Zn  Zn2  1  0.43802000  0.59990000  0.41016000  1.0
  Zn  Zn3  1  0.39290000  0.43798000  0.58888000  1.0
  H  H4  1  0.29643000  0.54478000  0.01463000  1.0
  H  H5  1  0.72062000  0.47480000  0.96960000  1.0
  H  H6  1  0.56795000  0.08873000  0.46892000  1.0
  H  H7  1  0.91917000  0.37469000  0.43076000  1.0
  H  H8  1  0.07724000  0.61279000  0.55212000  1.0
  H  H9  1  0.27535000  0.49697000  0.14215000  1.0
  H  H10  1  0.84108000  0.64941000  0.44980000  1.0
  H  H11  1  0.80214000  0.47237000  0.09080000  1.0
  H  H12  1  0.22029000  0.58049000  0.89168000  1.0
  H  H13  1  0.65643000  0.44621000  0.74370000  1.0
  C  C14  1  0.45883000  0.23400000  0.54167000  1.0
  C  C15  1  0.53759000  0.77297000  0.46540000  1.0
  C  C16  1  0.77380000  0.45697000  0.46826000  1.0
  C  C17  1  0.23097000  0.54470000  0.50770000  1.0
  C  C18  1  0.52626000  0.49436000  0.25811000  1.0
  C  C19  1  0.48788000  0.51136000  0.72982000  1.0
  C  C20  1  0.53477000  0.49310000  0.15748000  1.0
  C  C21  1  0.48047000  0.51249000  0.83024000  1.0
  C  C22  1  0.37244000  0.52743000  0.97654000  1.0
  C  C23  1  0.38352000  0.53511000  0.88355000  1.0
  C  C24  1  0.56687000  0.49141000  0.87062000  1.0
  C  C25  1  0.55744000  0.49182000  0.96671000  1.0
  C  C26  1  0.45732000  0.50423000  0.02124000  1.0
  C  C27  1  0.44700000  0.49782000  0.11774000  1.0
  C  C28  1  0.63398000  0.48739000  0.10255000  1.0
  C  C29  1  0.64402000  0.48232000  0.01043000  1.0
  C  C30  1  0.54271000  0.88732000  0.46373000  1.0
  C  C31  1  0.50565000  0.94412000  0.53170000  1.0
  C  C32  1  0.44651000  0.12176000  0.56716000  1.0
  C  C33  1  0.50869000  0.05379000  0.52251000  1.0
  C  C34  1  0.11760000  0.55674000  0.50978000  1.0
  C  C35  1  0.06134000  0.50655000  0.46338000  1.0
  C  C36  1  0.88781000  0.44661000  0.45350000  1.0
  C  C37  1  0.94962000  0.52072000  0.46794000  1.0
  C  C38  1  0.34350000  0.49157000  0.17634000  1.0
  C  C39  1  0.90357000  0.62397000  0.48783000  1.0
  C  C40  1  0.73091000  0.49023000  0.13933000  1.0
  C  C41  1  0.29391000  0.57429000  0.84235000  1.0
  C  C42  1  0.66574000  0.46566000  0.81138000  1.0
  N  N43  1  0.59210000  0.93845000  0.37554000  1.0
  N  N44  1  0.11568000  0.42997000  0.40504000  1.0
  N  N45  1  0.46408000  0.88695000  0.62043000  1.0
  N  N46  1  0.36034000  0.09175000  0.64109000  1.0
  O  O47  1  0.50024000  0.50277000  0.49363000  1.0
  O  O48  1  0.38751000  0.29098000  0.57798000  1.0
  O  O49  1  0.60385000  0.72276000  0.50395000  1.0
  O  O50  1  0.72650000  0.40236000  0.42508000  1.0
  O  O51  1  0.28784000  0.58964000  0.43878000  1.0
  O  O52  1  0.54361000  0.41033000  0.30244000  1.0
  O  O53  1  0.43949000  0.44091000  0.70538000  1.0
  O  O54  1  0.50601000  0.58077000  0.28727000  1.0
  O  O55  1  0.54576000  0.57795000  0.67999000  1.0
  O  O56  1  0.73275000  0.51860000  0.52506000  1.0
  O  O57  1  0.25758000  0.49731000  0.57755000  1.0
  O  O58  1  0.53918000  0.26006000  0.48416000  1.0
  O  O59  1  0.47124000  0.74275000  0.42428000  1.0
  O  O60  1  0.33049000  0.47807000  0.25880000  1.0
  O  O61  1  0.53763000  0.95339000  0.31725000  1.0
  O  O62  1  0.68424000  0.95939000  0.36817000  1.0
  O  O63  1  0.93377000  0.67955000  0.53658000  1.0
  O  O64  1  0.08331000  0.41900000  0.33494000  1.0
  O  O65  1  0.18994000  0.38334000  0.43060000  1.0
  O  O66  1  0.73559000  0.51252000  0.21469000  1.0
  O  O67  1  0.29831000  0.60110000  0.76207000  1.0
  O  O68  1  0.75197000  0.46312000  0.83125000  1.0
  O  O69  1  0.47786000  0.92604000  0.68768000  1.0
  O  O70  1  0.42304000  0.80443000  0.62039000  1.0
  O  O71  1  0.36124000  0.12479000  0.71387000  1.0
  O  O72  1  0.29441000  0.03601000  0.62374000  1.0
