# generated using pymatgen
data_Zn4H8C24S6O19
_symmetry_space_group_name_H-M   'P 1'
_cell_length_a   19.59300000
_cell_length_b   19.63430000
_cell_length_c   33.27120000
_cell_angle_alpha   79.31770000
_cell_angle_beta   79.43670000
_cell_angle_gamma   64.04060000
_symmetry_Int_Tables_number   1
_chemical_formula_structural   Zn4H8C24S6O19
_chemical_formula_sum   'Zn16 H32 C96 S24 O76'
_cell_volume   11232.55743959
_cell_formula_units_Z   4
loop_
 _symmetry_equiv_pos_site_id
 _symmetry_equiv_pos_as_xyz
  1  'x, y, z'
loop_
 _atom_site_type_symbol
 _atom_site_label
 _atom_site_symmetry_multiplicity
 _atom_site_fract_x
 _atom_site_fract_y
 _atom_site_fract_z
 _atom_site_occupancy
  Zn  Zn0  1  0.60221000  0.94459000  0.52029000  1.0
  Zn  Zn1  1  0.52008000  0.01484000  0.43900000  1.0
  Zn  Zn2  1  0.43866000  0.94262000  0.51834000  1.0
  Zn  Zn3  1  0.44185000  0.09689000  0.52161000  1.0
  Zn  Zn4  1  0.65048000  0.30822000  0.72684000  1.0
  Zn  Zn5  1  0.80798000  0.31410000  0.73258000  1.0
  Zn  Zn6  1  0.73360000  0.22964000  0.80928000  1.0
  Zn  Zn7  1  0.80623000  0.15136000  0.73027000  1.0
  Zn  Zn8  1  0.23545000  0.72954000  0.31107000  1.0
  Zn  Zn9  1  0.30536000  0.64817000  0.22977000  1.0
  Zn  Zn10  1  0.15302000  0.80810000  0.22842000  1.0
  Zn  Zn11  1  0.30796000  0.81092000  0.23176000  1.0
  Zn  Zn12  1  0.93596000  0.44202000  0.01747000  1.0
  Zn  Zn13  1  0.94169000  0.59935000  0.02290000  1.0
  Zn  Zn14  1  0.09909000  0.44368000  0.01986000  1.0
  Zn  Zn15  1  0.02027000  0.51663000  0.94072000  1.0
  H  H16  1  0.55001000  0.25027000  0.65070000  1.0
  H  H17  1  0.70007000  0.99877000  0.59984000  1.0
  H  H18  1  0.29927000  0.79913000  0.39965000  1.0
  H  H19  1  0.45043000  0.95077000  0.35060000  1.0
  H  H20  1  0.49001000  0.71536000  0.58718000  1.0
  H  H21  1  0.75917000  0.53888000  0.65960000  1.0
  H  H22  1  0.45162000  0.22570000  0.35250000  1.0
  H  H23  1  0.30020000  0.51914000  0.39978000  1.0
  H  H24  1  0.73041000  0.95039000  0.35008000  1.0
  H  H25  1  0.02458000  0.79833000  0.39755000  1.0
  H  H26  1  0.22103000  0.19772000  0.60027000  1.0
  H  H27  1  0.02199000  0.05555000  0.65027000  1.0
  H  H28  1  0.85095000  0.35004000  0.95082000  1.0
  H  H29  1  0.89989000  0.39866000  0.79943000  1.0
  H  H30  1  0.52523000  0.30125000  0.89790000  1.0
  H  H31  1  0.23030000  0.44930000  0.85099000  1.0
  H  H32  1  0.88992000  0.91033000  0.78998000  1.0
  H  H33  1  0.86197000  0.83456000  0.96056000  1.0
  H  H34  1  0.99946000  0.70016000  0.09881000  1.0
  H  H35  1  0.25110000  0.55076000  0.15044000  1.0
  H  H36  1  0.52562000  0.55211000  0.15215000  1.0
  H  H37  1  0.71907000  0.69984000  0.09950000  1.0
  H  H38  1  0.25967000  0.04035000  0.15988000  1.0
  H  H39  1  0.98910000  0.21437000  0.08850000  1.0
  H  H40  1  0.42832000  0.15502000  0.59989000  1.0
  H  H41  1  0.76406000  0.03660000  0.70828000  1.0
  H  H42  1  0.31352000  0.93018000  0.48598000  1.0
  H  H43  1  0.31977000  0.93539000  0.26413000  1.0
  H  H44  1  0.82184000  0.20591000  0.87817000  1.0
  H  H45  1  0.04320000  0.42904000  0.87230000  1.0
  H  H46  1  0.09376000  0.82240000  0.14996000  1.0
  H  H47  1  0.21451000  0.48568000  0.04201000  1.0
  C  C48  1  0.68680000  0.93827000  0.43711000  1.0
  C  C49  1  0.42632000  0.93568000  0.43134000  1.0
  C  C50  1  0.56142000  0.81819000  0.56052000  1.0
  C  C51  1  0.31280000  0.06195000  0.56234000  1.0
  C  C52  1  0.56668000  0.06604000  0.57133000  1.0
  C  C53  1  0.43955000  0.18152000  0.43930000  1.0
  C  C54  1  0.68730000  0.43692000  0.68741000  1.0
  C  C55  1  0.82330000  0.31374000  0.81913000  1.0
  C  C56  1  0.56803000  0.31076000  0.81077000  1.0
  C  C57  1  0.81304000  0.06267000  0.81163000  1.0
  C  C58  1  0.67871000  0.17862000  0.68370000  1.0
  C  C59  1  0.93168000  0.19051000  0.68932000  1.0
  C  C60  1  0.31209000  0.56306000  0.31278000  1.0
  C  C61  1  0.18340000  0.68387000  0.17871000  1.0
  C  C62  1  0.06851000  0.81040000  0.31075000  1.0
  C  C63  1  0.18917000  0.93664000  0.18748000  1.0
  C  C64  1  0.31441000  0.82312000  0.31893000  1.0
  C  C65  1  0.43228000  0.68814000  0.18975000  1.0
  C  C66  1  0.81254000  0.56354000  0.06201000  1.0
  C  C67  1  0.07137000  0.57140000  0.06626000  1.0
  C  C68  1  0.05916000  0.31827000  0.06091000  1.0
  C  C69  1  0.18701000  0.43761000  0.93790000  1.0
  C  C70  1  0.93558000  0.42689000  0.93115000  1.0
  C  C71  1  0.93895000  0.68232000  0.93929000  1.0
  C  C72  1  0.59397000  0.09943000  0.59879000  1.0
  C  C73  1  0.65455000  0.14805000  0.65330000  1.0
  C  C74  1  0.55235000  0.17165000  0.61298000  1.0
  C  C75  1  0.69736000  0.07701000  0.63795000  1.0
  C  C76  1  0.58283000  0.19455000  0.63984000  1.0
  C  C77  1  0.66663000  0.05386000  0.61132000  1.0
  C  C78  1  0.39897000  0.90224000  0.40395000  1.0
  C  C79  1  0.34771000  0.85068000  0.34630000  1.0
  C  C80  1  0.35694000  0.85776000  0.41751000  1.0
  C  C81  1  0.39199000  0.89290000  0.33273000  1.0
  C  C82  1  0.33197000  0.83310000  0.38878000  1.0
  C  C83  1  0.41653000  0.91799000  0.36146000  1.0
  C  C84  1  0.54617000  0.69838000  0.59646000  1.0
  C  C85  1  0.70264000  0.55618000  0.65075000  1.0
  C  C86  1  0.58638000  0.74337000  0.58521000  1.0
  C  C87  1  0.66224000  0.51142000  0.66234000  1.0
  C  C88  1  0.66034000  0.62442000  0.62693000  1.0
  C  C89  1  0.58830000  0.63035000  0.62051000  1.0
  C  C90  1  0.42401000  0.27097000  0.37229000  1.0
  C  C91  1  0.32841000  0.47381000  0.38003000  1.0
  C  C92  1  0.41511000  0.25655000  0.41485000  1.0
  C  C93  1  0.33744000  0.48821000  0.33749000  1.0
  C  C94  1  0.36025000  0.39469000  0.39281000  1.0
  C  C95  1  0.39283000  0.35005000  0.35959000  1.0
  C  C96  1  0.77590000  0.92211000  0.36987000  1.0
  C  C97  1  0.97915000  0.82617000  0.37772000  1.0
  C  C98  1  0.76166000  0.91296000  0.41242000  1.0
  C  C99  1  0.99343000  0.83516000  0.33516000  1.0
  C  C100  1  0.89998000  0.85750000  0.39039000  1.0
  C  C101  1  0.85513000  0.89020000  0.35713000  1.0
  C  C102  1  0.19873000  0.15473000  0.60406000  1.0
  C  C103  1  0.04503000  0.09787000  0.64695000  1.0
  C  C104  1  0.23804000  0.08664000  0.58706000  1.0
  C  C105  1  0.00624000  0.16562000  0.66432000  1.0
  C  C106  1  0.11545000  0.09357000  0.62522000  1.0
  C  C107  1  0.12875000  0.15862000  0.62612000  1.0
  C  C108  1  0.84799000  0.34396000  0.84949000  1.0
  C  C109  1  0.90547000  0.40212000  0.90077000  1.0
  C  C110  1  0.83330000  0.33170000  0.89276000  1.0
  C  C111  1  0.91785000  0.41670000  0.85751000  1.0
  C  C112  1  0.86229000  0.36031000  0.91749000  1.0
  C  C113  1  0.88958000  0.38737000  0.83277000  1.0
  C  C114  1  0.47949000  0.32801000  0.87824000  1.0
  C  C115  1  0.27590000  0.42174000  0.87073000  1.0
  C  C116  1  0.49334000  0.33625000  0.83566000  1.0
  C  C117  1  0.26190000  0.41276000  0.91331000  1.0
  C  C118  1  0.35507000  0.39055000  0.85793000  1.0
  C  C119  1  0.40028000  0.35876000  0.89107000  1.0
  C  C120  1  0.87471000  0.91731000  0.82255000  1.0
  C  C121  1  0.87673000  0.82751000  0.92800000  1.0
  C  C122  1  0.83737000  0.98825000  0.83666000  1.0
  C  C123  1  0.91385000  0.75653000  0.91393000  1.0
  C  C124  1  0.86212000  0.88608000  0.89476000  1.0
  C  C125  1  0.88874000  0.85862000  0.85578000  1.0
  C  C126  1  0.15013000  0.65659000  0.15117000  1.0
  C  C127  1  0.10185000  0.59579000  0.09663000  1.0
  C  C128  1  0.07783000  0.69799000  0.13679000  1.0
  C  C129  1  0.17294000  0.55319000  0.11222000  1.0
  C  C130  1  0.05520000  0.66745000  0.10986000  1.0
  C  C131  1  0.19594000  0.58405000  0.13881000  1.0
  C  C132  1  0.54710000  0.59575000  0.14813000  1.0
  C  C133  1  0.69781000  0.65599000  0.10377000  1.0
  C  C134  1  0.50706000  0.66389000  0.16504000  1.0
  C  C135  1  0.73802000  0.58776000  0.08701000  1.0
  C  C136  1  0.62845000  0.65881000  0.12628000  1.0
  C  C137  1  0.61681000  0.59257000  0.12602000  1.0
  C  C138  1  0.20317000  0.05693000  0.15116000  1.0
  C  C139  1  0.04540000  0.19799000  0.09740000  1.0
  C  C140  1  0.16359000  0.01135000  0.16270000  1.0
  C  C141  1  0.08480000  0.24376000  0.08600000  1.0
  C  C142  1  0.08827000  0.13012000  0.12130000  1.0
  C  C143  1  0.16004000  0.12515000  0.12754000  1.0
  S  S144  1  0.67518000  0.70345000  0.60345000  1.0
  S  S145  1  0.57319000  0.55160000  0.64438000  1.0
  S  S146  1  0.36938000  0.33844000  0.43960000  1.0
  S  S147  1  0.38440000  0.40628000  0.31282000  1.0
  S  S148  1  0.84385000  0.86591000  0.43714000  1.0
  S  S149  1  0.91127000  0.88115000  0.31037000  1.0
  S  S150  1  0.19033000  0.02744000  0.59751000  1.0
  S  S151  1  0.05441000  0.22433000  0.65427000  1.0
  S  S152  1  0.41088000  0.38150000  0.81108000  1.0
  S  S153  1  0.34433000  0.36691000  0.93791000  1.0
  S  S154  1  0.81912000  0.98426000  0.89003000  1.0
  S  S155  1  0.93087000  0.76039000  0.86056000  1.0
  S  S156  1  0.55356000  0.72413000  0.15436000  1.0
  S  S157  1  0.69213000  0.52693000  0.09831000  1.0
  S  S158  1  0.07429000  0.05073000  0.14505000  1.0
  S  S159  1  0.17354000  0.20502000  0.10423000  1.0
  S  S160  1  0.46249000  0.24253000  0.59645000  1.0
  S  S161  1  0.79427000  0.01330000  0.64748000  1.0
  S  S162  1  0.33620000  0.82383000  0.47059000  1.0
  S  S163  1  0.42613000  0.91332000  0.27967000  1.0
  S  S164  1  0.77333000  0.28555000  0.92014000  1.0
  S  S165  1  0.96342000  0.47719000  0.83020000  1.0
  S  S166  1  0.00663000  0.78760000  0.15315000  1.0
  S  S167  1  0.23681000  0.45633000  0.10308000  1.0
  O  O168  1  0.50191000  0.99932000  0.49942000  1.0
  O  O169  1  0.68689000  0.92125000  0.47621000  1.0
  O  O170  1  0.48041000  0.95456000  0.41566000  1.0
  O  O171  1  0.49682000  0.84360000  0.54669000  1.0
  O  O172  1  0.62812000  0.97501000  0.41764000  1.0
  O  O173  1  0.60660000  0.85142000  0.55515000  1.0
  O  O174  1  0.39265000  0.94518000  0.46817000  1.0
  O  O175  1  0.34146000  0.99457000  0.55159000  1.0
  O  O176  1  0.49446000  0.09155000  0.56972000  1.0
  O  O177  1  0.34342000  0.10940000  0.55349000  1.0
  O  O178  1  0.61740000  0.01261000  0.55206000  1.0
  O  O179  1  0.46936000  0.12327000  0.41948000  1.0
  O  O180  1  0.42838000  0.18130000  0.47854000  1.0
  O  O181  1  0.74915000  0.25205000  0.74935000  1.0
  O  O182  1  0.63946000  0.40659000  0.69618000  1.0
  O  O183  1  0.82113000  0.34721000  0.78269000  1.0
  O  O184  1  0.62689000  0.28005000  0.83033000  1.0
  O  O185  1  0.75453000  0.40877000  0.69833000  1.0
  O  O186  1  0.56741000  0.32138000  0.77159000  1.0
  O  O187  1  0.80801000  0.25532000  0.83119000  1.0
  O  O188  1  0.77531000  0.12138000  0.83101000  1.0
  O  O189  1  0.72925000  0.13149000  0.70705000  1.0
  O  O190  1  0.83132000  0.06317000  0.77267000  1.0
  O  O191  1  0.64557000  0.24993000  0.68518000  1.0
  O  O192  1  0.90747000  0.25422000  0.70388000  1.0
  O  O193  1  0.89768000  0.14626000  0.69445000  1.0
  O  O194  1  0.25092000  0.74801000  0.25067000  1.0
  O  O195  1  0.27514000  0.62148000  0.33223000  1.0
  O  O196  1  0.23714000  0.63322000  0.19797000  1.0
  O  O197  1  0.06858000  0.82190000  0.27150000  1.0
  O  O198  1  0.32934000  0.56316000  0.27370000  1.0
  O  O199  1  0.12697000  0.77999000  0.33061000  1.0
  O  O200  1  0.15757000  0.75591000  0.18041000  1.0
  O  O201  1  0.14148000  0.90605000  0.19637000  1.0
  O  O202  1  0.30470000  0.85677000  0.28206000  1.0
  O  O203  1  0.25658000  0.90800000  0.19825000  1.0
  O  O204  1  0.29572000  0.76897000  0.33467000  1.0
  O  O205  1  0.39873000  0.64349000  0.19494000  1.0
  O  O206  1  0.40724000  0.75245000  0.20381000  1.0
  O  O207  1  0.99804000  0.50087000  0.00063000  1.0
  O  O208  1  0.84107000  0.49613000  0.05137000  1.0
  O  O209  1  0.99997000  0.60483000  0.06443000  1.0
  O  O210  1  0.10393000  0.35200000  0.05539000  1.0
  O  O211  1  0.84257000  0.61144000  0.05304000  1.0
  O  O212  1  0.99505000  0.34277000  0.04669000  1.0
  O  O213  1  0.11860000  0.52047000  0.04334000  1.0
  O  O214  1  0.18654000  0.42006000  0.97702000  1.0
  O  O215  1  0.99395000  0.44240000  0.91914000  1.0
  O  O216  1  0.12827000  0.47473000  0.91844000  1.0
  O  O217  1  0.90219000  0.42877000  0.96758000  1.0
  O  O218  1  0.92797000  0.68295000  0.97835000  1.0
  O  O219  1  0.97002000  0.62340000  0.91980000  1.0
  O  O220  1  0.40657000  0.20216000  0.61434000  1.0
  O  O221  1  0.43782000  0.30670000  0.61876000  1.0
  O  O222  1  0.47154000  0.25145000  0.55213000  1.0
  O  O223  1  0.78409000  0.98766000  0.69560000  1.0
  O  O224  1  0.81666000  0.94656000  0.62768000  1.0
  O  O225  1  0.83852000  0.05776000  0.63859000  1.0
  O  O226  1  0.28099000  0.90115000  0.48922000  1.0
  O  O227  1  0.29054000  0.78292000  0.47157000  1.0
  O  O228  1  0.40696000  0.78842000  0.48865000  1.0
  O  O229  1  0.34871000  0.96807000  0.26067000  1.0
  O  O230  1  0.46680000  0.95922000  0.27859000  1.0
  O  O231  1  0.46185000  0.84246000  0.26198000  1.0
  O  O232  1  0.82038000  0.20066000  0.90896000  1.0
  O  O233  1  0.77495000  0.28192000  0.96340000  1.0
  O  O234  1  0.70211000  0.32113000  0.90253000  1.0
  O  O235  1  0.04859000  0.43068000  0.84148000  1.0
  O  O236  1  0.96711000  0.47573000  0.78692000  1.0
  O  O237  1  0.92730000  0.54810000  0.84785000  1.0
  O  O238  1  0.04678000  0.84362000  0.13530000  1.0
  O  O239  1  0.94236000  0.81206000  0.13072000  1.0
  O  O240  1  0.99761000  0.77851000  0.19746000  1.0
  O  O241  1  0.26307000  0.46626000  0.05505000  1.0
  O  O242  1  0.30340000  0.43411000  0.12320000  1.0
  O  O243  1  0.19219000  0.41227000  0.11186000  1.0
