# generated using pymatgen
data_HoH6C6NO8
_symmetry_space_group_name_H-M   'P 1'
_cell_length_a   6.69945000
_cell_length_b   7.84513000
_cell_length_c   9.17331000
_cell_angle_alpha   95.77710000
_cell_angle_beta   111.03000000
_cell_angle_gamma   94.14020000
_symmetry_Int_Tables_number   1
_chemical_formula_structural   HoH6C6NO8
_chemical_formula_sum   'Ho2 H12 C12 N2 O16'
_cell_volume   444.67604434
_cell_formula_units_Z   2
loop_
 _symmetry_equiv_pos_site_id
 _symmetry_equiv_pos_as_xyz
  1  'x, y, z'
loop_
 _atom_site_type_symbol
 _atom_site_label
 _atom_site_symmetry_multiplicity
 _atom_site_fract_x
 _atom_site_fract_y
 _atom_site_fract_z
 _atom_site_occupancy
  Ho  Ho0  1  0.37427000  0.76367000  0.21595000  1.0
  Ho  Ho1  1  0.62573000  0.23634000  0.78405000  1.0
  H  H2  1  0.75428000  0.26434000  0.38282000  1.0
  H  H3  1  0.24572000  0.73566000  0.61719000  1.0
  H  H4  1  0.96441000  0.22799000  0.55665000  1.0
  H  H5  1  0.03558000  0.77201000  0.44335000  1.0
  H  H6  1  0.03056000  0.83675000  0.77111000  1.0
  H  H7  1  0.96943000  0.16325000  0.22889000  1.0
  H  H8  1  0.78475000  0.71389000  0.74069000  1.0
  H  H9  1  0.21524000  0.28611000  0.25931000  1.0
  H  H10  1  0.93023000  0.57431000  0.09340000  1.0
  H  H11  1  0.06977000  0.42568000  0.90660000  1.0
  H  H12  1  0.88983000  0.76971000  0.11698000  1.0
  H  H13  1  0.11017000  0.23028000  0.88301000  1.0
  C  C14  1  0.84413000  0.46654000  0.57124000  1.0
  C  C15  1  0.15586000  0.53346000  0.42876000  1.0
  C  C16  1  0.90424000  0.32480000  0.47767000  1.0
  C  C17  1  0.09576000  0.67519000  0.52233000  1.0
  C  C18  1  0.88358000  0.76804000  0.67978000  1.0
  C  C19  1  0.11641000  0.23196000  0.32022000  1.0
  C  C20  1  0.75811000  0.89545000  0.57655000  1.0
  C  C21  1  0.24189000  0.10456000  0.42345000  1.0
  C  C22  1  0.60986000  0.96523000  0.01669000  1.0
  C  C23  1  0.39014000  0.03478000  0.98329000  1.0
  C  C24  1  0.58555000  0.47351000  0.07407000  1.0
  C  C25  1  0.41446000  0.52648000  0.92595000  1.0
  N  N26  1  0.93805000  0.62711000  0.59049000  1.0
  N  N27  1  0.06195000  0.37289000  0.40952000  1.0
  O  O28  1  0.70722000  0.42789000  0.63107000  1.0
  O  O29  1  0.29278000  0.57212000  0.36893000  1.0
  O  O30  1  0.74794000  0.03966000  0.64626000  1.0
  O  O31  1  0.25206000  0.96034000  0.35373000  1.0
  O  O32  1  0.67538000  0.85052000  0.42884000  1.0
  O  O33  1  0.32462000  0.14948000  0.57116000  1.0
  O  O34  1  0.72171000  0.01503000  0.94083000  1.0
  O  O35  1  0.27829000  0.98497000  0.05915000  1.0
  O  O36  1  0.66008000  0.86203000  0.11933000  1.0
  O  O37  1  0.33993000  0.13797000  0.88065000  1.0
  O  O38  1  0.72336000  0.38250000  0.04932000  1.0
  O  O39  1  0.27664000  0.61749000  0.95070000  1.0
  O  O40  1  0.57898000  0.52735000  0.20602000  1.0
  O  O41  1  0.42103000  0.47266000  0.79400000  1.0
  O  O42  1  0.99719000  0.69313000  0.10501000  1.0
  O  O43  1  0.00281000  0.30688000  0.89499000  1.0
