# generated using pymatgen
data_AlH5C16O5F6
_symmetry_space_group_name_H-M   'P 1'
_cell_length_a   6.69101000
_cell_length_b   22.83330000
_cell_length_c   26.06940000
_cell_angle_alpha   90.00080000
_cell_angle_beta   89.99450000
_cell_angle_gamma   89.99390000
_symmetry_Int_Tables_number   1
_chemical_formula_structural   AlH5C16O5F6
_chemical_formula_sum   'Al4 H20 C64 O20 F24'
_cell_volume   3982.82654515
_cell_formula_units_Z   4
loop_
 _symmetry_equiv_pos_site_id
 _symmetry_equiv_pos_as_xyz
  1  'x, y, z'
loop_
 _atom_site_type_symbol
 _atom_site_label
 _atom_site_symmetry_multiplicity
 _atom_site_fract_x
 _atom_site_fract_y
 _atom_site_fract_z
 _atom_site_occupancy
  Al  Al0  1  0.72024000  0.74977000  0.75000000  1.0
  Al  Al1  1  0.27977000  0.25024000  0.25001000  1.0
  Al  Al2  1  0.22024000  0.75022000  0.75001000  1.0
  Al  Al3  1  0.77978000  0.24978000  0.24999000  1.0
  H  H4  1  0.63641000  0.55550000  0.56799000  1.0
  H  H5  1  0.36361000  0.44442000  0.43207000  1.0
  H  H6  1  0.36343000  0.44494000  0.06833000  1.0
  H  H7  1  0.63658000  0.55502000  0.93164000  1.0
  H  H8  1  0.13659000  0.94501000  0.93163000  1.0
  H  H9  1  0.86342000  0.05500000  0.06837000  1.0
  H  H10  1  0.86343000  0.05519000  0.43179000  1.0
  H  H11  1  0.13656000  0.94480000  0.56821000  1.0
  H  H12  1  0.34519000  0.37563000  0.35806000  1.0
  H  H13  1  0.65483000  0.62430000  0.64200000  1.0
  H  H14  1  0.65501000  0.62393000  0.85772000  1.0
  H  H15  1  0.34503000  0.37603000  0.14225000  1.0
  H  H16  1  0.84503000  0.12393000  0.14227000  1.0
  H  H17  1  0.15500000  0.87608000  0.85772000  1.0
  H  H18  1  0.15494000  0.87593000  0.64215000  1.0
  H  H19  1  0.84508000  0.12407000  0.35784000  1.0
  H  H20  1  0.46860000  0.67255000  0.74992000  1.0
  H  H21  1  0.53142000  0.32746000  0.25011000  1.0
  H  H22  1  0.96855000  0.82744000  0.75000000  1.0
  H  H23  1  0.03148000  0.17256000  0.24999000  1.0
  C  C24  1  0.47090000  0.81914000  0.67970000  1.0
  C  C25  1  0.52912000  0.18086000  0.32030000  1.0
  C  C26  1  0.52910000  0.18085000  0.17972000  1.0
  C  C27  1  0.47092000  0.81915000  0.82029000  1.0
  C  C28  1  0.97091000  0.68085000  0.82029000  1.0
  C  C29  1  0.02911000  0.31915000  0.17971000  1.0
  C  C30  1  0.02902000  0.31918000  0.32030000  1.0
  C  C31  1  0.97095000  0.68084000  0.67971000  1.0
  C  C32  1  0.96825000  0.64098000  0.63424000  1.0
  C  C33  1  0.03169000  0.35904000  0.36575000  1.0
  C  C34  1  0.03187000  0.35903000  0.13425000  1.0
  C  C35  1  0.96813000  0.64097000  0.86574000  1.0
  C  C36  1  0.46811000  0.85903000  0.86574000  1.0
  C  C37  1  0.53191000  0.14097000  0.13427000  1.0
  C  C38  1  0.53187000  0.14100000  0.36575000  1.0
  C  C39  1  0.46815000  0.85900000  0.63425000  1.0
  C  C40  1  0.13804000  0.62908000  0.60458000  1.0
  C  C41  1  0.86185000  0.37099000  0.39539000  1.0
  C  C42  1  0.86228000  0.37079000  0.10449000  1.0
  C  C43  1  0.13770000  0.62923000  0.89552000  1.0
  C  C44  1  0.63769000  0.87076000  0.89552000  1.0
  C  C45  1  0.36231000  0.12923000  0.10449000  1.0
  C  C46  1  0.36218000  0.12919000  0.39548000  1.0
  C  C47  1  0.63784000  0.87081000  0.60452000  1.0
  C  C48  1  0.12796000  0.59091000  0.56277000  1.0
  C  C49  1  0.87194000  0.40915000  0.43719000  1.0
  C  C50  1  0.87238000  0.40899000  0.06271000  1.0
  C  C51  1  0.12757000  0.59103000  0.93730000  1.0
  C  C52  1  0.62757000  0.90896000  0.93730000  1.0
  C  C53  1  0.37241000  0.09102000  0.06271000  1.0
  C  C54  1  0.37220000  0.09098000  0.43725000  1.0
  C  C55  1  0.62780000  0.90902000  0.56275000  1.0
  C  C56  1  0.94996000  0.56249000  0.54958000  1.0
  C  C57  1  0.04998000  0.43753000  0.45042000  1.0
  C  C58  1  0.05018000  0.43761000  0.04966000  1.0
  C  C59  1  0.94980000  0.56240000  0.95034000  1.0
  C  C60  1  0.44980000  0.93761000  0.95034000  1.0
  C  C61  1  0.55018000  0.06238000  0.04967000  1.0
  C  C62  1  0.55004000  0.06242000  0.45036000  1.0
  C  C63  1  0.44996000  0.93758000  0.54964000  1.0
  C  C64  1  0.77784000  0.57581000  0.57854000  1.0
  C  C65  1  0.22213000  0.42416000  0.42149000  1.0
  C  C66  1  0.22212000  0.42446000  0.07874000  1.0
  C  C67  1  0.77788000  0.57552000  0.92124000  1.0
  C  C68  1  0.27789000  0.92450000  0.92124000  1.0
  C  C69  1  0.72212000  0.07550000  0.07877000  1.0
  C  C70  1  0.72207000  0.07563000  0.42133000  1.0
  C  C71  1  0.27793000  0.92437000  0.57868000  1.0
  C  C72  1  0.78782000  0.61405000  0.61971000  1.0
  C  C73  1  0.21216000  0.38592000  0.38032000  1.0
  C  C74  1  0.21215000  0.38616000  0.11988000  1.0
  C  C75  1  0.78787000  0.61382000  0.88010000  1.0
  C  C76  1  0.28787000  0.88619000  0.88010000  1.0
  C  C77  1  0.71215000  0.11381000  0.11990000  1.0
  C  C78  1  0.71215000  0.11391000  0.38018000  1.0
  C  C79  1  0.28787000  0.88609000  0.61982000  1.0
  C  C80  1  0.93637000  0.52174000  0.50656000  1.0
  C  C81  1  0.06360000  0.47828000  0.49344000  1.0
  C  C82  1  0.06383000  0.47837000  0.00664000  1.0
  C  C83  1  0.93613000  0.52164000  0.99337000  1.0
  C  C84  1  0.43612000  0.97837000  0.99336000  1.0
  C  C85  1  0.56386000  0.02162000  0.00665000  1.0
  C  C86  1  0.56372000  0.02168000  0.49339000  1.0
  C  C87  1  0.43628000  0.97832000  0.50661000  1.0
  O  O88  1  0.30101000  0.80446000  0.80244000  1.0
  O  O89  1  0.69902000  0.19554000  0.19756000  1.0
  O  O90  1  0.69905000  0.19559000  0.30248000  1.0
  O  O91  1  0.30097000  0.80441000  0.69752000  1.0
  O  O92  1  0.80104000  0.69557000  0.69751000  1.0
  O  O93  1  0.19892000  0.30444000  0.30249000  1.0
  O  O94  1  0.19897000  0.30447000  0.19757000  1.0
  O  O95  1  0.80104000  0.69553000  0.80243000  1.0
  O  O96  1  0.63991000  0.80407000  0.69757000  1.0
  O  O97  1  0.36011000  0.19594000  0.30244000  1.0
  O  O98  1  0.36008000  0.19599000  0.19753000  1.0
  O  O99  1  0.63996000  0.80402000  0.80247000  1.0
  O  O100  1  0.13999000  0.69598000  0.80248000  1.0
  O  O101  1  0.86002000  0.30402000  0.19751000  1.0
  O  O102  1  0.85999000  0.30409000  0.30243000  1.0
  O  O103  1  0.13999000  0.69591000  0.69758000  1.0
  O  O104  1  0.47002000  0.71490000  0.74999000  1.0
  O  O105  1  0.52999000  0.28510000  0.25001000  1.0
  O  O106  1  0.97000000  0.78508000  0.74999000  1.0
  O  O107  1  0.03002000  0.21492000  0.25001000  1.0
  F  F108  1  0.23193000  0.47142000  0.52245000  1.0
  F  F109  1  0.76800000  0.52860000  0.47755000  1.0
  F  F110  1  0.76725000  0.52830000  0.02222000  1.0
  F  F111  1  0.23274000  0.47172000  0.97779000  1.0
  F  F112  1  0.73283000  0.02824000  0.97782000  1.0
  F  F113  1  0.26717000  0.97174000  0.02219000  1.0
  F  F114  1  0.26765000  0.97156000  0.47769000  1.0
  F  F115  1  0.73234000  0.02844000  0.52231000  1.0
  F  F116  1  0.70502000  0.41575000  0.46602000  1.0
  F  F117  1  0.29481000  0.58435000  0.53393000  1.0
  F  F118  1  0.29416000  0.58467000  0.96627000  1.0
  F  F119  1  0.70576000  0.41537000  0.03376000  1.0
  F  F120  1  0.20582000  0.08467000  0.03376000  1.0
  F  F121  1  0.79416000  0.91531000  0.96626000  1.0
  F  F122  1  0.79453000  0.91547000  0.53384000  1.0
  F  F123  1  0.20547000  0.08454000  0.46616000  1.0
  F  F124  1  0.31646000  0.65489000  0.61337000  1.0
  F  F125  1  0.68339000  0.34523000  0.38656000  1.0
  F  F126  1  0.68408000  0.34479000  0.11313000  1.0
  F  F127  1  0.31589000  0.65523000  0.88688000  1.0
  F  F128  1  0.81588000  0.84475000  0.88688000  1.0
  F  F129  1  0.18414000  0.15524000  0.11313000  1.0
  F  F130  1  0.18395000  0.15517000  0.38680000  1.0
  F  F131  1  0.81608000  0.84485000  0.61321000  1.0
