# generated using pymatgen
data_CuH16C14(NO3)2
_symmetry_space_group_name_H-M   'P 1'
_cell_length_a   7.24758000
_cell_length_b   7.67967000
_cell_length_c   8.40257571
_cell_angle_alpha   112.35641151
_cell_angle_beta   110.47453032
_cell_angle_gamma   100.23200000
_symmetry_Int_Tables_number   1
_chemical_formula_structural   CuH16C14(NO3)2
_chemical_formula_sum   'Cu1 H16 C14 N2 O6'
_cell_volume   378.25535788
_cell_formula_units_Z   1
loop_
 _symmetry_equiv_pos_site_id
 _symmetry_equiv_pos_as_xyz
  1  'x, y, z'
loop_
 _atom_site_type_symbol
 _atom_site_label
 _atom_site_symmetry_multiplicity
 _atom_site_fract_x
 _atom_site_fract_y
 _atom_site_fract_z
 _atom_site_occupancy
  Cu  Cu0  1  0.54157000  0.04155000  0.08284000  1.0
  H  H1  1  0.69688000  0.17436000  0.90041000  1.0
  H  H2  1  0.20367000  0.72626000  0.90117000  1.0
  H  H3  1  0.84597000  0.42100000  0.47727000  1.0
  H  H4  1  0.63160000  0.05696000  0.47731000  1.0
  H  H5  1  0.79433000  0.66522000  0.73905000  1.0
  H  H6  1  0.94455000  0.07398000  0.73899000  1.0
  H  H7  1  0.12450000  0.39495000  0.35587000  1.0
  H  H8  1  0.23130000  0.96039000  0.35565000  1.0
  H  H9  1  0.20115000  0.16117000  0.10695000  1.0
  H  H10  1  0.90636000  0.94608000  0.10690000  1.0
  H  H11  1  0.71974000  0.50967000  0.17669000  1.0
  H  H12  1  0.45713000  0.66729000  0.17732000  1.0
  H  H13  1  0.67227000  0.45459000  0.93658000  1.0
  H  H14  1  0.26428000  0.48230000  0.93733000  1.0
  H  H15  1  0.93410000  0.57941000  0.12822000  1.0
  H  H16  1  0.19436000  0.54927000  0.12922000  1.0
  C  C17  1  0.68781000  0.41813000  0.45544000  1.0
  C  C18  1  0.76792000  0.03785000  0.45546000  1.0
  C  C19  1  0.65853000  0.55527000  0.60127000  1.0
  C  C20  1  0.94268000  0.04617000  0.60121000  1.0
  C  C21  1  0.45315000  0.54497000  0.56965000  1.0
  C  C22  1  0.11636000  0.02440000  0.56950000  1.0
  C  C23  1  0.28615000  0.40477000  0.38844000  1.0
  C  C24  1  0.10232000  0.98344000  0.38826000  1.0
  C  C25  1  0.32709000  0.27342000  0.24947000  1.0
  C  C26  1  0.92269000  0.97627000  0.24944000  1.0
  C  C27  1  0.40364000  0.67319000  0.72464000  1.0
  C  C28  1  0.32063000  0.05078000  0.72429000  1.0
  C  C29  1  0.78169000  0.46284000  0.07104000  1.0
  C  C30  1  0.28950000  0.60856000  0.07183000  1.0
  N  N31  1  0.52368000  0.27603000  0.28390000  1.0
  N  N32  1  0.76072000  0.00842000  0.28394000  1.0
  O  O33  1  0.56372000  0.81399000  0.88150000  1.0
  O  O34  1  0.31754000  0.06707000  0.88131000  1.0
  O  O35  1  0.21319000  0.63064000  0.69013000  1.0
  O  O36  1  0.47643000  0.05841000  0.68953000  1.0
  O  O37  1  0.80737000  0.27290000  0.03608000  1.0
  O  O38  1  0.22893000  0.76354000  0.03689000  1.0
