# generated using pymatgen
data_LiH12C7SNO3
_symmetry_space_group_name_H-M   'P 1'
_cell_length_a   8.98440000
_cell_length_b   9.86561000
_cell_length_c   10.78990000
_cell_angle_alpha   89.99980000
_cell_angle_beta   92.92010000
_cell_angle_gamma   89.99990000
_symmetry_Int_Tables_number   1
_chemical_formula_structural   LiH12C7SNO3
_chemical_formula_sum   'Li4 H48 C28 S4 N4 O12'
_cell_volume   955.13809029
_cell_formula_units_Z   4
loop_
 _symmetry_equiv_pos_site_id
 _symmetry_equiv_pos_as_xyz
  1  'x, y, z'
loop_
 _atom_site_type_symbol
 _atom_site_label
 _atom_site_symmetry_multiplicity
 _atom_site_fract_x
 _atom_site_fract_y
 _atom_site_fract_z
 _atom_site_occupancy
  Li  Li0  1  0.84156000  0.08558000  0.82611000  1.0
  Li  Li1  1  0.84156000  0.41442000  0.32611000  1.0
  Li  Li2  1  0.15844000  0.91442000  0.17389000  1.0
  Li  Li3  1  0.15844000  0.58558000  0.67389000  1.0
  H  H4  1  0.09572000  0.23929000  0.18171000  1.0
  H  H5  1  0.09572000  0.26072000  0.68171000  1.0
  H  H6  1  0.90428000  0.76071000  0.81829000  1.0
  H  H7  1  0.90428000  0.73929000  0.31830000  1.0
  H  H8  1  0.98773000  0.32409000  0.06073000  1.0
  H  H9  1  0.98773000  0.17591000  0.56073000  1.0
  H  H10  1  0.01227000  0.67591000  0.93927000  1.0
  H  H11  1  0.01227000  0.82409000  0.43927000  1.0
  H  H12  1  0.93647000  0.15572000  0.10741000  1.0
  H  H13  1  0.93647000  0.34429000  0.60741000  1.0
  H  H14  1  0.06353000  0.84428000  0.89259000  1.0
  H  H15  1  0.06353000  0.65572000  0.39259000  1.0
  H  H16  1  0.50105000  0.22435000  0.78528000  1.0
  H  H17  1  0.50105000  0.27565000  0.28528000  1.0
  H  H18  1  0.49895000  0.77565000  0.21472000  1.0
  H  H19  1  0.49895000  0.72436000  0.71472000  1.0
  H  H20  1  0.60707000  0.18821000  0.65283000  1.0
  H  H21  1  0.60708000  0.31179000  0.15283000  1.0
  H  H22  1  0.39292000  0.81179000  0.34717000  1.0
  H  H23  1  0.39292000  0.68821000  0.84717000  1.0
  H  H24  1  0.46023000  0.43370000  0.66962000  1.0
  H  H25  1  0.46023000  0.06631000  0.16962000  1.0
  H  H26  1  0.53977000  0.56631000  0.33038000  1.0
  H  H27  1  0.53977000  0.93370000  0.83038000  1.0
  H  H28  1  0.64209000  0.42907000  0.61174000  1.0
  H  H29  1  0.64209000  0.07094000  0.11174000  1.0
  H  H30  1  0.35791000  0.57094000  0.38826000  1.0
  H  H31  1  0.35791000  0.92906000  0.88826000  1.0
  H  H32  1  0.68185000  0.58197000  0.78749000  1.0
  H  H33  1  0.68185000  0.91803000  0.28749000  1.0
  H  H34  1  0.31815000  0.41803000  0.21251000  1.0
  H  H35  1  0.31815000  0.08198000  0.71251000  1.0
  H  H36  1  0.55761000  0.48825000  0.87816000  1.0
  H  H37  1  0.55761000  0.01175000  0.37816000  1.0
  H  H38  1  0.44239000  0.51175000  0.12184000  1.0
  H  H39  1  0.44239000  0.98825000  0.62184000  1.0
  H  H40  1  0.87616000  0.41694000  0.81746000  1.0
  H  H41  1  0.87616000  0.08306000  0.31746000  1.0
  H  H42  1  0.12384000  0.58307000  0.18254000  1.0
  H  H43  1  0.12384000  0.91694000  0.68254000  1.0
  H  H44  1  0.78103000  0.38332000  0.95602000  1.0
  H  H45  1  0.78103000  0.11668000  0.45602000  1.0
  H  H46  1  0.21897000  0.61668000  0.04398000  1.0
  H  H47  1  0.21897000  0.88332000  0.54398000  1.0
  H  H48  1  0.38571000  0.25529000  0.00565000  1.0
  H  H49  1  0.38571000  0.24471000  0.50565000  1.0
  H  H50  1  0.61429000  0.74471000  0.99436000  1.0
  H  H51  1  0.61430000  0.75529000  0.49436000  1.0
  C  C52  1  0.28141000  0.26566000  0.95114000  1.0
  C  C53  1  0.28140000  0.23434000  0.45114000  1.0
  C  C54  1  0.71860000  0.73434000  0.04886000  1.0
  C  C55  1  0.71860000  0.76566000  0.54886000  1.0
  C  C56  1  0.24162000  0.38121000  0.88618000  1.0
  C  C57  1  0.24163000  0.11879000  0.38618000  1.0
  C  C58  1  0.75837000  0.61879000  0.11382000  1.0
  C  C59  1  0.75837000  0.88121000  0.61382000  1.0
  C  C60  1  0.02923000  0.22581000  0.09481000  1.0
  C  C61  1  0.02923000  0.27418000  0.59481000  1.0
  C  C62  1  0.97077000  0.77418000  0.90519000  1.0
  C  C63  1  0.97077000  0.72581000  0.40519000  1.0
  C  C64  1  0.59405000  0.25864000  0.73040000  1.0
  C  C65  1  0.59405000  0.24136000  0.23040000  1.0
  C  C66  1  0.40595000  0.74136000  0.26960000  1.0
  C  C67  1  0.40595000  0.75864000  0.76960000  1.0
  C  C68  1  0.57677000  0.40637000  0.69245000  1.0
  C  C69  1  0.57677000  0.09363000  0.19244000  1.0
  C  C70  1  0.42323000  0.59363000  0.30755000  1.0
  C  C71  1  0.42323000  0.90637000  0.80755000  1.0
  C  C72  1  0.64185000  0.47988000  0.80810000  1.0
  C  C73  1  0.64185000  0.02012000  0.30810000  1.0
  C  C74  1  0.35815000  0.52012000  0.19190000  1.0
  C  C75  1  0.35815000  0.97988000  0.69190000  1.0
  C  C76  1  0.76889000  0.38730000  0.85428000  1.0
  C  C77  1  0.76889000  0.11270000  0.35428000  1.0
  C  C78  1  0.23111000  0.61271000  0.14572000  1.0
  C  C79  1  0.23111000  0.88730000  0.64572000  1.0
  S  S80  1  0.14471000  0.15555000  0.98181000  1.0
  S  S81  1  0.14470000  0.34444000  0.48180000  1.0
  S  S82  1  0.85529000  0.84444000  0.01819000  1.0
  S  S83  1  0.85529000  0.65555000  0.51819000  1.0
  N  N84  1  0.20241000  0.47788000  0.82867000  1.0
  N  N85  1  0.20241000  0.02212000  0.32867000  1.0
  N  N86  1  0.79760000  0.52212000  0.17133000  1.0
  N  N87  1  0.79760000  0.97788000  0.67133000  1.0
  O  O88  1  0.04664000  0.13568000  0.86986000  1.0
  O  O89  1  0.04664000  0.36431000  0.36986000  1.0
  O  O90  1  0.95336000  0.86431000  0.13013000  1.0
  O  O91  1  0.95336000  0.63568000  0.63014000  1.0
  O  O92  1  0.21357000  0.03314000  0.03694000  1.0
  O  O93  1  0.21357000  0.46686000  0.53694000  1.0
  O  O94  1  0.78643000  0.96686000  0.96306000  1.0
  O  O95  1  0.78644000  0.53314000  0.46306000  1.0
  O  O96  1  0.73106000  0.25229000  0.80790000  1.0
  O  O97  1  0.73106000  0.24771000  0.30790000  1.0
  O  O98  1  0.26894000  0.74771000  0.19210000  1.0
  O  O99  1  0.26894000  0.75229000  0.69210000  1.0
