# generated using pymatgen
data_SmH23C38(NO2)4
_symmetry_space_group_name_H-M   'P 1'
_cell_length_a   9.08873000
_cell_length_b   13.60500000
_cell_length_c   14.12800000
_cell_angle_alpha   97.24810000
_cell_angle_beta   96.68190000
_cell_angle_gamma   105.14800000
_symmetry_Int_Tables_number   1
_chemical_formula_structural   SmH23C38(NO2)4
_chemical_formula_sum   'Sm2 H46 C76 N8 O16'
_cell_volume   1652.31765089
_cell_formula_units_Z   2
loop_
 _symmetry_equiv_pos_site_id
 _symmetry_equiv_pos_as_xyz
  1  'x, y, z'
loop_
 _atom_site_type_symbol
 _atom_site_label
 _atom_site_symmetry_multiplicity
 _atom_site_fract_x
 _atom_site_fract_y
 _atom_site_fract_z
 _atom_site_occupancy
  Sm  Sm0  1  0.36980000  0.35778000  0.01218000  1.0
  Sm  Sm1  1  0.63020000  0.64223000  0.98782000  1.0
  H  H2  1  0.28432000  0.90988000  0.33239000  1.0
  H  H3  1  0.71568000  0.09012000  0.66761000  1.0
  H  H4  1  0.73319000  0.23525000  0.20781000  1.0
  H  H5  1  0.26681000  0.76474000  0.79219000  1.0
  H  H6  1  0.72185000  0.17611000  0.48750000  1.0
  H  H7  1  0.27815000  0.82389000  0.51250000  1.0
  H  H8  1  0.31299000  0.21452000  0.32609000  1.0
  H  H9  1  0.68701000  0.78548000  0.67390000  1.0
  H  H10  1  0.56688000  0.33059000  0.57381000  1.0
  H  H11  1  0.43312000  0.66941000  0.42619000  1.0
  H  H12  1  0.43186000  0.33217000  0.71651000  1.0
  H  H13  1  0.56814000  0.66783000  0.28349000  1.0
  H  H14  1  0.20791000  0.18526000  0.72572000  1.0
  H  H15  1  0.79209000  0.81474000  0.27428000  1.0
  H  H16  1  0.12957000  0.03152000  0.59368000  1.0
  H  H17  1  0.87043000  0.96849000  0.40632000  1.0
  H  H18  1  0.61146000  0.21035000  0.80067000  1.0
  H  H19  1  0.38854000  0.78966000  0.19933000  1.0
  H  H20  1  0.96458000  0.22231000  0.63956000  1.0
  H  H21  1  0.03542000  0.77769000  0.36044000  1.0
  H  H22  1  0.94086000  0.50398000  0.80886000  1.0
  H  H23  1  0.05914000  0.49602000  0.19115000  1.0
  H  H24  1  0.98127000  0.39676000  0.53882000  1.0
  H  H25  1  0.01873000  0.60324000  0.46118000  1.0
  H  H26  1  0.20056000  0.48352000  0.46240000  1.0
  H  H27  1  0.79944000  0.51648000  0.53761000  1.0
  H  H28  1  0.45975000  0.56640000  0.56300000  1.0
  H  H29  1  0.54025000  0.43360000  0.43700000  1.0
  H  H30  1  0.49660000  0.55508000  0.73762000  1.0
  H  H31  1  0.50341000  0.44492000  0.26239000  1.0
  H  H32  1  0.03780000  0.39479000  0.07413000  1.0
  H  H33  1  0.96219000  0.60520000  0.92587000  1.0
  H  H34  1  0.75482000  0.30972000  0.07442000  1.0
  H  H35  1  0.24517000  0.69027000  0.92558000  1.0
  H  H36  1  0.64379000  0.12688000  0.99891000  1.0
  H  H37  1  0.35622000  0.87311000  0.00109000  1.0
  H  H38  1  0.67822000  0.96938000  0.89724000  1.0
  H  H39  1  0.32177000  0.03062000  0.10276000  1.0
  H  H40  1  0.84961000  0.88261000  0.81735000  1.0
  H  H41  1  0.15039000  0.11738000  0.18265000  1.0
  H  H42  1  0.11303000  0.88959000  0.77302000  1.0
  H  H43  1  0.88697000  0.11041000  0.22698000  1.0
  H  H44  1  0.39312000  0.98554000  0.79568000  1.0
  H  H45  1  0.60689000  0.01446000  0.20432000  1.0
  H  H46  1  0.48295000  0.16346000  0.89521000  1.0
  H  H47  1  0.51705000  0.83654000  0.10479000  1.0
  C  C48  1  0.44622000  0.25502000  0.16489000  1.0
  C  C49  1  0.55378000  0.74498000  0.83510000  1.0
  C  C50  1  0.51323000  0.22567000  0.25493000  1.0
  C  C51  1  0.48677000  0.77433000  0.74507000  1.0
  C  C52  1  0.66691000  0.22204000  0.26690000  1.0
  C  C53  1  0.33309000  0.77796000  0.73310000  1.0
  C  C54  1  0.65991000  0.19027000  0.42189000  1.0
  C  C55  1  0.34010000  0.80973000  0.57810000  1.0
  C  C56  1  0.50486000  0.19057000  0.41731000  1.0
  C  C57  1  0.49515000  0.80943000  0.58268000  1.0
  C  C58  1  0.43154000  0.20970000  0.33194000  1.0
  C  C59  1  0.56846000  0.79030000  0.66806000  1.0
  C  C60  1  0.42524000  0.18060000  0.50299000  1.0
  C  C61  1  0.57477000  0.81940000  0.49701000  1.0
  C  C62  1  0.47112000  0.26461000  0.57887000  1.0
  C  C63  1  0.52889000  0.73539000  0.42113000  1.0
  C  C64  1  0.39477000  0.26599000  0.65881000  1.0
  C  C65  1  0.60523000  0.73402000  0.34119000  1.0
  C  C66  1  0.26996000  0.18294000  0.66439000  1.0
  C  C67  1  0.73004000  0.81706000  0.33561000  1.0
  C  C68  1  0.22571000  0.09787000  0.59112000  1.0
  C  C69  1  0.77430000  0.90214000  0.40888000  1.0
  C  C70  1  0.30195000  0.09508000  0.51034000  1.0
  C  C71  1  0.69806000  0.90492000  0.48966000  1.0
  C  C72  1  0.24533000  0.99699000  0.43935000  1.0
  C  C73  1  0.75465000  0.00300000  0.56065000  1.0
  C  C74  1  0.76763000  0.36321000  0.81607000  1.0
  C  C75  1  0.23237000  0.63679000  0.18394000  1.0
  C  C76  1  0.71582000  0.25737000  0.78052000  1.0
  C  C77  1  0.28418000  0.74263000  0.21948000  1.0
  C  C78  1  0.91301000  0.26541000  0.69020000  1.0
  C  C79  1  0.08699000  0.73459000  0.30980000  1.0
  C  C80  1  0.97554000  0.37176000  0.72165000  1.0
  C  C81  1  0.02446000  0.62824000  0.27835000  1.0
  C  C82  1  0.89966000  0.42083000  0.78507000  1.0
  C  C83  1  0.10034000  0.57918000  0.21494000  1.0
  C  C84  1  0.67893000  0.41127000  0.88327000  1.0
  C  C85  1  0.32107000  0.58873000  0.11673000  1.0
  C  C86  1  0.11242000  0.42712000  0.68176000  1.0
  C  C87  1  0.88758000  0.57289000  0.31825000  1.0
  C  C88  1  0.09420000  0.43234000  0.58279000  1.0
  C  C89  1  0.90580000  0.56767000  0.41721000  1.0
  C  C90  1  0.21795000  0.48155000  0.53980000  1.0
  C  C91  1  0.78205000  0.51845000  0.46021000  1.0
  C  C92  1  0.36243000  0.52745000  0.59571000  1.0
  C  C93  1  0.63757000  0.47256000  0.40429000  1.0
  C  C94  1  0.38280000  0.52253000  0.69413000  1.0
  C  C95  1  0.61721000  0.47747000  0.30587000  1.0
  C  C96  1  0.25997000  0.47195000  0.73778000  1.0
  C  C97  1  0.74003000  0.52806000  0.26223000  1.0
  C  C98  1  0.29627000  0.45220000  0.83841000  1.0
  C  C99  1  0.70372000  0.54780000  0.16159000  1.0
  C  C100  1  0.98344000  0.31474000  0.04095000  1.0
  C  C101  1  0.01656000  0.68526000  0.95905000  1.0
  C  C102  1  0.82676000  0.26746000  0.04091000  1.0
  C  C103  1  0.17323000  0.73254000  0.95909000  1.0
  C  C104  1  0.76424000  0.16594000  0.99705000  1.0
  C  C105  1  0.23576000  0.83406000  0.00295000  1.0
  C  C106  1  0.85716000  0.11354000  0.95000000  1.0
  C  C107  1  0.14284000  0.88646000  0.05000000  1.0
  C  C108  1  0.01523000  0.16776000  0.95485000  1.0
  C  C109  1  0.98478000  0.83224000  0.04515000  1.0
  C  C110  1  0.79960000  0.00981000  0.89934000  1.0
  C  C111  1  0.20040000  0.99018000  0.10066000  1.0
  C  C112  1  0.89384000  0.96210000  0.85474000  1.0
  C  C113  1  0.10616000  0.03790000  0.14526000  1.0
  C  C114  1  0.05397000  0.01385000  0.85906000  1.0
  C  C115  1  0.94604000  0.98614000  0.14094000  1.0
  C  C116  1  0.11562000  0.11629000  0.91044000  1.0
  C  C117  1  0.88438000  0.88370000  0.08956000  1.0
  C  C118  1  0.15635000  0.96669000  0.81594000  1.0
  C  C119  1  0.84365000  0.03331000  0.18406000  1.0
  C  C120  1  0.31125000  0.01953000  0.82836000  1.0
  C  C121  1  0.68876000  0.98047000  0.17164000  1.0
  C  C122  1  0.36193000  0.11925000  0.88269000  1.0
  C  C123  1  0.63807000  0.88075000  0.11731000  1.0
  N  N124  1  0.74019000  0.20523000  0.34838000  1.0
  N  N125  1  0.25981000  0.79477000  0.65161000  1.0
  N  N126  1  0.78636000  0.20961000  0.71917000  1.0
  N  N127  1  0.21364000  0.79039000  0.28084000  1.0
  N  N128  1  0.07653000  0.26634000  0.00131000  1.0
  N  N129  1  0.92347000  0.73366000  0.99869000  1.0
  N  N130  1  0.26773000  0.16750000  0.92122000  1.0
  N  N131  1  0.73227000  0.83249000  0.07878000  1.0
  O  O132  1  0.32886000  0.29053000  0.16518000  1.0
  O  O133  1  0.67114000  0.70947000  0.83482000  1.0
  O  O134  1  0.51184000  0.24875000  0.09001000  1.0
  O  O135  1  0.48816000  0.75126000  0.90999000  1.0
  O  O136  1  0.33270000  0.98433000  0.37152000  1.0
  O  O137  1  0.66730000  0.01567000  0.62848000  1.0
  O  O138  1  0.12648000  0.93061000  0.44607000  1.0
  O  O139  1  0.87354000  0.06940000  0.55392000  1.0
  O  O140  1  0.56234000  0.35095000  0.90788000  1.0
  O  O141  1  0.43766000  0.64906000  0.09212000  1.0
  O  O142  1  0.72616000  0.50866000  0.91018000  1.0
  O  O143  1  0.27384000  0.49134000  0.08982000  1.0
  O  O144  1  0.22237000  0.36729000  0.86015000  1.0
  O  O145  1  0.77762000  0.63271000  0.13985000  1.0
  O  O146  1  0.40633000  0.51658000  0.89869000  1.0
  O  O147  1  0.59366000  0.48342000  0.10131000  1.0
