# generated using pymatgen
data_CdH12C7N5ClO6
_symmetry_space_group_name_H-M   'P 1'
_cell_length_a   6.72765000
_cell_length_b   8.82386000
_cell_length_c   11.28310000
_cell_angle_alpha   87.76790000
_cell_angle_beta   77.06890000
_cell_angle_gamma   77.59910000
_symmetry_Int_Tables_number   1
_chemical_formula_structural   CdH12C7N5ClO6
_chemical_formula_sum   'Cd2 H24 C14 N10 Cl2 O12'
_cell_volume   637.56150159
_cell_formula_units_Z   2
loop_
 _symmetry_equiv_pos_site_id
 _symmetry_equiv_pos_as_xyz
  1  'x, y, z'
loop_
 _atom_site_type_symbol
 _atom_site_label
 _atom_site_symmetry_multiplicity
 _atom_site_fract_x
 _atom_site_fract_y
 _atom_site_fract_z
 _atom_site_occupancy
  Cd  Cd0  1  0.65855000  0.72508000  0.63607000  1.0
  Cd  Cd1  1  0.34145000  0.27492000  0.36393000  1.0
  H  H2  1  0.86880000  0.40886000  0.58998000  1.0
  H  H3  1  0.13120000  0.59114000  0.41002000  1.0
  H  H4  1  0.65475000  0.39693000  0.56377000  1.0
  H  H5  1  0.34525000  0.60307000  0.43623000  1.0
  H  H6  1  0.27175000  0.50900000  0.95686000  1.0
  H  H7  1  0.72825000  0.49100000  0.04314000  1.0
  H  H8  1  0.05913000  0.57205000  0.08398000  1.0
  H  H9  1  0.94087000  0.42795000  0.91602000  1.0
  H  H10  1  0.31904000  0.51870000  0.10670000  1.0
  H  H11  1  0.68097000  0.48130000  0.89331000  1.0
  H  H12  1  0.08685000  0.69197000  0.23916000  1.0
  H  H13  1  0.91314000  0.30804000  0.76084000  1.0
  H  H14  1  0.24066000  0.71833000  0.61731000  1.0
  H  H15  1  0.75934000  0.28167000  0.38269000  1.0
  H  H16  1  0.31530000  0.85274000  0.52995000  1.0
  H  H17  1  0.68470000  0.14726000  0.47005000  1.0
  H  H18  1  0.20945000  0.25770000  0.03589000  1.0
  H  H19  1  0.79056000  0.74230000  0.96410000  1.0
  H  H20  1  0.34381000  0.21989000  0.87618000  1.0
  H  H21  1  0.65620000  0.78010000  0.12382000  1.0
  H  H22  1  0.92793000  0.02791000  0.28172000  1.0
  H  H23  1  0.07206000  0.97209000  0.71828000  1.0
  H  H24  1  0.13955000  0.94475000  0.34706000  1.0
  H  H25  1  0.86044000  0.05526000  0.65294000  1.0
  C  C26  1  0.22288000  0.57271000  0.04327000  1.0
  C  C27  1  0.77713000  0.42728000  0.95674000  1.0
  C  C28  1  0.17109000  0.84557000  0.10486000  1.0
  C  C29  1  0.82890000  0.15443000  0.89514000  1.0
  C  C30  1  0.26764000  0.03748000  0.97515000  1.0
  C  C31  1  0.73236000  0.96252000  0.02485000  1.0
  C  C32  1  0.36226000  0.92716000  0.87713000  1.0
  C  C33  1  0.63774000  0.07284000  0.12287000  1.0
  C  C34  1  0.35155000  0.76551000  0.89963000  1.0
  C  C35  1  0.64846000  0.23448000  0.10037000  1.0
  C  C36  1  0.00728000  0.91838000  0.31487000  1.0
  C  C37  1  0.99271000  0.08162000  0.68513000  1.0
  C  C38  1  0.86784000  0.85972000  0.42315000  1.0
  C  C39  1  0.13216000  0.14028000  0.57685000  1.0
  N  N40  1  0.24727000  0.73151000  0.01591000  1.0
  N  N41  1  0.75273000  0.26849000  0.98409000  1.0
  N  N42  1  0.08309000  0.80526000  0.21620000  1.0
  N  N43  1  0.91690000  0.19475000  0.78380000  1.0
  N  N44  1  0.17773000  0.99399000  0.08510000  1.0
  N  N45  1  0.82227000  0.00601000  0.91490000  1.0
  N  N46  1  0.27163000  0.18794000  0.96047000  1.0
  N  N47  1  0.72838000  0.81205000  0.03953000  1.0
  N  N48  1  0.47150000  0.95749000  0.76612000  1.0
  N  N49  1  0.52850000  0.04251000  0.23388000  1.0
  Cl  Cl50  1  0.96756000  0.66808000  0.74371000  1.0
  Cl  Cl51  1  0.03245000  0.33192000  0.25629000  1.0
  O  O52  1  0.71671000  0.45218000  0.61612000  1.0
  O  O53  1  0.28329000  0.54782000  0.38388000  1.0
  O  O54  1  0.35888000  0.74095000  0.55365000  1.0
  O  O55  1  0.64111000  0.25905000  0.44635000  1.0
  O  O56  1  0.48512000  0.09652000  0.73926000  1.0
  O  O57  1  0.51489000  0.90347000  0.26074000  1.0
  O  O58  1  0.42988000  0.65836000  0.82366000  1.0
  O  O59  1  0.57012000  0.34163000  0.17635000  1.0
  O  O60  1  0.88121000  0.71381000  0.43642000  1.0
  O  O61  1  0.11879000  0.28620000  0.56358000  1.0
  O  O62  1  0.74991000  0.95874000  0.50055000  1.0
  O  O63  1  0.25009000  0.04127000  0.49946000  1.0
