# generated using pymatgen
data_MgH14C12(NO4)2
_symmetry_space_group_name_H-M   'P 1'
_cell_length_a   6.23830000
_cell_length_b   8.20713000
_cell_length_c   13.59820000
_cell_angle_alpha   89.99990000
_cell_angle_beta   90.00000000
_cell_angle_gamma   89.99990000
_symmetry_Int_Tables_number   1
_chemical_formula_structural   MgH14C12(NO4)2
_chemical_formula_sum   'Mg2 H28 C24 N4 O16'
_cell_volume   696.20797410
_cell_formula_units_Z   2
loop_
 _symmetry_equiv_pos_site_id
 _symmetry_equiv_pos_as_xyz
  1  'x, y, z'
loop_
 _atom_site_type_symbol
 _atom_site_label
 _atom_site_symmetry_multiplicity
 _atom_site_fract_x
 _atom_site_fract_y
 _atom_site_fract_z
 _atom_site_occupancy
  Mg  Mg0  1  0.00000000  0.95877000  0.50000000  1.0
  Mg  Mg1  1  0.50000000  0.04124000  0.00000000  1.0
  H  H2  1  0.67739000  0.83138000  0.41070000  1.0
  H  H3  1  0.32261000  0.83138000  0.58930000  1.0
  H  H4  1  0.82261000  0.16862000  0.91070000  1.0
  H  H5  1  0.17739000  0.16862000  0.08930000  1.0
  H  H6  1  0.73577000  0.67883000  0.48564000  1.0
  H  H7  1  0.26423000  0.67883000  0.51436000  1.0
  H  H8  1  0.76423000  0.32117000  0.98564000  1.0
  H  H9  1  0.23577000  0.32117000  0.01436000  1.0
  H  H10  1  0.69818000  0.96196000  0.64661000  1.0
  H  H11  1  0.30183000  0.96196000  0.35339000  1.0
  H  H12  1  0.80182000  0.03804000  0.14661000  1.0
  H  H13  1  0.19818000  0.03804000  0.85339000  1.0
  H  H14  1  0.91469000  0.98763000  0.70320000  1.0
  H  H15  1  0.08531000  0.98763000  0.29680000  1.0
  H  H16  1  0.58531000  0.01237000  0.20320000  1.0
  H  H17  1  0.41469000  0.01237000  0.79680000  1.0
  H  H18  1  0.35525000  0.19201000  0.23679000  1.0
  H  H19  1  0.64475000  0.19201000  0.76321000  1.0
  H  H20  1  0.14475000  0.80799000  0.73679000  1.0
  H  H21  1  0.85525000  0.80799000  0.26321000  1.0
  H  H22  1  0.10274000  0.42383000  0.21818000  1.0
  H  H23  1  0.89726000  0.42383000  0.78182000  1.0
  H  H24  1  0.39725000  0.57617000  0.71818000  1.0
  H  H25  1  0.60275000  0.57617000  0.28182000  1.0
  H  H26  1  0.08250000  0.63212000  0.35536000  1.0
  H  H27  1  0.91750000  0.63212000  0.64464000  1.0
  H  H28  1  0.41750000  0.36788000  0.85536000  1.0
  H  H29  1  0.58250000  0.36788000  0.14464000  1.0
  C  C30  1  0.61493000  0.12352000  0.39167000  1.0
  C  C31  1  0.38507000  0.12352000  0.60833000  1.0
  C  C32  1  0.88507000  0.87648000  0.89167000  1.0
  C  C33  1  0.11493000  0.87648000  0.10833000  1.0
  C  C34  1  0.44060000  0.38776000  0.45252000  1.0
  C  C35  1  0.55940000  0.38776000  0.54748000  1.0
  C  C36  1  0.05940000  0.61224000  0.95252000  1.0
  C  C37  1  0.94060000  0.61223000  0.04748000  1.0
  C  C38  1  0.46670000  0.26755000  0.37979000  1.0
  C  C39  1  0.53330000  0.26755000  0.62021000  1.0
  C  C40  1  0.03330000  0.73245000  0.87979000  1.0
  C  C41  1  0.96670000  0.73245000  0.12021000  1.0
  C  C42  1  0.34083000  0.28167000  0.29512000  1.0
  C  C43  1  0.65917000  0.28167000  0.70488000  1.0
  C  C44  1  0.15917000  0.71833000  0.79512000  1.0
  C  C45  1  0.84083000  0.71834000  0.20488000  1.0
  C  C46  1  0.19970000  0.41139000  0.28424000  1.0
  C  C47  1  0.80030000  0.41139000  0.71576000  1.0
  C  C48  1  0.30030000  0.58861000  0.78424000  1.0
  C  C49  1  0.69970000  0.58861000  0.21576000  1.0
  C  C50  1  0.18797000  0.52632000  0.35916000  1.0
  C  C51  1  0.81203000  0.52632000  0.64084000  1.0
  C  C52  1  0.31203000  0.47368000  0.85916000  1.0
  C  C53  1  0.68797000  0.47368000  0.14084000  1.0
  N  N54  1  0.30733000  0.51500000  0.44103000  1.0
  N  N55  1  0.69267000  0.51500000  0.55897000  1.0
  N  N56  1  0.19267000  0.48500000  0.94103000  1.0
  N  N57  1  0.80733000  0.48500000  0.05897000  1.0
  O  O58  1  0.77631000  0.13460000  0.44716000  1.0
  O  O59  1  0.22369000  0.13459000  0.55284000  1.0
  O  O60  1  0.72369000  0.86541000  0.94717000  1.0
  O  O61  1  0.27631000  0.86541000  0.05284000  1.0
  O  O62  1  0.56260000  0.99344000  0.34368000  1.0
  O  O63  1  0.43741000  0.99344000  0.65632000  1.0
  O  O64  1  0.93740000  0.00656000  0.84368000  1.0
  O  O65  1  0.06260000  0.00655000  0.15632000  1.0
  O  O66  1  0.79037000  0.77954000  0.45098000  1.0
  O  O67  1  0.20964000  0.77954000  0.54902000  1.0
  O  O68  1  0.70964000  0.22046000  0.95098000  1.0
  O  O69  1  0.29036000  0.22046000  0.04902000  1.0
  O  O70  1  0.85731000  0.95106000  0.63963000  1.0
  O  O71  1  0.14269000  0.95106000  0.36037000  1.0
  O  O72  1  0.64269000  0.04894000  0.13963000  1.0
  O  O73  1  0.35731000  0.04894000  0.86037000  1.0
