# generated using pymatgen
data_CdH9C12N3O4
_symmetry_space_group_name_H-M   'P 1'
_cell_length_a   7.80891000
_cell_length_b   8.71236000
_cell_length_c   8.77669000
_cell_angle_alpha   84.74130000
_cell_angle_beta   88.84990000
_cell_angle_gamma   88.02740000
_symmetry_Int_Tables_number   1
_chemical_formula_structural   CdH9C12N3O4
_chemical_formula_sum   'Cd2 H18 C24 N6 O8'
_cell_volume   594.16217977
_cell_formula_units_Z   2
loop_
 _symmetry_equiv_pos_site_id
 _symmetry_equiv_pos_as_xyz
  1  'x, y, z'
loop_
 _atom_site_type_symbol
 _atom_site_label
 _atom_site_symmetry_multiplicity
 _atom_site_fract_x
 _atom_site_fract_y
 _atom_site_fract_z
 _atom_site_occupancy
  Cd  Cd0  1  0.25372000  0.38085000  0.57226000  1.0
  Cd  Cd1  1  0.74628000  0.61915000  0.42774000  1.0
  H  H2  1  0.15300000  0.16132000  0.87864000  1.0
  H  H3  1  0.84699000  0.83868000  0.12136000  1.0
  H  H4  1  0.11123000  0.88213000  0.96810000  1.0
  H  H5  1  0.88876000  0.11786000  0.03190000  1.0
  H  H6  1  0.14916000  0.68538000  0.77395000  1.0
  H  H7  1  0.85083000  0.31462000  0.22604000  1.0
  H  H8  1  0.22668000  0.77450000  0.50544000  1.0
  H  H9  1  0.77332000  0.22550000  0.49456000  1.0
  H  H10  1  0.37230000  0.88303000  0.25737000  1.0
  H  H11  1  0.62771000  0.11697000  0.74263000  1.0
  H  H12  1  0.44041000  0.13118000  0.04611000  1.0
  H  H13  1  0.55959000  0.86882000  0.95389000  1.0
  H  H14  1  0.42671000  0.40019000  0.04355000  1.0
  H  H15  1  0.57329000  0.59981000  0.95645000  1.0
  H  H16  1  0.11837000  0.43599000  0.04618000  1.0
  H  H17  1  0.88163000  0.56401000  0.95382000  1.0
  H  H18  1  0.22271000  0.61005000  0.05391000  1.0
  H  H19  1  0.77729000  0.38995000  0.94609000  1.0
  C  C20  1  0.16766000  0.07086000  0.80072000  1.0
  C  C21  1  0.83233000  0.92914000  0.19928000  1.0
  C  C22  1  0.14397000  0.91607000  0.84879000  1.0
  C  C23  1  0.85602000  0.08393000  0.15121000  1.0
  C  C24  1  0.16561000  0.80778000  0.74168000  1.0
  C  C25  1  0.83439000  0.19222000  0.25832000  1.0
  C  C26  1  0.21047000  0.85697000  0.59108000  1.0
  C  C27  1  0.78953000  0.14303000  0.40891000  1.0
  C  C28  1  0.23422000  0.01403000  0.55212000  1.0
  C  C29  1  0.76579000  0.98597000  0.44788000  1.0
  C  C30  1  0.28680000  0.07667000  0.39848000  1.0
  C  C31  1  0.71320000  0.92333000  0.60152000  1.0
  C  C32  1  0.35061000  0.00518000  0.26958000  1.0
  C  C33  1  0.64940000  0.99481000  0.73042000  1.0
  C  C34  1  0.38796000  0.12687000  0.16178000  1.0
  C  C35  1  0.61204000  0.87313000  0.83822000  1.0
  C  C36  1  0.48614000  0.51392000  0.24058000  1.0
  C  C37  1  0.51386000  0.48608000  0.75942000  1.0
  C  C38  1  0.36481000  0.41703000  0.15511000  1.0
  C  C39  1  0.63519000  0.58297000  0.84489000  1.0
  C  C40  1  0.19309000  0.50095000  0.12123000  1.0
  C  C41  1  0.80691000  0.49905000  0.87877000  1.0
  C  C42  1  0.08317000  0.54466000  0.25713000  1.0
  C  C43  1  0.91683000  0.45534000  0.74287000  1.0
  N  N44  1  0.21213000  0.11845000  0.65662000  1.0
  N  N45  1  0.78786000  0.88155000  0.34338000  1.0
  N  N46  1  0.28443000  0.23115000  0.36840000  1.0
  N  N47  1  0.71558000  0.76885000  0.63160000  1.0
  N  N48  1  0.34647000  0.26019000  0.22568000  1.0
  N  N49  1  0.65353000  0.73981000  0.77432000  1.0
  O  O50  1  0.56223000  0.44764000  0.35750000  1.0
  O  O51  1  0.43777000  0.55236000  0.64250000  1.0
  O  O52  1  0.50737000  0.65034000  0.18458000  1.0
  O  O53  1  0.49263000  0.34966000  0.81542000  1.0
  O  O54  1  0.15036000  0.56785000  0.38286000  1.0
  O  O55  1  0.84965000  0.43215000  0.61714000  1.0
  O  O56  1  0.92326000  0.56183000  0.22978000  1.0
  O  O57  1  0.07673000  0.43816000  0.77022000  1.0
