# generated using pymatgen
data_CuH6C8(N2O)3
_symmetry_space_group_name_H-M   'P 1'
_cell_length_a   7.06169000
_cell_length_b   7.23067000
_cell_length_c   11.48460000
_cell_angle_alpha   80.56060000
_cell_angle_beta   78.35870000
_cell_angle_gamma   76.37500000
_symmetry_Int_Tables_number   1
_chemical_formula_structural   CuH6C8(N2O)3
_chemical_formula_sum   'Cu2 H12 C16 N12 O6'
_cell_volume   553.99228104
_cell_formula_units_Z   2
loop_
 _symmetry_equiv_pos_site_id
 _symmetry_equiv_pos_as_xyz
  1  'x, y, z'
loop_
 _atom_site_type_symbol
 _atom_site_label
 _atom_site_symmetry_multiplicity
 _atom_site_fract_x
 _atom_site_fract_y
 _atom_site_fract_z
 _atom_site_occupancy
  Cu  Cu0  1  0.98718000  0.92223000  0.24376000  1.0
  Cu  Cu1  1  0.01284000  0.07777000  0.75624000  1.0
  H  H2  1  0.38222000  0.12440000  0.91397000  1.0
  H  H3  1  0.61777000  0.87561000  0.08603000  1.0
  H  H4  1  0.53186000  0.24553000  0.80114000  1.0
  H  H5  1  0.46814000  0.75447000  0.19886000  1.0
  H  H6  1  0.66727000  0.69804000  0.59156000  1.0
  H  H7  1  0.33273000  0.30196000  0.40844000  1.0
  H  H8  1  0.57472000  0.57181000  0.72805000  1.0
  H  H9  1  0.42529000  0.42818000  0.27195000  1.0
  H  H10  1  0.60900000  0.04210000  0.22674000  1.0
  H  H11  1  0.39100000  0.95789000  0.77326000  1.0
  H  H12  1  0.67527000  0.20477000  0.13067000  1.0
  H  H13  1  0.32473000  0.79522000  0.86933000  1.0
  C  C14  1  0.17953000  0.24715000  0.10589000  1.0
  C  C15  1  0.82047000  0.75286000  0.89411000  1.0
  C  C16  1  0.22146000  0.41468000  0.03921000  1.0
  C  C17  1  0.77853000  0.58533000  0.96079000  1.0
  C  C18  1  0.14988000  0.58646000  0.08879000  1.0
  C  C19  1  0.85011000  0.41354000  0.91122000  1.0
  C  C20  1  0.35862000  0.41235000  0.92450000  1.0
  C  C21  1  0.64138000  0.58765000  0.07550000  1.0
  C  C22  1  0.81996000  0.58465000  0.39601000  1.0
  C  C23  1  0.18002000  0.41536000  0.60398000  1.0
  C  C24  1  0.79391000  0.41407000  0.46559000  1.0
  C  C25  1  0.20609000  0.58595000  0.53441000  1.0
  C  C26  1  0.84044000  0.24676000  0.41102000  1.0
  C  C27  1  0.15956000  0.75324000  0.58898000  1.0
  C  C28  1  0.70844000  0.40590000  0.59372000  1.0
  C  C29  1  0.29156000  0.59411000  0.40627000  1.0
  N  N30  1  0.15896000  0.10045000  0.16333000  1.0
  N  N31  1  0.84105000  0.89955000  0.83666000  1.0
  N  N32  1  0.08675000  0.73115000  0.12965000  1.0
  N  N33  1  0.91327000  0.26884000  0.87035000  1.0
  N  N34  1  0.43854000  0.24490000  0.88312000  1.0
  N  N35  1  0.56145000  0.75510000  0.11688000  1.0
  N  N36  1  0.83045000  0.73474000  0.34004000  1.0
  N  N37  1  0.16953000  0.26524000  0.65996000  1.0
  N  N38  1  0.87699000  0.10905000  0.36255000  1.0
  N  N39  1  0.12303000  0.89096000  0.63745000  1.0
  N  N40  1  0.65968000  0.57141000  0.64346000  1.0
  N  N41  1  0.34032000  0.42859000  0.35653000  1.0
  O  O42  1  0.40336000  0.56707000  0.86892000  1.0
  O  O43  1  0.59664000  0.43293000  0.13109000  1.0
  O  O44  1  0.68538000  0.24823000  0.65336000  1.0
  O  O45  1  0.31462000  0.75176000  0.34663000  1.0
  O  O46  1  0.70009000  0.06201000  0.15216000  1.0
  O  O47  1  0.29991000  0.93799000  0.84784000  1.0
