# generated using pymatgen
data_TbH13C14(NO3)2
_symmetry_space_group_name_H-M   'P 1'
_cell_length_a   7.23482000
_cell_length_b   13.04520000
_cell_length_c   15.53210000
_cell_angle_alpha   90.00020000
_cell_angle_beta   90.00000000
_cell_angle_gamma   89.99980000
_symmetry_Int_Tables_number   1
_chemical_formula_structural   TbH13C14(NO3)2
_chemical_formula_sum   'Tb4 H52 C56 N8 O24'
_cell_volume   1465.91453241
_cell_formula_units_Z   4
loop_
 _symmetry_equiv_pos_site_id
 _symmetry_equiv_pos_as_xyz
  1  'x, y, z'
loop_
 _atom_site_type_symbol
 _atom_site_label
 _atom_site_symmetry_multiplicity
 _atom_site_fract_x
 _atom_site_fract_y
 _atom_site_fract_z
 _atom_site_occupancy
  Tb  Tb0  1  0.88148000  0.71317000  0.00462000  1.0
  Tb  Tb1  1  0.61852000  0.28683000  0.50461000  1.0
  Tb  Tb2  1  0.11852000  0.21317000  0.49538000  1.0
  Tb  Tb3  1  0.38148000  0.78683000  0.99538000  1.0
  H  H4  1  0.93708000  0.49689000  0.92854000  1.0
  H  H5  1  0.56292000  0.50311000  0.42854000  1.0
  H  H6  1  0.06292000  0.99689000  0.57147000  1.0
  H  H7  1  0.43709000  0.00311000  0.07146000  1.0
  H  H8  1  0.54373000  0.54438000  0.90638000  1.0
  H  H9  1  0.95627000  0.45562000  0.40638000  1.0
  H  H10  1  0.45627000  0.04438000  0.59362000  1.0
  H  H11  1  0.04373000  0.95561000  0.09362000  1.0
  H  H12  1  0.42385000  0.51969000  0.00410000  1.0
  H  H13  1  0.07614000  0.48031000  0.50410000  1.0
  H  H14  1  0.57614000  0.01969000  0.49590000  1.0
  H  H15  1  0.92386000  0.98031000  0.99590000  1.0
  H  H16  1  0.71316000  0.47695000  0.07878000  1.0
  H  H17  1  0.78683000  0.52305000  0.57878000  1.0
  H  H18  1  0.28683000  0.97695000  0.42122000  1.0
  H  H19  1  0.21316000  0.02305000  0.92123000  1.0
  H  H20  1  0.70844000  0.40497000  0.98077000  1.0
  H  H21  1  0.79155000  0.59502000  0.48076000  1.0
  H  H22  1  0.29155000  0.90497000  0.51924000  1.0
  H  H23  1  0.20844000  0.09503000  0.01924000  1.0
  H  H24  1  0.04152000  0.86217000  0.39088000  1.0
  H  H25  1  0.45848000  0.13784000  0.89089000  1.0
  H  H26  1  0.95847000  0.36217000  0.10912000  1.0
  H  H27  1  0.54151000  0.63783000  0.60911000  1.0
  H  H28  1  0.96166000  0.85854000  0.23344000  1.0
  H  H29  1  0.53833000  0.14147000  0.73344000  1.0
  H  H30  1  0.03833000  0.35854000  0.26656000  1.0
  H  H31  1  0.46167000  0.64147000  0.76655000  1.0
  H  H32  1  0.40259000  0.78629000  0.30595000  1.0
  H  H33  1  0.09741000  0.21372000  0.80594000  1.0
  H  H34  1  0.59740000  0.28629000  0.19405000  1.0
  H  H35  1  0.90259000  0.71371000  0.69405000  1.0
  H  H36  1  0.50818000  0.77991000  0.45947000  1.0
  H  H37  1  0.99182000  0.22010000  0.95947000  1.0
  H  H38  1  0.49181000  0.27990000  0.04053000  1.0
  H  H39  1  0.00818000  0.72009000  0.54053000  1.0
  H  H40  1  0.74821000  0.91825000  0.56898000  1.0
  H  H41  1  0.75182000  0.08175000  0.06898000  1.0
  H  H42  1  0.25180000  0.41824000  0.93102000  1.0
  H  H43  1  0.24821000  0.58175000  0.43102000  1.0
  H  H44  1  0.52554000  0.87430000  0.68975000  1.0
  H  H45  1  0.97448000  0.12570000  0.18975000  1.0
  H  H46  1  0.47447000  0.37430000  0.81025000  1.0
  H  H47  1  0.02554000  0.62570000  0.31025000  1.0
  H  H48  1  0.98007000  0.91134000  0.86607000  1.0
  H  H49  1  0.51992000  0.08866000  0.36607000  1.0
  H  H50  1  0.01994000  0.41134000  0.63393000  1.0
  H  H51  1  0.48008000  0.58866000  0.13393000  1.0
  H  H52  1  0.17598000  0.96627000  0.74089000  1.0
  H  H53  1  0.32403000  0.03373000  0.24088000  1.0
  H  H54  1  0.82403000  0.46627000  0.75911000  1.0
  H  H55  1  0.67599000  0.53373000  0.25911000  1.0
  C  C56  1  0.55520000  0.54903000  0.97733000  1.0
  C  C57  1  0.94479000  0.45097000  0.47733000  1.0
  C  C58  1  0.44480000  0.04903000  0.52267000  1.0
  C  C59  1  0.05520000  0.95097000  0.02267000  1.0
  C  C60  1  0.71538000  0.48298000  0.00799000  1.0
  C  C61  1  0.78461000  0.51702000  0.50799000  1.0
  C  C62  1  0.28461000  0.98297000  0.49201000  1.0
  C  C63  1  0.21538000  0.01702000  0.99201000  1.0
  C  C64  1  0.90145000  0.84357000  0.36969000  1.0
  C  C65  1  0.59855000  0.15643000  0.86970000  1.0
  C  C66  1  0.09854000  0.34357000  0.13031000  1.0
  C  C67  1  0.40145000  0.65643000  0.63030000  1.0
  C  C68  1  0.85719000  0.84328000  0.28232000  1.0
  C  C69  1  0.64280000  0.15673000  0.78232000  1.0
  C  C70  1  0.14280000  0.34327000  0.21768000  1.0
  C  C71  1  0.35720000  0.65673000  0.71768000  1.0
  C  C72  1  0.67491000  0.82242000  0.25790000  1.0
  C  C73  1  0.82508000  0.17759000  0.75790000  1.0
  C  C74  1  0.32508000  0.32242000  0.24210000  1.0
  C  C75  1  0.17491000  0.67758000  0.74210000  1.0
  C  C76  1  0.54576000  0.80271000  0.32269000  1.0
  C  C77  1  0.95423000  0.19730000  0.82268000  1.0
  C  C78  1  0.45424000  0.30271000  0.17731000  1.0
  C  C79  1  0.04576000  0.69729000  0.67731000  1.0
  C  C80  1  0.60493000  0.80056000  0.40815000  1.0
  C  C81  1  0.89507000  0.19945000  0.90815000  1.0
  C  C82  1  0.39506000  0.30056000  0.09185000  1.0
  C  C83  1  0.10492000  0.69944000  0.59185000  1.0
  C  C84  1  0.62162000  0.81683000  0.16451000  1.0
  C  C85  1  0.87837000  0.18317000  0.66451000  1.0
  C  C86  1  0.37838000  0.31683000  0.33549000  1.0
  C  C87  1  0.12163000  0.68317000  0.83549000  1.0
  C  C88  1  0.78985000  0.91996000  0.63641000  1.0
  C  C89  1  0.71017000  0.08004000  0.13641000  1.0
  C  C90  1  0.21015000  0.41995000  0.86359000  1.0
  C  C91  1  0.28986000  0.58004000  0.36359000  1.0
  C  C92  1  0.66899000  0.89435000  0.70271000  1.0
  C  C93  1  0.83102000  0.10565000  0.20271000  1.0
  C  C94  1  0.33102000  0.39435000  0.79729000  1.0
  C  C95  1  0.16900000  0.60565000  0.29729000  1.0
  C  C96  1  0.73618000  0.89293000  0.78706000  1.0
  C  C97  1  0.76383000  0.10706000  0.28706000  1.0
  C  C98  1  0.26384000  0.39294000  0.71294000  1.0
  C  C99  1  0.23618000  0.60707000  0.21294000  1.0
  C  C100  1  0.92191000  0.91668000  0.80164000  1.0
  C  C101  1  0.57808000  0.08331000  0.30164000  1.0
  C  C102  1  0.07809000  0.41668000  0.69836000  1.0
  C  C103  1  0.42192000  0.58332000  0.19836000  1.0
  C  C104  1  0.03129000  0.94499000  0.73197000  1.0
  C  C105  1  0.46872000  0.05500000  0.23196000  1.0
  C  C106  1  0.96872000  0.44499000  0.76803000  1.0
  C  C107  1  0.53130000  0.55501000  0.26804000  1.0
  C  C108  1  0.61126000  0.86433000  0.85992000  1.0
  C  C109  1  0.88873000  0.13567000  0.35993000  1.0
  C  C110  1  0.38875000  0.36433000  0.64008000  1.0
  C  C111  1  0.11127000  0.63567000  0.14008000  1.0
  N  N112  1  0.77959000  0.82091000  0.43228000  1.0
  N  N113  1  0.72040000  0.17910000  0.93228000  1.0
  N  N114  1  0.22040000  0.32090000  0.06772000  1.0
  N  N115  1  0.27959000  0.67909000  0.56771000  1.0
  N  N116  1  0.96650000  0.94654000  0.65095000  1.0
  N  N117  1  0.53352000  0.05346000  0.15095000  1.0
  N  N118  1  0.03351000  0.44653000  0.84905000  1.0
  N  N119  1  0.46650000  0.55347000  0.34905000  1.0
  O  O120  1  0.88638000  0.53082000  0.98432000  1.0
  O  O121  1  0.61361000  0.46918000  0.48432000  1.0
  O  O122  1  0.11362000  0.03082000  0.51568000  1.0
  O  O123  1  0.38638000  0.96918000  0.01568000  1.0
  O  O124  1  0.58532000  0.65180000  0.00299000  1.0
  O  O125  1  0.91467000  0.34820000  0.50299000  1.0
  O  O126  1  0.41467000  0.15180000  0.49700000  1.0
  O  O127  1  0.08532000  0.84820000  0.99700000  1.0
  O  O128  1  0.43805000  0.86720000  0.85026000  1.0
  O  O129  1  0.06195000  0.13280000  0.35026000  1.0
  O  O130  1  0.56196000  0.36721000  0.64974000  1.0
  O  O131  1  0.93806000  0.63280000  0.14974000  1.0
  O  O132  1  0.68456000  0.83635000  0.93181000  1.0
  O  O133  1  0.81542000  0.16364000  0.43181000  1.0
  O  O134  1  0.31544000  0.33635000  0.56819000  1.0
  O  O135  1  0.18457000  0.66365000  0.06819000  1.0
  O  O136  1  0.45143000  0.81010000  0.14505000  1.0
  O  O137  1  0.04856000  0.18990000  0.64505000  1.0
  O  O138  1  0.54857000  0.31010000  0.35494000  1.0
  O  O139  1  0.95143000  0.68990000  0.85495000  1.0
  O  O140  1  0.75169000  0.81793000  0.10929000  1.0
  O  O141  1  0.74831000  0.18207000  0.60928000  1.0
  O  O142  1  0.24831000  0.31793000  0.39072000  1.0
  O  O143  1  0.25169000  0.68206000  0.89071000  1.0
