# generated using pymatgen
data_Zn3H68C78(N4O7)2
_symmetry_space_group_name_H-M   'P 1'
_cell_length_a   13.15050000
_cell_length_b   13.72990000
_cell_length_c   13.99680000
_cell_angle_alpha   97.24210000
_cell_angle_beta   108.30700000
_cell_angle_gamma   112.34200000
_symmetry_Int_Tables_number   1
_chemical_formula_structural   Zn3H68C78(N4O7)2
_chemical_formula_sum   'Zn3 H68 C78 N8 O14'
_cell_volume   2130.70637091
_cell_formula_units_Z   1
loop_
 _symmetry_equiv_pos_site_id
 _symmetry_equiv_pos_as_xyz
  1  'x, y, z'
loop_
 _atom_site_type_symbol
 _atom_site_label
 _atom_site_symmetry_multiplicity
 _atom_site_fract_x
 _atom_site_fract_y
 _atom_site_fract_z
 _atom_site_occupancy
  Zn  Zn0  1  0.69634000  0.61713000  0.37785000  1.0
  Zn  Zn1  1  0.30366000  0.38287000  0.62215000  1.0
  Zn  Zn2  1  0.50000000  0.50000000  0.50000000  1.0
  H  H3  1  0.34693000  0.59513000  0.16514000  1.0
  H  H4  1  0.65308000  0.40487000  0.83486000  1.0
  H  H5  1  0.32412000  0.60568000  0.28322000  1.0
  H  H6  1  0.67588000  0.39432000  0.71678000  1.0
  H  H7  1  0.23991000  0.39106000  0.11930000  1.0
  H  H8  1  0.76009000  0.60894000  0.88070000  1.0
  H  H9  1  0.25172000  0.39787000  0.24965000  1.0
  H  H10  1  0.74828000  0.60213000  0.75036000  1.0
  H  H11  1  0.16198000  0.39215000  0.35940000  1.0
  H  H12  1  0.83802000  0.60785000  0.64061000  1.0
  H  H13  1  0.03768000  0.40474000  0.45601000  1.0
  H  H14  1  0.96232000  0.59526000  0.54399000  1.0
  H  H15  1  0.87497000  0.46012000  0.38448000  1.0
  H  H16  1  0.12503000  0.53988000  0.61553000  1.0
  H  H17  1  0.83271000  0.50118000  0.21457000  1.0
  H  H18  1  0.16729000  0.49882000  0.78544000  1.0
  H  H19  1  0.17003000  0.46730000  0.97834000  1.0
  H  H20  1  0.82996000  0.53270000  0.02166000  1.0
  H  H21  1  0.72087000  0.30667000  0.38122000  1.0
  H  H22  1  0.27913000  0.69333000  0.61878000  1.0
  H  H23  1  0.57924000  0.25279000  0.39000000  1.0
  H  H24  1  0.42075000  0.74721000  0.61000000  1.0
  H  H25  1  0.82261000  0.34666000  0.57557000  1.0
  H  H26  1  0.17738000  0.65334000  0.42443000  1.0
  H  H27  1  0.68525000  0.31428000  0.58858000  1.0
  H  H28  1  0.31475000  0.68572000  0.41142000  1.0
  H  H29  1  0.92827000  0.27557000  0.50695000  1.0
  H  H30  1  0.07173000  0.72443000  0.49305000  1.0
  H  H31  1  0.01753000  0.15972000  0.45246000  1.0
  H  H32  1  0.98247000  0.84028000  0.54753000  1.0
  H  H33  1  0.91120000  0.95700000  0.40860000  1.0
  H  H34  1  0.08880000  0.04300000  0.59140000  1.0
  H  H35  1  0.71088000  0.86455000  0.41580000  1.0
  H  H36  1  0.28912000  0.13545000  0.58420000  1.0
  H  H37  1  0.49927000  0.18379000  0.55280000  1.0
  H  H38  1  0.50073000  0.81621000  0.44720000  1.0
  H  H39  1  0.87762000  0.85180000  0.70049000  1.0
  H  H40  1  0.12238000  0.14820000  0.29951000  1.0
  H  H41  1  0.79312000  0.91146000  0.62923000  1.0
  H  H42  1  0.20688000  0.08854000  0.37077000  1.0
  H  H43  1  0.63475000  0.83094000  0.69842000  1.0
  H  H44  1  0.36525000  0.16906000  0.30158000  1.0
  H  H45  1  0.71231000  0.76505000  0.76713000  1.0
  H  H46  1  0.28769000  0.23495000  0.23287000  1.0
  H  H47  1  0.61150000  0.98378000  0.69414000  1.0
  H  H48  1  0.38850000  0.01622000  0.30586000  1.0
  H  H49  1  0.60559000  0.15950000  0.74573000  1.0
  H  H50  1  0.39441000  0.84050000  0.25427000  1.0
  H  H51  1  0.75697000  0.30119000  0.91307000  1.0
  H  H52  1  0.24303000  0.69881000  0.08693000  1.0
  H  H53  1  0.91775000  0.26856000  0.03214000  1.0
  H  H54  1  0.08225000  0.73145000  0.96786000  1.0
  H  H55  1  0.92270000  0.81096000  0.87860000  1.0
  H  H56  1  0.07730000  0.18905000  0.12140000  1.0
  H  H57  1  0.72612000  0.77427000  0.24791000  1.0
  H  H58  1  0.27388000  0.22572000  0.75208000  1.0
  H  H59  1  0.03306000  0.82660000  0.19301000  1.0
  H  H60  1  0.96694000  0.17340000  0.80699000  1.0
  H  H61  1  0.03375000  0.79569000  0.31385000  1.0
  H  H62  1  0.96625000  0.20431000  0.68615000  1.0
  H  H63  1  0.94748000  0.69034000  0.19359000  1.0
  H  H64  1  0.05252000  0.30966000  0.80641000  1.0
  H  H65  1  0.93537000  0.91953000  0.14093000  1.0
  H  H66  1  0.06463000  0.08047000  0.85907000  1.0
  H  H67  1  0.77758000  0.84748000  0.09632000  1.0
  H  H68  1  0.22242000  0.15252000  0.90368000  1.0
  H  H69  1  0.86227000  0.95089000  0.21949000  1.0
  H  H70  1  0.13773000  0.04911000  0.78050000  1.0
  C  C71  1  0.46071000  0.55934000  0.28943000  1.0
  C  C72  1  0.53929000  0.44065000  0.71058000  1.0
  C  C73  1  0.34135000  0.55567000  0.22799000  1.0
  C  C74  1  0.65866000  0.44433000  0.77201000  1.0
  C  C75  1  0.23862000  0.43905000  0.18783000  1.0
  C  C76  1  0.76138000  0.56095000  0.81217000  1.0
  C  C77  1  0.06695000  0.43976000  0.23018000  1.0
  C  C78  1  0.93305000  0.56024000  0.76982000  1.0
  C  C79  1  0.09034000  0.41471000  0.32604000  1.0
  C  C80  1  0.90967000  0.58529000  0.67396000  1.0
  C  C81  1  0.02004000  0.42261000  0.38048000  1.0
  C  C82  1  0.97995000  0.57738000  0.61952000  1.0
  C  C83  1  0.92856000  0.45398000  0.34068000  1.0
  C  C84  1  0.07144000  0.54602000  0.65932000  1.0
  C  C85  1  0.90427000  0.47730000  0.24427000  1.0
  C  C86  1  0.09573000  0.52271000  0.75573000  1.0
  C  C87  1  0.97371000  0.47063000  0.18799000  1.0
  C  C88  1  0.02629000  0.52937000  0.81201000  1.0
  C  C89  1  0.97450000  0.48957000  0.08897000  1.0
  C  C90  1  0.02550000  0.51043000  0.91103000  1.0
  C  C91  1  0.06962000  0.47047000  0.07541000  1.0
  C  C92  1  0.93037000  0.52953000  0.92459000  1.0
  C  C93  1  0.09681000  0.48099000  0.98765000  1.0
  C  C94  1  0.90319000  0.51900000  0.01235000  1.0
  C  C95  1  0.67029000  0.42484000  0.44247000  1.0
  C  C96  1  0.32971000  0.57516000  0.55753000  1.0
  C  C97  1  0.67328000  0.31503000  0.43115000  1.0
  C  C98  1  0.32672000  0.68497000  0.56885000  1.0
  C  C99  1  0.72576000  0.29399000  0.53633000  1.0
  C  C100  1  0.27423000  0.70601000  0.46367000  1.0
  C  C101  1  0.76961000  0.13463000  0.49339000  1.0
  C  C102  1  0.23039000  0.86537000  0.50661000  1.0
  C  C103  1  0.88074000  0.18658000  0.48721000  1.0
  C  C104  1  0.11926000  0.81342000  0.51279000  1.0
  C  C105  1  0.92989000  0.12076000  0.45602000  1.0
  C  C106  1  0.07011000  0.87924000  0.54398000  1.0
  C  C107  1  0.86895000  0.00568000  0.43057000  1.0
  C  C108  1  0.13105000  0.99433000  0.56943000  1.0
  C  C109  1  0.75769000  0.95377000  0.43605000  1.0
  C  C110  1  0.24231000  0.04622000  0.56395000  1.0
  C  C111  1  0.70697000  0.01805000  0.46807000  1.0
  C  C112  1  0.29303000  0.98195000  0.53193000  1.0
  C  C113  1  0.59610000  0.99336000  0.48143000  1.0
  C  C114  1  0.40390000  0.00664000  0.51857000  1.0
  C  C115  1  0.59542000  0.09666000  0.51308000  1.0
  C  C116  1  0.40458000  0.90334000  0.48692000  1.0
  C  C117  1  0.49999000  0.10506000  0.53069000  1.0
  C  C118  1  0.50001000  0.89494000  0.46931000  1.0
  C  C119  1  0.71878000  0.73862000  0.56907000  1.0
  C  C120  1  0.28122000  0.26138000  0.43093000  1.0
  C  C121  1  0.78559000  0.84080000  0.66128000  1.0
  C  C122  1  0.21441000  0.15920000  0.33872000  1.0
  C  C123  1  0.72463000  0.83792000  0.73821000  1.0
  C  C124  1  0.27537000  0.16208000  0.26179000  1.0
  C  C125  1  0.76829000  0.02602000  0.83625000  1.0
  C  C126  1  0.23172000  0.97398000  0.16375000  1.0
  C  C127  1  0.67764000  0.04402000  0.76833000  1.0
  C  C128  1  0.32236000  0.95598000  0.23167000  1.0
  C  C129  1  0.67548000  0.14395000  0.79784000  1.0
  C  C130  1  0.32452000  0.85605000  0.20216000  1.0
  C  C131  1  0.76081000  0.22389000  0.89225000  1.0
  C  C132  1  0.23919000  0.77611000  0.10775000  1.0
  C  C133  1  0.85161000  0.20618000  0.95931000  1.0
  C  C134  1  0.14839000  0.79382000  0.04069000  1.0
  C  C135  1  0.85693000  0.10725000  0.93129000  1.0
  C  C136  1  0.14308000  0.89276000  0.06871000  1.0
  C  C137  1  0.93919000  0.06433000  0.97866000  1.0
  C  C138  1  0.06081000  0.93567000  0.02135000  1.0
  C  C139  1  0.89566000  0.95708000  0.91062000  1.0
  C  C140  1  0.10434000  0.04292000  0.08938000  1.0
  C  C141  1  0.95525000  0.89195000  0.93068000  1.0
  C  C142  1  0.04475000  0.10805000  0.06932000  1.0
  C  C143  1  0.79955000  0.75093000  0.25843000  1.0
  C  C144  1  0.20045000  0.24907000  0.74157000  1.0
  C  C145  1  0.97901000  0.77752000  0.23047000  1.0
  C  C146  1  0.02099000  0.22248000  0.76953000  1.0
  C  C147  1  0.86177000  0.88468000  0.16608000  1.0
  C  C148  1  0.13823000  0.11532000  0.83392000  1.0
  N  N149  1  0.12275000  0.43849000  0.16063000  1.0
  N  N150  1  0.87725000  0.56151000  0.83937000  1.0
  N  N151  1  0.70279000  0.18041000  0.52288000  1.0
  N  N152  1  0.29721000  0.81959000  0.47712000  1.0
  N  N153  1  0.79143000  0.93538000  0.82652000  1.0
  N  N154  1  0.20857000  0.06462000  0.17348000  1.0
  N  N155  1  0.87747000  0.80239000  0.21882000  1.0
  N  N156  1  0.12253000  0.19761000  0.78118000  1.0
  O  O157  1  0.55512000  0.63400000  0.28766000  1.0
  O  O158  1  0.44488000  0.36600000  0.71234000  1.0
  O  O159  1  0.46323000  0.48973000  0.34028000  1.0
  O  O160  1  0.53676000  0.51027000  0.65972000  1.0
  O  O161  1  0.70229000  0.47833000  0.37970000  1.0
  O  O162  1  0.29771000  0.52167000  0.62030000  1.0
  O  O163  1  0.63675000  0.45570000  0.51101000  1.0
  O  O164  1  0.36325000  0.54430000  0.48899000  1.0
  O  O165  1  0.77783000  0.72855000  0.51369000  1.0
  O  O166  1  0.22217000  0.27145000  0.48631000  1.0
  O  O167  1  0.61277000  0.67337000  0.55182000  1.0
  O  O168  1  0.38723000  0.32663000  0.44818000  1.0
  O  O169  1  0.80755000  0.67923000  0.30486000  1.0
  O  O170  1  0.19244000  0.32077000  0.69514000  1.0
