# generated using pymatgen
data_Cu3H16C8(Br3O2)2
_symmetry_space_group_name_H-M   'P 1'
_cell_length_a   7.32107000
_cell_length_b   7.32116000
_cell_length_c   9.54738000
_cell_angle_alpha   99.30760000
_cell_angle_beta   99.30850000
_cell_angle_gamma   114.17500000
_symmetry_Int_Tables_number   1
_chemical_formula_structural   Cu3H16C8(Br3O2)2
_chemical_formula_sum   'Cu3 H16 C8 Br6 O4'
_cell_volume   445.68522760
_cell_formula_units_Z   1
loop_
 _symmetry_equiv_pos_site_id
 _symmetry_equiv_pos_as_xyz
  1  'x, y, z'
loop_
 _atom_site_type_symbol
 _atom_site_label
 _atom_site_symmetry_multiplicity
 _atom_site_fract_x
 _atom_site_fract_y
 _atom_site_fract_z
 _atom_site_occupancy
  Cu  Cu0  1  0.09139000  0.09139000  0.69335000  1.0
  Cu  Cu1  1  0.90862000  0.90862000  0.30665000  1.0
  Cu  Cu2  1  0.00000000  0.99999000  0.00001000  1.0
  H  H3  1  0.42081000  0.62056000  0.86061000  1.0
  H  H4  1  0.37943000  0.57917000  0.13938000  1.0
  H  H5  1  0.57917000  0.37943000  0.13938000  1.0
  H  H6  1  0.62056000  0.42082000  0.86061000  1.0
  H  H7  1  0.24419000  0.57650000  0.69107000  1.0
  H  H8  1  0.42350000  0.75580000  0.30892000  1.0
  H  H9  1  0.75580000  0.42350000  0.30892000  1.0
  H  H10  1  0.57650000  0.24420000  0.69107000  1.0
  H  H11  1  0.53595000  0.73634000  0.57955000  1.0
  H  H12  1  0.26368000  0.46406000  0.42045000  1.0
  H  H13  1  0.46406000  0.26367000  0.42045000  1.0
  H  H14  1  0.73634000  0.53596000  0.57955000  1.0
  H  H15  1  0.57925000  0.91080000  0.74955000  1.0
  H  H16  1  0.08920000  0.42075000  0.25045000  1.0
  H  H17  1  0.42075000  0.08920000  0.25045000  1.0
  H  H18  1  0.91081000  0.57925000  0.74956000  1.0
  C  C19  1  0.39641000  0.58892000  0.74041000  1.0
  C  C20  1  0.41108000  0.60358000  0.25959000  1.0
  C  C21  1  0.60358000  0.41108000  0.25959000  1.0
  C  C22  1  0.58892000  0.39642000  0.74041000  1.0
  C  C23  1  0.56605000  0.75872000  0.69935000  1.0
  C  C24  1  0.24128000  0.43395000  0.30066000  1.0
  C  C25  1  0.43395000  0.24129000  0.30066000  1.0
  C  C26  1  0.75872000  0.56606000  0.69935000  1.0
  Br  Br27  1  0.86313000  0.13687000  0.50000000  1.0
  Br  Br28  1  0.13688000  0.86313000  0.50000000  1.0
  Br  Br29  1  0.00302000  0.27709000  0.88707000  1.0
  Br  Br30  1  0.72289000  0.99696000  0.11293000  1.0
  Br  Br31  1  0.99696000  0.72289000  0.11293000  1.0
  Br  Br32  1  0.27710000  0.00304000  0.88708000  1.0
  O  O33  1  0.39073000  0.39074000  0.68449000  1.0
  O  O34  1  0.60927000  0.60927000  0.31550000  1.0
  O  O35  1  0.76424000  0.76424000  0.75343000  1.0
  O  O36  1  0.23576000  0.23576000  0.24658000  1.0
