# generated using pymatgen
data_AgH12C7SNO3
_symmetry_space_group_name_H-M   'P 1'
_cell_length_a   4.76490000
_cell_length_b   8.37046000
_cell_length_c   13.87240000
_cell_angle_alpha   83.91910000
_cell_angle_beta   80.11610000
_cell_angle_gamma   73.53220000
_symmetry_Int_Tables_number   1
_chemical_formula_structural   AgH12C7SNO3
_chemical_formula_sum   'Ag2 H24 C14 S2 N2 O6'
_cell_volume   521.75918362
_cell_formula_units_Z   2
loop_
 _symmetry_equiv_pos_site_id
 _symmetry_equiv_pos_as_xyz
  1  'x, y, z'
loop_
 _atom_site_type_symbol
 _atom_site_label
 _atom_site_symmetry_multiplicity
 _atom_site_fract_x
 _atom_site_fract_y
 _atom_site_fract_z
 _atom_site_occupancy
  Ag  Ag0  1  0.11737000  0.64136000  0.43164000  1.0
  Ag  Ag1  1  0.18677000  0.35778000  0.56883000  1.0
  H  H2  1  0.73376000  0.23726000  0.30878000  1.0
  H  H3  1  0.28321000  0.76146000  0.69161000  1.0
  H  H4  1  0.96201000  0.98112000  0.39629000  1.0
  H  H5  1  0.33971000  0.01832000  0.60356000  1.0
  H  H6  1  0.01606000  0.94617000  0.26949000  1.0
  H  H7  1  0.23340000  0.05312000  0.73029000  1.0
  H  H8  1  0.47005000  0.98853000  0.39072000  1.0
  H  H9  1  0.84818000  0.01413000  0.60780000  1.0
  H  H10  1  0.53958000  0.99108000  0.26016000  1.0
  H  H11  1  0.79358000  0.00969000  0.73839000  1.0
  H  H12  1  0.33537000  0.73699000  0.18970000  1.0
  H  H13  1  0.26987000  0.25485000  0.81164000  1.0
  H  H14  1  0.56055000  0.53472000  0.21907000  1.0
  H  H15  1  0.29818000  0.46222000  0.78170000  1.0
  H  H16  1  0.73178000  0.69598000  0.16507000  1.0
  H  H17  1  0.58985000  0.30974000  0.83482000  1.0
  H  H18  1  0.07843000  0.18636000  0.97349000  1.0
  H  H19  1  0.24576000  0.81580000  0.02609000  1.0
  H  H20  1  0.31533000  0.28157000  0.02094000  1.0
  H  H21  1  0.62343000  0.71817000  0.97851000  1.0
  H  H22  1  0.95850000  0.40223000  0.99355000  1.0
  H  H23  1  0.35640000  0.59939000  0.00731000  1.0
  H  H24  1  0.29409000  0.25717000  0.18217000  1.0
  H  H25  1  0.73680000  0.74405000  0.81757000  1.0
  C  C26  1  0.07263000  0.29573000  0.36982000  1.0
  C  C27  1  0.74095000  0.70439000  0.63037000  1.0
  C  C28  1  0.97742000  0.19889000  0.29887000  1.0
  C  C29  1  0.47789000  0.80093000  0.70118000  1.0
  C  C30  1  0.08045000  0.00961000  0.32415000  1.0
  C  C31  1  0.41549000  0.99008000  0.67551000  1.0
  C  C32  1  0.41212000  0.94680000  0.32616000  1.0
  C  C33  1  0.68546000  0.05424000  0.67292000  1.0
  C  C34  1  0.54443000  0.66829000  0.21509000  1.0
  C  C35  1  0.42434000  0.33069000  0.78552000  1.0
  C  C36  1  0.93739000  0.24055000  0.12344000  1.0
  C  C37  1  0.30554000  0.75915000  0.87667000  1.0
  C  C38  1  0.08540000  0.28029000  0.02193000  1.0
  C  C39  1  0.39243000  0.72048000  0.97810000  1.0
  S  S40  1  0.54833000  0.72100000  0.33766000  1.0
  S  S41  1  0.60374000  0.28039000  0.66259000  1.0
  N  N42  1  0.08488000  0.24088000  0.19771000  1.0
  N  N43  1  0.52666000  0.76015000  0.80230000  1.0
  O  O44  1  0.21387000  0.40075000  0.33492000  1.0
  O  O45  1  0.95168000  0.59945000  0.66543000  1.0
  O  O46  1  0.99932000  0.25763000  0.46033000  1.0
  O  O47  1  0.72067000  0.74234000  0.53985000  1.0
  O  O48  1  0.69012000  0.21018000  0.13551000  1.0
  O  O49  1  0.04023000  0.78783000  0.86479000  1.0
