# generated using pymatgen
data_CuH12C20N3O4
_symmetry_space_group_name_H-M   'P 1'
_cell_length_a   7.54906000
_cell_length_b   10.41660000
_cell_length_c   12.20700000
_cell_angle_alpha   104.01000000
_cell_angle_beta   104.41600000
_cell_angle_gamma   106.95200000
_symmetry_Int_Tables_number   1
_chemical_formula_structural   CuH12C20N3O4
_chemical_formula_sum   'Cu2 H24 C40 N6 O8'
_cell_volume   836.41229152
_cell_formula_units_Z   2
loop_
 _symmetry_equiv_pos_site_id
 _symmetry_equiv_pos_as_xyz
  1  'x, y, z'
loop_
 _atom_site_type_symbol
 _atom_site_label
 _atom_site_symmetry_multiplicity
 _atom_site_fract_x
 _atom_site_fract_y
 _atom_site_fract_z
 _atom_site_occupancy
  Cu  Cu0  1  0.07023000  0.34048000  0.24581000  1.0
  Cu  Cu1  1  0.92977000  0.65952000  0.75419000  1.0
  H  H2  1  0.07064000  0.64353000  0.29315000  1.0
  H  H3  1  0.92937000  0.35648000  0.70685000  1.0
  H  H4  1  0.33384000  0.89006000  0.38631000  1.0
  H  H5  1  0.66619000  0.10994000  0.61369000  1.0
  H  H6  1  0.68901000  0.91580000  0.46234000  1.0
  H  H7  1  0.31101000  0.08420000  0.53765000  1.0
  H  H8  1  0.76457000  0.69633000  0.46015000  1.0
  H  H9  1  0.23544000  0.30367000  0.53984000  1.0
  H  H10  1  0.79980000  0.48362000  0.43495000  1.0
  H  H11  1  0.20020000  0.51637000  0.56505000  1.0
  H  H12  1  0.46880000  0.03175000  0.26919000  1.0
  H  H13  1  0.53120000  0.96825000  0.73081000  1.0
  H  H14  1  0.16110000  0.87173000  0.14050000  1.0
  H  H15  1  0.83889000  0.12827000  0.85952000  1.0
  H  H16  1  0.81538000  0.71879000  0.02050000  1.0
  H  H17  1  0.18461000  0.28120000  0.97951000  1.0
  H  H18  1  0.55790000  0.82926000  0.99833000  1.0
  H  H19  1  0.44209000  0.17074000  0.00168000  1.0
  H  H20  1  0.66886000  0.09545000  0.09504000  1.0
  H  H21  1  0.33114000  0.90456000  0.90495000  1.0
  H  H22  1  0.67670000  0.55118000  0.21555000  1.0
  H  H23  1  0.32328000  0.44882000  0.78445000  1.0
  H  H24  1  0.58338000  0.34876000  0.84496000  1.0
  H  H25  1  0.41659000  0.65123000  0.15503000  1.0
  C  C26  1  0.22643000  0.66133000  0.32985000  1.0
  C  C27  1  0.77359000  0.33868000  0.67015000  1.0
  C  C28  1  0.37421000  0.79726000  0.38096000  1.0
  C  C29  1  0.62581000  0.20274000  0.61904000  1.0
  C  C30  1  0.57027000  0.81090000  0.42588000  1.0
  C  C31  1  0.42975000  0.18910000  0.57412000  1.0
  C  C32  1  0.61312000  0.68830000  0.42049000  1.0
  C  C33  1  0.38689000  0.31169000  0.57951000  1.0
  C  C34  1  0.45847000  0.55526000  0.36630000  1.0
  C  C35  1  0.54154000  0.44474000  0.63370000  1.0
  C  C36  1  0.48317000  0.41691000  0.34727000  1.0
  C  C37  1  0.51683000  0.58309000  0.65273000  1.0
  C  C38  1  0.65930000  0.39471000  0.38360000  1.0
  C  C39  1  0.34071000  0.60529000  0.61640000  1.0
  C  C40  1  0.65243000  0.25436000  0.35543000  1.0
  C  C41  1  0.34758000  0.74564000  0.64457000  1.0
  C  C42  1  0.47198000  0.14033000  0.28973000  1.0
  C  C43  1  0.52803000  0.85968000  0.71027000  1.0
  C  C44  1  0.30150000  0.16930000  0.25390000  1.0
  C  C45  1  0.69850000  0.83070000  0.74611000  1.0
  C  C46  1  0.09943000  0.06554000  0.18307000  1.0
  C  C47  1  0.90057000  0.93447000  0.81693000  1.0
  C  C48  1  0.04976000  0.91918000  0.13188000  1.0
  C  C49  1  0.95023000  0.08082000  0.86813000  1.0
  C  C50  1  0.85381000  0.83250000  0.06343000  1.0
  C  C51  1  0.14618000  0.16750000  0.93658000  1.0
  C  C52  1  0.71229000  0.89407000  0.05016000  1.0
  C  C53  1  0.28770000  0.10593000  0.94985000  1.0
  C  C54  1  0.77213000  0.04100000  0.10345000  1.0
  C  C55  1  0.22786000  0.95900000  0.89655000  1.0
  C  C56  1  0.83963000  0.22495000  0.39816000  1.0
  C  C57  1  0.16037000  0.77504000  0.60183000  1.0
  C  C58  1  0.79685000  0.38115000  0.06911000  1.0
  C  C59  1  0.20314000  0.61885000  0.93090000  1.0
  C  C60  1  0.64448000  0.44388000  0.03377000  1.0
  C  C61  1  0.35551000  0.55612000  0.96623000  1.0
  C  C62  1  0.59752000  0.52887000  0.12133000  1.0
  C  C63  1  0.40247000  0.47113000  0.87867000  1.0
  C  C64  1  0.54613000  0.41559000  0.91195000  1.0
  C  C65  1  0.45385000  0.58440000  0.08805000  1.0
  N  N66  1  0.26831000  0.54382000  0.32131000  1.0
  N  N67  1  0.73169000  0.45618000  0.67869000  1.0
  N  N68  1  0.31236000  0.30501000  0.28441000  1.0
  N  N69  1  0.68763000  0.69499000  0.71559000  1.0
  N  N70  1  0.96060000  0.12468000  0.16692000  1.0
  N  N71  1  0.03939000  0.87532000  0.83308000  1.0
  O  O72  1  0.84854000  0.39085000  0.18202000  1.0
  O  O73  1  0.15146000  0.60916000  0.81798000  1.0
  O  O74  1  0.85990000  0.32384000  0.99348000  1.0
  O  O75  1  0.14009000  0.67617000  0.00653000  1.0
  O  O76  1  0.00066000  0.32414000  0.41317000  1.0
  O  O77  1  0.99934000  0.67585000  0.58682000  1.0
  O  O78  1  0.82038000  0.10883000  0.41572000  1.0
  O  O79  1  0.17962000  0.89117000  0.58427000  1.0
