# generated using pymatgen
data_BiH15C14O
_symmetry_space_group_name_H-M   'P 1'
_cell_length_a   8.32041000
_cell_length_b   10.36190000
_cell_length_c   14.92070000
_cell_angle_alpha   90.00000000
_cell_angle_beta   90.00000000
_cell_angle_gamma   90.00000000
_symmetry_Int_Tables_number   1
_chemical_formula_structural   BiH15C14O
_chemical_formula_sum   'Bi4 H60 C56 O4'
_cell_volume   1286.39197585
_cell_formula_units_Z   4
loop_
 _symmetry_equiv_pos_site_id
 _symmetry_equiv_pos_as_xyz
  1  'x, y, z'
loop_
 _atom_site_type_symbol
 _atom_site_label
 _atom_site_symmetry_multiplicity
 _atom_site_fract_x
 _atom_site_fract_y
 _atom_site_fract_z
 _atom_site_occupancy
  Bi  Bi0  1  0.38232000  0.24783000  0.99470000  1.0
  Bi  Bi1  1  0.11768000  0.75217000  0.49470000  1.0
  Bi  Bi2  1  0.88232000  0.25217000  0.00530000  1.0
  Bi  Bi3  1  0.61768000  0.74783000  0.50530000  1.0
  H  H4  1  0.73927000  0.24386000  0.19051000  1.0
  H  H5  1  0.76073000  0.75614000  0.69052000  1.0
  H  H6  1  0.23927000  0.25614000  0.80948000  1.0
  H  H7  1  0.26073000  0.74386000  0.30948000  1.0
  H  H8  1  0.52884000  0.26502000  0.19794000  1.0
  H  H9  1  0.97115000  0.73498000  0.69794000  1.0
  H  H10  1  0.02884000  0.23498000  0.80206000  1.0
  H  H11  1  0.47116000  0.76502000  0.30206000  1.0
  H  H12  1  0.77013000  0.48357000  0.15866000  1.0
  H  H13  1  0.72987000  0.51643000  0.65866000  1.0
  H  H14  1  0.27013000  0.01643000  0.84134000  1.0
  H  H15  1  0.22987000  0.98357000  0.34134000  1.0
  H  H16  1  0.68296000  0.44975000  0.26515000  1.0
  H  H17  1  0.81704000  0.55025000  0.76516000  1.0
  H  H18  1  0.18296000  0.05025000  0.73484000  1.0
  H  H19  1  0.31704000  0.94975000  0.23484000  1.0
  H  H20  1  0.55907000  0.50234000  0.17509000  1.0
  H  H21  1  0.94093000  0.49766000  0.67509000  1.0
  H  H22  1  0.05907000  0.99766000  0.82491000  1.0
  H  H23  1  0.44093000  0.00234000  0.32491000  1.0
  H  H24  1  0.63093000  0.05000000  0.09156000  1.0
  H  H25  1  0.86906000  0.95000000  0.59156000  1.0
  H  H26  1  0.13093000  0.45000000  0.90844000  1.0
  H  H27  1  0.36906000  0.55000000  0.40844000  1.0
  H  H28  1  0.64356000  0.81964000  0.13546000  1.0
  H  H29  1  0.85643000  0.18036000  0.63546000  1.0
  H  H30  1  0.14357000  0.68036000  0.86454000  1.0
  H  H31  1  0.35643000  0.31964000  0.36454000  1.0
  H  H32  1  0.40664000  0.67775000  0.11466000  1.0
  H  H33  1  0.09337000  0.32224000  0.61466000  1.0
  H  H34  1  0.90664000  0.82224000  0.88534000  1.0
  H  H35  1  0.59337000  0.17776000  0.38534000  1.0
  H  H36  1  0.15369000  0.76735000  0.04844000  1.0
  H  H37  1  0.34631000  0.23265000  0.54845000  1.0
  H  H38  1  0.65369000  0.73265000  0.95156000  1.0
  H  H39  1  0.84631000  0.26735000  0.45156000  1.0
  H  H40  1  0.14241000  0.99745000  0.00235000  1.0
  H  H41  1  0.35759000  0.00255000  0.50235000  1.0
  H  H42  1  0.64241000  0.50255000  0.99765000  1.0
  H  H43  1  0.85759000  0.49746000  0.49765000  1.0
  H  H44  1  0.25989000  0.51909000  0.06785000  1.0
  H  H45  1  0.24010000  0.48091000  0.56785000  1.0
  H  H46  1  0.75990000  0.98091000  0.93215000  1.0
  H  H47  1  0.74010000  0.01909000  0.43215000  1.0
  H  H48  1  0.12561000  0.61433000  0.19998000  1.0
  H  H49  1  0.37440000  0.38567000  0.69998000  1.0
  H  H50  1  0.62561000  0.88567000  0.80002000  1.0
  H  H51  1  0.87439000  0.11433000  0.30002000  1.0
  H  H52  1  0.02716000  0.47289000  0.32332000  1.0
  H  H53  1  0.47285000  0.52711000  0.82332000  1.0
  H  H54  1  0.52716000  0.02711000  0.67668000  1.0
  H  H55  1  0.97285000  0.97289000  0.17668000  1.0
  H  H56  1  0.07657000  0.23614000  0.31651000  1.0
  H  H57  1  0.42343000  0.76386000  0.81651000  1.0
  H  H58  1  0.57657000  0.26386000  0.68349000  1.0
  H  H59  1  0.92343000  0.73614000  0.18349000  1.0
  H  H60  1  0.21619000  0.14024000  0.18575000  1.0
  H  H61  1  0.28380000  0.85976000  0.68575000  1.0
  H  H62  1  0.71619000  0.35976000  0.81425000  1.0
  H  H63  1  0.78381000  0.64024000  0.31425000  1.0
  C  C64  1  0.63796000  0.30328000  0.16560000  1.0
  C  C65  1  0.86204000  0.69672000  0.66560000  1.0
  C  C66  1  0.13796000  0.19671000  0.83440000  1.0
  C  C67  1  0.36204000  0.80328000  0.33440000  1.0
  C  C68  1  0.66416000  0.44319000  0.19247000  1.0
  C  C69  1  0.83583000  0.55681000  0.69247000  1.0
  C  C70  1  0.16417000  0.05681000  0.80753000  1.0
  C  C71  1  0.33584000  0.94319000  0.30753000  1.0
  C  C72  1  0.38599000  0.03932000  0.04356000  1.0
  C  C73  1  0.11400000  0.96068000  0.54356000  1.0
  C  C74  1  0.88599000  0.46068000  0.95644000  1.0
  C  C75  1  0.61401000  0.53932000  0.45644000  1.0
  C  C76  1  0.52650000  0.98806000  0.08103000  1.0
  C  C77  1  0.97350000  0.01194000  0.58103000  1.0
  C  C78  1  0.02650000  0.51195000  0.91897000  1.0
  C  C79  1  0.47350000  0.48806000  0.41897000  1.0
  C  C80  1  0.53389000  0.85824000  0.10589000  1.0
  C  C81  1  0.96611000  0.14176000  0.60589000  1.0
  C  C82  1  0.03389000  0.64176000  0.89411000  1.0
  C  C83  1  0.46611000  0.35824000  0.39411000  1.0
  C  C84  1  0.40017000  0.77863000  0.09428000  1.0
  C  C85  1  0.09983000  0.22137000  0.59428000  1.0
  C  C86  1  0.90018000  0.72137000  0.90572000  1.0
  C  C87  1  0.59983000  0.27863000  0.40572000  1.0
  C  C88  1  0.25871000  0.82904000  0.05800000  1.0
  C  C89  1  0.24129000  0.17096000  0.55800000  1.0
  C  C90  1  0.75871000  0.67096000  0.94200000  1.0
  C  C91  1  0.74129000  0.32904000  0.44200000  1.0
  C  C92  1  0.25201000  0.95891000  0.03239000  1.0
  C  C93  1  0.24799000  0.04108000  0.53238000  1.0
  C  C94  1  0.75201000  0.54109000  0.96761000  1.0
  C  C95  1  0.74799000  0.45892000  0.46762000  1.0
  C  C96  1  0.24812000  0.32271000  0.11731000  1.0
  C  C97  1  0.25188000  0.67729000  0.61730000  1.0
  C  C98  1  0.74812000  0.17729000  0.88269000  1.0
  C  C99  1  0.75188000  0.82271000  0.38270000  1.0
  C  C100  1  0.22125000  0.45601000  0.12240000  1.0
  C  C101  1  0.27876000  0.54399000  0.62240000  1.0
  C  C102  1  0.72125000  0.04399000  0.87760000  1.0
  C  C103  1  0.77876000  0.95601000  0.37760000  1.0
  C  C104  1  0.14326000  0.51021000  0.19634000  1.0
  C  C105  1  0.35674000  0.48978000  0.69634000  1.0
  C  C106  1  0.64326000  0.98978000  0.80366000  1.0
  C  C107  1  0.85674000  0.01022000  0.30366000  1.0
  C  C108  1  0.08919000  0.43112000  0.26582000  1.0
  C  C109  1  0.41081000  0.56887000  0.76581000  1.0
  C  C110  1  0.58919000  0.06888000  0.73419000  1.0
  C  C111  1  0.91082000  0.93112000  0.23419000  1.0
  C  C112  1  0.11566000  0.29801000  0.26150000  1.0
  C  C113  1  0.38434000  0.70199000  0.76150000  1.0
  C  C114  1  0.61566000  0.20199000  0.73850000  1.0
  C  C115  1  0.88434000  0.79801000  0.23850000  1.0
  C  C116  1  0.19514000  0.24414000  0.18784000  1.0
  C  C117  1  0.30486000  0.75586000  0.68784000  1.0
  C  C118  1  0.69514000  0.25586000  0.81216000  1.0
  C  C119  1  0.80486000  0.74414000  0.31216000  1.0
  O  O120  1  0.62516000  0.28815000  0.07033000  1.0
  O  O121  1  0.87484000  0.71185000  0.57033000  1.0
  O  O122  1  0.12516000  0.21185000  0.92967000  1.0
  O  O123  1  0.37484000  0.78815000  0.42967000  1.0
