# generated using pymatgen
data_CdH20C10N2O5
_symmetry_space_group_name_H-M   'P 1'
_cell_length_a   8.92125000
_cell_length_b   9.80740000
_cell_length_c   9.80862000
_cell_angle_alpha   117.49500000
_cell_angle_beta   96.08580000
_cell_angle_gamma   96.09140000
_symmetry_Int_Tables_number   1
_chemical_formula_structural   CdH20C10N2O5
_chemical_formula_sum   'Cd2 H40 C20 N4 O10'
_cell_volume   745.18671926
_cell_formula_units_Z   2
loop_
 _symmetry_equiv_pos_site_id
 _symmetry_equiv_pos_as_xyz
  1  'x, y, z'
loop_
 _atom_site_type_symbol
 _atom_site_label
 _atom_site_symmetry_multiplicity
 _atom_site_fract_x
 _atom_site_fract_y
 _atom_site_fract_z
 _atom_site_occupancy
  Cd  Cd0  1  0.61702000  0.73223000  0.22968000  1.0
  Cd  Cd1  1  0.11704000  0.22970000  0.73223000  1.0
  H  H2  1  0.85468000  0.03446000  0.37586000  1.0
  H  H3  1  0.35465000  0.37585000  0.03445000  1.0
  H  H4  1  0.85267000  0.95280000  0.48079000  1.0
  H  H5  1  0.35268000  0.48082000  0.95282000  1.0
  H  H6  1  0.60520000  0.09849000  0.47404000  1.0
  H  H7  1  0.10518000  0.47405000  0.09846000  1.0
  H  H8  1  0.47970000  0.03486000  0.29605000  1.0
  H  H9  1  0.97970000  0.29601000  0.03485000  1.0
  H  H10  1  0.29005000  0.16840000  0.42704000  1.0
  H  H11  1  0.79002000  0.42699000  0.16835000  1.0
  H  H12  1  0.42889000  0.26145000  0.59949000  1.0
  H  H13  1  0.92886000  0.59947000  0.26140000  1.0
  H  H14  1  0.44903000  0.78738000  0.54479000  1.0
  H  H15  1  0.94903000  0.54480000  0.78741000  1.0
  H  H16  1  0.60701000  0.93927000  0.60259000  1.0
  H  H17  1  0.10702000  0.60261000  0.93927000  1.0
  H  H18  1  0.46482000  0.13138000  0.75463000  1.0
  H  H19  1  0.96484000  0.75465000  0.13137000  1.0
  H  H20  1  0.32395000  0.97582000  0.72666000  1.0
  H  H21  1  0.82397000  0.72669000  0.97584000  1.0
  H  H22  1  0.12949000  0.85615000  0.49466000  1.0
  H  H23  1  0.62951000  0.49467000  0.85617000  1.0
  H  H24  1  0.10029000  0.95150000  0.38159000  1.0
  H  H25  1  0.60027000  0.38156000  0.95148000  1.0
  H  H26  1  0.27000000  0.81701000  0.21691000  1.0
  H  H27  1  0.76999000  0.21686000  0.81700000  1.0
  H  H28  1  0.27404000  0.69978000  0.31009000  1.0
  H  H29  1  0.77406000  0.31008000  0.69981000  1.0
  H  H30  1  0.69612000  0.38656000  0.43823000  1.0
  H  H31  1  0.19614000  0.43823000  0.38656000  1.0
  H  H32  1  0.49529000  0.31306000  0.36566000  1.0
  H  H33  1  0.99530000  0.36567000  0.31308000  1.0
  H  H34  1  0.56067000  0.48445000  0.55003000  1.0
  H  H35  1  0.06071000  0.55006000  0.48446000  1.0
  H  H36  1  0.32129000  0.65280000  0.75573000  1.0
  H  H37  1  0.82128000  0.75570000  0.65281000  1.0
  H  H38  1  0.46524000  0.81321000  0.78507000  1.0
  H  H39  1  0.96522000  0.78504000  0.81319000  1.0
  H  H40  1  0.30526000  0.84978000  0.88216000  1.0
  H  H41  1  0.80525000  0.88214000  0.84977000  1.0
  C  C42  1  0.48642000  0.04751000  0.41385000  1.0
  C  C43  1  0.98641000  0.41383000  0.04749000  1.0
  C  C44  1  0.37156000  0.14719000  0.50400000  1.0
  C  C45  1  0.87154000  0.50398000  0.14716000  1.0
  C  C46  1  0.48339000  0.90416000  0.55786000  1.0
  C  C47  1  0.98339000  0.55787000  0.90418000  1.0
  C  C48  1  0.39077000  0.02281000  0.66553000  1.0
  C  C49  1  0.89078000  0.66555000  0.02281000  1.0
  C  C50  1  0.18852000  0.91932000  0.44231000  1.0
  C  C51  1  0.68852000  0.44229000  0.91932000  1.0
  C  C52  1  0.29137000  0.82096000  0.33098000  1.0
  C  C53  1  0.79137000  0.33095000  0.82097000  1.0
  C  C54  1  0.57941000  0.52109000  0.35263000  1.0
  C  C55  1  0.07942000  0.35264000  0.52109000  1.0
  C  C56  1  0.58233000  0.41851000  0.43017000  1.0
  C  C57  1  0.08235000  0.43019000  0.41852000  1.0
  C  C58  1  0.47550000  0.76472000  0.97708000  1.0
  C  C59  1  0.97550000  0.97707000  0.76470000  1.0
  C  C60  1  0.38684000  0.76879000  0.83975000  1.0
  C  C61  1  0.88683000  0.83973000  0.76878000  1.0
  N  N62  1  0.45499000  0.88937000  0.39935000  1.0
  N  N63  1  0.95499000  0.39934000  0.88938000  1.0
  N  N64  1  0.28217000  0.06504000  0.57178000  1.0
  N  N65  1  0.78217000  0.57177000  0.06502000  1.0
  O  O66  1  0.68485000  0.64138000  0.40842000  1.0
  O  O67  1  0.18482000  0.40842000  0.64135000  1.0
  O  O68  1  0.82529000  0.93256000  0.37091000  1.0
  O  O69  1  0.32529000  0.37092000  0.93256000  1.0
  O  O70  1  0.47466000  0.48642000  0.23729000  1.0
  O  O71  1  0.97465000  0.23726000  0.48640000  1.0
  O  O72  1  0.41572000  0.66862000  0.02118000  1.0
  O  O73  1  0.91575000  0.02116000  0.66860000  1.0
  O  O74  1  0.60201000  0.85469000  0.04853000  1.0
  O  O75  1  0.10200000  0.04855000  0.85469000  1.0
