# generated using pymatgen
data_CdH6C10S2(N3Cl)2
_symmetry_space_group_name_H-M   'P 1'
_cell_length_a   5.67170000
_cell_length_b   6.58074000
_cell_length_c   11.32530000
_cell_angle_alpha   77.70680000
_cell_angle_beta   83.55170000
_cell_angle_gamma   73.21200000
_symmetry_Int_Tables_number   1
_chemical_formula_structural   CdH6C10S2(N3Cl)2
_chemical_formula_sum   'Cd1 H6 C10 S2 N6 Cl2'
_cell_volume   394.82667900
_cell_formula_units_Z   1
loop_
 _symmetry_equiv_pos_site_id
 _symmetry_equiv_pos_as_xyz
  1  'x, y, z'
loop_
 _atom_site_type_symbol
 _atom_site_label
 _atom_site_symmetry_multiplicity
 _atom_site_fract_x
 _atom_site_fract_y
 _atom_site_fract_z
 _atom_site_occupancy
  Cd  Cd0  1  0.50001000  0.50000000  0.00000000  1.0
  H  H1  1  0.41655000  0.06119000  0.16919000  1.0
  H  H2  1  0.58344000  0.93881000  0.83081000  1.0
  H  H3  1  0.03711000  0.14193000  0.40754000  1.0
  H  H4  1  0.96287000  0.85808000  0.59247000  1.0
  H  H5  1  0.91067000  0.39822000  0.21020000  1.0
  H  H6  1  0.08934000  0.60177000  0.78980000  1.0
  C  C7  1  0.55528000  0.07868000  0.22288000  1.0
  C  C8  1  0.44471000  0.92131000  0.77712000  1.0
  C  C9  1  0.63464000  0.93550000  0.33052000  1.0
  C  C10  1  0.36536000  0.06450000  0.66948000  1.0
  C  C11  1  0.90022000  0.12268000  0.35327000  1.0
  C  C12  1  0.09977000  0.87732000  0.64674000  1.0
  C  C13  1  0.82883000  0.26531000  0.24541000  1.0
  C  C14  1  0.17117000  0.73468000  0.75459000  1.0
  C  C15  1  0.91208000  0.72521000  0.06560000  1.0
  C  C16  1  0.08793000  0.27479000  0.93440000  1.0
  S  S17  1  0.13997000  0.73756000  0.13676000  1.0
  S  S18  1  0.86004000  0.26246000  0.86323000  1.0
  N  N19  1  0.74405000  0.71528000  0.01561000  1.0
  N  N20  1  0.25597000  0.28472000  0.98438000  1.0
  N  N21  1  0.65368000  0.24404000  0.18205000  1.0
  N  N22  1  0.34631000  0.75596000  0.81795000  1.0
  N  N23  1  0.80096000  0.95758000  0.39655000  1.0
  N  N24  1  0.19902000  0.04243000  0.60345000  1.0
  Cl  Cl25  1  0.51125000  0.71872000  0.38102000  1.0
  Cl  Cl26  1  0.48874000  0.28128000  0.61899000  1.0
