# generated using pymatgen
data_ZnH13C17I2NO5
_symmetry_space_group_name_H-M   'P 1'
_cell_length_a   8.88111000
_cell_length_b   13.96880000
_cell_length_c   15.31790000
_cell_angle_alpha   91.88140000
_cell_angle_beta   91.07800000
_cell_angle_gamma   99.00170000
_symmetry_Int_Tables_number   1
_chemical_formula_structural   ZnH13C17I2NO5
_chemical_formula_sum   'Zn2 H26 C34 I4 N2 O10'
_cell_volume   1875.34607349
_cell_formula_units_Z   2
loop_
 _symmetry_equiv_pos_site_id
 _symmetry_equiv_pos_as_xyz
  1  'x, y, z'
loop_
 _atom_site_type_symbol
 _atom_site_label
 _atom_site_symmetry_multiplicity
 _atom_site_fract_x
 _atom_site_fract_y
 _atom_site_fract_z
 _atom_site_occupancy
  Zn  Zn0  1  0.48465000  0.39723000  0.49365000  1.0
  Zn  Zn1  1  0.50145000  0.59908000  0.50383000  1.0
  H  H2  1  0.01806000  0.60913000  0.49108000  1.0
  H  H3  1  0.38007000  0.23694000  0.61064000  1.0
  H  H4  1  0.26430000  0.72221000  0.48350000  1.0
  H  H5  1  0.59632000  0.25336000  0.37334000  1.0
  H  H6  1  0.73494000  0.35191000  0.70106000  1.0
  H  H7  1  0.78681000  0.34377000  0.81413000  1.0
  H  H8  1  0.00269000  0.44299000  0.67908000  1.0
  H  H9  1  0.04894000  0.42074000  0.78874000  1.0
  H  H10  1  0.99481000  0.23958000  0.75408000  1.0
  H  H11  1  0.13800000  0.29903000  0.68610000  1.0
  H  H12  1  0.94989000  0.26293000  0.64390000  1.0
  H  H13  1  0.96761000  0.38641000  0.50305000  1.0
  H  H14  1  0.22417000  0.69536000  0.31510000  1.0
  H  H15  1  0.23183000  0.56931000  0.31274000  1.0
  H  H16  1  0.09223000  0.67869000  0.16853000  1.0
  H  H17  1  0.10467000  0.55378000  0.16262000  1.0
  H  H18  1  0.93797000  0.52597000  0.29434000  1.0
  H  H19  1  0.84393000  0.58005000  0.21017000  1.0
  H  H20  1  0.92526000  0.65138000  0.30218000  1.0
  H  H21  1  0.27748000  0.51270000  0.77323000  1.0
  H  H22  1  0.54350000  0.36355000  0.21878000  1.0
  H  H23  1  0.27458000  0.51475000  0.93530000  1.0
  H  H24  1  0.57174000  0.36895000  0.05726000  1.0
  H  H25  1  0.73441000  0.95976000  0.51531000  1.0
  H  H26  1  0.37668000  0.05645000  0.61373000  1.0
  H  H27  1  0.73195000  0.77941000  0.52307000  1.0
  C  C28  1  0.51130000  0.49397000  0.66887000  1.0
  C  C29  1  0.55378000  0.10700000  0.42198000  1.0
  C  C30  1  0.49039000  0.94459000  0.49301000  1.0
  C  C31  1  0.49037000  0.05052000  0.49034000  1.0
  C  C32  1  0.78687000  0.52558000  0.49234000  1.0
  C  C33  1  0.19823000  0.47284000  0.50309000  1.0
  C  C34  1  0.95516000  0.53576000  0.49284000  1.0
  C  C35  1  0.02949000  0.45994000  0.49966000  1.0
  C  C36  1  0.64845000  0.49830000  0.90652000  1.0
  C  C37  1  0.45165000  0.58541000  0.09523000  1.0
  C  C38  1  0.64852000  0.48993000  0.81455000  1.0
  C  C39  1  0.47192000  0.49757000  0.32871000  1.0
  C  C40  1  0.42778000  0.58090000  0.18594000  1.0
  C  C41  1  0.51399000  0.49578000  0.76698000  1.0
  C  C42  1  0.46670000  0.50109000  0.23092000  1.0
  C  C43  1  0.38069000  0.50649000  0.81079000  1.0
  C  C44  1  0.51650000  0.42519000  0.18322000  1.0
  C  C45  1  0.37994000  0.50921000  0.90138000  1.0
  C  C46  1  0.53382000  0.42883000  0.09359000  1.0
  C  C47  1  0.51390000  0.50684000  0.95116000  1.0
  C  C48  1  0.50345000  0.50950000  0.04781000  1.0
  C  C49  1  0.81170000  0.38562000  0.75476000  1.0
  C  C50  1  0.62781000  0.90934000  0.50779000  1.0
  C  C51  1  0.97799000  0.39128000  0.73153000  1.0
  C  C52  1  0.01703000  0.29255000  0.70247000  1.0
  C  C53  1  0.22882000  0.63192000  0.27144000  1.0
  C  C54  1  0.09191000  0.61449000  0.20830000  1.0
  C  C55  1  0.94180000  0.59175000  0.25637000  1.0
  C  C56  1  0.42648000  0.09775000  0.55933000  1.0
  C  C57  1  0.62780000  0.81029000  0.51268000  1.0
  C  C58  1  0.42720000  0.19710000  0.55814000  1.0
  C  C59  1  0.36487000  0.77801000  0.48992000  1.0
  C  C60  1  0.54955000  0.20665000  0.42512000  1.0
  C  C61  1  0.35647000  0.87648000  0.48330000  1.0
  I  I62  1  0.86087000  0.50759000  0.97349000  1.0
  I  I63  1  0.41273000  0.71340000  0.03481000  1.0
  I  I64  1  0.14255000  0.91544000  0.45337000  1.0
  I  I65  1  0.64893000  0.04677000  0.31274000  1.0
  N  N66  1  0.49787000  0.74641000  0.50423000  1.0
  N  N67  1  0.48734000  0.24982000  0.49176000  1.0
  O  O68  1  0.52549000  0.41487000  0.62869000  1.0
  O  O69  1  0.37133000  0.65571000  0.22649000  1.0
  O  O70  1  0.50948000  0.57779000  0.37095000  1.0
  O  O71  1  0.48969000  0.57236000  0.63452000  1.0
  O  O72  1  0.44463000  0.41403000  0.36178000  1.0
  O  O73  1  0.71129000  0.44141000  0.47611000  1.0
  O  O74  1  0.26997000  0.55787000  0.49215000  1.0
  O  O75  1  0.73242000  0.60316000  0.50949000  1.0
  O  O76  1  0.25820000  0.39712000  0.51593000  1.0
  O  O77  1  0.78102000  0.48384000  0.77115000  1.0
