# generated using pymatgen
data_ZnH20C19(NO2)2
_symmetry_space_group_name_H-M   'P 1'
_cell_length_a   9.05791000
_cell_length_b   9.60749000
_cell_length_c   11.61470000
_cell_angle_alpha   80.88400000
_cell_angle_beta   87.38540000
_cell_angle_gamma   64.98640000
_symmetry_Int_Tables_number   1
_chemical_formula_structural   ZnH20C19(NO2)2
_chemical_formula_sum   'Zn2 H40 C38 N4 O8'
_cell_volume   904.12687084
_cell_formula_units_Z   2
loop_
 _symmetry_equiv_pos_site_id
 _symmetry_equiv_pos_as_xyz
  1  'x, y, z'
loop_
 _atom_site_type_symbol
 _atom_site_label
 _atom_site_symmetry_multiplicity
 _atom_site_fract_x
 _atom_site_fract_y
 _atom_site_fract_z
 _atom_site_occupancy
  Zn  Zn0  1  0.18672000  0.29640000  0.53790000  1.0
  Zn  Zn1  1  0.81328000  0.70359000  0.46210000  1.0
  H  H2  1  0.36753000  0.02323000  0.63581000  1.0
  H  H3  1  0.63247000  0.97677000  0.36419000  1.0
  H  H4  1  0.41879000  0.38670000  0.04458000  1.0
  H  H5  1  0.58120000  0.61330000  0.95543000  1.0
  H  H6  1  0.29930000  0.39583000  0.17256000  1.0
  H  H7  1  0.70070000  0.60417000  0.82744000  1.0
  H  H8  1  0.43688000  0.21314000  0.13877000  1.0
  H  H9  1  0.56311000  0.78685000  0.86123000  1.0
  H  H10  1  0.90726000  0.40086000  0.04167000  1.0
  H  H11  1  0.09274000  0.59914000  0.95832000  1.0
  H  H12  1  0.00082000  0.42880000  0.16351000  1.0
  H  H13  1  0.99918000  0.57119000  0.83649000  1.0
  H  H14  1  0.82713000  0.58319000  0.09062000  1.0
  H  H15  1  0.17287000  0.41681000  0.90938000  1.0
  H  H16  1  0.73075000  0.37322000  0.55331000  1.0
  H  H17  1  0.26925000  0.62679000  0.44669000  1.0
  H  H18  1  0.67721000  0.07817000  0.54538000  1.0
  H  H19  1  0.32279000  0.92184000  0.45462000  1.0
  H  H20  1  0.64934000  0.37778000  0.72885000  1.0
  H  H21  1  0.35066000  0.62223000  0.27115000  1.0
  H  H22  1  0.70185000  0.32066000  0.94398000  1.0
  H  H23  1  0.29815000  0.67934000  0.05602000  1.0
  H  H24  1  0.80747000  0.04964000  0.04535000  1.0
  H  H25  1  0.19253000  0.95037000  0.95465000  1.0
  H  H26  1  0.84840000  0.83422000  0.93483000  1.0
  H  H27  1  0.15160000  0.16579000  0.06517000  1.0
  H  H28  1  0.79152000  0.89150000  0.72019000  1.0
  H  H29  1  0.20848000  0.10851000  0.27980000  1.0
  H  H30  1  0.21176000  0.23338000  0.80789000  1.0
  H  H31  1  0.78823000  0.76662000  0.19211000  1.0
  H  H32  1  0.41032000  0.18869000  0.75134000  1.0
  H  H33  1  0.58968000  0.81131000  0.24867000  1.0
  H  H34  1  0.36811000  0.03938000  0.83785000  1.0
  H  H35  1  0.63188000  0.96062000  0.16215000  1.0
  H  H36  1  0.18090000  0.94701000  0.75658000  1.0
  H  H37  1  0.81910000  0.05299000  0.24342000  1.0
  H  H38  1  0.10197000  0.02566000  0.61082000  1.0
  H  H39  1  0.89803000  0.97434000  0.38918000  1.0
  H  H40  1  0.02954000  0.14221000  0.72350000  1.0
  H  H41  1  0.97046000  0.85779000  0.27650000  1.0
  C  C42  1  0.43696000  0.26598000  0.39194000  1.0
  C  C43  1  0.56305000  0.73401000  0.60806000  1.0
  C  C44  1  0.56142000  0.30979000  0.32622000  1.0
  C  C45  1  0.43859000  0.69020000  0.67378000  1.0
  C  C46  1  0.55121000  0.34368000  0.20358000  1.0
  C  C47  1  0.44879000  0.65631000  0.79642000  1.0
  C  C48  1  0.41933000  0.33424000  0.13555000  1.0
  C  C49  1  0.58067000  0.66576000  0.86445000  1.0
  C  C50  1  0.77253000  0.40750000  0.19766000  1.0
  C  C51  1  0.22747000  0.59250000  0.80234000  1.0
  C  C52  1  0.88470000  0.45687000  0.11997000  1.0
  C  C53  1  0.11530000  0.54312000  0.88003000  1.0
  C  C54  1  0.78888000  0.37839000  0.31973000  1.0
  C  C55  1  0.21112000  0.62161000  0.68027000  1.0
  C  C56  1  0.68358000  0.32476000  0.38667000  1.0
  C  C57  1  0.31642000  0.67524000  0.61333000  1.0
  C  C58  1  0.70253000  0.29125000  0.51378000  1.0
  C  C59  1  0.29747000  0.70875000  0.48622000  1.0
  C  C60  1  0.69563000  0.16730000  0.58275000  1.0
  C  C61  1  0.30438000  0.83270000  0.41725000  1.0
  C  C62  1  0.72127000  0.13757000  0.70937000  1.0
  C  C63  1  0.27874000  0.86244000  0.29063000  1.0
  C  C64  1  0.69544000  0.25827000  0.77373000  1.0
  C  C65  1  0.30456000  0.74174000  0.22627000  1.0
  C  C66  1  0.72516000  0.22690000  0.89370000  1.0
  C  C67  1  0.27484000  0.77311000  0.10630000  1.0
  C  C68  1  0.78207000  0.07389000  0.95174000  1.0
  C  C69  1  0.21794000  0.92612000  0.04826000  1.0
  C  C70  1  0.80557000  0.95334000  0.88951000  1.0
  C  C71  1  0.19443000  0.04667000  0.11049000  1.0
  C  C72  1  0.77448000  0.98466000  0.76943000  1.0
  C  C73  1  0.22553000  0.01534000  0.23057000  1.0
  C  C74  1  0.91990000  0.39716000  0.38061000  1.0
  C  C75  1  0.08010000  0.60284000  0.61939000  1.0
  C  C76  1  0.31725000  0.14456000  0.77213000  1.0
  C  C77  1  0.68274000  0.85545000  0.22787000  1.0
  C  C78  1  0.13740000  0.05224000  0.69068000  1.0
  C  C79  1  0.86260000  0.94776000  0.30932000  1.0
  N  N80  1  0.65621000  0.38952000  0.14196000  1.0
  N  N81  1  0.34379000  0.61048000  0.85804000  1.0
  N  N82  1  0.26504000  0.11030000  0.66532000  1.0
  N  N83  1  0.73496000  0.88970000  0.33469000  1.0
  O  O84  1  0.33087000  0.37260000  0.44527000  1.0
  O  O85  1  0.66913000  0.62739000  0.55473000  1.0
  O  O86  1  0.43826000  0.13487000  0.39194000  1.0
  O  O87  1  0.56174000  0.86512000  0.60807000  1.0
  O  O88  1  0.02145000  0.27589000  0.44408000  1.0
  O  O89  1  0.97855000  0.72411000  0.55592000  1.0
  O  O90  1  0.92545000  0.52909000  0.36634000  1.0
  O  O91  1  0.07455000  0.47091000  0.63366000  1.0
