# generated using pymatgen
data_CuH14(C3N2)6
_symmetry_space_group_name_H-M   'P 1'
_cell_length_a   7.61865000
_cell_length_b   8.08605000
_cell_length_c   9.27305000
_cell_angle_alpha   64.67890000
_cell_angle_beta   68.38660000
_cell_angle_gamma   71.64610000
_symmetry_Int_Tables_number   1
_chemical_formula_structural   CuH14(C3N2)6
_chemical_formula_sum   'Cu1 H14 C18 N12'
_cell_volume   471.58332987
_cell_formula_units_Z   1
loop_
 _symmetry_equiv_pos_site_id
 _symmetry_equiv_pos_as_xyz
  1  'x, y, z'
loop_
 _atom_site_type_symbol
 _atom_site_label
 _atom_site_symmetry_multiplicity
 _atom_site_fract_x
 _atom_site_fract_y
 _atom_site_fract_z
 _atom_site_occupancy
  Cu  Cu0  1  0.00000000  0.99999000  0.00000000  1.0
  H  H1  1  0.62893000  0.97442000  0.75389000  1.0
  H  H2  1  0.37106000  0.02559000  0.24611000  1.0
  H  H3  1  0.61013000  0.31664000  0.65451000  1.0
  H  H4  1  0.38986000  0.68336000  0.34549000  1.0
  H  H5  1  0.73568000  0.49801000  0.35773000  1.0
  H  H6  1  0.26432000  0.50199000  0.64226000  1.0
  H  H7  1  0.87341000  0.34544000  0.14526000  1.0
  H  H8  1  0.12659000  0.65454000  0.85475000  1.0
  H  H9  1  0.84177000  0.50294000  0.62070000  1.0
  H  H10  1  0.15824000  0.49705000  0.37930000  1.0
  H  H11  1  0.60792000  0.62438000  0.70173000  1.0
  H  H12  1  0.39208000  0.37561000  0.29827000  1.0
  H  H13  1  0.81423000  0.62337000  0.75134000  1.0
  H  H14  1  0.18577000  0.37662000  0.24867000  1.0
  C  C15  1  0.69491000  0.72193000  0.03992000  1.0
  C  C16  1  0.30510000  0.27809000  0.96010000  1.0
  C  C17  1  0.38945000  0.74415000  0.03418000  1.0
  C  C18  1  0.61057000  0.25585000  0.96582000  1.0
  C  C19  1  0.82821000  0.07428000  0.33168000  1.0
  C  C20  1  0.17179000  0.92572000  0.66832000  1.0
  C  C21  1  0.76212000  0.97103000  0.50212000  1.0
  C  C22  1  0.23788000  0.02897000  0.49788000  1.0
  C  C23  1  0.68058000  0.05436000  0.62299000  1.0
  C  C24  1  0.31941000  0.94563000  0.37701000  1.0
  C  C25  1  0.67154000  0.24506000  0.56575000  1.0
  C  C26  1  0.32844000  0.75494000  0.43424000  1.0
  C  C27  1  0.74108000  0.34931000  0.39566000  1.0
  C  C28  1  0.25892000  0.65068000  0.60434000  1.0
  C  C29  1  0.81876000  0.26713000  0.27589000  1.0
  C  C30  1  0.18123000  0.73286000  0.72411000  1.0
  C  C31  1  0.76273000  0.62540000  0.65474000  1.0
  C  C32  1  0.23727000  0.37460000  0.34526000  1.0
  N  N33  1  0.82804000  0.76762000  0.03879000  1.0
  N  N34  1  0.17197000  0.23242000  0.96120000  1.0
  N  N35  1  0.56029000  0.65331000  0.04161000  1.0
  N  N36  1  0.43971000  0.34670000  0.95840000  1.0
  N  N37  1  0.22855000  0.81029000  0.03206000  1.0
  N  N38  1  0.77146000  0.18972000  0.96793000  1.0
  N  N39  1  0.89890000  0.94876000  0.25037000  1.0
  N  N40  1  0.10110000  0.05123000  0.74963000  1.0
  N  N41  1  0.88220000  0.78038000  0.35739000  1.0
  N  N42  1  0.11779000  0.21961000  0.64262000  1.0
  N  N43  1  0.80048000  0.79089000  0.50952000  1.0
  N  N44  1  0.19951000  0.20911000  0.49048000  1.0
