# generated using pymatgen
data_ZnH28C18S2N4(Cl2O5)2
_symmetry_space_group_name_H-M   'P 1'
_cell_length_a   8.30174000
_cell_length_b   9.02555000
_cell_length_c   9.85563000
_cell_angle_alpha   90.81260000
_cell_angle_beta   92.29120000
_cell_angle_gamma   106.74900000
_symmetry_Int_Tables_number   1
_chemical_formula_structural   ZnH28C18S2N4(Cl2O5)2
_chemical_formula_sum   'Zn1 H28 C18 S2 N4 Cl4 O10'
_cell_volume   706.31191265
_cell_formula_units_Z   1
loop_
 _symmetry_equiv_pos_site_id
 _symmetry_equiv_pos_as_xyz
  1  'x, y, z'
loop_
 _atom_site_type_symbol
 _atom_site_label
 _atom_site_symmetry_multiplicity
 _atom_site_fract_x
 _atom_site_fract_y
 _atom_site_fract_z
 _atom_site_occupancy
  Zn  Zn0  1  0.50000000  0.50000000  0.50000000  1.0
  H  H1  1  0.40657000  0.78799000  0.42881000  1.0
  H  H2  1  0.59343000  0.21201000  0.57119000  1.0
  H  H3  1  0.03169000  0.78973000  0.67749000  1.0
  H  H4  1  0.96831000  0.21027000  0.32251000  1.0
  H  H5  1  0.92173000  0.69109000  0.52970000  1.0
  H  H6  1  0.07827000  0.30892000  0.47030000  1.0
  H  H7  1  0.05381000  0.60516000  0.62800000  1.0
  H  H8  1  0.94619000  0.39484000  0.37200000  1.0
  H  H9  1  0.31095000  0.98242000  0.40410000  1.0
  H  H10  1  0.68905000  0.01758000  0.59590000  1.0
  H  H11  1  0.08840000  0.94502000  0.40210000  1.0
  H  H12  1  0.91159000  0.05498000  0.59790000  1.0
  H  H13  1  0.21326000  0.02477000  0.55186000  1.0
  H  H14  1  0.78675000  0.97524000  0.44814000  1.0
  H  H15  1  0.79655000  0.59305000  0.29817000  1.0
  H  H16  1  0.20345000  0.40695000  0.70183000  1.0
  H  H17  1  0.68728000  0.91021000  0.05404000  1.0
  H  H18  1  0.31272000  0.08978000  0.94596000  1.0
  H  H19  1  0.79324000  0.02243000  0.19802000  1.0
  H  H20  1  0.20676000  0.97757000  0.80198000  1.0
  H  H21  1  0.59052000  0.88736000  0.21507000  1.0
  H  H22  1  0.40948000  0.11264000  0.78493000  1.0
  H  H23  1  0.91953000  0.78819000  0.01893000  1.0
  H  H24  1  0.08046000  0.21181000  0.98107000  1.0
  H  H25  1  0.04052000  0.90500000  0.15584000  1.0
  H  H26  1  0.95948000  0.09501000  0.84416000  1.0
  H  H27  1  0.99049000  0.69836000  0.16091000  1.0
  H  H28  1  0.00951000  0.30164000  0.83908000  1.0
  C  C29  1  0.55125000  0.61305000  0.89728000  1.0
  C  C30  1  0.44875000  0.38695000  0.10272000  1.0
  C  C31  1  0.64020000  0.50487000  0.92561000  1.0
  C  C32  1  0.35980000  0.49512000  0.07439000  1.0
  C  C33  1  0.41018000  0.60739000  0.97389000  1.0
  C  C34  1  0.58982000  0.39261000  0.02611000  1.0
  C  C35  1  0.30156000  0.71920000  0.48668000  1.0
  C  C36  1  0.69844000  0.28080000  0.51333000  1.0
  C  C37  1  0.03987000  0.71457000  0.59105000  1.0
  C  C38  1  0.96013000  0.28543000  0.40895000  1.0
  C  C39  1  0.19994000  0.94346000  0.46522000  1.0
  C  C40  1  0.80006000  0.05654000  0.53478000  1.0
  C  C41  1  0.72493000  0.67790000  0.28435000  1.0
  C  C42  1  0.27507000  0.32209000  0.71565000  1.0
  C  C43  1  0.70948000  0.90869000  0.16446000  1.0
  C  C44  1  0.29052000  0.09131000  0.83554000  1.0
  C  C45  1  0.94426000  0.79521000  0.12939000  1.0
  C  C46  1  0.05573000  0.20479000  0.87061000  1.0
  S  S47  1  0.63028000  0.75707000  0.76694000  1.0
  S  S48  1  0.36972000  0.24293000  0.23306000  1.0
  N  N49  1  0.18390000  0.78821000  0.51204000  1.0
  N  N50  1  0.81610000  0.21180000  0.48797000  1.0
  N  N51  1  0.78923000  0.78862000  0.19703000  1.0
  N  N52  1  0.21077000  0.21138000  0.80297000  1.0
  Cl  Cl53  1  0.81676000  0.50683000  0.83978000  1.0
  Cl  Cl54  1  0.18324000  0.49317000  0.16023000  1.0
  Cl  Cl55  1  0.29329000  0.73522000  0.95261000  1.0
  Cl  Cl56  1  0.70671000  0.26478000  0.04739000  1.0
  O  O57  1  0.64772000  0.66441000  0.64650000  1.0
  O  O58  1  0.35227000  0.33558000  0.35350000  1.0
  O  O59  1  0.50989000  0.84392000  0.74321000  1.0
  O  O60  1  0.49011000  0.15608000  0.25679000  1.0
  O  O61  1  0.79397000  0.84836000  0.82533000  1.0
  O  O62  1  0.20603000  0.15164000  0.17467000  1.0
  O  O63  1  0.29549000  0.58447000  0.52314000  1.0
  O  O64  1  0.70451000  0.41553000  0.47686000  1.0
  O  O65  1  0.59351000  0.66693000  0.34773000  1.0
  O  O66  1  0.40649000  0.33307000  0.65227000  1.0
