# generated using pymatgen
data_NiH26C34(NO5)2
_symmetry_space_group_name_H-M   'P 1'
_cell_length_a   9.16695000
_cell_length_b   9.54812000
_cell_length_c   10.02040000
_cell_angle_alpha   70.98070000
_cell_angle_beta   66.18210000
_cell_angle_gamma   89.42780000
_symmetry_Int_Tables_number   1
_chemical_formula_structural   NiH26C34(NO5)2
_chemical_formula_sum   'Ni1 H26 C34 N2 O10'
_cell_volume   751.02254824
_cell_formula_units_Z   1
loop_
 _symmetry_equiv_pos_site_id
 _symmetry_equiv_pos_as_xyz
  1  'x, y, z'
loop_
 _atom_site_type_symbol
 _atom_site_label
 _atom_site_symmetry_multiplicity
 _atom_site_fract_x
 _atom_site_fract_y
 _atom_site_fract_z
 _atom_site_occupancy
  Ni  Ni0  1  0.50000000  0.50000000  0.50000000  1.0
  H  H1  1  0.33444000  0.61996000  0.12316000  1.0
  H  H2  1  0.66555000  0.38003000  0.87685000  1.0
  H  H3  1  0.24440000  0.96338000  0.23101000  1.0
  H  H4  1  0.75560000  0.03662000  0.76899000  1.0
  H  H5  1  0.28196000  0.66020000  0.58928000  1.0
  H  H6  1  0.71805000  0.33981000  0.41072000  1.0
  H  H7  1  0.27863000  0.57307000  0.75621000  1.0
  H  H8  1  0.72137000  0.42694000  0.24379000  1.0
  H  H9  1  0.05119000  0.65601000  0.83564000  1.0
  H  H10  1  0.94881000  0.34399000  0.16436000  1.0
  H  H11  1  0.80163000  0.76092000  0.83874000  1.0
  H  H12  1  0.19838000  0.23908000  0.16125000  1.0
  H  H13  1  0.77139000  0.91694000  0.20503000  1.0
  H  H14  1  0.22861000  0.08305000  0.79496000  1.0
  H  H15  1  0.01662000  0.80828000  0.20648000  1.0
  H  H16  1  0.98337000  0.19171000  0.79352000  1.0
  H  H17  1  0.20891000  0.52976000  0.45281000  1.0
  H  H18  1  0.79108000  0.47024000  0.54720000  1.0
  H  H19  1  0.00099000  0.36682000  0.44913000  1.0
  H  H20  1  0.99901000  0.63318000  0.55087000  1.0
  H  H21  1  0.30376000  0.01771000  0.47355000  1.0
  H  H22  1  0.69624000  0.98230000  0.52645000  1.0
  H  H23  1  0.49857000  0.19575000  0.47303000  1.0
  H  H24  1  0.50144000  0.80426000  0.52697000  1.0
  H  H25  1  0.89885000  0.12724000  0.47140000  1.0
  H  H26  1  0.10116000  0.87276000  0.52859000  1.0
  C  C27  1  0.43803000  0.78307000  0.30507000  1.0
  C  C28  1  0.56198000  0.21694000  0.69493000  1.0
  C  C29  1  0.62631000  0.91718000  0.01571000  1.0
  C  C30  1  0.37369000  0.08282000  0.98428000  1.0
  C  C31  1  0.47925000  0.89895000  0.14679000  1.0
  C  C32  1  0.52075000  0.10105000  0.85321000  1.0
  C  C33  1  0.35799000  0.98258000  0.12865000  1.0
  C  C34  1  0.64202000  0.01742000  0.87134000  1.0
  C  C35  1  0.19988000  0.66238000  0.01676000  1.0
  C  C36  1  0.80010000  0.33760000  0.98325000  1.0
  C  C37  1  0.05063000  0.72487000  0.02118000  1.0
  C  C38  1  0.94937000  0.27512000  0.97883000  1.0
  C  C39  1  0.98970000  0.71341000  0.91654000  1.0
  C  C40  1  0.01030000  0.28658000  0.08347000  1.0
  C  C41  1  0.85007000  0.77257000  0.91813000  1.0
  C  C42  1  0.14993000  0.22743000  0.08187000  1.0
  C  C43  1  0.76822000  0.84509000  0.02290000  1.0
  C  C44  1  0.23178000  0.15491000  0.97710000  1.0
  C  C45  1  0.83074000  0.85714000  0.12617000  1.0
  C  C46  1  0.16927000  0.14286000  0.87383000  1.0
  C  C47  1  0.96921000  0.79717000  0.12641000  1.0
  C  C48  1  0.03079000  0.20282000  0.87359000  1.0
  C  C49  1  0.22402000  0.41530000  0.45861000  1.0
  C  C50  1  0.77597000  0.58471000  0.54139000  1.0
  C  C51  1  0.10833000  0.32330000  0.45804000  1.0
  C  C52  1  0.89167000  0.67670000  0.54196000  1.0
  C  C53  1  0.12860000  0.17378000  0.47155000  1.0
  C  C54  1  0.87140000  0.82622000  0.52845000  1.0
  C  C55  1  0.27502000  0.12904000  0.47275000  1.0
  C  C56  1  0.72498000  0.87096000  0.52725000  1.0
  C  C57  1  0.38558000  0.22852000  0.47041000  1.0
  C  C58  1  0.61442000  0.77148000  0.52959000  1.0
  C  C59  1  0.00094000  0.07462000  0.48407000  1.0
  C  C60  1  0.99906000  0.92538000  0.51592000  1.0
  N  N61  1  0.35968000  0.36864000  0.46868000  1.0
  N  N62  1  0.64032000  0.63137000  0.53132000  1.0
  O  O63  1  0.50659000  0.66539000  0.30828000  1.0
  O  O64  1  0.49341000  0.33461000  0.69171000  1.0
  O  O65  1  0.33498000  0.80704000  0.42310000  1.0
  O  O66  1  0.66504000  0.19297000  0.57690000  1.0
  O  O67  1  0.23119000  0.65816000  0.13936000  1.0
  O  O68  1  0.76879000  0.34183000  0.86066000  1.0
  O  O69  1  0.29175000  0.61703000  0.91509000  1.0
  O  O70  1  0.70824000  0.38294000  0.08493000  1.0
  O  O71  1  0.26255000  0.55869000  0.66970000  1.0
  O  O72  1  0.73746000  0.44132000  0.33030000  1.0
