# generated using pymatgen
data_Zn3H4(C5O3)4
_symmetry_space_group_name_H-M   'P 1'
_cell_length_a   18.53750000
_cell_length_b   18.53760000
_cell_length_c   20.77735702
_cell_angle_alpha   63.51981465
_cell_angle_beta   63.51540752
_cell_angle_gamma   90.02290000
_symmetry_Int_Tables_number   1
_chemical_formula_structural   Zn3H4(C5O3)4
_chemical_formula_sum   'Zn6 H8 C40 O24'
_cell_volume   5540.46413139
_cell_formula_units_Z   2
loop_
 _symmetry_equiv_pos_site_id
 _symmetry_equiv_pos_as_xyz
  1  'x, y, z'
loop_
 _atom_site_type_symbol
 _atom_site_label
 _atom_site_symmetry_multiplicity
 _atom_site_fract_x
 _atom_site_fract_y
 _atom_site_fract_z
 _atom_site_occupancy
  Zn  Zn0  1  0.57004000  0.00001000  0.99998000  1.0
  Zn  Zn1  1  0.45964000  0.45965000  0.08071000  1.0
  Zn  Zn2  1  0.54036000  0.54035000  0.91929000  1.0
  Zn  Zn3  1  0.99999000  0.57002000  0.00002000  1.0
  Zn  Zn4  1  0.42996000  0.99999000  0.00002000  1.0
  Zn  Zn5  1  0.00001000  0.42997000  0.99998000  1.0
  H  H6  1  0.62787000  0.29243000  0.57717000  1.0
  H  H7  1  0.12929000  0.62890000  0.57716000  1.0
  H  H8  1  0.79499000  0.13037000  0.57716000  1.0
  H  H9  1  0.29358000  0.79393000  0.57716000  1.0
  H  H10  1  0.37149000  0.87036000  0.42282000  1.0
  H  H11  1  0.87137000  0.20680000  0.42283000  1.0
  H  H12  1  0.20569000  0.70683000  0.42283000  1.0
  H  H13  1  0.70575000  0.37040000  0.42284000  1.0
  C  C14  1  0.49998000  0.13970000  0.00000000  1.0
  C  C15  1  0.08007000  0.58016000  0.83981000  1.0
  C  C16  1  0.41997000  0.91989000  0.16018000  1.0
  C  C17  1  0.91993000  0.41984000  0.16018000  1.0
  C  C18  1  0.58002000  0.08011000  0.83982000  1.0
  C  C19  1  0.72478000  0.31770000  0.45700000  1.0
  C  C20  1  0.22473000  0.72536000  0.45700000  1.0
  C  C21  1  0.81818000  0.22532000  0.45701000  1.0
  C  C22  1  0.86030000  0.50003000  0.99999000  1.0
  C  C23  1  0.31829000  0.81764000  0.45699000  1.0
  C  C24  1  0.27488000  0.77506000  0.54298000  1.0
  C  C25  1  0.77564000  0.18274000  0.54300000  1.0
  C  C26  1  0.18218000  0.68190000  0.54300000  1.0
  C  C27  1  0.68138000  0.27423000  0.54300000  1.0
  C  C28  1  0.50001000  0.86030000  0.00001000  1.0
  C  C29  1  0.79364000  0.29366000  0.41270000  1.0
  C  C30  1  0.29368000  0.79364000  0.41268000  1.0
  C  C31  1  0.20636000  0.70635000  0.58730000  1.0
  C  C32  1  0.70635000  0.20634000  0.58731000  1.0
  C  C33  1  0.13969000  0.49998000  0.00001000  1.0
  C  C34  1  0.83758000  0.33754000  0.32489000  1.0
  C  C35  1  0.33758000  0.83753000  0.32488000  1.0
  C  C36  1  0.16242000  0.66247000  0.67511000  1.0
  C  C37  1  0.66242000  0.16245000  0.67512000  1.0
  C  C38  1  0.62460000  0.12467000  0.75071000  1.0
  C  C39  1  0.12461000  0.62469000  0.75070000  1.0
  C  C40  1  0.37539000  0.87532000  0.24929000  1.0
  C  C41  1  0.87538000  0.37530000  0.24930000  1.0
  C  C42  1  0.50000000  0.21743000  0.00000000  1.0
  C  C43  1  0.78257000  0.50000000  0.00000000  1.0
  C  C44  1  0.50000000  0.78258000  0.00000000  1.0
  C  C45  1  0.21742000  0.50000000  0.00000000  1.0
  C  C46  1  0.49999000  0.28302000  0.00000000  1.0
  C  C47  1  0.71698000  0.50000000  0.00001000  1.0
  C  C48  1  0.50001000  0.71700000  0.99999000  1.0
  C  C49  1  0.28301000  0.49999000  0.00000000  1.0
  C  C50  1  0.36065000  0.50001000  0.99998000  1.0
  C  C51  1  0.49998000  0.36063000  0.00002000  1.0
  C  C52  1  0.63935000  0.50000000  0.00003000  1.0
  C  C53  1  0.50002000  0.63937000  0.99998000  1.0
  O  O54  1  0.56181000  0.10940000  0.99984000  1.0
  O  O55  1  0.89078000  0.56188000  0.99982000  1.0
  O  O56  1  0.43834000  0.89075000  0.99984000  1.0
  O  O57  1  0.10939000  0.43828000  0.99985000  1.0
  O  O58  1  0.43813000  0.10926000  0.00015000  1.0
  O  O59  1  0.10923000  0.56165000  0.00017000  1.0
  O  O60  1  0.56170000  0.89059000  0.00019000  1.0
  O  O61  1  0.89059000  0.43818000  0.00017000  1.0
  O  O62  1  0.62389000  0.06181000  0.87549000  1.0
  O  O63  1  0.06268000  0.62402000  0.87550000  1.0
  O  O64  1  0.50047000  0.06269000  0.87552000  1.0
  O  O65  1  0.06185000  0.50061000  0.87549000  1.0
  O  O66  1  0.37610000  0.93735000  0.12450000  1.0
  O  O67  1  0.93730000  0.49938000  0.12451000  1.0
  O  O68  1  0.49952000  0.93819000  0.12449000  1.0
  O  O69  1  0.93820000  0.37599000  0.12448000  1.0
  O  O70  1  0.42671000  0.53562000  0.92899000  1.0
  O  O71  1  0.53535000  0.42670000  0.92905000  1.0
  O  O72  1  0.64425000  0.53535000  0.92905000  1.0
  O  O73  1  0.53565000  0.64429000  0.92899000  1.0
  O  O74  1  0.57328000  0.46465000  0.07101000  1.0
  O  O75  1  0.46461000  0.35571000  0.07101000  1.0
  O  O76  1  0.35574000  0.46441000  0.07095000  1.0
  O  O77  1  0.46439000  0.57331000  0.07095000  1.0
