# generated using pymatgen
data_GdH26C34N8O21
_symmetry_space_group_name_H-M   'P 1'
_cell_length_a   12.82960000
_cell_length_b   19.38600000
_cell_length_c   19.38450000
_cell_angle_alpha   102.85900000
_cell_angle_beta   95.93100000
_cell_angle_gamma   95.95550000
_symmetry_Int_Tables_number   1
_chemical_formula_structural   GdH26C34N8O21
_chemical_formula_sum   'Gd4 H104 C136 N32 O84'
_cell_volume   4635.02427962
_cell_formula_units_Z   4
loop_
 _symmetry_equiv_pos_site_id
 _symmetry_equiv_pos_as_xyz
  1  'x, y, z'
loop_
 _atom_site_type_symbol
 _atom_site_label
 _atom_site_symmetry_multiplicity
 _atom_site_fract_x
 _atom_site_fract_y
 _atom_site_fract_z
 _atom_site_occupancy
  Gd  Gd0  1  0.34158000  0.45936000  0.97989000  1.0
  Gd  Gd1  1  0.15840000  0.02017000  0.54067000  1.0
  Gd  Gd2  1  0.65843000  0.54064000  0.02012000  1.0
  Gd  Gd3  1  0.84159000  0.97982000  0.45933000  1.0
  H  H4  1  0.28517000  0.58582000  0.81946000  1.0
  H  H5  1  0.21456000  0.18056000  0.41422000  1.0
  H  H6  1  0.71483000  0.41419000  0.18056000  1.0
  H  H7  1  0.78544000  0.81943000  0.58578000  1.0
  H  H8  1  0.59648000  0.69920000  0.89164000  1.0
  H  H9  1  0.90320000  0.10836000  0.30087000  1.0
  H  H10  1  0.40352000  0.30080000  0.10836000  1.0
  H  H11  1  0.09680000  0.89164000  0.69914000  1.0
  H  H12  1  0.34125000  0.81101000  0.55992000  1.0
  H  H13  1  0.15872000  0.44004000  0.18920000  1.0
  H  H14  1  0.65876000  0.18899000  0.44009000  1.0
  H  H15  1  0.84126000  0.55995000  0.81080000  1.0
  H  H16  1  0.31912000  0.95923000  0.75881000  1.0
  H  H17  1  0.18095000  0.24127000  0.04079000  1.0
  H  H18  1  0.68089000  0.04077000  0.24118000  1.0
  H  H19  1  0.81904000  0.75874000  0.95920000  1.0
  H  H20  1  0.30493000  0.55814000  0.14043000  1.0
  H  H21  1  0.19533000  0.85971000  0.44179000  1.0
  H  H22  1  0.69509000  0.44187000  0.85959000  1.0
  H  H23  1  0.80468000  0.14029000  0.55821000  1.0
  H  H24  1  0.52591000  0.74879000  0.16544000  1.0
  H  H25  1  0.97427000  0.83475000  0.25117000  1.0
  H  H26  1  0.47408000  0.25122000  0.83455000  1.0
  H  H27  1  0.02572000  0.16525000  0.74883000  1.0
  H  H28  1  0.26767000  0.62843000  0.95126000  1.0
  H  H29  1  0.23243000  0.04877000  0.37156000  1.0
  H  H30  1  0.73232000  0.37156000  0.04875000  1.0
  H  H31  1  0.76756000  0.95121000  0.62842000  1.0
  H  H32  1  0.17563000  0.70962000  0.92898000  1.0
  H  H33  1  0.32456000  0.07109000  0.29045000  1.0
  H  H34  1  0.82440000  0.29038000  0.07103000  1.0
  H  H35  1  0.67544000  0.92890000  0.70954000  1.0
  H  H36  1  0.07457000  0.73272000  0.98349000  1.0
  H  H37  1  0.42551000  0.01653000  0.26727000  1.0
  H  H38  1  0.92544000  0.26727000  0.01651000  1.0
  H  H39  1  0.57451000  0.98348000  0.73273000  1.0
  H  H40  1  0.04250000  0.67142000  0.89816000  1.0
  H  H41  1  0.45770000  0.10185000  0.32859000  1.0
  H  H42  1  0.95751000  0.32858000  0.10184000  1.0
  H  H43  1  0.54229000  0.89815000  0.67142000  1.0
  H  H44  1  0.98920000  0.64443000  0.03660000  1.0
  H  H45  1  0.51088000  0.96350000  0.35565000  1.0
  H  H46  1  0.01078000  0.35556000  0.96340000  1.0
  H  H47  1  0.48912000  0.03650000  0.64434000  1.0
  H  H48  1  0.06161000  0.57278000  0.04985000  1.0
  H  H49  1  0.43835000  0.95024000  0.42729000  1.0
  H  H50  1  0.93837000  0.42721000  0.95015000  1.0
  H  H51  1  0.56166000  0.04976000  0.57271000  1.0
  H  H52  1  0.97417000  0.56311000  0.96954000  1.0
  H  H53  1  0.52584000  0.03055000  0.43698000  1.0
  H  H54  1  0.02582000  0.43688000  0.03045000  1.0
  H  H55  1  0.47416000  0.96945000  0.56301000  1.0
  H  H56  1  0.19042000  0.32565000  0.83502000  1.0
  H  H57  1  0.30951000  0.16483000  0.67428000  1.0
  H  H58  1  0.80958000  0.67436000  0.16499000  1.0
  H  H59  1  0.69049000  0.83517000  0.32572000  1.0
  H  H60  1  0.13198000  0.27303000  0.72492000  1.0
  H  H61  1  0.36775000  0.27494000  0.72697000  1.0
  H  H62  1  0.86802000  0.72697000  0.27510000  1.0
  H  H63  1  0.63225000  0.72506000  0.27303000  1.0
  H  H64  1  0.15585000  0.32536000  0.66182000  1.0
  H  H65  1  0.34394000  0.33809000  0.67470000  1.0
  H  H66  1  0.84415000  0.67464000  0.33819000  1.0
  H  H67  1  0.65606000  0.66191000  0.32530000  1.0
  H  H68  1  0.02667000  0.31202000  0.68664000  1.0
  H  H69  1  0.47312000  0.31329000  0.68803000  1.0
  H  H70  1  0.97334000  0.68797000  0.31337000  1.0
  H  H71  1  0.52688000  0.68670000  0.31197000  1.0
  H  H72  1  0.16950000  0.46369000  0.70917000  1.0
  H  H73  1  0.33042000  0.29088000  0.53637000  1.0
  H  H74  1  0.83050000  0.53631000  0.29082000  1.0
  H  H75  1  0.66957000  0.70912000  0.46363000  1.0
  H  H76  1  0.13523000  0.49309000  0.79727000  1.0
  H  H77  1  0.36464000  0.20280000  0.50690000  1.0
  H  H78  1  0.86477000  0.50691000  0.20272000  1.0
  H  H79  1  0.63536000  0.79720000  0.49309000  1.0
  H  H80  1  0.03520000  0.44840000  0.72558000  1.0
  H  H81  1  0.46467000  0.27447000  0.55158000  1.0
  H  H82  1  0.96480000  0.55159000  0.27442000  1.0
  H  H83  1  0.53532000  0.72552000  0.44842000  1.0
  H  H84  1  0.65437000  0.72978000  0.02903000  1.0
  H  H85  1  0.84526000  0.97071000  0.27028000  1.0
  H  H86  1  0.34563000  0.27020000  0.97101000  1.0
  H  H87  1  0.15476000  0.02930000  0.72973000  1.0
  H  H88  1  0.47352000  0.71156000  0.01947000  1.0
  H  H89  1  0.02647000  0.98045000  0.28849000  1.0
  H  H90  1  0.52643000  0.28842000  0.98052000  1.0
  H  H91  1  0.97354000  0.01955000  0.71152000  1.0
  H  H92  1  0.29598000  0.75504000  0.02591000  1.0
  H  H93  1  0.20409000  0.97405000  0.24493000  1.0
  H  H94  1  0.70400000  0.24497000  0.97409000  1.0
  H  H95  1  0.79593000  0.02595000  0.75507000  1.0
  H  H96  1  0.28385000  0.88400000  0.04553000  1.0
  H  H97  1  0.21609000  0.95446000  0.11600000  1.0
  H  H98  1  0.71616000  0.11601000  0.95448000  1.0
  H  H99  1  0.78391000  0.04554000  0.88400000  1.0
  H  H100  1  0.44715000  0.97178000  0.06648000  1.0
  H  H101  1  0.05259000  0.93344000  0.02827000  1.0
  H  H102  1  0.55287000  0.02823000  0.93350000  1.0
  H  H103  1  0.94740000  0.06657000  0.97174000  1.0
  H  H104  1  0.62411000  0.92844000  0.06493000  1.0
  H  H105  1  0.87567000  0.93499000  0.07177000  1.0
  H  H106  1  0.37588000  0.07154000  0.93503000  1.0
  H  H107  1  0.12431000  0.06503000  0.92826000  1.0
  C  C108  1  0.46381000  0.58662000  0.90866000  1.0
  C  C109  1  0.03613000  0.09119000  0.41332000  1.0
  C  C110  1  0.53619000  0.41338000  0.09135000  1.0
  C  C111  1  0.96387000  0.90881000  0.58668000  1.0
  C  C112  1  0.44445000  0.63537000  0.85929000  1.0
  C  C113  1  0.05524000  0.14077000  0.36477000  1.0
  C  C114  1  0.55555000  0.36463000  0.14071000  1.0
  C  C115  1  0.94476000  0.85923000  0.63523000  1.0
  C  C116  1  0.34648000  0.62850000  0.81814000  1.0
  C  C117  1  0.15318000  0.18197000  0.37162000  1.0
  C  C118  1  0.65351000  0.37151000  0.18187000  1.0
  C  C119  1  0.84682000  0.81803000  0.62837000  1.0
  C  C120  1  0.32589000  0.67668000  0.77671000  1.0
  C  C121  1  0.17383000  0.22333000  0.32339000  1.0
  C  C122  1  0.67411000  0.32333000  0.22330000  1.0
  C  C123  1  0.82617000  0.77666000  0.67660000  1.0
  C  C124  1  0.40270000  0.73248000  0.77158000  1.0
  C  C125  1  0.09705000  0.22841000  0.26759000  1.0
  C  C126  1  0.59730000  0.26752000  0.22842000  1.0
  C  C127  1  0.90295000  0.77159000  0.73240000  1.0
  C  C128  1  0.49970000  0.73787000  0.81488000  1.0
  C  C129  1  0.00002000  0.18518000  0.26231000  1.0
  C  C130  1  0.50029000  0.26213000  0.18512000  1.0
  C  C131  1  0.99998000  0.81482000  0.73769000  1.0
  C  C132  1  0.52087000  0.69134000  0.85815000  1.0
  C  C133  1  0.97879000  0.14193000  0.30885000  1.0
  C  C134  1  0.47913000  0.30866000  0.14185000  1.0
  C  C135  1  0.02120000  0.85807000  0.69115000  1.0
  C  C136  1  0.38013000  0.78689000  0.73017000  1.0
  C  C137  1  0.11965000  0.26976000  0.21313000  1.0
  C  C138  1  0.61986000  0.21311000  0.26983000  1.0
  C  C139  1  0.88035000  0.73024000  0.78686000  1.0
  C  C140  1  0.37849000  0.77515000  0.65559000  1.0
  C  C141  1  0.12136000  0.34435000  0.22492000  1.0
  C  C142  1  0.62151000  0.22485000  0.34441000  1.0
  C  C143  1  0.87865000  0.65565000  0.77508000  1.0
  C  C144  1  0.34609000  0.82389000  0.61788000  1.0
  C  C145  1  0.15384000  0.38209000  0.17620000  1.0
  C  C146  1  0.65391000  0.17610000  0.38213000  1.0
  C  C147  1  0.84616000  0.61791000  0.82380000  1.0
  C  C148  1  0.32027000  0.88934000  0.65428000  1.0
  C  C149  1  0.17965000  0.34575000  0.11074000  1.0
  C  C150  1  0.67973000  0.11066000  0.34572000  1.0
  C  C151  1  0.82035000  0.65425000  0.88926000  1.0
  C  C152  1  0.33301000  0.90681000  0.72873000  1.0
  C  C153  1  0.16692000  0.27129000  0.09321000  1.0
  C  C154  1  0.66699000  0.09319000  0.27127000  1.0
  C  C155  1  0.83308000  0.72871000  0.90678000  1.0
  C  C156  1  0.35992000  0.85512000  0.76464000  1.0
  C  C157  1  0.13994000  0.23534000  0.14488000  1.0
  C  C158  1  0.64007000  0.14488000  0.23536000  1.0
  C  C159  1  0.86006000  0.76466000  0.85512000  1.0
  C  C160  1  0.27618000  0.93878000  0.61283000  1.0
  C  C161  1  0.22372000  0.38720000  0.06126000  1.0
  C  C162  1  0.72383000  0.06122000  0.38717000  1.0
  C  C163  1  0.77629000  0.61280000  0.93874000  1.0
  C  C164  1  0.49797000  0.60740000  0.10462000  1.0
  C  C165  1  0.00223000  0.89546000  0.39263000  1.0
  C  C166  1  0.50203000  0.39261000  0.89539000  1.0
  C  C167  1  0.99776000  0.10453000  0.60738000  1.0
  C  C168  1  0.42503000  0.64854000  0.14835000  1.0
  C  C169  1  0.07526000  0.85195000  0.35138000  1.0
  C  C170  1  0.57497000  0.35147000  0.85166000  1.0
  C  C171  1  0.92474000  0.14805000  0.64863000  1.0
  C  C172  1  0.32899000  0.61537000  0.16079000  1.0
  C  C173  1  0.17122000  0.83947000  0.38454000  1.0
  C  C174  1  0.67102000  0.38463000  0.83922000  1.0
  C  C175  1  0.82878000  0.16053000  0.61546000  1.0
  C  C176  1  0.26391000  0.65615000  0.20130000  1.0
  C  C177  1  0.23612000  0.79882000  0.34374000  1.0
  C  C178  1  0.73609000  0.34385000  0.79870000  1.0
  C  C179  1  0.76388000  0.20118000  0.65626000  1.0
  C  C180  1  0.28613000  0.73065000  0.22705000  1.0
  C  C181  1  0.21382000  0.77296000  0.26927000  1.0
  C  C182  1  0.71387000  0.26935000  0.77295000  1.0
  C  C183  1  0.78619000  0.22704000  0.73073000  1.0
  C  C184  1  0.38190000  0.76172000  0.21122000  1.0
  C  C185  1  0.11815000  0.78883000  0.23816000  1.0
  C  C186  1  0.61810000  0.23829000  0.78877000  1.0
  C  C187  1  0.88185000  0.21117000  0.76184000  1.0
  C  C188  1  0.45187000  0.72190000  0.17481000  1.0
  C  C189  1  0.04836000  0.82541000  0.27800000  1.0
  C  C190  1  0.54813000  0.27810000  0.82518000  1.0
  C  C191  1  0.95163000  0.17459000  0.72200000  1.0
  C  C192  1  0.20800000  0.60178000  0.97715000  1.0
  C  C193  1  0.29206000  0.02284000  0.39824000  1.0
  C  C194  1  0.79200000  0.39821000  0.02285000  1.0
  C  C195  1  0.70794000  0.97714000  0.60175000  1.0
  C  C196  1  0.10170000  0.68938000  0.94560000  1.0
  C  C197  1  0.39844000  0.05443000  0.31064000  1.0
  C  C198  1  0.89830000  0.31062000  0.05440000  1.0
  C  C199  1  0.60156000  0.94557000  0.68936000  1.0
  C  C200  1  0.03062000  0.60097000  0.01077000  1.0
  C  C201  1  0.46946000  0.98930000  0.39909000  1.0
  C  C202  1  0.96938000  0.39902000  0.98923000  1.0
  C  C203  1  0.53055000  0.01069000  0.60090000  1.0
  C  C204  1  0.17965000  0.37996000  0.82929000  1.0
  C  C205  1  0.32030000  0.17062000  0.61998000  1.0
  C  C206  1  0.82035000  0.62005000  0.17071000  1.0
  C  C207  1  0.67969000  0.82938000  0.38002000  1.0
  C  C208  1  0.11139000  0.31989000  0.70633000  1.0
  C  C209  1  0.38839000  0.29360000  0.68015000  1.0
  C  C210  1  0.88861000  0.68010000  0.29367000  1.0
  C  C211  1  0.61161000  0.70640000  0.31985000  1.0
  C  C212  1  0.11805000  0.45121000  0.74801000  1.0
  C  C213  1  0.38183000  0.25203000  0.54880000  1.0
  C  C214  1  0.88194000  0.54879000  0.25199000  1.0
  C  C215  1  0.61817000  0.74797000  0.45120000  1.0
  C  C216  1  0.65993000  0.78890000  0.03718000  1.0
  C  C217  1  0.84000000  0.96285000  0.21121000  1.0
  C  C218  1  0.34006000  0.21107000  0.96282000  1.0
  C  C219  1  0.16001000  0.03716000  0.78881000  1.0
  C  C220  1  0.55830000  0.81754000  0.04122000  1.0
  C  C221  1  0.94167000  0.95879000  0.18259000  1.0
  C  C222  1  0.44168000  0.18244000  0.95875000  1.0
  C  C223  1  0.05835000  0.04123000  0.81742000  1.0
  C  C224  1  0.46605000  0.76847000  0.03028000  1.0
  C  C225  1  0.03394000  0.96969000  0.23160000  1.0
  C  C226  1  0.53393000  0.23152000  0.96971000  1.0
  C  C227  1  0.96608000  0.03031000  0.76841000  1.0
  C  C228  1  0.36773000  0.79251000  0.03307000  1.0
  C  C229  1  0.13227000  0.96690000  0.20751000  1.0
  C  C230  1  0.63226000  0.20748000  0.96693000  1.0
  C  C231  1  0.86775000  0.03309000  0.79249000  1.0
  C  C232  1  0.36126000  0.86561000  0.04548000  1.0
  C  C233  1  0.13865000  0.95448000  0.13440000  1.0
  C  C234  1  0.63874000  0.13439000  0.95453000  1.0
  C  C235  1  0.86135000  0.04552000  0.86560000  1.0
  C  C236  1  0.45284000  0.91481000  0.05663000  1.0
  C  C237  1  0.04700000  0.94333000  0.08525000  1.0
  C  C238  1  0.54717000  0.08519000  0.94337000  1.0
  C  C239  1  0.95300000  0.05668000  0.91475000  1.0
  C  C240  1  0.55155000  0.89115000  0.05491000  1.0
  C  C241  1  0.94833000  0.94505000  0.10897000  1.0
  C  C242  1  0.44844000  0.10884000  0.94506000  1.0
  C  C243  1  0.05167000  0.05496000  0.89104000  1.0
  N  N244  1  0.21710000  0.66847000  0.74023000  1.0
  N  N245  1  0.28267000  0.25969000  0.33150000  1.0
  N  N246  1  0.78290000  0.33152000  0.25978000  1.0
  N  N247  1  0.71733000  0.74030000  0.66849000  1.0
  N  N248  1  0.58210000  0.79833000  0.82075000  1.0
  N  N249  1  0.91763000  0.17934000  0.20191000  1.0
  N  N250  1  0.41790000  0.20167000  0.17925000  1.0
  N  N251  1  0.08236000  0.82066000  0.79809000  1.0
  N  N252  1  0.40709000  0.70791000  0.61388000  1.0
  N  N253  1  0.09293000  0.38604000  0.29223000  1.0
  N  N254  1  0.59291000  0.29209000  0.38613000  1.0
  N  N255  1  0.90707000  0.61396000  0.70777000  1.0
  N  N256  1  0.36742000  0.87478000  0.84330000  1.0
  N  N257  1  0.13255000  0.15667000  0.12520000  1.0
  N  N258  1  0.63260000  0.12523000  0.15670000  1.0
  N  N259  1  0.86745000  0.84333000  0.87479000  1.0
  N  N260  1  0.16760000  0.61784000  0.21761000  1.0
  N  N261  1  0.33230000  0.78246000  0.38204000  1.0
  N  N262  1  0.83241000  0.38216000  0.78239000  1.0
  N  N263  1  0.66771000  0.21754000  0.61796000  1.0
  N  N264  1  0.41277000  0.83942000  0.23310000  1.0
  N  N265  1  0.08721000  0.76684000  0.16045000  1.0
  N  N266  1  0.58722000  0.16059000  0.76689000  1.0
  N  N267  1  0.91279000  0.23318000  0.83956000  1.0
  N  N268  1  0.11816000  0.63057000  0.97924000  1.0
  N  N269  1  0.38194000  0.02080000  0.36945000  1.0
  N  N270  1  0.88185000  0.36942000  0.02076000  1.0
  N  N271  1  0.61806000  0.97919000  0.63055000  1.0
  N  N272  1  0.13720000  0.38339000  0.76429000  1.0
  N  N273  1  0.36266000  0.23567000  0.61660000  1.0
  N  N274  1  0.86280000  0.61661000  0.23571000  1.0
  N  N275  1  0.63733000  0.76433000  0.38340000  1.0
  O  O276  1  0.38898000  0.53762000  0.90655000  1.0
  O  O277  1  0.11107000  0.09327000  0.46221000  1.0
  O  O278  1  0.61102000  0.46239000  0.09346000  1.0
  O  O279  1  0.88893000  0.90673000  0.53779000  1.0
  O  O280  1  0.55098000  0.60054000  0.94922000  1.0
  O  O281  1  0.94911000  0.05045000  0.39934000  1.0
  O  O282  1  0.44902000  0.39947000  0.05078000  1.0
  O  O283  1  0.05089000  0.94954000  0.60065000  1.0
  O  O284  1  0.23918000  0.91274000  0.54745000  1.0
  O  O285  1  0.26067000  0.45261000  0.08726000  1.0
  O  O286  1  0.76084000  0.08726000  0.45255000  1.0
  O  O287  1  0.73934000  0.54739000  0.91274000  1.0
  O  O288  1  0.27307000  0.00361000  0.64374000  1.0
  O  O289  1  0.22690000  0.35627000  0.99646000  1.0
  O  O290  1  0.72693000  0.99639000  0.35626000  1.0
  O  O291  1  0.77310000  0.64374000  0.00355000  1.0
  O  O292  1  0.15154000  0.62245000  0.75237000  1.0
  O  O293  1  0.34821000  0.24752000  0.37750000  1.0
  O  O294  1  0.84846000  0.37754000  0.24764000  1.0
  O  O295  1  0.65179000  0.75246000  0.62249000  1.0
  O  O296  1  0.19609000  0.70842000  0.70026000  1.0
  O  O297  1  0.30370000  0.29958000  0.29148000  1.0
  O  O298  1  0.80391000  0.29157000  0.29974000  1.0
  O  O299  1  0.69629000  0.70042000  0.70852000  1.0
  O  O300  1  0.64225000  0.81779000  0.87765000  1.0
  O  O301  1  0.85740000  0.12245000  0.18249000  1.0
  O  O302  1  0.35777000  0.18220000  0.12234000  1.0
  O  O303  1  0.14258000  0.87755000  0.81751000  1.0
  O  O304  1  0.58600000  0.82653000  0.76935000  1.0
  O  O305  1  0.91387000  0.23071000  0.17365000  1.0
  O  O306  1  0.41400000  0.17348000  0.23065000  1.0
  O  O307  1  0.08613000  0.76930000  0.82635000  1.0
  O  O308  1  0.42835000  0.66164000  0.64632000  1.0
  O  O309  1  0.07160000  0.35358000  0.33848000  1.0
  O  O310  1  0.57164000  0.33836000  0.35369000  1.0
  O  O311  1  0.92842000  0.64642000  0.66152000  1.0
  O  O312  1  0.40819000  0.70156000  0.54902000  1.0
  O  O313  1  0.09204000  0.45091000  0.29866000  1.0
  O  O314  1  0.59180000  0.29843000  0.45098000  1.0
  O  O315  1  0.90795000  0.54909000  0.70134000  1.0
  O  O316  1  0.34105000  0.82718000  0.87390000  1.0
  O  O317  1  0.15868000  0.12613000  0.17289000  1.0
  O  O318  1  0.65899000  0.17285000  0.12612000  1.0
  O  O319  1  0.84130000  0.87386000  0.82709000  1.0
  O  O320  1  0.39987000  0.93764000  0.87307000  1.0
  O  O321  1  0.10058000  0.12684000  0.06229000  1.0
  O  O322  1  0.60016000  0.06237000  0.12692000  1.0
  O  O323  1  0.89942000  0.87317000  0.93769000  1.0
  O  O324  1  0.45895000  0.54937000  0.06006000  1.0
  O  O325  1  0.04108000  0.93988000  0.45079000  1.0
  O  O326  1  0.54105000  0.45064000  0.93995000  1.0
  O  O327  1  0.95892000  0.06012000  0.54921000  1.0
  O  O328  1  0.59494000  0.63201000  0.11187000  1.0
  O  O329  1  0.90524000  0.88804000  0.36808000  1.0
  O  O330  1  0.40506000  0.36800000  0.88814000  1.0
  O  O331  1  0.09475000  0.11195000  0.63193000  1.0
  O  O332  1  0.13500000  0.64264000  0.27505000  1.0
  O  O333  1  0.36496000  0.72506000  0.35720000  1.0
  O  O334  1  0.86500000  0.35737000  0.72495000  1.0
  O  O335  1  0.63505000  0.27495000  0.64279000  1.0
  O  O336  1  0.12537000  0.56322000  0.17334000  1.0
  O  O337  1  0.37437000  0.82670000  0.43672000  1.0
  O  O338  1  0.87465000  0.43677000  0.82667000  1.0
  O  O339  1  0.62564000  0.17331000  0.56328000  1.0
  O  O340  1  0.34127000  0.87780000  0.24255000  1.0
  O  O341  1  0.15872000  0.75736000  0.12205000  1.0
  O  O342  1  0.65873000  0.12221000  0.75747000  1.0
  O  O343  1  0.84130000  0.24269000  0.87795000  1.0
  O  O344  1  0.50821000  0.86185000  0.24059000  1.0
  O  O345  1  0.99179000  0.75934000  0.13804000  1.0
  O  O346  1  0.49179000  0.13816000  0.75939000  1.0
  O  O347  1  0.00822000  0.24066000  0.86196000  1.0
  O  O348  1  0.22600000  0.54923000  0.00224000  1.0
  O  O349  1  0.27401000  0.99772000  0.45077000  1.0
  O  O350  1  0.77399000  0.45076000  0.99777000  1.0
  O  O351  1  0.72598000  0.00227000  0.54922000  1.0
  O  O352  1  0.20517000  0.43342000  0.88042000  1.0
  O  O353  1  0.29486000  0.11950000  0.56649000  1.0
  O  O354  1  0.79484000  0.56659000  0.11958000  1.0
  O  O355  1  0.70514000  0.88049000  0.43350000  1.0
  O  O356  1  0.74631000  0.82449000  0.04093000  1.0
  O  O357  1  0.75377000  0.95939000  0.17555000  1.0
  O  O358  1  0.25368000  0.17548000  0.95907000  1.0
  O  O359  1  0.24623000  0.04062000  0.82447000  1.0
