# generated using pymatgen
data_LiH13C11N2O
_symmetry_space_group_name_H-M   'P 1'
_cell_length_a   8.24662000
_cell_length_b   10.66140000
_cell_length_c   12.66700000
_cell_angle_alpha   99.36040000
_cell_angle_beta   90.00000000
_cell_angle_gamma   90.00000000
_symmetry_Int_Tables_number   1
_chemical_formula_structural   LiH13C11N2O
_chemical_formula_sum   'Li4 H52 C44 N8 O4'
_cell_volume   1098.86017266
_cell_formula_units_Z   4
loop_
 _symmetry_equiv_pos_site_id
 _symmetry_equiv_pos_as_xyz
  1  'x, y, z'
loop_
 _atom_site_type_symbol
 _atom_site_label
 _atom_site_symmetry_multiplicity
 _atom_site_fract_x
 _atom_site_fract_y
 _atom_site_fract_z
 _atom_site_occupancy
  Li  Li0  1  0.86455000  0.51127000  0.04689000  1.0
  Li  Li1  1  0.36455000  0.48873000  0.45311000  1.0
  Li  Li2  1  0.13545000  0.48874000  0.95311000  1.0
  Li  Li3  1  0.63545000  0.51127000  0.54689000  1.0
  H  H4  1  0.88215000  0.46208000  0.84296000  1.0
  H  H5  1  0.38215000  0.53793000  0.65704000  1.0
  H  H6  1  0.11785000  0.53791000  0.15704000  1.0
  H  H7  1  0.61785000  0.46208000  0.34296000  1.0
  H  H8  1  0.64871000  0.08568000  0.68100000  1.0
  H  H9  1  0.14873000  0.91433000  0.81900000  1.0
  H  H10  1  0.35129000  0.91433000  0.31900000  1.0
  H  H11  1  0.85128000  0.08567000  0.18100000  1.0
  H  H12  1  0.72850000  0.92815000  0.79704000  1.0
  H  H13  1  0.22851000  0.07185000  0.70296000  1.0
  H  H14  1  0.27149000  0.07185000  0.20296000  1.0
  H  H15  1  0.77149000  0.92815000  0.29704000  1.0
  H  H16  1  0.89781000  0.00006000  0.95859000  1.0
  H  H17  1  0.39782000  0.99995000  0.54141000  1.0
  H  H18  1  0.10218000  0.99993000  0.04141000  1.0
  H  H19  1  0.60217000  0.00005000  0.45859000  1.0
  H  H20  1  0.98812000  0.22302000  0.00504000  1.0
  H  H21  1  0.48813000  0.77698000  0.49496000  1.0
  H  H22  1  0.01188000  0.77697000  0.99497000  1.0
  H  H23  1  0.51188000  0.22302000  0.50504000  1.0
  H  H24  1  0.77799000  0.74636000  0.16271000  1.0
  H  H25  1  0.27799000  0.25364000  0.33729000  1.0
  H  H26  1  0.22201000  0.25364000  0.83729000  1.0
  H  H27  1  0.72201000  0.74636000  0.66271000  1.0
  H  H28  1  0.56598000  0.70873000  0.16751000  1.0
  H  H29  1  0.06598000  0.29127000  0.33249000  1.0
  H  H30  1  0.43402000  0.29127000  0.83249000  1.0
  H  H31  1  0.93403000  0.70874000  0.66751000  1.0
  H  H32  1  0.54935000  0.91737000  0.11385000  1.0
  H  H33  1  0.04934000  0.08263000  0.38615000  1.0
  H  H34  1  0.45065000  0.08263000  0.88615000  1.0
  H  H35  1  0.95065000  0.91737000  0.61385000  1.0
  H  H36  1  0.73080000  0.89121000  0.03753000  1.0
  H  H37  1  0.23080000  0.10879000  0.46247000  1.0
  H  H38  1  0.26919000  0.10879000  0.96247000  1.0
  H  H39  1  0.76920000  0.89121000  0.53753000  1.0
  H  H40  1  0.51998000  0.83789000  0.89939000  1.0
  H  H41  1  0.01998000  0.16211000  0.60061000  1.0
  H  H42  1  0.48001000  0.16211000  0.10061000  1.0
  H  H43  1  0.98001000  0.83789000  0.39938000  1.0
  H  H44  1  0.40048000  0.76216000  0.98694000  1.0
  H  H45  1  0.90048000  0.23784000  0.51306000  1.0
  H  H46  1  0.59952000  0.23784000  0.01306000  1.0
  H  H47  1  0.09952000  0.76216000  0.48693000  1.0
  H  H48  1  0.53951000  0.57653000  0.89796000  1.0
  H  H49  1  0.03951000  0.42347000  0.60204000  1.0
  H  H50  1  0.46049000  0.42347000  0.10203000  1.0
  H  H51  1  0.96049000  0.57653000  0.39796000  1.0
  H  H52  1  0.71587000  0.66593000  0.87426000  1.0
  H  H53  1  0.21587000  0.33407000  0.62574000  1.0
  H  H54  1  0.28413000  0.33408000  0.12574000  1.0
  H  H55  1  0.78412000  0.66592000  0.37426000  1.0
  C  C56  1  0.72587000  0.32965000  0.71187000  1.0
  C  C57  1  0.22588000  0.67036000  0.78814000  1.0
  C  C58  1  0.27414000  0.67036000  0.28814000  1.0
  C  C59  1  0.77412000  0.32964000  0.21185000  1.0
  C  C60  1  0.77307000  0.24221000  0.77782000  1.0
  C  C61  1  0.27308000  0.75781000  0.72219000  1.0
  C  C62  1  0.22694000  0.75779000  0.22219000  1.0
  C  C63  1  0.72692000  0.24219000  0.27781000  1.0
  C  C64  1  0.72336000  0.11407000  0.75194000  1.0
  C  C65  1  0.22336000  0.88593000  0.74807000  1.0
  C  C66  1  0.27665000  0.88593000  0.24807000  1.0
  C  C67  1  0.77664000  0.11407000  0.25193000  1.0
  C  C68  1  0.76760000  0.02670000  0.81616000  1.0
  C  C69  1  0.26761000  0.97332000  0.68384000  1.0
  C  C70  1  0.23239000  0.97330000  0.18384000  1.0
  C  C71  1  0.73239000  0.02668000  0.31616000  1.0
  C  C72  1  0.86392000  0.06843000  0.90720000  1.0
  C  C73  1  0.36393000  0.93156000  0.59280000  1.0
  C  C74  1  0.13607000  0.93157000  0.09280000  1.0
  C  C75  1  0.63607000  0.06843000  0.40720000  1.0
  C  C76  1  0.91480000  0.19291000  0.93374000  1.0
  C  C77  1  0.41480000  0.80710000  0.56626000  1.0
  C  C78  1  0.08521000  0.80709000  0.06627000  1.0
  C  C79  1  0.58520000  0.19290000  0.43373000  1.0
  C  C80  1  0.87154000  0.28819000  0.87095000  1.0
  C  C81  1  0.37154000  0.71181000  0.62905000  1.0
  C  C82  1  0.12847000  0.71181000  0.12906000  1.0
  C  C83  1  0.62846000  0.28818000  0.37095000  1.0
  C  C84  1  0.66507000  0.73334000  0.11613000  1.0
  C  C85  1  0.16506000  0.26666000  0.38386000  1.0
  C  C86  1  0.33493000  0.26666000  0.88386000  1.0
  C  C87  1  0.83494000  0.73334000  0.61613000  1.0
  C  C88  1  0.62049000  0.84567000  0.06183000  1.0
  C  C89  1  0.12048000  0.15433000  0.43817000  1.0
  C  C90  1  0.37951000  0.15433000  0.93817000  1.0
  C  C91  1  0.87951000  0.84567000  0.56183000  1.0
  C  C92  1  0.52544000  0.78097000  0.96407000  1.0
  C  C93  1  0.02544000  0.21903000  0.53593000  1.0
  C  C94  1  0.47456000  0.21903000  0.03594000  1.0
  C  C95  1  0.97456000  0.78097000  0.46406000  1.0
  C  C96  1  0.61758000  0.65660000  0.93162000  1.0
  C  C97  1  0.11758000  0.34340000  0.56838000  1.0
  C  C98  1  0.38242000  0.34341000  0.06838000  1.0
  C  C99  1  0.88242000  0.65660000  0.43162000  1.0
  N  N100  1  0.91997000  0.40922000  0.89922000  1.0
  N  N101  1  0.41997000  0.59078000  0.60078000  1.0
  N  N102  1  0.08003000  0.59077000  0.10079000  1.0
  N  N103  1  0.58003000  0.40922000  0.39922000  1.0
  N  N104  1  0.68958000  0.40456000  0.65788000  1.0
  N  N105  1  0.18958000  0.59545000  0.84212000  1.0
  N  N106  1  0.31043000  0.59544000  0.34212000  1.0
  N  N107  1  0.81041000  0.40455000  0.15788000  1.0
  O  O108  1  0.69049000  0.62763000  0.02963000  1.0
  O  O109  1  0.19049000  0.37237000  0.47037000  1.0
  O  O110  1  0.30951000  0.37238000  0.97037000  1.0
  O  O111  1  0.80951000  0.62763000  0.52963000  1.0
