# generated using pymatgen
data_CuH16C20(NO2)2
_symmetry_space_group_name_H-M   'P 1'
_cell_length_a   9.51370000
_cell_length_b   10.48010000
_cell_length_c   10.55900000
_cell_angle_alpha   116.39200000
_cell_angle_beta   96.95520000
_cell_angle_gamma   103.73300000
_symmetry_Int_Tables_number   1
_chemical_formula_structural   CuH16C20(NO2)2
_chemical_formula_sum   'Cu2 H32 C40 N4 O8'
_cell_volume   884.48106528
_cell_formula_units_Z   2
loop_
 _symmetry_equiv_pos_site_id
 _symmetry_equiv_pos_as_xyz
  1  'x, y, z'
loop_
 _atom_site_type_symbol
 _atom_site_label
 _atom_site_symmetry_multiplicity
 _atom_site_fract_x
 _atom_site_fract_y
 _atom_site_fract_z
 _atom_site_occupancy
  Cu  Cu0  1  0.38397000  0.82393000  0.54769000  1.0
  Cu  Cu1  1  0.61603000  0.17607000  0.45231000  1.0
  H  H2  1  0.12374000  0.11981000  0.33428000  1.0
  H  H3  1  0.87625000  0.88017000  0.66573000  1.0
  H  H4  1  0.05959000  0.95590000  0.35392000  1.0
  H  H5  1  0.94041000  0.04409000  0.64609000  1.0
  H  H6  1  0.18377000  0.09780000  0.10739000  1.0
  H  H7  1  0.81623000  0.90219000  0.89262000  1.0
  H  H8  1  0.14762000  0.93775000  0.84228000  1.0
  H  H9  1  0.85239000  0.06225000  0.15772000  1.0
  H  H10  1  0.99719000  0.54081000  0.88308000  1.0
  H  H11  1  0.00281000  0.45918000  0.11691000  1.0
  H  H12  1  0.03563000  0.70218000  0.15070000  1.0
  H  H13  1  0.96437000  0.29780000  0.84930000  1.0
  H  H14  1  0.01656000  0.51320000  0.64941000  1.0
  H  H15  1  0.98345000  0.48679000  0.35058000  1.0
  H  H16  1  0.94598000  0.64369000  0.62158000  1.0
  H  H17  1  0.05402000  0.35631000  0.37842000  1.0
  H  H18  1  0.22146000  0.03417000  0.61572000  1.0
  H  H19  1  0.77855000  0.96583000  0.38427000  1.0
  H  H20  1  0.20566000  0.25738000  0.83268000  1.0
  H  H21  1  0.79435000  0.74263000  0.16731000  1.0
  H  H22  1  0.57233000  0.22752000  0.09227000  1.0
  H  H23  1  0.42767000  0.77249000  0.90773000  1.0
  H  H24  1  0.57493000  0.00818000  0.86239000  1.0
  H  H25  1  0.42507000  0.99182000  0.13761000  1.0
  H  H26  1  0.33643000  0.51513000  0.00163000  1.0
  H  H27  1  0.66357000  0.48488000  0.99837000  1.0
  H  H28  1  0.32874000  0.73341000  0.22927000  1.0
  H  H29  1  0.67126000  0.26660000  0.77073000  1.0
  H  H30  1  0.39280000  0.52710000  0.47530000  1.0
  H  H31  1  0.60719000  0.47289000  0.52469000  1.0
  H  H32  1  0.41581000  0.30427000  0.26334000  1.0
  H  H33  1  0.58418000  0.69573000  0.73665000  1.0
  C  C34  1  0.29745000  0.03220000  0.38080000  1.0
  C  C35  1  0.70256000  0.96780000  0.61920000  1.0
  C  C36  1  0.13679000  0.01067000  0.30983000  1.0
  C  C37  1  0.86321000  0.98932000  0.69017000  1.0
  C  C38  1  0.10970000  0.91138000  0.14739000  1.0
  C  C39  1  0.89030000  0.08860000  0.85261000  1.0
  C  C40  1  0.14421000  0.97550000  0.05892000  1.0
  C  C41  1  0.85578000  0.02449000  0.94109000  1.0
  C  C42  1  0.12365000  0.88520000  0.90956000  1.0
  C  C43  1  0.87634000  0.11480000  0.09045000  1.0
  C  C44  1  0.06854000  0.72772000  0.84334000  1.0
  C  C45  1  0.93146000  0.27228000  0.15666000  1.0
  C  C46  1  0.03854000  0.66329000  0.93237000  1.0
  C  C47  1  0.96146000  0.33670000  0.06763000  1.0
  C  C48  1  0.05885000  0.75388000  0.08239000  1.0
  C  C49  1  0.94114000  0.24610000  0.91761000  1.0
  C  C50  1  0.04212000  0.63263000  0.68019000  1.0
  C  C51  1  0.95788000  0.36737000  0.31981000  1.0
  C  C52  1  0.18134000  0.68168000  0.63300000  1.0
  C  C53  1  0.81866000  0.31833000  0.36700000  1.0
  C  C54  1  0.29841000  0.08299000  0.72276000  1.0
  C  C55  1  0.70160000  0.91702000  0.27723000  1.0
  C  C56  1  0.29063000  0.20685000  0.84418000  1.0
  C  C57  1  0.70937000  0.79315000  0.15581000  1.0
  C  C58  1  0.38731000  0.26082000  0.98145000  1.0
  C  C59  1  0.61270000  0.73919000  0.01855000  1.0
  C  C60  1  0.49155000  0.18777000  0.98877000  1.0
  C  C61  1  0.50846000  0.81224000  0.01122000  1.0
  C  C62  1  0.49403000  0.06601000  0.86097000  1.0
  C  C63  1  0.50598000  0.93400000  0.13902000  1.0
  C  C64  1  0.37831000  0.39029000  0.11250000  1.0
  C  C65  1  0.62168000  0.60971000  0.88749000  1.0
  C  C66  1  0.35068000  0.51238000  0.10428000  1.0
  C  C67  1  0.64932000  0.48762000  0.89572000  1.0
  C  C68  1  0.34613000  0.63461000  0.22975000  1.0
  C  C69  1  0.65387000  0.36540000  0.77026000  1.0
  C  C70  1  0.38491000  0.51978000  0.36831000  1.0
  C  C71  1  0.61508000  0.48021000  0.63168000  1.0
  C  C72  1  0.39532000  0.39545000  0.24872000  1.0
  C  C73  1  0.60467000  0.60455000  0.75127000  1.0
  N  N74  1  0.39894000  0.01354000  0.73026000  1.0
  N  N75  1  0.60106000  0.98646000  0.26974000  1.0
  N  N76  1  0.36337000  0.63852000  0.35992000  1.0
  N  N77  1  0.63662000  0.36148000  0.64008000  1.0
  O  O78  1  0.31953000  0.93170000  0.40604000  1.0
  O  O79  1  0.68048000  0.06831000  0.59397000  1.0
  O  O80  1  0.39845000  0.14990000  0.39978000  1.0
  O  O81  1  0.60155000  0.85010000  0.60021000  1.0
  O  O82  1  0.30112000  0.66635000  0.67874000  1.0
  O  O83  1  0.69888000  0.33366000  0.32127000  1.0
  O  O84  1  0.16841000  0.74235000  0.55073000  1.0
  O  O85  1  0.83159000  0.25765000  0.44927000  1.0
