# generated using pymatgen
data_CaH17C8NCl2O3
_symmetry_space_group_name_H-M   'P 1'
_cell_length_a   9.10617000
_cell_length_b   9.83335000
_cell_length_c   15.61140000
_cell_angle_alpha   73.11200000
_cell_angle_beta   89.31260000
_cell_angle_gamma   75.08310000
_symmetry_Int_Tables_number   1
_chemical_formula_structural   CaH17C8NCl2O3
_chemical_formula_sum   'Ca4 H68 C32 N4 Cl8 O12'
_cell_volume   1289.56323083
_cell_formula_units_Z   4
loop_
 _symmetry_equiv_pos_site_id
 _symmetry_equiv_pos_as_xyz
  1  'x, y, z'
loop_
 _atom_site_type_symbol
 _atom_site_label
 _atom_site_symmetry_multiplicity
 _atom_site_fract_x
 _atom_site_fract_y
 _atom_site_fract_z
 _atom_site_occupancy
  Ca  Ca0  1  0.78318000  0.03536000  0.04769000  1.0
  Ca  Ca1  1  0.21682000  0.96464000  0.95231000  1.0
  Ca  Ca2  1  0.98724000  0.90244000  0.34937000  1.0
  Ca  Ca3  1  0.01276000  0.09756000  0.65063000  1.0
  H  H4  1  0.10691000  0.77287000  0.20051000  1.0
  H  H5  1  0.89310000  0.22713000  0.79949000  1.0
  H  H6  1  0.73225000  0.81749000  0.27959000  1.0
  H  H7  1  0.26775000  0.18251000  0.72041000  1.0
  H  H8  1  0.39712000  0.40991000  0.87032000  1.0
  H  H9  1  0.60288000  0.59009000  0.12968000  1.0
  H  H10  1  0.43945000  0.52782000  0.92749000  1.0
  H  H11  1  0.56055000  0.47218000  0.07251000  1.0
  H  H12  1  0.16297000  0.47596000  0.08806000  1.0
  H  H13  1  0.83703000  0.52404000  0.91194000  1.0
  H  H14  1  0.09566000  0.35309000  0.04392000  1.0
  H  H15  1  0.90434000  0.64691000  0.95608000  1.0
  H  H16  1  0.30857000  0.21998000  0.20797000  1.0
  H  H17  1  0.69143000  0.78002000  0.79203000  1.0
  H  H18  1  0.47531000  0.12433000  0.16758000  1.0
  H  H19  1  0.52469000  0.87567000  0.83242000  1.0
  H  H20  1  0.28091000  0.98130000  0.21236000  1.0
  H  H21  1  0.71909000  0.01870000  0.78764000  1.0
  H  H22  1  0.14770000  0.11372000  0.12799000  1.0
  H  H23  1  0.85230000  0.88628000  0.87201000  1.0
  H  H24  1  0.32613000  0.82794000  0.67972000  1.0
  H  H25  1  0.67387000  0.17206000  0.32028000  1.0
  H  H26  1  0.42123000  0.87980000  0.57956000  1.0
  H  H27  1  0.57877000  0.12020000  0.42044000  1.0
  H  H28  1  0.30477000  0.72970000  0.51096000  1.0
  H  H29  1  0.69524000  0.27030000  0.48904000  1.0
  H  H30  1  0.41914000  0.61930000  0.61139000  1.0
  H  H31  1  0.58086000  0.38070000  0.38861000  1.0
  H  H32  1  0.20435000  0.64580000  0.75480000  1.0
  H  H33  1  0.79565000  0.35420000  0.24521000  1.0
  H  H34  1  0.25629000  0.47078000  0.73325000  1.0
  H  H35  1  0.74371000  0.52922000  0.26675000  1.0
  H  H36  1  0.95776000  0.48818000  0.61140000  1.0
  H  H37  1  0.04224000  0.51182000  0.38860000  1.0
  H  H38  1  0.83656000  0.66502000  0.60550000  1.0
  H  H39  1  0.16345000  0.33498000  0.39450000  1.0
  H  H40  1  0.00068000  0.46899000  0.76786000  1.0
  H  H41  1  0.99932000  0.53101000  0.23214000  1.0
  H  H42  1  0.94318000  0.66486000  0.74397000  1.0
  H  H43  1  0.05682000  0.33514000  0.25603000  1.0
  H  H44  1  0.30371000  0.62372000  0.36012000  1.0
  H  H45  1  0.69630000  0.37627000  0.63989000  1.0
  H  H46  1  0.36160000  0.74985000  0.26819000  1.0
  H  H47  1  0.63840000  0.25014000  0.73181000  1.0
  H  H48  1  0.60274000  0.61413000  0.37772000  1.0
  H  H49  1  0.39726000  0.38587000  0.62228000  1.0
  H  H50  1  0.54612000  0.64250000  0.48172000  1.0
  H  H51  1  0.45388000  0.35750000  0.51828000  1.0
  H  H52  1  0.74184000  0.56750000  0.46836000  1.0
  H  H53  1  0.25816000  0.43251000  0.53164000  1.0
  H  H54  1  0.32163000  0.60112000  0.16693000  1.0
  H  H55  1  0.67837000  0.39888000  0.83307000  1.0
  H  H56  1  0.27913000  0.46752000  0.26167000  1.0
  H  H57  1  0.72087000  0.53248000  0.73833000  1.0
  H  H58  1  0.46313000  0.49963000  0.25516000  1.0
  H  H59  1  0.53687000  0.50037000  0.74483000  1.0
  H  H60  1  0.17147000  0.61632000  0.93678000  1.0
  H  H61  1  0.82853000  0.38368000  0.06322000  1.0
  H  H62  1  0.13780000  0.47363000  0.89807000  1.0
  H  H63  1  0.86221000  0.52637000  0.10193000  1.0
  H  H64  1  0.69342000  0.83373000  0.45830000  1.0
  H  H65  1  0.30658000  0.16627000  0.54170000  1.0
  H  H66  1  0.54985000  0.88233000  0.37053000  1.0
  H  H67  1  0.45015000  0.11767000  0.62947000  1.0
  H  H68  1  0.18410000  0.98946000  0.50377000  1.0
  H  H69  1  0.81590000  0.01054000  0.49623000  1.0
  H  H70  1  0.43457000  0.93363000  0.09944000  1.0
  H  H71  1  0.56543000  0.06637000  0.90056000  1.0
  C  C72  1  0.37699000  0.44485000  0.93093000  1.0
  C  C73  1  0.62301000  0.55515000  0.06907000  1.0
  C  C74  1  0.18711000  0.40802000  0.04191000  1.0
  C  C75  1  0.81289000  0.59198000  0.95809000  1.0
  C  C76  1  0.43996000  0.31175000  0.01059000  1.0
  C  C77  1  0.56004000  0.68825000  0.98940000  1.0
  C  C78  1  0.35271000  0.17654000  0.15247000  1.0
  C  C79  1  0.64729000  0.82346000  0.84753000  1.0
  C  C80  1  0.06338000  0.66340000  0.56659000  1.0
  C  C81  1  0.93662000  0.33660000  0.43341000  1.0
  C  C82  1  0.26979000  0.06308000  0.14593000  1.0
  C  C83  1  0.73021000  0.93692000  0.85407000  1.0
  C  C84  1  0.31927000  0.84622000  0.60682000  1.0
  C  C85  1  0.68073000  0.15378000  0.39318000  1.0
  C  C86  1  0.31371000  0.70675000  0.58418000  1.0
  C  C87  1  0.68629000  0.29325000  0.41582000  1.0
  C  C88  1  0.17548000  0.58122000  0.71390000  1.0
  C  C89  1  0.82452000  0.41878000  0.28610000  1.0
  C  C90  1  0.95264000  0.59351000  0.62443000  1.0
  C  C91  1  0.04737000  0.40649000  0.37557000  1.0
  C  C92  1  0.00898000  0.57338000  0.72080000  1.0
  C  C93  1  0.99102000  0.42662000  0.27920000  1.0
  C  C94  1  0.29100000  0.67119000  0.28665000  1.0
  C  C95  1  0.70900000  0.32881000  0.71335000  1.0
  C  C96  1  0.63612000  0.64710000  0.43443000  1.0
  C  C97  1  0.36388000  0.35290000  0.56557000  1.0
  C  C98  1  0.34069000  0.55271000  0.24006000  1.0
  C  C99  1  0.65931000  0.44729000  0.75994000  1.0
  C  C100  1  0.20739000  0.49766000  0.94565000  1.0
  C  C101  1  0.79261000  0.50234000  0.05435000  1.0
  C  C102  1  0.65726000  0.80132000  0.40203000  1.0
  C  C103  1  0.34274000  0.19868000  0.59797000  1.0
  N  N104  1  0.33296000  0.29698000  0.07001000  1.0
  N  N105  1  0.66704000  0.70302000  0.92999000  1.0
  N  N106  1  0.18364000  0.65481000  0.61872000  1.0
  N  N107  1  0.81636000  0.34519000  0.38128000  1.0
  Cl  Cl108  1  0.04018000  0.80326000  0.06346000  1.0
  Cl  Cl109  1  0.95982000  0.19674000  0.93654000  1.0
  Cl  Cl110  1  0.65113000  0.83118000  0.15718000  1.0
  Cl  Cl111  1  0.34887000  0.16882000  0.84282000  1.0
  Cl  Cl112  1  0.86883000  0.10947000  0.19117000  1.0
  Cl  Cl113  1  0.13117000  0.89053000  0.80883000  1.0
  Cl  Cl114  1  0.21727000  0.02190000  0.37486000  1.0
  Cl  Cl115  1  0.78274000  0.97810000  0.62514000  1.0
  O  O116  1  0.57272000  0.22851000  0.02095000  1.0
  O  O117  1  0.42727000  0.77149000  0.97905000  1.0
  O  O118  1  0.18363000  0.96134000  0.57117000  1.0
  O  O119  1  0.81637000  0.03866000  0.42883000  1.0
  O  O120  1  0.32781000  0.99295000  0.07911000  1.0
  O  O121  1  0.67218000  0.00705000  0.92089000  1.0
  O  O122  1  0.05005000  0.71642000  0.48263000  1.0
  O  O123  1  0.94995000  0.28358000  0.51737000  1.0
  O  O124  1  0.13199000  0.74984000  0.26586000  1.0
  O  O125  1  0.86802000  0.25016000  0.73414000  1.0
  O  O126  1  0.77524000  0.80947000  0.33986000  1.0
  O  O127  1  0.22476000  0.19053000  0.66014000  1.0
