# generated using pymatgen
data_CuH4(CN)7
_symmetry_space_group_name_H-M   'P 1'
_cell_length_a   7.94459000
_cell_length_b   9.25985000
_cell_length_c   12.72390000
_cell_angle_alpha   89.99890000
_cell_angle_beta   97.36800000
_cell_angle_gamma   89.99980000
_symmetry_Int_Tables_number   1
_chemical_formula_structural   CuH4(CN)7
_chemical_formula_sum   'Cu4 H16 C28 N28'
_cell_volume   928.31379853
_cell_formula_units_Z   4
loop_
 _symmetry_equiv_pos_site_id
 _symmetry_equiv_pos_as_xyz
  1  'x, y, z'
loop_
 _atom_site_type_symbol
 _atom_site_label
 _atom_site_symmetry_multiplicity
 _atom_site_fract_x
 _atom_site_fract_y
 _atom_site_fract_z
 _atom_site_occupancy
  Cu  Cu0  1  0.81729000  0.34877000  0.67395000  1.0
  Cu  Cu1  1  0.31728000  0.15123000  0.17396000  1.0
  Cu  Cu2  1  0.18270000  0.65123000  0.32604000  1.0
  Cu  Cu3  1  0.68271000  0.84877000  0.82604000  1.0
  H  H4  1  0.75311000  0.63004000  0.57264000  1.0
  H  H5  1  0.25312000  0.86996000  0.07264000  1.0
  H  H6  1  0.24689000  0.36995000  0.42736000  1.0
  H  H7  1  0.74690000  0.13004000  0.92735000  1.0
  H  H8  1  0.33351000  0.17101000  0.54721000  1.0
  H  H9  1  0.83350000  0.32898000  0.04721000  1.0
  H  H10  1  0.66650000  0.82897000  0.45279000  1.0
  H  H11  1  0.16650000  0.67102000  0.95278000  1.0
  H  H12  1  0.54741000  0.13607000  0.52736000  1.0
  H  H13  1  0.04740000  0.36393000  0.02736000  1.0
  H  H14  1  0.45261000  0.86393000  0.47264000  1.0
  H  H15  1  0.95260000  0.63607000  0.97264000  1.0
  H  H16  1  0.50235000  0.19499000  0.65306000  1.0
  H  H17  1  0.00234000  0.30500000  0.15306000  1.0
  H  H18  1  0.49766000  0.80501000  0.34694000  1.0
  H  H19  1  0.99765000  0.69499000  0.84694000  1.0
  C  C20  1  0.63852000  0.57327000  0.53933000  1.0
  C  C21  1  0.13853000  0.92673000  0.03933000  1.0
  C  C22  1  0.36148000  0.42672000  0.46067000  1.0
  C  C23  1  0.86149000  0.07328000  0.96066000  1.0
  C  C24  1  0.48451000  0.35981000  0.53330000  1.0
  C  C25  1  0.98450000  0.14018000  0.03329000  1.0
  C  C26  1  0.51551000  0.64019000  0.46671000  1.0
  C  C27  1  0.01550000  0.85982000  0.96670000  1.0
  C  C28  1  0.46500000  0.20733000  0.56743000  1.0
  C  C29  1  0.96499000  0.29267000  0.06742000  1.0
  C  C30  1  0.53501000  0.79267000  0.43257000  1.0
  C  C31  1  0.03501000  0.70733000  0.93257000  1.0
  C  C32  1  0.91849000  0.17771000  0.48001000  1.0
  C  C33  1  0.41850000  0.32230000  0.98001000  1.0
  C  C34  1  0.08149000  0.82229000  0.51999000  1.0
  C  C35  1  0.58150000  0.67771000  0.02000000  1.0
  C  C36  1  0.10460000  0.16734000  0.78929000  1.0
  C  C37  1  0.60457000  0.33265000  0.28929000  1.0
  C  C38  1  0.89542000  0.83266000  0.21071000  1.0
  C  C39  1  0.39542000  0.66734000  0.71071000  1.0
  C  C40  1  0.36970000  0.05622000  0.82460000  1.0
  C  C41  1  0.86968000  0.44378000  0.32460000  1.0
  C  C42  1  0.63032000  0.94379000  0.17540000  1.0
  C  C43  1  0.13030000  0.55622000  0.67540000  1.0
  C  C44  1  0.07212000  0.11431000  0.34348000  1.0
  C  C45  1  0.57213000  0.38568000  0.84349000  1.0
  C  C46  1  0.92786000  0.88569000  0.65651000  1.0
  C  C47  1  0.42787000  0.61431000  0.15652000  1.0
  N  N48  1  0.62286000  0.43712000  0.57106000  1.0
  N  N49  1  0.12285000  0.06289000  0.07106000  1.0
  N  N50  1  0.37716000  0.56289000  0.42894000  1.0
  N  N51  1  0.87715000  0.93712000  0.92894000  1.0
  N  N52  1  0.87616000  0.23322000  0.55555000  1.0
  N  N53  1  0.37616000  0.26679000  0.05555000  1.0
  N  N54  1  0.12383000  0.76678000  0.44445000  1.0
  N  N55  1  0.62384000  0.73322000  0.94446000  1.0
  N  N56  1  0.99582000  0.25443000  0.77253000  1.0
  N  N57  1  0.49581000  0.24556000  0.27253000  1.0
  N  N58  1  0.00417000  0.74557000  0.22747000  1.0
  N  N59  1  0.50419000  0.75444000  0.72748000  1.0
  N  N60  1  0.20675000  0.06322000  0.81694000  1.0
  N  N61  1  0.70673000  0.43679000  0.31695000  1.0
  N  N62  1  0.79326000  0.93679000  0.18305000  1.0
  N  N63  1  0.29327000  0.56321000  0.68305000  1.0
  N  N64  1  0.51769000  0.03589000  0.83588000  1.0
  N  N65  1  0.01769000  0.46411000  0.33587000  1.0
  N  N66  1  0.48232000  0.96412000  0.16413000  1.0
  N  N67  1  0.98231000  0.53589000  0.66413000  1.0
  N  N68  1  0.18200000  0.10894000  0.28962000  1.0
  N  N69  1  0.68201000  0.39105000  0.78963000  1.0
  N  N70  1  0.81798000  0.89106000  0.71038000  1.0
  N  N71  1  0.31798000  0.60893000  0.21038000  1.0
  N  N72  1  0.94575000  0.10639000  0.39710000  1.0
  N  N73  1  0.44578000  0.39360000  0.89711000  1.0
  N  N74  1  0.05422000  0.89361000  0.60289000  1.0
  N  N75  1  0.55423000  0.60641000  0.10291000  1.0
