# generated using pymatgen
data_CuH8C11SN4
_symmetry_space_group_name_H-M   'P 1'
_cell_length_a   9.20889000
_cell_length_b   11.30540000
_cell_length_c   11.30550000
_cell_angle_alpha   91.18650000
_cell_angle_beta   101.85000000
_cell_angle_gamma   101.85000000
_symmetry_Int_Tables_number   1
_chemical_formula_structural   CuH8C11SN4
_chemical_formula_sum   'Cu4 H32 C44 S4 N16'
_cell_volume   1124.95276350
_cell_formula_units_Z   4
loop_
 _symmetry_equiv_pos_site_id
 _symmetry_equiv_pos_as_xyz
  1  'x, y, z'
loop_
 _atom_site_type_symbol
 _atom_site_label
 _atom_site_symmetry_multiplicity
 _atom_site_fract_x
 _atom_site_fract_y
 _atom_site_fract_z
 _atom_site_occupancy
  Cu  Cu0  1  0.26745000  0.75472000  0.85122000  1.0
  Cu  Cu1  1  0.23253000  0.14878000  0.24529000  1.0
  Cu  Cu2  1  0.73253000  0.24528000  0.14878000  1.0
  Cu  Cu3  1  0.76745000  0.85121000  0.75470000  1.0
  H  H4  1  0.59284000  0.07429000  0.83233000  1.0
  H  H5  1  0.90717000  0.16767000  0.92571000  1.0
  H  H6  1  0.40717000  0.92571000  0.16767000  1.0
  H  H7  1  0.09285000  0.83233000  0.07430000  1.0
  H  H8  1  0.46396000  0.18916000  0.95595000  1.0
  H  H9  1  0.03604000  0.04405000  0.81084000  1.0
  H  H10  1  0.53605000  0.81084000  0.04405000  1.0
  H  H11  1  0.96396000  0.95595000  0.18916000  1.0
  H  H12  1  0.29654000  0.26329000  0.01216000  1.0
  H  H13  1  0.20347000  0.98784000  0.73671000  1.0
  H  H14  1  0.70347000  0.73670000  0.98784000  1.0
  H  H15  1  0.79654000  0.01216000  0.26329000  1.0
  H  H16  1  0.17328000  0.39818000  0.11554000  1.0
  H  H17  1  0.32672000  0.88446000  0.60182000  1.0
  H  H18  1  0.82673000  0.60182000  0.88446000  1.0
  H  H19  1  0.67328000  0.11555000  0.39817000  1.0
  H  H20  1  0.16567000  0.60389000  0.04361000  1.0
  H  H21  1  0.33432000  0.95639000  0.39611000  1.0
  H  H22  1  0.83433000  0.39611000  0.95639000  1.0
  H  H23  1  0.66567000  0.04362000  0.60388000  1.0
  H  H24  1  0.40417000  0.55133000  0.77847000  1.0
  H  H25  1  0.09582000  0.22152000  0.44868000  1.0
  H  H26  1  0.59583000  0.44868000  0.22153000  1.0
  H  H27  1  0.90418000  0.77847000  0.55133000  1.0
  H  H28  1  0.42361000  0.44027000  0.37263000  1.0
  H  H29  1  0.07639000  0.62737000  0.55973000  1.0
  H  H30  1  0.57639000  0.55973000  0.62737000  1.0
  H  H31  1  0.92361000  0.37263000  0.44028000  1.0
  H  H32  1  0.34546000  0.41717000  0.50445000  1.0
  H  H33  1  0.15454000  0.49555000  0.58283000  1.0
  H  H34  1  0.65454000  0.58283000  0.49555000  1.0
  H  H35  1  0.84546000  0.50445000  0.41717000  1.0
  C  C36  1  0.52388000  0.28469000  0.64990000  1.0
  C  C37  1  0.97612000  0.35011000  0.71532000  1.0
  C  C38  1  0.47613000  0.71532000  0.35010000  1.0
  C  C39  1  0.02388000  0.64990000  0.28469000  1.0
  C  C40  1  0.55259000  0.15446000  0.79909000  1.0
  C  C41  1  0.94742000  0.20092000  0.84555000  1.0
  C  C42  1  0.44743000  0.84555000  0.20091000  1.0
  C  C43  1  0.05259000  0.79909000  0.15446000  1.0
  C  C44  1  0.47948000  0.21736000  0.86721000  1.0
  C  C45  1  0.02052000  0.13279000  0.78264000  1.0
  C  C46  1  0.52053000  0.78265000  0.13279000  1.0
  C  C47  1  0.97948000  0.86721000  0.21736000  1.0
  C  C48  1  0.43319000  0.32003000  0.81840000  1.0
  C  C49  1  0.06681000  0.18160000  0.67997000  1.0
  C  C50  1  0.56682000  0.67997000  0.18160000  1.0
  C  C51  1  0.93319000  0.81840000  0.32003000  1.0
  C  C52  1  0.35891000  0.39580000  0.88439000  1.0
  C  C53  1  0.14109000  0.11561000  0.60420000  1.0
  C  C54  1  0.64109000  0.60419000  0.11561000  1.0
  C  C55  1  0.85891000  0.88439000  0.39580000  1.0
  C  C56  1  0.29486000  0.35401000  0.98213000  1.0
  C  C57  1  0.20514000  0.01787000  0.64600000  1.0
  C  C58  1  0.70514000  0.64599000  0.01787000  1.0
  C  C59  1  0.79486000  0.98213000  0.35400000  1.0
  C  C60  1  0.22593000  0.42921000  0.04063000  1.0
  C  C61  1  0.27407000  0.95937000  0.57079000  1.0
  C  C62  1  0.77407000  0.57078000  0.95937000  1.0
  C  C63  1  0.72593000  0.04063000  0.42921000  1.0
  C  C64  1  0.22084000  0.54380000  0.00008000  1.0
  C  C65  1  0.27915000  0.99991000  0.45620000  1.0
  C  C66  1  0.77916000  0.45619000  0.99992000  1.0
  C  C67  1  0.72084000  0.00009000  0.54379000  1.0
  C  C68  1  0.35203000  0.51381000  0.85163000  1.0
  C  C69  1  0.14797000  0.14837000  0.48620000  1.0
  C  C70  1  0.64797000  0.48619000  0.14837000  1.0
  C  C71  1  0.85203000  0.85163000  0.51380000  1.0
  C  C72  1  0.45148000  0.43922000  0.47175000  1.0
  C  C73  1  0.04853000  0.52825000  0.56078000  1.0
  C  C74  1  0.54852000  0.56078000  0.52825000  1.0
  C  C75  1  0.95148000  0.47175000  0.43923000  1.0
  C  C76  1  0.58259000  0.83550000  0.79664000  1.0
  C  C77  1  0.91738000  0.20335000  0.16449000  1.0
  C  C78  1  0.41738000  0.16449000  0.20335000  1.0
  C  C79  1  0.08261000  0.79664000  0.83551000  1.0
  S  S80  1  0.54854000  0.31583000  0.50317000  1.0
  S  S81  1  0.95145000  0.49683000  0.68417000  1.0
  S  S82  1  0.45146000  0.68418000  0.49683000  1.0
  S  S83  1  0.04855000  0.50317000  0.31583000  1.0
  N  N84  1  0.45639000  0.35395000  0.70888000  1.0
  N  N85  1  0.04361000  0.29112000  0.64605000  1.0
  N  N86  1  0.54362000  0.64605000  0.29112000  1.0
  N  N87  1  0.95640000  0.70888000  0.35395000  1.0
  N  N88  1  0.57555000  0.18646000  0.69020000  1.0
  N  N89  1  0.92446000  0.30981000  0.81354000  1.0
  N  N90  1  0.42446000  0.81354000  0.30980000  1.0
  N  N91  1  0.07556000  0.69019000  0.18647000  1.0
  N  N92  1  0.28430000  0.58607000  0.90737000  1.0
  N  N93  1  0.21569000  0.09263000  0.41394000  1.0
  N  N94  1  0.71570000  0.41393000  0.09264000  1.0
  N  N95  1  0.78430000  0.90737000  0.58606000  1.0
  N  N96  1  0.46072000  0.81579000  0.81939000  1.0
  N  N97  1  0.03925000  0.18060000  0.18420000  1.0
  N  N98  1  0.53925000  0.18420000  0.18061000  1.0
  N  N99  1  0.96073000  0.81939000  0.81580000  1.0
