# generated using pymatgen
data_Sm2CuH20C32(NO7)4
_symmetry_space_group_name_H-M   'P 1'
_cell_length_a   10.26130000
_cell_length_b   10.75430000
_cell_length_c   11.37650000
_cell_angle_alpha   86.28300000
_cell_angle_beta   75.02750000
_cell_angle_gamma   68.19190000
_symmetry_Int_Tables_number   1
_chemical_formula_structural   Sm2CuH20C32(NO7)4
_chemical_formula_sum   'Sm2 Cu1 H20 C32 N4 O28'
_cell_volume   1125.33392585
_cell_formula_units_Z   1
loop_
 _symmetry_equiv_pos_site_id
 _symmetry_equiv_pos_as_xyz
  1  'x, y, z'
loop_
 _atom_site_type_symbol
 _atom_site_label
 _atom_site_symmetry_multiplicity
 _atom_site_fract_x
 _atom_site_fract_y
 _atom_site_fract_z
 _atom_site_occupancy
  Sm  Sm0  1  0.58320000  0.61075000  0.63157000  1.0
  Sm  Sm1  1  0.41680000  0.38924000  0.36843000  1.0
  Cu  Cu2  1  0.00000000  0.50001000  0.50000000  1.0
  H  H3  1  0.36277000  0.98205000  0.45087000  1.0
  H  H4  1  0.63721000  0.01794000  0.54915000  1.0
  H  H5  1  0.96102000  0.17981000  0.34821000  1.0
  H  H6  1  0.03899000  0.82020000  0.65179000  1.0
  H  H7  1  0.15673000  0.74771000  0.33114000  1.0
  H  H8  1  0.84326000  0.25230000  0.66884000  1.0
  H  H9  1  0.67833000  0.47221000  0.94375000  1.0
  H  H10  1  0.32167000  0.52778000  0.05625000  1.0
  H  H11  1  0.93774000  0.31127000  0.20135000  1.0
  H  H12  1  0.06226000  0.68873000  0.79865000  1.0
  H  H13  1  0.14598000  0.33703000  0.82510000  1.0
  H  H14  1  0.85402000  0.66297000  0.17490000  1.0
  H  H15  1  0.45851000  0.84347000  0.82915000  1.0
  H  H16  1  0.54149000  0.15654000  0.17084000  1.0
  H  H17  1  0.34315000  0.88012000  0.75144000  1.0
  H  H18  1  0.65685000  0.11989000  0.24854000  1.0
  H  H19  1  0.80403000  0.56158000  0.37938000  1.0
  H  H20  1  0.19596000  0.43843000  0.62062000  1.0
  H  H21  1  0.71544000  0.46742000  0.37828000  1.0
  H  H22  1  0.28456000  0.53259000  0.62172000  1.0
  C  C23  1  0.27088000  0.85203000  0.39405000  1.0
  C  C24  1  0.72911000  0.14798000  0.60596000  1.0
  C  C25  1  0.27513000  0.97739000  0.41615000  1.0
  C  C26  1  0.72486000  0.02262000  0.58386000  1.0
  C  C27  1  0.16495000  0.09546000  0.39841000  1.0
  C  C28  1  0.83504000  0.90454000  0.60161000  1.0
  C  C29  1  0.05097000  0.08899000  0.35665000  1.0
  C  C30  1  0.94903000  0.91102000  0.64336000  1.0
  C  C31  1  0.05214000  0.96429000  0.32978000  1.0
  C  C32  1  0.94786000  0.03572000  0.67022000  1.0
  C  C33  1  0.16007000  0.84461000  0.34823000  1.0
  C  C34  1  0.83991000  0.15539000  0.65178000  1.0
  C  C35  1  0.37931000  0.72681000  0.43016000  1.0
  C  C36  1  0.62066000  0.27320000  0.56984000  1.0
  C  C37  1  0.16077000  0.23103000  0.42805000  1.0
  C  C38  1  0.83923000  0.76896000  0.57196000  1.0
  C  C39  1  0.91049000  0.41310000  0.87168000  1.0
  C  C40  1  0.08952000  0.58689000  0.12832000  1.0
  C  C41  1  0.78430000  0.42989000  0.96402000  1.0
  C  C42  1  0.21571000  0.57008000  0.03598000  1.0
  C  C43  1  0.79383000  0.39236000  0.08277000  1.0
  C  C44  1  0.20618000  0.60764000  0.91723000  1.0
  C  C45  1  0.92938000  0.33865000  0.10921000  1.0
  C  C46  1  0.07063000  0.66134000  0.89078000  1.0
  C  C47  1  0.05363000  0.31908000  0.01491000  1.0
  C  C48  1  0.94636000  0.68092000  0.98509000  1.0
  C  C49  1  0.04681000  0.35485000  0.89647000  1.0
  C  C50  1  0.95319000  0.64514000  0.10353000  1.0
  C  C51  1  0.89999000  0.45661000  0.74584000  1.0
  C  C52  1  0.10002000  0.54338000  0.25417000  1.0
  C  C53  1  0.65949000  0.40495000  0.18092000  1.0
  C  C54  1  0.34053000  0.59502000  0.81907000  1.0
  N  N55  1  0.93100000  0.96086000  0.28628000  1.0
  N  N56  1  0.06900000  0.03916000  0.71372000  1.0
  N  N57  1  0.19755000  0.25994000  0.04089000  1.0
  N  N58  1  0.80246000  0.74006000  0.95911000  1.0
  O  O59  1  0.39140000  0.61363000  0.39236000  1.0
  O  O60  1  0.60860000  0.38637000  0.60764000  1.0
  O  O61  1  0.44825000  0.74507000  0.50102000  1.0
  O  O62  1  0.55174000  0.25491000  0.49898000  1.0
  O  O63  1  0.27548000  0.24781000  0.42945000  1.0
  O  O64  1  0.72451000  0.75219000  0.57057000  1.0
  O  O65  1  0.03276000  0.32133000  0.45062000  1.0
  O  O66  1  0.96724000  0.67867000  0.54937000  1.0
  O  O67  1  0.85025000  0.06890000  0.25307000  1.0
  O  O68  1  0.14975000  0.93111000  0.74692000  1.0
  O  O69  1  0.91376000  0.85319000  0.28514000  1.0
  O  O70  1  0.08624000  0.14683000  0.71483000  1.0
  O  O71  1  0.01930000  0.43815000  0.66539000  1.0
  O  O72  1  0.98070000  0.56186000  0.33461000  1.0
  O  O73  1  0.77681000  0.50733000  0.72411000  1.0
  O  O74  1  0.22321000  0.49267000  0.27588000  1.0
  O  O75  1  0.53995000  0.43193000  0.15415000  1.0
  O  O76  1  0.46006000  0.56807000  0.84586000  1.0
  O  O77  1  0.67108000  0.38094000  0.29108000  1.0
  O  O78  1  0.32892000  0.61906000  0.70892000  1.0
  O  O79  1  0.20164000  0.24114000  0.14904000  1.0
  O  O80  1  0.79837000  0.75887000  0.85096000  1.0
  O  O81  1  0.30629000  0.23299000  0.95375000  1.0
  O  O82  1  0.69372000  0.76700000  0.04626000  1.0
  O  O83  1  0.44662000  0.83241000  0.74888000  1.0
  O  O84  1  0.55338000  0.16759000  0.25111000  1.0
  O  O85  1  0.73136000  0.52876000  0.43051000  1.0
  O  O86  1  0.26864000  0.47124000  0.56949000  1.0
