# generated using pymatgen
data_Sr4H10C8N16O13
_symmetry_space_group_name_H-M   'P 1'
_cell_length_a   9.33541000
_cell_length_b   17.37870000
_cell_length_c   18.07600000
_cell_angle_alpha   107.30300000
_cell_angle_beta   90.00000000
_cell_angle_gamma   89.99990000
_symmetry_Int_Tables_number   1
_chemical_formula_structural   Sr4H10C8N16O13
_chemical_formula_sum   'Sr16 H40 C32 N64 O52'
_cell_volume   2799.88704796
_cell_formula_units_Z   4
loop_
 _symmetry_equiv_pos_site_id
 _symmetry_equiv_pos_as_xyz
  1  'x, y, z'
loop_
 _atom_site_type_symbol
 _atom_site_label
 _atom_site_symmetry_multiplicity
 _atom_site_fract_x
 _atom_site_fract_y
 _atom_site_fract_z
 _atom_site_occupancy
  Sr  Sr0  1  0.30496000  0.87134000  0.67642000  1.0
  Sr  Sr1  1  0.80320000  0.62371000  0.82721000  1.0
  Sr  Sr2  1  0.46194000  0.58972000  0.67277000  1.0
  Sr  Sr3  1  0.46550000  0.08300000  0.67074000  1.0
  Sr  Sr4  1  0.80496000  0.12866000  0.82358000  1.0
  Sr  Sr5  1  0.30320000  0.37629000  0.67279000  1.0
  Sr  Sr6  1  0.96194000  0.41027000  0.82723000  1.0
  Sr  Sr7  1  0.96550000  0.91700000  0.82926000  1.0
  Sr  Sr8  1  0.69505000  0.12866000  0.32358000  1.0
  Sr  Sr9  1  0.19680000  0.37629000  0.17279000  1.0
  Sr  Sr10  1  0.53805000  0.41027000  0.32723000  1.0
  Sr  Sr11  1  0.53450000  0.91700000  0.32926000  1.0
  Sr  Sr12  1  0.19505000  0.87134000  0.17642000  1.0
  Sr  Sr13  1  0.69680000  0.62371000  0.32721000  1.0
  Sr  Sr14  1  0.03805000  0.58973000  0.17277000  1.0
  Sr  Sr15  1  0.03451000  0.08300000  0.17074000  1.0
  H  H16  1  0.94190000  0.93673000  0.67543000  1.0
  H  H17  1  0.03517000  0.86479000  0.62175000  1.0
  H  H18  1  0.26743000  0.94685000  0.87208000  1.0
  H  H19  1  0.28273000  0.85584000  0.84349000  1.0
  H  H20  1  0.47019000  0.66575000  0.85951000  1.0
  H  H21  1  0.47288000  0.56986000  0.83875000  1.0
  H  H22  1  0.36677000  0.07026000  0.51199000  1.0
  H  H23  1  0.45763000  0.15333000  0.52364000  1.0
  H  H24  1  0.75170000  0.56827000  0.62294000  1.0
  H  H25  1  0.81752000  0.65259000  0.66625000  1.0
  H  H26  1  0.44189000  0.06328000  0.82457000  1.0
  H  H27  1  0.53517000  0.13521000  0.87825000  1.0
  H  H28  1  0.76743000  0.05315000  0.62792000  1.0
  H  H29  1  0.78273000  0.14416000  0.65651000  1.0
  H  H30  1  0.97020000  0.33424000  0.64049000  1.0
  H  H31  1  0.97288000  0.43014000  0.66124000  1.0
  H  H32  1  0.86678000  0.92974000  0.98800000  1.0
  H  H33  1  0.95763000  0.84667000  0.97637000  1.0
  H  H34  1  0.25170000  0.43173000  0.87706000  1.0
  H  H35  1  0.31753000  0.34741000  0.83375000  1.0
  H  H36  1  0.05812000  0.06328000  0.32457000  1.0
  H  H37  1  0.96485000  0.13521000  0.37825000  1.0
  H  H38  1  0.73257000  0.05315000  0.12792000  1.0
  H  H39  1  0.71728000  0.14416000  0.15650000  1.0
  H  H40  1  0.52980000  0.33425000  0.14049000  1.0
  H  H41  1  0.52712000  0.43014000  0.16125000  1.0
  H  H42  1  0.63321000  0.92973000  0.48800000  1.0
  H  H43  1  0.54235000  0.84666000  0.47636000  1.0
  H  H44  1  0.24829000  0.43172000  0.37707000  1.0
  H  H45  1  0.18246000  0.34741000  0.33375000  1.0
  H  H46  1  0.55812000  0.93672000  0.17542000  1.0
  H  H47  1  0.46484000  0.86479000  0.12175000  1.0
  H  H48  1  0.23258000  0.94685000  0.37208000  1.0
  H  H49  1  0.21728000  0.85584000  0.34349000  1.0
  H  H50  1  0.02980000  0.66576000  0.35951000  1.0
  H  H51  1  0.02713000  0.56986000  0.33875000  1.0
  H  H52  1  0.13321000  0.07026000  0.01199000  1.0
  H  H53  1  0.04236000  0.15334000  0.02364000  1.0
  H  H54  1  0.74830000  0.56827000  0.12294000  1.0
  H  H55  1  0.68247000  0.65259000  0.16625000  1.0
  C  C56  1  0.63465000  0.85566000  0.75424000  1.0
  C  C57  1  0.64953000  0.93183000  0.73349000  1.0
  C  C58  1  0.13294000  0.64638000  0.75477000  1.0
  C  C59  1  0.14684000  0.56598000  0.76687000  1.0
  C  C60  1  0.56954000  0.64439000  0.51095000  1.0
  C  C61  1  0.63322000  0.56223000  0.49298000  1.0
  C  C62  1  0.18155000  0.86066000  0.48829000  1.0
  C  C63  1  0.25158000  0.94238000  0.51542000  1.0
  C  C64  1  0.13465000  0.14435000  0.74575000  1.0
  C  C65  1  0.14952000  0.06817000  0.76650000  1.0
  C  C66  1  0.63293000  0.35362000  0.74523000  1.0
  C  C67  1  0.64684000  0.43403000  0.73313000  1.0
  C  C68  1  0.06953000  0.35560000  0.98905000  1.0
  C  C69  1  0.13322000  0.43777000  0.00703000  1.0
  C  C70  1  0.68155000  0.13934000  0.01171000  1.0
  C  C71  1  0.75159000  0.05762000  0.98458000  1.0
  C  C72  1  0.36535000  0.14435000  0.24575000  1.0
  C  C73  1  0.35049000  0.06817000  0.26650000  1.0
  C  C74  1  0.86706000  0.35362000  0.24523000  1.0
  C  C75  1  0.85316000  0.43402000  0.23313000  1.0
  C  C76  1  0.43047000  0.35560000  0.48905000  1.0
  C  C77  1  0.36679000  0.43776000  0.50703000  1.0
  C  C78  1  0.81845000  0.13934000  0.51171000  1.0
  C  C79  1  0.74841000  0.05761000  0.48458000  1.0
  C  C80  1  0.86536000  0.85566000  0.25424000  1.0
  C  C81  1  0.85048000  0.93184000  0.23350000  1.0
  C  C82  1  0.36706000  0.64638000  0.25478000  1.0
  C  C83  1  0.35315000  0.56598000  0.26687000  1.0
  C  C84  1  0.93047000  0.64440000  0.01095000  1.0
  C  C85  1  0.86679000  0.56224000  0.99298000  1.0
  C  C86  1  0.31845000  0.86066000  0.98829000  1.0
  C  C87  1  0.24840000  0.94238000  0.01541000  1.0
  N  N88  1  0.52254000  0.80552000  0.73365000  1.0
  N  N89  1  0.55509000  0.74218000  0.75720000  1.0
  N  N90  1  0.68247000  0.75411000  0.79242000  1.0
  N  N91  1  0.73441000  0.82516000  0.79117000  1.0
  N  N92  1  0.22529000  0.67595000  0.71319000  1.0
  N  N93  1  0.17363000  0.74821000  0.71600000  1.0
  N  N94  1  0.05404000  0.76189000  0.75797000  1.0
  N  N95  1  0.02568000  0.69839000  0.78268000  1.0
  N  N96  1  0.48844000  0.67877000  0.57338000  1.0
  N  N97  1  0.45140000  0.75072000  0.56624000  1.0
  N  N98  1  0.50925000  0.75934000  0.50230000  1.0
  N  N99  1  0.58393000  0.69324000  0.46607000  1.0
  N  N100  1  0.13029000  0.82254000  0.53810000  1.0
  N  N101  1  0.07963000  0.75139000  0.49426000  1.0
  N  N102  1  0.10144000  0.74642000  0.42091000  1.0
  N  N103  1  0.16451000  0.81393000  0.41499000  1.0
  N  N104  1  0.02254000  0.19448000  0.76635000  1.0
  N  N105  1  0.05509000  0.25782000  0.74280000  1.0
  N  N106  1  0.18247000  0.24589000  0.70758000  1.0
  N  N107  1  0.23441000  0.17485000  0.70883000  1.0
  N  N108  1  0.72529000  0.32405000  0.78681000  1.0
  N  N109  1  0.67363000  0.25180000  0.78401000  1.0
  N  N110  1  0.55404000  0.23811000  0.74203000  1.0
  N  N111  1  0.52568000  0.30161000  0.71732000  1.0
  N  N112  1  0.98843000  0.32122000  0.92662000  1.0
  N  N113  1  0.95141000  0.24928000  0.93376000  1.0
  N  N114  1  0.00927000  0.24065000  0.99770000  1.0
  N  N115  1  0.08394000  0.30675000  0.03393000  1.0
  N  N116  1  0.63029000  0.17746000  0.96190000  1.0
  N  N117  1  0.57963000  0.24861000  0.00574000  1.0
  N  N118  1  0.60144000  0.25358000  0.07909000  1.0
  N  N119  1  0.66451000  0.18606000  0.08501000  1.0
  N  N120  1  0.47746000  0.19448000  0.26635000  1.0
  N  N121  1  0.44491000  0.25782000  0.24279000  1.0
  N  N122  1  0.31753000  0.24589000  0.20758000  1.0
  N  N123  1  0.26559000  0.17484000  0.20883000  1.0
  N  N124  1  0.77470000  0.32405000  0.28681000  1.0
  N  N125  1  0.82637000  0.25180000  0.28401000  1.0
  N  N126  1  0.94596000  0.23811000  0.24204000  1.0
  N  N127  1  0.97432000  0.30161000  0.21732000  1.0
  N  N128  1  0.51156000  0.32122000  0.42662000  1.0
  N  N129  1  0.54860000  0.24927000  0.43375000  1.0
  N  N130  1  0.49074000  0.24064000  0.49770000  1.0
  N  N131  1  0.41608000  0.30675000  0.53393000  1.0
  N  N132  1  0.86972000  0.17746000  0.46190000  1.0
  N  N133  1  0.92037000  0.24861000  0.50574000  1.0
  N  N134  1  0.89855000  0.25358000  0.57909000  1.0
  N  N135  1  0.83548000  0.18606000  0.58501000  1.0
  N  N136  1  0.97747000  0.80552000  0.23365000  1.0
  N  N137  1  0.94491000  0.74218000  0.25721000  1.0
  N  N138  1  0.81753000  0.75412000  0.29242000  1.0
  N  N139  1  0.76559000  0.82516000  0.29117000  1.0
  N  N140  1  0.27470000  0.67595000  0.21319000  1.0
  N  N141  1  0.32637000  0.74820000  0.21599000  1.0
  N  N142  1  0.44596000  0.76189000  0.25797000  1.0
  N  N143  1  0.47432000  0.69839000  0.28268000  1.0
  N  N144  1  0.01157000  0.67878000  0.07338000  1.0
  N  N145  1  0.04860000  0.75073000  0.06625000  1.0
  N  N146  1  0.99074000  0.75936000  0.00231000  1.0
  N  N147  1  0.91607000  0.69325000  0.96608000  1.0
  N  N148  1  0.36972000  0.82254000  0.03810000  1.0
  N  N149  1  0.42037000  0.75139000  0.99426000  1.0
  N  N150  1  0.39855000  0.74642000  0.92091000  1.0
  N  N151  1  0.33548000  0.81393000  0.91499000  1.0
  O  O152  1  0.54655000  0.95007000  0.69569000  1.0
  O  O153  1  0.76406000  0.97190000  0.75391000  1.0
  O  O154  1  0.25955000  0.52623000  0.74072000  1.0
  O  O155  1  0.04453000  0.54277000  0.80141000  1.0
  O  O156  1  0.63799000  0.53009000  0.54766000  1.0
  O  O157  1  0.67631000  0.53060000  0.42377000  1.0
  O  O158  1  0.30615000  0.96027000  0.58308000  1.0
  O  O159  1  0.25141000  0.98756000  0.47175000  1.0
  O  O160  1  0.01148000  0.89534000  0.67693000  1.0
  O  O161  1  0.25102000  0.90167000  0.82373000  1.0
  O  O162  1  0.52216000  0.61442000  0.82735000  1.0
  O  O163  1  0.43775000  0.10770000  0.54495000  1.0
  O  O164  1  0.78376000  0.60294000  0.67487000  1.0
  O  O165  1  0.04654000  0.04993000  0.80431000  1.0
  O  O166  1  0.26405000  0.02810000  0.74609000  1.0
  O  O167  1  0.75955000  0.47377000  0.75929000  1.0
  O  O168  1  0.54453000  0.45723000  0.69859000  1.0
  O  O169  1  0.13798000  0.46991000  0.95234000  1.0
  O  O170  1  0.17631000  0.46939000  0.07623000  1.0
  O  O171  1  0.80616000  0.03973000  0.91692000  1.0
  O  O172  1  0.75141000  0.01244000  0.02825000  1.0
  O  O173  1  0.51148000  0.10467000  0.82307000  1.0
  O  O174  1  0.75102000  0.09832000  0.67626000  1.0
  O  O175  1  0.02216000  0.38558000  0.67265000  1.0
  O  O176  1  0.93776000  0.89230000  0.95505000  1.0
  O  O177  1  0.28377000  0.39706000  0.82513000  1.0
  O  O178  1  0.45346000  0.04994000  0.30432000  1.0
  O  O179  1  0.23595000  0.02809000  0.24608000  1.0
  O  O180  1  0.74045000  0.47376000  0.25928000  1.0
  O  O181  1  0.95547000  0.45723000  0.19858000  1.0
  O  O182  1  0.36202000  0.46990000  0.45234000  1.0
  O  O183  1  0.32369000  0.46939000  0.57623000  1.0
  O  O184  1  0.69384000  0.03973000  0.41692000  1.0
  O  O185  1  0.74858000  0.01244000  0.52825000  1.0
  O  O186  1  0.98853000  0.10467000  0.32307000  1.0
  O  O187  1  0.74899000  0.09833000  0.17626000  1.0
  O  O188  1  0.47784000  0.38558000  0.17265000  1.0
  O  O189  1  0.56222000  0.89229000  0.45504000  1.0
  O  O190  1  0.21623000  0.39706000  0.32513000  1.0
  O  O191  1  0.95348000  0.95007000  0.19568000  1.0
  O  O192  1  0.73597000  0.97191000  0.25391000  1.0
  O  O193  1  0.24045000  0.52624000  0.24073000  1.0
  O  O194  1  0.45547000  0.54277000  0.30142000  1.0
  O  O195  1  0.86202000  0.53010000  0.04766000  1.0
  O  O196  1  0.82370000  0.53061000  0.92377000  1.0
  O  O197  1  0.19384000  0.96027000  0.08308000  1.0
  O  O198  1  0.24856000  0.98755000  0.97174000  1.0
  O  O199  1  0.48853000  0.89533000  0.17693000  1.0
  O  O200  1  0.24899000  0.90167000  0.32374000  1.0
  O  O201  1  0.97784000  0.61442000  0.32735000  1.0
  O  O202  1  0.06223000  0.10770000  0.04495000  1.0
  O  O203  1  0.71623000  0.60294000  0.17487000  1.0
