# generated using pymatgen
data_Zn6H21C46S7O45F7
_symmetry_space_group_name_H-M   'P 1'
_cell_length_a   18.80370000
_cell_length_b   18.92050000
_cell_length_c   18.97420000
_cell_angle_alpha   109.03300000
_cell_angle_beta   109.69100000
_cell_angle_gamma   109.39600000
_symmetry_Int_Tables_number   1
_chemical_formula_structural   Zn6H21C46S7O45F7
_chemical_formula_sum   'Zn6 H21 C46 S7 O45 F7'
_cell_volume   5215.19744289
_cell_formula_units_Z   1
loop_
 _symmetry_equiv_pos_site_id
 _symmetry_equiv_pos_as_xyz
  1  'x, y, z'
loop_
 _atom_site_type_symbol
 _atom_site_label
 _atom_site_symmetry_multiplicity
 _atom_site_fract_x
 _atom_site_fract_y
 _atom_site_fract_z
 _atom_site_occupancy
  Zn  Zn0  1  0.99215000  0.44591000  0.92542000  1.0
  Zn  Zn1  1  0.97688000  0.55730000  0.04613000  1.0
  Zn  Zn2  1  0.57726000  0.00158000  0.07759000  1.0
  Zn  Zn3  1  0.45176000  0.99177000  0.94294000  1.0
  Zn  Zn4  1  0.55371000  0.57536000  0.48771000  1.0
  Zn  Zn5  1  0.42780000  0.44748000  0.48742000  1.0
  H  H6  1  0.32841000  0.53365000  0.98713000  1.0
  H  H7  1  0.44787000  0.31613000  0.23801000  1.0
  H  H8  1  0.04815000  0.85439000  0.99570000  1.0
  H  H9  1  0.29585000  0.95287000  0.00903000  1.0
  H  H10  1  0.43183000  0.63136000  0.95990000  1.0
  H  H11  1  0.20713000  0.55308000  0.99194000  1.0
  H  H12  1  0.77366000  0.32410000  0.17361000  1.0
  H  H13  1  0.63087000  0.23612000  0.58887000  1.0
  H  H14  1  0.67959000  0.88037000  0.03148000  1.0
  H  H15  1  0.65731000  0.27938000  0.39689000  1.0
  H  H16  1  0.69896000  0.42943000  0.28217000  1.0
  H  H17  1  0.21251000  0.45799000  0.30583000  1.0
  H  H18  1  0.39025000  0.02367000  0.18458000  1.0
  H  H19  1  0.37139000  0.75635000  0.33780000  1.0
  H  H20  1  0.20763000  0.50338000  0.17055000  1.0
  H  H21  1  0.64493000  0.20818000  0.94866000  1.0
  H  H22  1  0.70781000  0.54243000  0.70854000  1.0
  H  H23  1  0.04364000  0.71654000  0.97494000  1.0
  H  H24  1  0.73135000  0.51026000  0.84486000  1.0
  H  H25  1  0.44133000  0.63398000  0.69126000  1.0
  H  H26  1  0.59859000  0.78562000  0.71922000  1.0
  C  C27  1  0.10697000  0.53606000  0.12672000  1.0
  C  C28  1  0.25376000  0.59784000  0.98430000  1.0
  C  C29  1  0.28944000  0.58525000  0.33848000  1.0
  C  C30  1  0.09797000  0.60676000  0.96826000  1.0
  C  C31  1  0.27855000  0.51253000  0.34152000  1.0
  C  C32  1  0.21534000  0.58638000  0.27974000  1.0
  C  C33  1  0.17944000  0.54085000  0.19389000  1.0
  C  C34  1  0.75366000  0.20609000  0.02442000  1.0
  C  C35  1  0.66761000  0.17677000  0.98264000  1.0
  C  C36  1  0.81737000  0.28356000  0.03284000  1.0
  C  C37  1  0.83770000  0.27859000  0.97048000  1.0
  C  C38  1  0.16982000  0.75382000  0.98262000  1.0
  C  C39  1  0.65041000  0.41162000  0.67178000  1.0
  C  C40  1  0.64912000  0.47952000  0.66428000  1.0
  C  C41  1  0.72930000  0.42579000  0.73968000  1.0
  C  C42  1  0.84862000  0.49853000  0.89147000  1.0
  C  C43  1  0.76576000  0.47932000  0.82444000  1.0
  C  C44  1  0.55883000  0.88713000  0.93909000  1.0
  C  C45  1  0.37977000  0.87748000  0.98649000  1.0
  C  C46  1  0.53233000  0.11653000  0.14303000  1.0
  C  C47  1  0.60234000  0.10801000  0.98268000  1.0
  C  C48  1  0.53190000  0.65270000  0.61318000  1.0
  C  C49  1  0.30843000  0.80670000  0.98161000  1.0
  C  C50  1  0.34821000  0.49899000  0.39059000  1.0
  C  C51  1  0.51047000  0.42271000  0.36851000  1.0
  C  C52  1  0.57977000  0.47974000  0.59733000  1.0
  C  C53  1  0.49552000  0.69977000  0.72540000  1.0
  C  C54  1  0.89217000  0.35175000  0.96399000  1.0
  C  C55  1  0.54637000  0.72053000  0.69176000  1.0
  C  C56  1  0.50074000  0.76025000  0.79974000  1.0
  C  C57  1  0.56974000  0.82463000  0.87791000  1.0
  C  C58  1  0.57437000  0.33886000  0.30319000  1.0
  C  C59  1  0.50997000  0.35640000  0.29833000  1.0
  C  C60  1  0.30986000  0.73073000  0.97474000  1.0
  C  C61  1  0.56696000  0.27049000  0.23056000  1.0
  C  C62  1  0.53356000  0.18734000  0.21079000  1.0
  C  C63  1  0.09935000  0.76745000  0.98275000  1.0
  C  C64  1  0.10147000  0.84383000  0.99489000  1.0
  C  C65  1  0.17530000  0.91036000  0.00725000  1.0
  C  C66  1  0.24326000  0.90080000  0.00400000  1.0
  C  C67  1  0.24157000  0.82098000  0.98920000  1.0
  C  C68  1  0.24353000  0.66747000  0.97787000  1.0
  C  C69  1  0.17191000  0.67803000  0.97637000  1.0
  C  C70  1  0.37335000  0.71018000  0.96386000  1.0
  C  C71  1  0.38077000  0.64192000  0.96759000  1.0
  C  C72  1  0.32126000  0.58659000  0.98114000  1.0
  S  S73  1  0.85737000  0.38206000  0.12896000  1.0
  S  S74  1  0.55944000  0.30287000  0.59896000  1.0
  S  S75  1  0.67853000  0.84223000  0.91376000  1.0
  S  S76  1  0.67970000  0.39970000  0.39962000  1.0
  S  S77  1  0.60895000  0.30517000  0.16664000  1.0
  S  S78  1  0.48964000  0.15450000  0.27308000  1.0
  S  S79  1  0.39422000  0.68290000  0.39808000  1.0
  O  O80  1  0.08645000  0.48786000  0.04979000  1.0
  O  O81  1  0.47353000  0.57557000  0.58126000  1.0
  O  O82  1  0.42455000  0.54243000  0.40624000  1.0
  O  O83  1  0.07039000  0.57929000  0.14823000  1.0
  O  O84  1  0.32358000  0.44130000  0.41242000  1.0
  O  O85  1  0.56096000  0.50193000  0.39502000  1.0
  O  O86  1  0.45753000  0.39323000  0.39188000  1.0
  O  O87  1  0.60674000  0.53259000  0.57289000  1.0
  O  O88  1  0.49986000  0.42873000  0.57083000  1.0
  O  O89  1  0.07160000  0.52962000  0.91187000  1.0
  O  O90  1  0.06670000  0.62564000  0.01672000  1.0
  O  O91  1  0.50338000  0.90766000  0.90911000  1.0
  O  O92  1  0.88926000  0.46200000  0.86974000  1.0
  O  O93  1  0.87477000  0.55279000  0.96967000  1.0
  O  O94  1  0.92148000  0.33449000  0.91237000  1.0
  O  O95  1  0.90324000  0.42419000  0.00970000  1.0
  O  O96  1  0.60887000  0.91921000  0.02149000  1.0
  O  O97  1  0.95041000  0.42981000  0.17240000  1.0
  O  O98  1  0.80386000  0.41941000  0.10685000  1.0
  O  O99  1  0.83477000  0.34239000  0.18562000  1.0
  O  O100  1  0.49777000  0.29210000  0.62817000  1.0
  O  O101  1  0.53723000  0.28339000  0.51210000  1.0
  O  O102  1  0.45611000  0.91486000  0.04931000  1.0
  O  O103  1  0.60200000  0.24679000  0.62235000  1.0
  O  O104  1  0.68076000  0.76962000  0.86134000  1.0
  O  O105  1  0.73022000  0.92687000  0.92888000  1.0
  O  O106  1  0.69939000  0.84254000  0.00241000  1.0
  O  O107  1  0.74096000  0.45236000  0.38274000  1.0
  O  O108  1  0.67242000  0.43895000  0.47334000  1.0
  O  O109  1  0.70433000  0.32786000  0.40035000  1.0
  O  O110  1  0.67230000  0.27763000  0.16642000  1.0
  O  O111  1  0.53645000  0.27804000  0.08704000  1.0
  O  O112  1  0.65475000  0.40555000  0.21974000  1.0
  O  O113  1  0.35622000  0.89828000  0.92766000  1.0
  O  O114  1  0.56255000  0.18761000  0.35634000  1.0
  O  O115  1  0.41867000  0.17041000  0.26493000  1.0
  O  O116  1  0.45289000  0.05298000  0.22563000  1.0
  O  O117  1  0.42955000  0.70993000  0.48779000  1.0
  O  O118  1  0.44192000  0.67380000  0.35341000  1.0
  O  O119  1  0.36378000  0.75007000  0.38443000  1.0
  O  O120  1  0.58858000  0.09533000  0.17324000  1.0
  O  O121  1  0.47580000  0.08461000  0.06597000  1.0
  O  O122  1  0.62644000  0.08386000  0.03708000  1.0
  O  O123  1  0.52183000  0.07724000  0.92687000  1.0
  O  O124  1  0.58176000  0.67748000  0.58309000  1.0
  F  F125  1  0.18784000  0.63598000  0.31801000  1.0
  F  F126  1  0.78902000  0.17012000  0.06560000  1.0
  F  F127  1  0.80479000  0.20015000  0.90377000  1.0
  F  F128  1  0.76606000  0.38270000  0.70803000  1.0
  F  F129  1  0.41967000  0.74512000  0.78451000  1.0
  F  F130  1  0.17714000  0.98642000  0.02136000  1.0
  F  F131  1  0.42915000  0.76070000  0.94747000  1.0
