# generated using pymatgen
data_SmH9C14NO8
_symmetry_space_group_name_H-M   'P 1'
_cell_length_a   7.28968000
_cell_length_b   8.58856000
_cell_length_c   11.78570000
_cell_angle_alpha   75.46580000
_cell_angle_beta   87.05820000
_cell_angle_gamma   85.41530000
_symmetry_Int_Tables_number   1
_chemical_formula_structural   SmH9C14NO8
_chemical_formula_sum   'Sm2 H18 C28 N2 O16'
_cell_volume   711.60460788
_cell_formula_units_Z   2
loop_
 _symmetry_equiv_pos_site_id
 _symmetry_equiv_pos_as_xyz
  1  'x, y, z'
loop_
 _atom_site_type_symbol
 _atom_site_label
 _atom_site_symmetry_multiplicity
 _atom_site_fract_x
 _atom_site_fract_y
 _atom_site_fract_z
 _atom_site_occupancy
  Sm  Sm0  1  0.29989000  0.19267000  0.49341000  1.0
  Sm  Sm1  1  0.70011000  0.80732000  0.50659000  1.0
  H  H2  1  0.90492000  0.19904000  0.46545000  1.0
  H  H3  1  0.09508000  0.80096000  0.53455000  1.0
  H  H4  1  0.90931000  0.38720000  0.43390000  1.0
  H  H5  1  0.09069000  0.61280000  0.56610000  1.0
  H  H6  1  0.89243000  0.11998000  0.15452000  1.0
  H  H7  1  0.10756000  0.88002000  0.84548000  1.0
  H  H8  1  0.35647000  0.23960000  0.91213000  1.0
  H  H9  1  0.64352000  0.76040000  0.08787000  1.0
  H  H10  1  0.56505000  0.10530000  0.07123000  1.0
  H  H11  1  0.43495000  0.89470000  0.92877000  1.0
  H  H12  1  0.82360000  0.36923000  0.06696000  1.0
  H  H13  1  0.17641000  0.63078000  0.93304000  1.0
  H  H14  1  0.61661000  0.55590000  0.92413000  1.0
  H  H15  1  0.38339000  0.44411000  0.07586000  1.0
  H  H16  1  0.93371000  0.39965000  0.64636000  1.0
  H  H17  1  0.06628000  0.60034000  0.35364000  1.0
  H  H18  1  0.12572000  0.21873000  0.79710000  1.0
  H  H19  1  0.87428000  0.78126000  0.20290000  1.0
  C  C20  1  0.48584000  0.97360000  0.29900000  1.0
  C  C21  1  0.51416000  0.02640000  0.70100000  1.0
  C  C22  1  0.35016000  0.04935000  0.20471000  1.0
  C  C23  1  0.64984000  0.95065000  0.79529000  1.0
  C  C24  1  0.15818000  0.05222000  0.22563000  1.0
  C  C25  1  0.84182000  0.94778000  0.77437000  1.0
  C  C26  1  0.03987000  0.12324000  0.13480000  1.0
  C  C27  1  0.96013000  0.87676000  0.86520000  1.0
  C  C28  1  0.10945000  0.19662000  0.02370000  1.0
  C  C29  1  0.89056000  0.80338000  0.97630000  1.0
  C  C30  1  0.29955000  0.18683000  0.99959000  1.0
  C  C31  1  0.70045000  0.81318000  0.00041000  1.0
  C  C32  1  0.41709000  0.11189000  0.09007000  1.0
  C  C33  1  0.58291000  0.88811000  0.90994000  1.0
  C  C34  1  0.07217000  0.97895000  0.34349000  1.0
  C  C35  1  0.92783000  0.02105000  0.65650000  1.0
  C  C36  1  0.83951000  0.38046000  0.97300000  1.0
  C  C37  1  0.16049000  0.61954000  0.02700000  1.0
  C  C38  1  0.72797000  0.48285000  0.89384000  1.0
  C  C39  1  0.27203000  0.51715000  0.10616000  1.0
  C  C40  1  0.76390000  0.50791000  0.76955000  1.0
  C  C41  1  0.23609000  0.49209000  0.23045000  1.0
  C  C42  1  0.90725000  0.39995000  0.73786000  1.0
  C  C43  1  0.09275000  0.60005000  0.26214000  1.0
  C  C44  1  0.01454000  0.29842000  0.82058000  1.0
  C  C45  1  0.98546000  0.70158000  0.17942000  1.0
  C  C46  1  0.59179000  0.45732000  0.48368000  1.0
  C  C47  1  0.40822000  0.54271000  0.51633000  1.0
  N  N48  1  0.98563000  0.29006000  0.93791000  1.0
  N  N49  1  0.01437000  0.70994000  0.06209000  1.0
  O  O50  1  0.51660000  0.04716000  0.37807000  1.0
  O  O51  1  0.48341000  0.95284000  0.62193000  1.0
  O  O52  1  0.56912000  0.84035000  0.29601000  1.0
  O  O53  1  0.43087000  0.15966000  0.70399000  1.0
  O  O54  1  0.16279000  0.97580000  0.43379000  1.0
  O  O55  1  0.83721000  0.02420000  0.56621000  1.0
  O  O56  1  0.91570000  0.92402000  0.34553000  1.0
  O  O57  1  0.08430000  0.07598000  0.65447000  1.0
  O  O58  1  0.67491000  0.61911000  0.69688000  1.0
  O  O59  1  0.32509000  0.38088000  0.30311000  1.0
  O  O60  1  0.58972000  0.31309000  0.47877000  1.0
  O  O61  1  0.41028000  0.68689000  0.52123000  1.0
  O  O62  1  0.73391000  0.53934000  0.46448000  1.0
  O  O63  1  0.26608000  0.46065000  0.53551000  1.0
  O  O64  1  0.98589000  0.28795000  0.43014000  1.0
  O  O65  1  0.01411000  0.71205000  0.56986000  1.0
