# generated using pymatgen
data_DyH5(C3O4)2
_symmetry_space_group_name_H-M   'P 1'
_cell_length_a   6.22645000
_cell_length_b   8.63977000
_cell_length_c   8.77780000
_cell_angle_alpha   111.23900000
_cell_angle_beta   109.85200000
_cell_angle_gamma   91.45100000
_symmetry_Int_Tables_number   1
_chemical_formula_structural   DyH5(C3O4)2
_chemical_formula_sum   'Dy2 H10 C12 O16'
_cell_volume   408.00445847
_cell_formula_units_Z   2
loop_
 _symmetry_equiv_pos_site_id
 _symmetry_equiv_pos_as_xyz
  1  'x, y, z'
loop_
 _atom_site_type_symbol
 _atom_site_label
 _atom_site_symmetry_multiplicity
 _atom_site_fract_x
 _atom_site_fract_y
 _atom_site_fract_z
 _atom_site_occupancy
  Dy  Dy0  1  0.68050000  0.64943000  0.81869000  1.0
  Dy  Dy1  1  0.31949000  0.35057000  0.18131000  1.0
  H  H2  1  0.19029000  0.71810000  0.71764000  1.0
  H  H3  1  0.80970000  0.28189000  0.28236000  1.0
  H  H4  1  0.22799000  0.64411000  0.53285000  1.0
  H  H5  1  0.77201000  0.35588000  0.46715000  1.0
  H  H6  1  0.51193000  0.66894000  0.10856000  1.0
  H  H7  1  0.48807000  0.33105000  0.89144000  1.0
  H  H8  1  0.31783000  0.72683000  0.97254000  1.0
  H  H9  1  0.68217000  0.27316000  0.02746000  1.0
  H  H10  1  0.74136000  0.03112000  0.66709000  1.0
  H  H11  1  0.25864000  0.96887000  0.33291000  1.0
  C  C12  1  0.68504000  0.71160000  0.44128000  1.0
  C  C13  1  0.31496000  0.28840000  0.55873000  1.0
  C  C14  1  0.85039000  0.85911000  0.47117000  1.0
  C  C15  1  0.14962000  0.14090000  0.52883000  1.0
  C  C16  1  0.85728000  0.01812000  0.59539000  1.0
  C  C17  1  0.14272000  0.98188000  0.40461000  1.0
  C  C18  1  0.99503000  0.84048000  0.37473000  1.0
  C  C19  1  0.00496000  0.15952000  0.62526000  1.0
  C  C20  1  0.00285000  0.67145000  0.24318000  1.0
  C  C21  1  0.99715000  0.32856000  0.75682000  1.0
  C  C22  1  0.89360000  0.03930000  0.01009000  1.0
  C  C23  1  0.10643000  0.96071000  0.98992000  1.0
  O  O24  1  0.55358000  0.62044000  0.28251000  1.0
  O  O25  1  0.44642000  0.37957000  0.71749000  1.0
  O  O26  1  0.68242000  0.68384000  0.57215000  1.0
  O  O27  1  0.31757000  0.31616000  0.42785000  1.0
  O  O28  1  0.30527000  0.68691000  0.66345000  1.0
  O  O29  1  0.69473000  0.31309000  0.33655000  1.0
  O  O30  1  0.46950000  0.68792000  0.99770000  1.0
  O  O31  1  0.53049000  0.31208000  0.00230000  1.0
  O  O32  1  0.11115000  0.57012000  0.30480000  1.0
  O  O33  1  0.88885000  0.42990000  0.69521000  1.0
  O  O34  1  0.91155000  0.64354000  0.08212000  1.0
  O  O35  1  0.08844000  0.35645000  0.91787000  1.0
  O  O36  1  0.70254000  0.94318000  0.94044000  1.0
  O  O37  1  0.29746000  0.05682000  0.05957000  1.0
  O  O38  1  0.06847000  0.80085000  0.90388000  1.0
  O  O39  1  0.93154000  0.19914000  0.09613000  1.0
