# generated using pymatgen
data_Zn4H27C21N3O16
_symmetry_space_group_name_H-M   'P 1'
_cell_length_a   14.53870000
_cell_length_b   14.83140000
_cell_length_c   15.48610000
_cell_angle_alpha   73.95590000
_cell_angle_beta   68.27170000
_cell_angle_gamma   68.11060000
_symmetry_Int_Tables_number   1
_chemical_formula_structural   Zn4H27C21N3O16
_chemical_formula_sum   'Zn8 H54 C42 N6 O32'
_cell_volume   2841.04209181
_cell_formula_units_Z   2
loop_
 _symmetry_equiv_pos_site_id
 _symmetry_equiv_pos_as_xyz
  1  'x, y, z'
loop_
 _atom_site_type_symbol
 _atom_site_label
 _atom_site_symmetry_multiplicity
 _atom_site_fract_x
 _atom_site_fract_y
 _atom_site_fract_z
 _atom_site_occupancy
  Zn  Zn0  1  0.01993000  0.95929000  0.05637000  1.0
  Zn  Zn1  1  0.04485000  0.75904000  0.99198000  1.0
  Zn  Zn2  1  0.99952000  0.96133000  0.85676000  1.0
  Zn  Zn3  1  0.82201000  0.91771000  0.04620000  1.0
  Zn  Zn4  1  0.38427000  0.34103000  0.46377000  1.0
  Zn  Zn5  1  0.45759000  0.53260000  0.42914000  1.0
  Zn  Zn6  1  0.62049000  0.31852000  0.44754000  1.0
  Zn  Zn7  1  0.42433000  0.39857000  0.62589000  1.0
  H  H8  1  0.33228000  0.67339000  0.06210000  1.0
  H  H9  1  0.30901000  0.76454000  0.12965000  1.0
  H  H10  1  0.22962000  0.67367000  0.27120000  1.0
  H  H11  1  0.18259000  0.62034000  0.21314000  1.0
  H  H12  1  0.41360000  0.55889000  0.16523000  1.0
  H  H13  1  0.31002000  0.41085000  0.22942000  1.0
  H  H14  1  0.44580000  0.30912000  0.04712000  1.0
  H  H15  1  0.33558000  0.37831000  0.00789000  1.0
  H  H16  1  0.31860000  0.32087000  0.12840000  1.0
  H  H17  1  0.97738000  0.26788000  0.84764000  1.0
  H  H18  1  0.06219000  0.25081000  0.91294000  1.0
  H  H19  1  0.21633000  0.19381000  0.77981000  1.0
  H  H20  1  0.13786000  0.19289000  0.71600000  1.0
  H  H21  1  0.12187000  0.38067000  0.77454000  1.0
  H  H22  1  0.99215000  0.35610000  0.69660000  1.0
  H  H23  1  0.93674000  0.58905000  0.56096000  1.0
  H  H24  1  0.89816000  0.47898000  0.61214000  1.0
  H  H25  1  0.99461000  0.48629000  0.50067000  1.0
  H  H26  1  0.79734000  0.99861000  0.34894000  1.0
  H  H27  1  0.74874000  0.11153000  0.28336000  1.0
  H  H28  1  0.60142000  0.06027000  0.28587000  1.0
  H  H29  1  0.65457000  0.94075000  0.34108000  1.0
  H  H30  1  0.62862000  0.00871000  0.48359000  1.0
  H  H31  1  0.45039000  0.03428000  0.42048000  1.0
  H  H32  1  0.29315000  0.98597000  0.65344000  1.0
  H  H33  1  0.30556000  0.99817000  0.53110000  1.0
  H  H34  1  0.26579000  0.10412000  0.58420000  1.0
  H  H35  1  0.19205000  0.64756000  0.71602000  1.0
  H  H36  1  0.10628000  0.74800000  0.66353000  1.0
  H  H37  1  0.26391000  0.77010000  0.55566000  1.0
  H  H38  1  0.24140000  0.84246000  0.63951000  1.0
  H  H39  1  0.35314000  0.67784000  0.72183000  1.0
  H  H40  1  0.41894000  0.82374000  0.56821000  1.0
  H  H41  1  0.58496000  0.83080000  0.61597000  1.0
  H  H42  1  0.60309000  0.81697000  0.50022000  1.0
  H  H43  1  0.68779000  0.72988000  0.56545000  1.0
  H  H44  1  0.74278000  0.66038000  0.04300000  1.0
  H  H45  1  0.86685000  0.57014000  0.03262000  1.0
  H  H46  1  0.83365000  0.54397000  0.20618000  1.0
  H  H47  1  0.71439000  0.64074000  0.21836000  1.0
  H  H48  1  0.76376000  0.44645000  0.15074000  1.0
  H  H49  1  0.56958000  0.61381000  0.17137000  1.0
  H  H50  1  0.51736000  0.58905000  0.99592000  1.0
  H  H51  1  0.60585000  0.65833000  0.93416000  1.0
  H  H52  1  0.51422000  0.68602000  0.04535000  1.0
  H  H53  1  0.65610000  0.20069000  0.90292000  1.0
  H  H54  1  0.78168000  0.21177000  0.83839000  1.0
  H  H55  1  0.77082000  0.12281000  0.71571000  1.0
  H  H56  1  0.63492000  0.16738000  0.76980000  1.0
  H  H57  1  0.79017000  0.27932000  0.65162000  1.0
  H  H58  1  0.59353000  0.39603000  0.76677000  1.0
  H  H59  1  0.67931000  0.55328000  0.76101000  1.0
  H  H60  1  0.72071000  0.48415000  0.86252000  1.0
  H  H61  1  0.59877000  0.49080000  0.85438000  1.0
  C  C62  1  0.18190000  0.77302000  0.08550000  1.0
  C  C63  1  0.27584000  0.71460000  0.11892000  1.0
  C  C64  1  0.24987000  0.64016000  0.20908000  1.0
  C  C65  1  0.34084000  0.54340000  0.21137000  1.0
  C  C66  1  0.37082000  0.45204000  0.08661000  1.0
  C  C67  1  0.36625000  0.35924000  0.06767000  1.0
  C  C68  1  0.35464000  0.50695000  0.30947000  1.0
  C  C69  1  0.04827000  0.11897000  0.89460000  1.0
  C  C70  1  0.05345000  0.22335000  0.85842000  1.0
  C  C71  1  0.14085000  0.23100000  0.76603000  1.0
  C  C72  1  0.13519000  0.33819000  0.72048000  1.0
  C  C73  1  0.04981000  0.46994000  0.61563000  1.0
  C  C74  1  0.96329000  0.50845000  0.57068000  1.0
  C  C75  1  0.24196000  0.34051000  0.65133000  1.0
  C  C76  1  0.81927000  0.99228000  0.20675000  1.0
  C  C77  1  0.75341000  0.03327000  0.29753000  1.0
  C  C78  1  0.64609000  0.01872000  0.33595000  1.0
  C  C79  1  0.58357000  0.04783000  0.43368000  1.0
  C  C80  1  0.42704000  0.02869000  0.56024000  1.0
  C  C81  1  0.31684000  0.02770000  0.58291000  1.0
  C  C82  1  0.55957000  0.15840000  0.43156000  1.0
  C  C83  1  0.11791000  0.77534000  0.78514000  1.0
  C  C84  1  0.16750000  0.72797000  0.69709000  1.0
  C  C85  1  0.25762000  0.76698000  0.62928000  1.0
  C  C86  1  0.36212000  0.70225000  0.64609000  1.0
  C  C87  1  0.53734000  0.71147000  0.61095000  1.0
  C  C88  1  0.60786000  0.77619000  0.57019000  1.0
  C  C89  1  0.39576000  0.61004000  0.60181000  1.0
  C  C90  1  0.85249000  0.70775000  0.06252000  1.0
  C  C91  1  0.80757000  0.62726000  0.07314000  1.0
  C  C92  1  0.76835000  0.58230000  0.17658000  1.0
  C  C93  1  0.71093000  0.50944000  0.18623000  1.0
  C  C94  1  0.64548000  0.55218000  0.04961000  1.0
  C  C95  1  0.56534000  0.62647000  0.00441000  1.0
  C  C96  1  0.66056000  0.47374000  0.28954000  1.0
  C  C97  1  0.78191000  0.06649000  0.88842000  1.0
  C  C98  1  0.72820000  0.17005000  0.84949000  1.0
  C  C99  1  0.70962000  0.17949000  0.75581000  1.0
  C  C100  1  0.71025000  0.28162000  0.69421000  1.0
  C  C101  1  0.73478000  0.39833000  0.76486000  1.0
  C  C102  1  0.68002000  0.48655000  0.81443000  1.0
  C  C103  1  0.64272000  0.30649000  0.63035000  1.0
  N  N104  1  0.33137000  0.46556000  0.17831000  1.0
  N  N105  1  0.05420000  0.38237000  0.67477000  1.0
  N  N106  1  0.48797000  0.02121000  0.46855000  1.0
  N  N107  1  0.43838000  0.75515000  0.60521000  1.0
  N  N108  1  0.62799000  0.55688000  0.14203000  1.0
  N  N109  1  0.67122000  0.36122000  0.74839000  1.0
  O  O110  1  0.97181000  0.90003000  0.98893000  1.0
  O  O111  1  0.14574000  0.72198000  0.05968000  1.0
  O  O112  1  0.14683000  0.86576000  0.08542000  1.0
  O  O113  1  0.40890000  0.51113000  0.02218000  1.0
  O  O114  1  0.37667000  0.56516000  0.34019000  1.0
  O  O115  1  0.34368000  0.42302000  0.35114000  1.0
  O  O116  1  0.04922000  0.07393000  0.83464000  1.0
  O  O117  1  0.04230000  0.08489000  0.98089000  1.0
  O  O118  1  0.11573000  0.51240000  0.59756000  1.0
  O  O119  1  0.30061000  0.35640000  0.68582000  1.0
  O  O120  1  0.26676000  0.31806000  0.57013000  1.0
  O  O121  1  0.77693000  0.95636000  0.17120000  1.0
  O  O122  1  0.91183000  0.99755000  0.17395000  1.0
  O  O123  1  0.46071000  0.03610000  0.61957000  1.0
  O  O124  1  0.62995000  0.18449000  0.43906000  1.0
  O  O125  1  0.47261000  0.21404000  0.42017000  1.0
  O  O126  1  0.09179000  0.86944000  0.77036000  1.0
  O  O127  1  0.10585000  0.72032000  0.86513000  1.0
  O  O128  1  0.56499000  0.62485000  0.64929000  1.0
  O  O129  1  0.38372000  0.53160000  0.65685000  1.0
  O  O130  1  0.42546000  0.62383000  0.51182000  1.0
  O  O131  1  0.79077000  0.79587000  0.05942000  1.0
  O  O132  1  0.94791000  0.68154000  0.05804000  1.0
  O  O133  1  0.72205000  0.49107000  0.00710000  1.0
  O  O134  1  0.68856000  0.38201000  0.32110000  1.0
  O  O135  1  0.59181000  0.54102000  0.33547000  1.0
  O  O136  1  0.74498000  0.03590000  0.97590000  1.0
  O  O137  1  0.86367000  0.01788000  0.83207000  1.0
  O  O138  1  0.83129000  0.36092000  0.73998000  1.0
  O  O139  1  0.68772000  0.30087000  0.54343000  1.0
  O  O140  1  0.54526000  0.32912000  0.67248000  1.0
  O  O141  1  0.47271000  0.39605000  0.48975000  1.0
