# generated using pymatgen
data_ZnH10C6N2O5
_symmetry_space_group_name_H-M   'P 1'
_cell_length_a   7.04870000
_cell_length_b   7.56979000
_cell_length_c   9.38228915
_cell_angle_alpha   66.23016539
_cell_angle_beta   67.93110445
_cell_angle_gamma   90.00180000
_symmetry_Int_Tables_number   1
_chemical_formula_structural   ZnH10C6N2O5
_chemical_formula_sum   'Zn2 H20 C12 N4 O10'
_cell_volume   417.75319317
_cell_formula_units_Z   2
loop_
 _symmetry_equiv_pos_site_id
 _symmetry_equiv_pos_as_xyz
  1  'x, y, z'
loop_
 _atom_site_type_symbol
 _atom_site_label
 _atom_site_symmetry_multiplicity
 _atom_site_fract_x
 _atom_site_fract_y
 _atom_site_fract_z
 _atom_site_occupancy
  Zn  Zn0  1  0.83140000  0.80650000  0.38703000  1.0
  Zn  Zn1  1  0.21850000  0.19355000  0.61297000  1.0
  H  H2  1  0.88558000  0.56094000  0.87832000  1.0
  H  H3  1  0.76404000  0.43918000  0.12161000  1.0
  H  H4  1  0.68717000  0.60037000  0.79949000  1.0
  H  H5  1  0.48675000  0.39978000  0.20043000  1.0
  H  H6  1  0.99797000  0.88159000  0.99990000  1.0
  H  H7  1  0.99792000  0.11842000  0.99994000  1.0
  H  H8  1  0.16253000  0.20047000  0.15364000  1.0
  H  H9  1  0.31625000  0.79945000  0.84640000  1.0
  H  H10  1  0.31631000  0.35400000  0.84647000  1.0
  H  H11  1  0.16255000  0.64592000  0.15365000  1.0
  H  H12  1  0.28584000  0.02605000  0.26688000  1.0
  H  H13  1  0.55292000  0.97377000  0.73328000  1.0
  H  H14  1  0.55297000  0.29264000  0.73336000  1.0
  H  H15  1  0.28596000  0.70732000  0.26681000  1.0
  H  H16  1  0.60174000  0.94294000  0.11404000  1.0
  H  H17  1  0.71565000  0.05692000  0.88605000  1.0
  H  H18  1  0.46672000  0.83028000  0.55591000  1.0
  H  H19  1  0.02279000  0.16979000  0.44400000  1.0
  H  H20  1  0.02290000  0.38612000  0.44388000  1.0
  H  H21  1  0.46675000  0.61393000  0.55603000  1.0
  C  C22  1  0.94201000  0.83700000  0.66412000  1.0
  C  C23  1  0.60622000  0.16309000  0.33580000  1.0
  C  C24  1  0.60619000  0.50104000  0.33591000  1.0
  C  C25  1  0.94201000  0.49900000  0.66405000  1.0
  C  C26  1  0.85620000  0.61843000  0.76328000  1.0
  C  C27  1  0.61958000  0.38167000  0.23664000  1.0
  C  C28  1  0.08690000  0.99999000  0.99997000  1.0
  C  C29  1  0.25445000  0.08384000  0.15189000  1.0
  C  C30  1  0.40641000  0.91606000  0.84819000  1.0
  C  C31  1  0.40644000  0.23557000  0.84825000  1.0
  C  C32  1  0.25448000  0.76435000  0.15186000  1.0
  C  C33  1  0.56821000  0.99992000  0.00007000  1.0
  N  N34  1  0.12636000  0.92127000  0.15751000  1.0
  N  N35  1  0.28402000  0.07871000  0.84248000  1.0
  N  N36  1  0.45049000  0.16091000  0.00011000  1.0
  N  N37  1  0.45049000  0.83893000  0.00005000  1.0
  O  O38  1  0.92765000  0.93206000  0.52136000  1.0
  O  O39  1  0.44899000  0.06800000  0.47854000  1.0
  O  O40  1  0.44906000  0.45336000  0.47873000  1.0
  O  O41  1  0.92774000  0.54667000  0.52125000  1.0
  O  O42  1  0.02046000  0.91512000  0.73057000  1.0
  O  O43  1  0.75112000  0.08499000  0.26937000  1.0
  O  O44  1  0.75103000  0.64560000  0.26946000  1.0
  O  O45  1  0.02038000  0.35442000  0.73052000  1.0
  O  O46  1  0.52446000  0.70625000  0.58780000  1.0
  O  O47  1  0.11242000  0.29382000  0.41213000  1.0
