# generated using pymatgen
data_AgH14C20ClO4
_symmetry_space_group_name_H-M   'P 1'
_cell_length_a   7.99696000
_cell_length_b   19.17080000
_cell_length_c   20.39280000
_cell_angle_alpha   87.05920000
_cell_angle_beta   89.98100000
_cell_angle_gamma   77.99000000
_symmetry_Int_Tables_number   1
_chemical_formula_structural   AgH14C20ClO4
_chemical_formula_sum   'Ag6 H84 C120 Cl6 O24'
_cell_volume   3053.75109425
_cell_formula_units_Z   6
loop_
 _symmetry_equiv_pos_site_id
 _symmetry_equiv_pos_as_xyz
  1  'x, y, z'
loop_
 _atom_site_type_symbol
 _atom_site_label
 _atom_site_symmetry_multiplicity
 _atom_site_fract_x
 _atom_site_fract_y
 _atom_site_fract_z
 _atom_site_occupancy
  Ag  Ag0  1  0.45417000  0.60098000  0.25529000  1.0
  Ag  Ag1  1  0.81321000  0.81047000  0.97720000  1.0
  Ag  Ag2  1  0.56254000  0.25191000  0.76575000  1.0
  Ag  Ag3  1  0.94554000  0.60070000  0.75549000  1.0
  Ag  Ag4  1  0.37661000  0.81026000  0.47737000  1.0
  Ag  Ag5  1  0.18537000  0.25196000  0.26592000  1.0
  H  H6  1  0.17401000  0.69282000  0.22924000  1.0
  H  H7  1  0.12229000  0.56851000  0.23152000  1.0
  H  H8  1  0.19583000  0.49437000  0.13490000  1.0
  H  H9  1  0.32126000  0.54362000  0.03489000  1.0
  H  H10  1  0.75435000  0.65386000  0.98034000  1.0
  H  H11  1  0.99176000  0.69087000  0.03954000  1.0
  H  H12  1  0.92954000  0.76709000  0.13597000  1.0
  H  H13  1  0.63409000  0.79689000  0.18018000  1.0
  H  H14  1  0.22749000  0.74551000  0.90396000  1.0
  H  H15  1  0.03513000  0.86667000  0.89509000  1.0
  H  H16  1  0.97086000  0.93837000  0.99403000  1.0
  H  H17  1  0.10524000  0.89098000  0.10233000  1.0
  H  H18  1  0.31608000  0.78869000  0.16794000  1.0
  H  H19  1  0.43006000  0.64952000  0.97780000  1.0
  H  H20  1  0.58030000  0.89545000  0.87207000  1.0
  H  H21  1  0.46949000  0.84062000  0.97215000  1.0
  H  H22  1  0.47321000  0.89587000  0.07972000  1.0
  H  H23  1  0.56062000  0.01315000  0.08638000  1.0
  H  H24  1  0.02916000  0.99719000  0.81170000  1.0
  H  H25  1  0.29027000  0.02468000  0.86243000  1.0
  H  H26  1  0.27161000  0.08461000  0.96811000  1.0
  H  H27  1  0.99478000  0.11742000  0.02467000  1.0
  H  H28  1  0.46868000  0.10401000  0.76555000  1.0
  H  H29  1  0.25863000  0.21768000  0.77957000  1.0
  H  H30  1  0.25840000  0.28227000  0.88281000  1.0
  H  H31  1  0.44558000  0.22663000  0.97746000  1.0
  H  H32  1  0.66711000  0.11697000  0.02495000  1.0
  H  H33  1  0.70173000  0.00177000  0.82054000  1.0
  H  H34  1  0.96470000  0.22830000  0.66552000  1.0
  H  H35  1  0.87175000  0.14827000  0.75247000  1.0
  H  H36  1  0.82577000  0.18749000  0.86689000  1.0
  H  H37  1  0.87187000  0.30727000  0.89546000  1.0
  H  H38  1  0.37940000  0.34747000  0.64210000  1.0
  H  H39  1  0.62318000  0.37458000  0.70715000  1.0
  H  H40  1  0.57793000  0.41038000  0.82265000  1.0
  H  H41  1  0.28754000  0.42979000  0.87083000  1.0
  H  H42  1  0.83061000  0.45951000  0.58881000  1.0
  H  H43  1  0.62018000  0.57116000  0.61137000  1.0
  H  H44  1  0.57150000  0.60916000  0.72577000  1.0
  H  H45  1  0.72709000  0.53418000  0.81953000  1.0
  H  H46  1  0.96847000  0.42479000  0.85633000  1.0
  H  H47  1  0.05508000  0.34868000  0.63611000  1.0
  H  H48  1  0.13369000  0.69281000  0.72927000  1.0
  H  H49  1  0.30965000  0.56852000  0.73147000  1.0
  H  H50  1  0.30955000  0.49430000  0.63497000  1.0
  H  H51  1  0.13451000  0.54345000  0.53508000  1.0
  H  H52  1  0.59133000  0.65369000  0.48075000  1.0
  H  H53  1  0.31698000  0.69083000  0.54000000  1.0
  H  H54  1  0.30337000  0.76707000  0.63641000  1.0
  H  H55  1  0.56912000  0.79683000  0.68050000  1.0
  H  H56  1  0.02665000  0.74529000  0.40407000  1.0
  H  H57  1  0.09848000  0.86637000  0.39512000  1.0
  H  H58  1  0.09107000  0.93819000  0.49399000  1.0
  H  H59  1  0.00359000  0.89093000  0.60230000  1.0
  H  H60  1  0.89544000  0.78858000  0.66811000  1.0
  H  H61  1  0.91993000  0.64931000  0.47808000  1.0
  H  H62  1  0.52377000  0.89567000  0.37199000  1.0
  H  H63  1  0.68979000  0.84090000  0.47195000  1.0
  H  H64  1  0.63094000  0.89604000  0.57956000  1.0
  H  H65  1  0.42597000  0.01317000  0.58642000  1.0
  H  H66  1  0.97439000  0.99726000  0.31162000  1.0
  H  H67  1  0.68571000  0.02442000  0.36237000  1.0
  H  H68  1  0.64407000  0.08419000  0.46811000  1.0
  H  H69  1  0.88772000  0.11728000  0.52471000  1.0
  H  H70  1  0.42762000  0.10431000  0.26558000  1.0
  H  H71  1  0.52382000  0.21808000  0.27964000  1.0
  H  H72  1  0.45921000  0.28261000  0.38289000  1.0
  H  H73  1  0.32750000  0.22690000  0.47750000  1.0
  H  H74  1  0.21579000  0.11709000  0.52499000  1.0
  H  H75  1  0.29688000  0.00199000  0.32053000  1.0
  H  H76  1  0.80682000  0.22821000  0.16603000  1.0
  H  H77  1  0.97921000  0.14830000  0.25316000  1.0
  H  H78  1  0.98600000  0.18785000  0.36745000  1.0
  H  H79  1  0.82091000  0.30781000  0.39574000  1.0
  H  H80  1  0.27316000  0.34726000  0.14251000  1.0
  H  H81  1  0.00196000  0.37475000  0.20745000  1.0
  H  H82  1  0.01134000  0.41085000  0.32286000  1.0
  H  H83  1  0.28220000  0.43024000  0.37100000  1.0
  H  H84  1  0.70899000  0.45892000  0.08867000  1.0
  H  H85  1  0.80812000  0.57073000  0.11059000  1.0
  H  H86  1  0.81947000  0.60922000  0.22477000  1.0
  H  H87  1  0.73907000  0.53467000  0.31897000  1.0
  H  H88  1  0.60673000  0.42526000  0.35639000  1.0
  H  H89  1  0.59592000  0.34830000  0.13648000  1.0
  C  C90  1  0.21910000  0.65828000  0.18908000  1.0
  C  C91  1  0.18510000  0.58854000  0.18929000  1.0
  C  C92  1  0.22418000  0.54755000  0.13426000  1.0
  C  C93  1  0.29553000  0.57465000  0.07843000  1.0
  C  C94  1  0.33000000  0.64307000  0.07814000  1.0
  C  C95  1  0.29440000  0.68433000  0.13325000  1.0
  C  C96  1  0.72696000  0.68543000  0.02352000  1.0
  C  C97  1  0.86039000  0.70939000  0.05534000  1.0
  C  C98  1  0.82550000  0.74981000  0.11138000  1.0
  C  C99  1  0.65974000  0.76662000  0.13621000  1.0
  C  C100  1  0.52922000  0.74266000  0.10482000  1.0
  C  C101  1  0.56241000  0.70225000  0.04891000  1.0
  C  C102  1  0.20039000  0.77698000  0.94717000  1.0
  C  C103  1  0.08721000  0.84424000  0.94286000  1.0
  C  C104  1  0.05223000  0.88512000  0.99868000  1.0
  C  C105  1  0.13080000  0.85903000  0.05925000  1.0
  C  C106  1  0.24280000  0.79292000  0.06320000  1.0
  C  C107  1  0.27686000  0.75185000  0.00740000  1.0
  C  C108  1  0.34117000  0.75727000  0.12429000  1.0
  C  C109  1  0.40399000  0.68128000  0.02113000  1.0
  C  C110  1  0.58220000  0.92013000  0.91901000  1.0
  C  C111  1  0.52521000  0.88759000  0.97623000  1.0
  C  C112  1  0.52031000  0.92078000  0.03634000  1.0
  C  C113  1  0.56931000  0.98632000  0.04028000  1.0
  C  C114  1  0.62343000  0.01855000  0.98363000  1.0
  C  C115  1  0.63214000  0.98510000  0.92360000  1.0
  C  C116  1  0.02110000  0.02353000  0.85816000  1.0
  C  C117  1  0.16759000  0.03906000  0.88668000  1.0
  C  C118  1  0.15784000  0.07262000  0.94605000  1.0
  C  C119  1  0.00118000  0.09126000  0.97817000  1.0
  C  C120  1  0.85570000  0.07561000  0.95003000  1.0
  C  C121  1  0.86561000  0.04180000  0.89005000  1.0
  C  C122  1  0.46731000  0.13082000  0.81150000  1.0
  C  C123  1  0.35332000  0.19729000  0.81820000  1.0
  C  C124  1  0.34833000  0.23181000  0.87775000  1.0
  C  C125  1  0.45278000  0.20064000  0.93095000  1.0
  C  C126  1  0.56095000  0.13431000  0.92460000  1.0
  C  C127  1  0.56999000  0.10018000  0.86486000  1.0
  C  C128  1  0.67591000  0.09074000  0.97827000  1.0
  C  C129  1  0.69429000  0.02815000  0.86724000  1.0
  C  C130  1  0.94232000  0.24604000  0.71530000  1.0
  C  C131  1  0.88639000  0.20158000  0.76412000  1.0
  C  C132  1  0.86030000  0.22373000  0.82878000  1.0
  C  C133  1  0.89027000  0.29054000  0.84515000  1.0
  C  C134  1  0.94574000  0.33401000  0.79693000  1.0
  C  C135  1  0.97131000  0.31186000  0.73205000  1.0
  C  C136  1  0.35944000  0.36580000  0.69177000  1.0
  C  C137  1  0.49832000  0.37738000  0.72972000  1.0
  C  C138  1  0.47122000  0.40014000  0.79418000  1.0
  C  C139  1  0.30767000  0.41118000  0.82135000  1.0
  C  C140  1  0.17175000  0.39995000  0.78361000  1.0
  C  C141  1  0.19717000  0.37754000  0.71915000  1.0
  C  C142  1  0.81041000  0.47633000  0.63902000  1.0
  C  C143  1  0.69236000  0.53906000  0.65163000  1.0
  C  C144  1  0.66557000  0.56106000  0.71587000  1.0
  C  C145  1  0.75771000  0.52004000  0.76902000  1.0
  C  C146  1  0.87740000  0.45772000  0.75564000  1.0
  C  C147  1  0.90280000  0.43597000  0.69094000  1.0
  C  C148  1  0.98732000  0.40705000  0.80617000  1.0
  C  C149  1  0.03432000  0.36624000  0.68628000  1.0
  C  C150  1  0.12288000  0.65824000  0.68916000  1.0
  C  C151  1  0.22653000  0.58851000  0.68933000  1.0
  C  C152  1  0.22808000  0.54746000  0.63435000  1.0
  C  C153  1  0.12941000  0.57451000  0.57860000  1.0
  C  C154  1  0.02662000  0.64292000  0.57835000  1.0
  C  C155  1  0.02126000  0.68422000  0.63341000  1.0
  C  C156  1  0.58728000  0.68529000  0.52391000  1.0
  C  C157  1  0.42994000  0.70930000  0.55577000  1.0
  C  C158  1  0.42462000  0.74973000  0.61178000  1.0
  C  C159  1  0.57366000  0.76653000  0.63655000  1.0
  C  C160  1  0.72808000  0.74252000  0.60514000  1.0
  C  C161  1  0.73509000  0.70207000  0.54923000  1.0
  C  C162  1  0.02249000  0.77676000  0.44728000  1.0
  C  C163  1  0.06870000  0.84399000  0.44291000  1.0
  C  C164  1  0.06280000  0.88494000  0.49869000  1.0
  C  C165  1  0.01013000  0.85891000  0.55929000  1.0
  C  C166  1  0.96421000  0.79279000  0.56333000  1.0
  C  C167  1  0.97111000  0.75167000  0.50756000  1.0
  C  C168  1  0.90158000  0.75714000  0.62448000  1.0
  C  C169  1  0.91439000  0.68109000  0.52138000  1.0
  C  C170  1  0.49745000  0.92033000  0.41895000  1.0
  C  C171  1  0.58708000  0.88781000  0.47610000  1.0
  C  C172  1  0.55883000  0.92095000  0.53624000  1.0
  C  C173  1  0.44420000  0.98643000  0.54026000  1.0
  C  C174  1  0.35790000  0.01870000  0.48365000  1.0
  C  C175  1  0.38272000  0.98529000  0.42360000  1.0
  C  C176  1  0.95584000  0.02359000  0.35810000  1.0
  C  C177  1  0.79384000  0.03892000  0.38662000  1.0
  C  C178  1  0.76983000  0.07241000  0.44603000  1.0
  C  C179  1  0.90766000  0.09117000  0.47817000  1.0
  C  C180  1  0.06880000  0.07569000  0.45002000  1.0
  C  C181  1  0.09287000  0.04194000  0.39002000  1.0
  C  C182  1  0.40216000  0.13109000  0.31155000  1.0
  C  C183  1  0.44956000  0.19761000  0.31826000  1.0
  C  C184  1  0.41986000  0.23211000  0.37782000  1.0
  C  C185  1  0.34654000  0.20089000  0.43100000  1.0
  C  C186  1  0.30487000  0.13450000  0.42466000  1.0
  C  C187  1  0.33012000  0.10038000  0.36490000  1.0
  C  C188  1  0.23336000  0.09088000  0.47830000  1.0
  C  C189  1  0.27783000  0.02835000  0.36724000  1.0
  C  C190  1  0.81138000  0.24605000  0.21578000  1.0
  C  C191  1  0.91153000  0.20168000  0.26467000  1.0
  C  C192  1  0.91546000  0.22403000  0.32926000  1.0
  C  C193  1  0.81901000  0.29093000  0.34549000  1.0
  C  C194  1  0.72012000  0.33428000  0.29722000  1.0
  C  C195  1  0.71663000  0.31189000  0.23243000  1.0
  C  C196  1  0.27462000  0.36570000  0.19214000  1.0
  C  C197  1  0.12402000  0.37751000  0.23003000  1.0
  C  C198  1  0.12834000  0.40043000  0.29442000  1.0
  C  C199  1  0.28086000  0.41147000  0.32158000  1.0
  C  C200  1  0.42813000  0.40008000  0.28388000  1.0
  C  C201  1  0.42513000  0.37745000  0.21949000  1.0
  C  C202  1  0.71274000  0.47599000  0.13879000  1.0
  C  C203  1  0.76819000  0.53879000  0.15104000  1.0
  C  C204  1  0.77330000  0.56107000  0.21518000  1.0
  C  C205  1  0.72226000  0.52029000  0.26857000  1.0
  C  C206  1  0.66470000  0.45786000  0.25554000  1.0
  C  C207  1  0.66087000  0.43585000  0.19095000  1.0
  C  C208  1  0.60553000  0.40733000  0.30630000  1.0
  C  C209  1  0.59920000  0.36605000  0.18658000  1.0
  Cl  Cl210  1  0.23334000  0.58938000  0.39331000  1.0
  Cl  Cl211  1  0.68511000  0.74045000  0.82948000  1.0
  Cl  Cl212  1  0.45533000  0.17931000  0.61786000  1.0
  Cl  Cl213  1  0.17738000  0.58917000  0.89337000  1.0
  Cl  Cl214  1  0.57558000  0.74063000  0.32954000  1.0
  Cl  Cl215  1  0.36564000  0.17896000  0.11805000  1.0
  O  O216  1  0.38939000  0.55056000  0.36052000  1.0
  O  O217  1  0.13089000  0.63919000  0.34513000  1.0
  O  O218  1  0.28613000  0.62715000  0.44690000  1.0
  O  O219  1  0.13641000  0.53721000  0.41844000  1.0
  O  O220  1  0.81458000  0.76904000  0.86511000  1.0
  O  O221  1  0.64199000  0.68019000  0.86660000  1.0
  O  O222  1  0.53407000  0.79653000  0.81632000  1.0
  O  O223  1  0.76113000  0.71694000  0.76603000  1.0
  O  O224  1  0.58769000  0.20271000  0.65735000  1.0
  O  O225  1  0.36605000  0.13475000  0.65933000  1.0
  O  O226  1  0.33272000  0.24223000  0.59174000  1.0
  O  O227  1  0.54102000  0.13905000  0.56469000  1.0
  O  O228  1  0.06072000  0.55007000  0.86057000  1.0
  O  O229  1  0.22943000  0.63921000  0.84521000  1.0
  O  O230  1  0.08643000  0.62673000  0.94699000  1.0
  O  O231  1  0.32683000  0.53727000  0.91842000  1.0
  O  O232  1  0.41761000  0.76910000  0.36529000  1.0
  O  O233  1  0.67908000  0.68039000  0.36658000  1.0
  O  O234  1  0.67040000  0.79680000  0.31634000  1.0
  O  O235  1  0.52292000  0.71714000  0.26611000  1.0
  O  O236  1  0.21015000  0.20237000  0.15769000  1.0
  O  O237  1  0.49937000  0.13415000  0.15933000  1.0
  O  O238  1  0.42579000  0.24185000  0.09203000  1.0
  O  O239  1  0.31964000  0.13892000  0.06481000  1.0
