# generated using pymatgen
data_AlH12C27(ClO2)3
_symmetry_space_group_name_H-M   'P 1'
_cell_length_a   4.00963000
_cell_length_b   27.78020000
_cell_length_c   27.81814893
_cell_angle_alpha   60.08404318
_cell_angle_beta   89.16421250
_cell_angle_gamma   89.99810000
_symmetry_Int_Tables_number   1
_chemical_formula_structural   AlH12C27(ClO2)3
_chemical_formula_sum   'Al3 H36 C81 Cl9 O18'
_cell_volume   2685.37120260
_cell_formula_units_Z   3
loop_
 _symmetry_equiv_pos_site_id
 _symmetry_equiv_pos_as_xyz
  1  'x, y, z'
loop_
 _atom_site_type_symbol
 _atom_site_label
 _atom_site_symmetry_multiplicity
 _atom_site_fract_x
 _atom_site_fract_y
 _atom_site_fract_z
 _atom_site_occupancy
  Al  Al0  1  0.99672000  0.00046000  0.50009000  1.0
  Al  Al1  1  0.05559000  0.33435000  0.83295000  1.0
  Al  Al2  1  0.94670000  0.66699000  0.16698000  1.0
  H  H3  1  0.47932000  0.00142000  0.92206000  1.0
  H  H4  1  0.49594000  0.91062000  0.83431000  1.0
  H  H5  1  0.48298000  0.08902000  0.74383000  1.0
  H  H6  1  0.27399000  0.16525000  0.90871000  1.0
  H  H7  1  0.23356000  0.07597000  0.90983000  1.0
  H  H8  1  0.78218000  0.14813000  0.75432000  1.0
  H  H9  1  0.71699000  0.92950000  0.98400000  1.0
  H  H10  1  0.20219000  0.76186000  0.99499000  1.0
  H  H11  1  0.19910000  0.85064000  0.90623000  1.0
  H  H12  1  0.21369000  0.92147000  0.76430000  1.0
  H  H13  1  0.77071000  0.07092000  0.59603000  1.0
  H  H14  1  0.77439000  0.07513000  0.68297000  1.0
  H  H15  1  0.49549000  0.42297000  0.07835000  1.0
  H  H16  1  0.48070000  0.24454000  0.16599000  1.0
  H  H17  1  0.49581000  0.33246000  0.25659000  1.0
  H  H18  1  0.71829000  0.57300000  0.09038000  1.0
  H  H19  1  0.75009000  0.48428000  0.09021000  1.0
  H  H20  1  0.20788000  0.40316000  0.24645000  1.0
  H  H21  1  0.25713000  0.41253000  0.01598000  1.0
  H  H22  1  0.79498000  0.25709000  0.00557000  1.0
  H  H23  1  0.78710000  0.25714000  0.09437000  1.0
  H  H24  1  0.76658000  0.18569000  0.23622000  1.0
  H  H25  1  0.20987000  0.16701000  0.40457000  1.0
  H  H26  1  0.19888000  0.25771000  0.31726000  1.0
  H  H27  1  0.50769000  0.57704000  0.50089000  1.0
  H  H28  1  0.52781000  0.75543000  0.41022000  1.0
  H  H29  1  0.51369000  0.66808000  0.58845000  1.0
  H  H30  1  0.29486000  0.42695000  0.66427000  1.0
  H  H31  1  0.26462000  0.51506000  0.57527000  1.0
  H  H32  1  0.79236000  0.59811000  0.64791000  1.0
  H  H33  1  0.73645000  0.58675000  0.42702000  1.0
  H  H34  1  0.20379000  0.74309000  0.26410000  1.0
  H  H35  1  0.22001000  0.74342000  0.35270000  1.0
  H  H36  1  0.24643000  0.81433000  0.42183000  1.0
  H  H37  1  0.78151000  0.83452000  0.56988000  1.0
  H  H38  1  0.79772000  0.74341000  0.57389000  1.0
  C  C39  1  0.50057000  0.92792000  0.49725000  1.0
  C  C40  1  0.49168000  0.99763000  0.57534000  1.0
  C  C41  1  0.49930000  0.07367000  0.42562000  1.0
  C  C42  1  0.55533000  0.26132000  0.83080000  1.0
  C  C43  1  0.54605000  0.33349000  0.90726000  1.0
  C  C44  1  0.56089000  0.40892000  0.76035000  1.0
  C  C45  1  0.45307000  0.74115000  0.09320000  1.0
  C  C46  1  0.44552000  0.59264000  0.16773000  1.0
  C  C47  1  0.44357000  0.66592000  0.24114000  1.0
  C  C48  1  0.47495000  0.94978000  0.88444000  1.0
  C  C49  1  0.48199000  0.00088000  0.88315000  1.0
  C  C50  1  0.49388000  0.05136000  0.83295000  1.0
  C  C51  1  0.49133000  0.05012000  0.78316000  1.0
  C  C52  1  0.48763000  0.99975000  0.78300000  1.0
  C  C53  1  0.48300000  0.94999000  0.83396000  1.0
  C  C54  1  0.38727000  0.16101000  0.87515000  1.0
  C  C55  1  0.36793000  0.11066000  0.87590000  1.0
  C  C56  1  0.50788000  0.10479000  0.83250000  1.0
  C  C57  1  0.66270000  0.15130000  0.78804000  1.0
  C  C58  1  0.67351000  0.20205000  0.78673000  1.0
  C  C59  1  0.54141000  0.20739000  0.83067000  1.0
  C  C60  1  0.59672000  0.89355000  0.98567000  1.0
  C  C61  1  0.58552000  0.84391000  0.03607000  1.0
  C  C62  1  0.45332000  0.79551000  0.03972000  1.0
  C  C63  1  0.31724000  0.79880000  0.99211000  1.0
  C  C64  1  0.31912000  0.84872000  0.94205000  1.0
  C  C65  1  0.46426000  0.89683000  0.93774000  1.0
  C  C66  1  0.33984000  0.95462000  0.72786000  1.0
  C  C67  1  0.33961000  0.95232000  0.67895000  1.0
  C  C68  1  0.49016000  0.99510000  0.63016000  1.0
  C  C69  1  0.64523000  0.03880000  0.63332000  1.0
  C  C70  1  0.64406000  0.04124000  0.68193000  1.0
  C  C71  1  0.48951000  0.99889000  0.73034000  1.0
  C  C72  1  0.50036000  0.33381000  0.11589000  1.0
  C  C73  1  0.49338000  0.38357000  0.11725000  1.0
  C  C74  1  0.48413000  0.38389000  0.16748000  1.0
  C  C75  1  0.48550000  0.33291000  0.21724000  1.0
  C  C76  1  0.48735000  0.28240000  0.21733000  1.0
  C  C77  1  0.49211000  0.28356000  0.16635000  1.0
  C  C78  1  0.60422000  0.53558000  0.12426000  1.0
  C  C79  1  0.61854000  0.48569000  0.12404000  1.0
  C  C80  1  0.47679000  0.43693000  0.16782000  1.0
  C  C81  1  0.32729000  0.43967000  0.21231000  1.0
  C  C82  1  0.32170000  0.48940000  0.21313000  1.0
  C  C83  1  0.45387000  0.53824000  0.16860000  1.0
  C  C84  1  0.38223000  0.37851000  0.01445000  1.0
  C  C85  1  0.40015000  0.37940000  0.96395000  1.0
  C  C86  1  0.53853000  0.33487000  0.96053000  1.0
  C  C87  1  0.67466000  0.29085000  0.00833000  1.0
  C  C88  1  0.66635000  0.29069000  0.05842000  1.0
  C  C89  1  0.51474000  0.33416000  0.06255000  1.0
  C  C90  1  0.64017000  0.18240000  0.27266000  1.0
  C  C91  1  0.64430000  0.13140000  0.32174000  1.0
  C  C92  1  0.49453000  0.12552000  0.37059000  1.0
  C  C93  1  0.33519000  0.17216000  0.36726000  1.0
  C  C94  1  0.33217000  0.22295000  0.31844000  1.0
  C  C95  1  0.48700000  0.22897000  0.27003000  1.0
  C  C96  1  0.50507000  0.66620000  0.44941000  1.0
  C  C97  1  0.51231000  0.61651000  0.50040000  1.0
  C  C98  1  0.52354000  0.61636000  0.55082000  1.0
  C  C99  1  0.52320000  0.66748000  0.54957000  1.0
  C  C100  1  0.52067000  0.71791000  0.49928000  1.0
  C  C101  1  0.51556000  0.71653000  0.44959000  1.0
  C  C102  1  0.40542000  0.46468000  0.66019000  1.0
  C  C103  1  0.39223000  0.51430000  0.60997000  1.0
  C  C104  1  0.53038000  0.56346000  0.60420000  1.0
  C  C105  1  0.67529000  0.56137000  0.65082000  1.0
  C  C106  1  0.67929000  0.51199000  0.70148000  1.0
  C  C107  1  0.55080000  0.46279000  0.70654000  1.0
  C  C108  1  0.61111000  0.62086000  0.39226000  1.0
  C  C109  1  0.58650000  0.61967000  0.34298000  1.0
  C  C110  1  0.44905000  0.66434000  0.29581000  1.0
  C  C111  1  0.32104000  0.70896000  0.30010000  1.0
  C  C112  1  0.33458000  0.70934000  0.34985000  1.0
  C  C113  1  0.48533000  0.66567000  0.39660000  1.0
  C  C114  1  0.36871000  0.81797000  0.45457000  1.0
  C  C115  1  0.36214000  0.86924000  0.45226000  1.0
  C  C116  1  0.50613000  0.87559000  0.49472000  1.0
  C  C117  1  0.66128000  0.82907000  0.53802000  1.0
  C  C118  1  0.66682000  0.77800000  0.54037000  1.0
  C  C119  1  0.51867000  0.77153000  0.49840000  1.0
  Cl  Cl120  1  0.85261000  0.25883000  0.72966000  1.0
  Cl  Cl121  1  0.73903000  0.84283000  0.09438000  1.0
  Cl  Cl122  1  0.16085000  0.89387000  0.68275000  1.0
  Cl  Cl123  1  0.15002000  0.49011000  0.27012000  1.0
  Cl  Cl124  1  0.24930000  0.43642000  0.90535000  1.0
  Cl  Cl125  1  0.82667000  0.07690000  0.31819000  1.0
  Cl  Cl126  1  0.84499000  0.51209000  0.75848000  1.0
  Cl  Cl127  1  0.72998000  0.56211000  0.34078000  1.0
  Cl  Cl128  1  0.18467000  0.92344000  0.39429000  1.0
  O  O129  1  0.26523000  0.06666000  0.46032000  1.0
  O  O130  1  0.26486000  0.96183000  0.47331000  1.0
  O  O131  1  0.25466000  0.97367000  0.56538000  1.0
  O  O132  1  0.73915000  0.04034000  0.43518000  1.0
  O  O133  1  0.72845000  0.02511000  0.54133000  1.0
  O  O134  1  0.73069000  0.93471000  0.52471000  1.0
  O  O135  1  0.32553000  0.39924000  0.79512000  1.0
  O  O136  1  0.32531000  0.29597000  0.80589000  1.0
  O  O137  1  0.31256000  0.30692000  0.89973000  1.0
  O  O138  1  0.80090000  0.37630000  0.76693000  1.0
  O  O139  1  0.78782000  0.35802000  0.87396000  1.0
  O  O140  1  0.79285000  0.26791000  0.85690000  1.0
  O  O141  1  0.20485000  0.64163000  0.23226000  1.0
  O  O142  1  0.21441000  0.73209000  0.12719000  1.0
  O  O143  1  0.21052000  0.62590000  0.14135000  1.0
  O  O144  1  0.68001000  0.69275000  0.20695000  1.0
  O  O145  1  0.67826000  0.60216000  0.19232000  1.0
  O  O146  1  0.68964000  0.70778000  0.10026000  1.0
