# generated using pymatgen
data_UH6(CO)6
_symmetry_space_group_name_H-M   'P 1'
_cell_length_a   7.63410000
_cell_length_b   10.46540000
_cell_length_c   10.71530000
_cell_angle_alpha   113.43200000
_cell_angle_beta   89.99990000
_cell_angle_gamma   90.00000000
_symmetry_Int_Tables_number   1
_chemical_formula_structural   UH6(CO)6
_chemical_formula_sum   'U4 H24 C24 O24'
_cell_volume   785.48799128
_cell_formula_units_Z   4
loop_
 _symmetry_equiv_pos_site_id
 _symmetry_equiv_pos_as_xyz
  1  'x, y, z'
loop_
 _atom_site_type_symbol
 _atom_site_label
 _atom_site_symmetry_multiplicity
 _atom_site_fract_x
 _atom_site_fract_y
 _atom_site_fract_z
 _atom_site_occupancy
  U  U0  1  0.26465000  0.08349000  0.33195000  1.0
  U  U1  1  0.76465000  0.91652000  0.16805000  1.0
  U  U2  1  0.73535000  0.91651000  0.66805000  1.0
  U  U3  1  0.23535000  0.08348000  0.83195000  1.0
  H  H4  1  0.85593000  0.47102000  0.47639000  1.0
  H  H5  1  0.35593000  0.52898000  0.02360000  1.0
  H  H6  1  0.14407000  0.52898000  0.52361000  1.0
  H  H7  1  0.64407000  0.47102000  0.97640000  1.0
  H  H8  1  0.63051000  0.47358000  0.52004000  1.0
  H  H9  1  0.13052000  0.52642000  0.97996000  1.0
  H  H10  1  0.36949000  0.52643000  0.47996000  1.0
  H  H11  1  0.86949000  0.47358000  0.02004000  1.0
  H  H12  1  0.72107000  0.56697000  0.76264000  1.0
  H  H13  1  0.22107000  0.43303000  0.73736000  1.0
  H  H14  1  0.27893000  0.43303000  0.23736000  1.0
  H  H15  1  0.77893000  0.56697000  0.26264000  1.0
  H  H16  1  0.94116000  0.51930000  0.71484000  1.0
  H  H17  1  0.44116000  0.48070000  0.78516000  1.0
  H  H18  1  0.05884000  0.48070000  0.28516000  1.0
  H  H19  1  0.55884000  0.51930000  0.21484000  1.0
  H  H20  1  0.64771000  0.31819000  0.71435000  1.0
  H  H21  1  0.14771000  0.68181000  0.78565000  1.0
  H  H22  1  0.35229000  0.68180000  0.28565000  1.0
  H  H23  1  0.85229000  0.31819000  0.21435000  1.0
  H  H24  1  0.87906000  0.28592000  0.70933000  1.0
  H  H25  1  0.37906000  0.71408000  0.79067000  1.0
  H  H26  1  0.12094000  0.71408000  0.29067000  1.0
  H  H27  1  0.62094000  0.28592000  0.20933000  1.0
  C  C28  1  0.76427000  0.28346000  0.51555000  1.0
  C  C29  1  0.26427000  0.71654000  0.98445000  1.0
  C  C30  1  0.23573000  0.71654000  0.48445000  1.0
  C  C31  1  0.73573000  0.28346000  0.01555000  1.0
  C  C32  1  0.76194000  0.44301000  0.53845000  1.0
  C  C33  1  0.26194000  0.55699000  0.96155000  1.0
  C  C34  1  0.23805000  0.55699000  0.46155000  1.0
  C  C35  1  0.73806000  0.44301000  0.03845000  1.0
  C  C36  1  0.80483000  0.48666000  0.69051000  1.0
  C  C37  1  0.30484000  0.51334000  0.80949000  1.0
  C  C38  1  0.19516000  0.51334000  0.30949000  1.0
  C  C39  1  0.69517000  0.48666000  0.19051000  1.0
  C  C40  1  0.77401000  0.33540000  0.67507000  1.0
  C  C41  1  0.27402000  0.66460000  0.82493000  1.0
  C  C42  1  0.22598000  0.66460000  0.32493000  1.0
  C  C43  1  0.72598000  0.33540000  0.17507000  1.0
  C  C44  1  0.59762000  0.20886000  0.45332000  1.0
  C  C45  1  0.09762000  0.79114000  0.04668000  1.0
  C  C46  1  0.40238000  0.79114000  0.54668000  1.0
  C  C47  1  0.90238000  0.20886000  0.95332000  1.0
  C  C48  1  0.93160000  0.21403000  0.44909000  1.0
  C  C49  1  0.43160000  0.78597000  0.05091000  1.0
  C  C50  1  0.06840000  0.78597000  0.55091000  1.0
  C  C51  1  0.56840000  0.21403000  0.94909000  1.0
  O  O52  1  0.25676000  0.97959000  0.43126000  1.0
  O  O53  1  0.75676000  0.02041000  0.06874000  1.0
  O  O54  1  0.74324000  0.02041000  0.56874000  1.0
  O  O55  1  0.24324000  0.97959000  0.93126000  1.0
  O  O56  1  0.27329000  0.18840000  0.23439000  1.0
  O  O57  1  0.77329000  0.81161000  0.26561000  1.0
  O  O58  1  0.72671000  0.81160000  0.76561000  1.0
  O  O59  1  0.22671000  0.18839000  0.73439000  1.0
  O  O60  1  0.45194000  0.25826000  0.50683000  1.0
  O  O61  1  0.95194000  0.74174000  0.99317000  1.0
  O  O62  1  0.54806000  0.74174000  0.49317000  1.0
  O  O63  1  0.04806000  0.25826000  0.00683000  1.0
  O  O64  1  0.59338000  0.09690000  0.34221000  1.0
  O  O65  1  0.09338000  0.90311000  0.15779000  1.0
  O  O66  1  0.40662000  0.90310000  0.65779000  1.0
  O  O67  1  0.90662000  0.09690000  0.84221000  1.0
  O  O68  1  0.93545000  0.10151000  0.33853000  1.0
  O  O69  1  0.43545000  0.89849000  0.16147000  1.0
  O  O70  1  0.06455000  0.89849000  0.66147000  1.0
  O  O71  1  0.56456000  0.10151000  0.83853000  1.0
  O  O72  1  0.07751000  0.26627000  0.49968000  1.0
  O  O73  1  0.57751000  0.73373000  0.00032000  1.0
  O  O74  1  0.92249000  0.73373000  0.50032000  1.0
  O  O75  1  0.42249000  0.26627000  0.99968000  1.0
