# generated using pymatgen
data_AgP2H24Au(C13S)2
_symmetry_space_group_name_H-M   'P 1'
_cell_length_a   6.54078000
_cell_length_b   12.38690000
_cell_length_c   16.29073648
_cell_angle_alpha   106.05128208
_cell_angle_beta   100.89640340
_cell_angle_gamma   104.37240000
_symmetry_Int_Tables_number   1
_chemical_formula_structural   AgP2H24Au(C13S)2
_chemical_formula_sum   'Ag2 P4 H48 Au2 C52 S4'
_cell_volume   1180.71863705
_cell_formula_units_Z   2
loop_
 _symmetry_equiv_pos_site_id
 _symmetry_equiv_pos_as_xyz
  1  'x, y, z'
loop_
 _atom_site_type_symbol
 _atom_site_label
 _atom_site_symmetry_multiplicity
 _atom_site_fract_x
 _atom_site_fract_y
 _atom_site_fract_z
 _atom_site_occupancy
  Ag  Ag0  1  0.38427000  0.24618000  0.24707000  1.0
  Ag  Ag1  1  0.61581000  0.75380000  0.75295000  1.0
  P  P2  1  0.94018000  0.99022000  0.14505000  1.0
  P  P3  1  0.69207000  0.49133000  0.64335000  1.0
  P  P4  1  0.05979000  0.00980000  0.85492000  1.0
  P  P5  1  0.30800000  0.50865000  0.35667000  1.0
  H  H6  1  0.62926000  0.05423000  0.14154000  1.0
  H  H7  1  0.04881000  0.54792000  0.62454000  1.0
  H  H8  1  0.37074000  0.94581000  0.85838000  1.0
  H  H9  1  0.95129000  0.45203000  0.37553000  1.0
  H  H10  1  0.80521000  0.11324000  0.08284000  1.0
  H  H11  1  0.86567000  0.61206000  0.57552000  1.0
  H  H12  1  0.19489000  0.88682000  0.91711000  1.0
  H  H13  1  0.13444000  0.38785000  0.42447000  1.0
  H  H14  1  0.66494000  0.00504000  0.27040000  1.0
  H  H15  1  0.11235000  0.51697000  0.76687000  1.0
  H  H16  1  0.33496000  0.99502000  0.72954000  1.0
  H  H17  1  0.88770000  0.48301000  0.23314000  1.0
  H  H18  1  0.67387000  0.94324000  0.40425000  1.0
  H  H19  1  0.18804000  0.45652000  0.90100000  1.0
  H  H20  1  0.32592000  0.05681000  0.59568000  1.0
  H  H21  1  0.81200000  0.54351000  0.09905000  1.0
  H  H22  1  0.94917000  0.84941000  0.45001000  1.0
  H  H23  1  0.87919000  0.35431000  0.94813000  1.0
  H  H24  1  0.05056000  0.15064000  0.54995000  1.0
  H  H25  1  0.12085000  0.64575000  0.05192000  1.0
  H  H26  1  0.20105000  0.80525000  0.35837000  1.0
  H  H27  1  0.49353000  0.29994000  0.85776000  1.0
  H  H28  1  0.79877000  0.19480000  0.64164000  1.0
  H  H29  1  0.50652000  0.70005000  0.14227000  1.0
  H  H30  1  0.19430000  0.86787000  0.22554000  1.0
  H  H31  1  0.41692000  0.36008000  0.72455000  1.0
  H  H32  1  0.80564000  0.13218000  0.77447000  1.0
  H  H33  1  0.58312000  0.63985000  0.27545000  1.0
  H  H34  1  0.07529000  0.80962000  0.02988000  1.0
  H  H35  1  0.26222000  0.31468000  0.53827000  1.0
  H  H36  1  0.92471000  0.19039000  0.97009000  1.0
  H  H37  1  0.73786000  0.68529000  0.46176000  1.0
  H  H38  1  0.86131000  0.62333000  0.90164000  1.0
  H  H39  1  0.15585000  0.12632000  0.40897000  1.0
  H  H40  1  0.13867000  0.37664000  0.09835000  1.0
  H  H41  1  0.84420000  0.87367000  0.59105000  1.0
  H  H42  1  0.45825000  0.56928000  0.84904000  1.0
  H  H43  1  0.44066000  0.06437000  0.34675000  1.0
  H  H44  1  0.54171000  0.43067000  0.15098000  1.0
  H  H45  1  0.55937000  0.93563000  0.65325000  1.0
  H  H46  1  0.26300000  0.69900000  0.92353000  1.0
  H  H47  1  0.83415000  0.18867000  0.41166000  1.0
  H  H48  1  0.73699000  0.30095000  0.07651000  1.0
  H  H49  1  0.16587000  0.81132000  0.58832000  1.0
  H  H50  1  0.47292000  0.88112000  0.05300000  1.0
  H  H51  1  0.94104000  0.37291000  0.54137000  1.0
  H  H52  1  0.52709000  0.11888000  0.94700000  1.0
  H  H53  1  0.05902000  0.62707000  0.45863000  1.0
  Au  Au54  1  0.94199000  0.25177000  0.25440000  1.0
  Au  Au55  1  0.05805000  0.74823000  0.74558000  1.0
  C  C56  1  0.80172000  0.09587000  0.14534000  1.0
  C  C57  1  0.92550000  0.59246000  0.63582000  1.0
  C  C58  1  0.19833000  0.90417000  0.85461000  1.0
  C  C59  1  0.07457000  0.40749000  0.36420000  1.0
  C  C60  1  0.93156000  0.94187000  0.24057000  1.0
  C  C61  1  0.75984000  0.44376000  0.73829000  1.0
  C  C62  1  0.06835000  0.05819000  0.75939000  1.0
  C  C63  1  0.24021000  0.55621000  0.26172000  1.0
  C  C64  1  0.78174000  0.96113000  0.28977000  1.0
  C  C65  1  0.97746000  0.46901000  0.78682000  1.0
  C  C66  1  0.21813000  0.03893000  0.71017000  1.0
  C  C67  1  0.02258000  0.53097000  0.21320000  1.0
  C  C68  1  0.78694000  0.92650000  0.36462000  1.0
  C  C69  1  0.01944000  0.43533000  0.86185000  1.0
  C  C70  1  0.21288000  0.07355000  0.63532000  1.0
  C  C71  1  0.98058000  0.56468000  0.13819000  1.0
  C  C72  1  0.94023000  0.87251000  0.38999000  1.0
  C  C73  1  0.84553000  0.37673000  0.88810000  1.0
  C  C74  1  0.05957000  0.12754000  0.60998000  1.0
  C  C75  1  0.15453000  0.62329000  0.11195000  1.0
  C  C76  1  0.08381000  0.84900000  0.33912000  1.0
  C  C77  1  0.62888000  0.34740000  0.83788000  1.0
  C  C78  1  0.91603000  0.15105000  0.66086000  1.0
  C  C79  1  0.37118000  0.65258000  0.16215000  1.0
  C  C80  1  0.07927000  0.88348000  0.26447000  1.0
  C  C81  1  0.58606000  0.38063000  0.76300000  1.0
  C  C82  1  0.92063000  0.11657000  0.73553000  1.0
  C  C83  1  0.41399000  0.61933000  0.23701000  1.0
  C  C84  1  0.78858000  0.85558000  0.05047000  1.0
  C  C85  1  0.60721000  0.35453000  0.54868000  1.0
  C  C86  1  0.21144000  0.14442000  0.94951000  1.0
  C  C87  1  0.39285000  0.64544000  0.45134000  1.0
  C  C88  1  0.89663000  0.78297000  0.00737000  1.0
  C  C89  1  0.38660000  0.28497000  0.51104000  1.0
  C  C90  1  0.10339000  0.21704000  0.99262000  1.0
  C  C91  1  0.61344000  0.71500000  0.48898000  1.0
  C  C92  1  0.77746000  0.67965000  0.93572000  1.0
  C  C93  1  0.32755000  0.18031000  0.43904000  1.0
  C  C94  1  0.22255000  0.32034000  0.06429000  1.0
  C  C95  1  0.67249000  0.81967000  0.56098000  1.0
  C  C96  1  0.54924000  0.64909000  0.90606000  1.0
  C  C97  1  0.48895000  0.14525000  0.40384000  1.0
  C  C98  1  0.45075000  0.35089000  0.09396000  1.0
  C  C99  1  0.51108000  0.85473000  0.59617000  1.0
  C  C100  1  0.44039000  0.72153000  0.94855000  1.0
  C  C101  1  0.70945000  0.21437000  0.44107000  1.0
  C  C102  1  0.55960000  0.27844000  0.05147000  1.0
  C  C103  1  0.29058000  0.78561000  0.55893000  1.0
  C  C104  1  0.55894000  0.82426000  0.02082000  1.0
  C  C105  1  0.76895000  0.31844000  0.51344000  1.0
  C  C106  1  0.44107000  0.17573000  0.97918000  1.0
  C  C107  1  0.23110000  0.68154000  0.48656000  1.0
  S  S108  1  0.25335000  0.04475000  0.13986000  1.0
  S  S109  1  0.43429000  0.55242000  0.64783000  1.0
  S  S110  1  0.74669000  0.95525000  0.86013000  1.0
  S  S111  1  0.56579000  0.44756000  0.35219000  1.0
