# generated using pymatgen
data_Zn4H36C48N6O13
_symmetry_space_group_name_H-M   'P 1'
_cell_length_a   27.12440000
_cell_length_b   27.49147126
_cell_length_c   27.58540000
_cell_angle_alpha   61.61809027
_cell_angle_beta   61.09380000
_cell_angle_gamma   60.90880731
_symmetry_Int_Tables_number   1
_chemical_formula_structural   Zn4H36C48N6O13
_chemical_formula_sum   'Zn8 H72 C96 N12 O26'
_cell_volume   14938.95882992
_cell_formula_units_Z   2
loop_
 _symmetry_equiv_pos_site_id
 _symmetry_equiv_pos_as_xyz
  1  'x, y, z'
loop_
 _atom_site_type_symbol
 _atom_site_label
 _atom_site_symmetry_multiplicity
 _atom_site_fract_x
 _atom_site_fract_y
 _atom_site_fract_z
 _atom_site_occupancy
  Zn  Zn0  1  0.03102000  0.02290000  0.03342000  1.0
  Zn  Zn1  1  0.03378000  0.90826000  0.03425000  1.0
  Zn  Zn2  1  0.03304000  0.01927000  0.91944000  1.0
  Zn  Zn3  1  0.91314000  0.02083000  0.03429000  1.0
  Zn  Zn4  1  0.47162000  0.46324000  0.47789000  1.0
  Zn  Zn5  1  0.47415000  0.57775000  0.47377000  1.0
  Zn  Zn6  1  0.59061000  0.46201000  0.47906000  1.0
  Zn  Zn7  1  0.46709000  0.46981000  0.59077000  1.0
  H  H8  1  0.38761000  0.55675000  0.25773000  1.0
  H  H9  1  0.35037000  0.62197000  0.21893000  1.0
  H  H10  1  0.40978000  0.54392000  0.33680000  1.0
  H  H11  1  0.34342000  0.69382000  0.39063000  1.0
  H  H12  1  0.28339000  0.75127000  0.32358000  1.0
  H  H13  1  0.26779000  0.68904000  0.23922000  1.0
  H  H14  1  0.27150000  0.79964000  0.23753000  1.0
  H  H15  1  0.17884000  0.74070000  0.22894000  1.0
  H  H16  1  0.11198000  0.79720000  0.16847000  1.0
  H  H17  1  0.17725000  0.94060000  0.09303000  1.0
  H  H18  1  0.29561000  0.86089000  0.15455000  1.0
  H  H19  1  0.25920000  0.92568000  0.11439000  1.0
  H  H20  1  0.24513000  0.38498000  0.57181000  1.0
  H  H21  1  0.20631000  0.34707000  0.63602000  1.0
  H  H22  1  0.32471000  0.40747000  0.55962000  1.0
  H  H23  1  0.37801000  0.34305000  0.70858000  1.0
  H  H24  1  0.31146000  0.28256000  0.76422000  1.0
  H  H25  1  0.22939000  0.26524000  0.69977000  1.0
  H  H26  1  0.22398000  0.26812000  0.81212000  1.0
  H  H27  1  0.21826000  0.17860000  0.74770000  1.0
  H  H28  1  0.16110000  0.10926000  0.80287000  1.0
  H  H29  1  0.08493000  0.16713000  0.95162000  1.0
  H  H30  1  0.13890000  0.28831000  0.87613000  1.0
  H  H31  1  0.10141000  0.24883000  0.94001000  1.0
  H  H32  1  0.56372000  0.24583000  0.39544000  1.0
  H  H33  1  0.62825000  0.20779000  0.35507000  1.0
  H  H34  1  0.55413000  0.32259000  0.41919000  1.0
  H  H35  1  0.70715000  0.37553000  0.34676000  1.0
  H  H36  1  0.76056000  0.31137000  0.28392000  1.0
  H  H37  1  0.69225000  0.22885000  0.27265000  1.0
  H  H38  1  0.80838000  0.22481000  0.27034000  1.0
  H  H39  1  0.74061000  0.21411000  0.18700000  1.0
  H  H40  1  0.79509000  0.15208000  0.12189000  1.0
  H  H41  1  0.94788000  0.07921000  0.17569000  1.0
  H  H42  1  0.87246000  0.14197000  0.29148000  1.0
  H  H43  1  0.93743000  0.10189000  0.25347000  1.0
  H  H44  1  0.39118000  0.78884000  0.56795000  1.0
  H  H45  1  0.35331000  0.80145000  0.63287000  1.0
  H  H46  1  0.41077000  0.70128000  0.55463000  1.0
  H  H47  1  0.33646000  0.57258000  0.70167000  1.0
  H  H48  1  0.27756000  0.64325000  0.75818000  1.0
  H  H49  1  0.26903000  0.79966000  0.69741000  1.0
  H  H50  1  0.26915000  0.69209000  0.80738000  1.0
  H  H51  1  0.18126000  0.84804000  0.74799000  1.0
  H  H52  1  0.11632000  0.91868000  0.80457000  1.0
  H  H53  1  0.17714000  0.79038000  0.94944000  1.0
  H  H54  1  0.29384000  0.69089000  0.86989000  1.0
  H  H55  1  0.25738000  0.70342000  0.93473000  1.0
  H  H56  1  0.57337000  0.77345000  0.26155000  1.0
  H  H57  1  0.63824000  0.78760000  0.22451000  1.0
  H  H58  1  0.56213000  0.68721000  0.33791000  1.0
  H  H59  1  0.71320000  0.56043000  0.39396000  1.0
  H  H60  1  0.76854000  0.63147000  0.33039000  1.0
  H  H61  1  0.70092000  0.78784000  0.24669000  1.0
  H  H62  1  0.81827000  0.68439000  0.24464000  1.0
  H  H63  1  0.74532000  0.84495000  0.22916000  1.0
  H  H64  1  0.79691000  0.91908000  0.16567000  1.0
  H  H65  1  0.95480000  0.78696000  0.09987000  1.0
  H  H66  1  0.88541000  0.67875000  0.16454000  1.0
  H  H67  1  0.94877000  0.69559000  0.12483000  1.0
  H  H68  1  0.55609000  0.38229000  0.80184000  1.0
  H  H69  1  0.62026000  0.34252000  0.81754000  1.0
  H  H70  1  0.54776000  0.40456000  0.71206000  1.0
  H  H71  1  0.70308000  0.33247000  0.58288000  1.0
  H  H72  1  0.75589000  0.27056000  0.65619000  1.0
  H  H73  1  0.68587000  0.25974000  0.81432000  1.0
  H  H74  1  0.80211000  0.25566000  0.71021000  1.0
  H  H75  1  0.73514000  0.17371000  0.86647000  1.0
  H  H76  1  0.79228000  0.10670000  0.93574000  1.0
  H  H77  1  0.94582000  0.15624000  0.80678000  1.0
  H  H78  1  0.86750000  0.27549000  0.70966000  1.0
  H  H79  1  0.93357000  0.23537000  0.72174000  1.0
  C  C80  1  0.35069000  0.62207000  0.29317000  1.0
  C  C81  1  0.38211000  0.58971000  0.33294000  1.0
  C  C82  1  0.37980000  0.61535000  0.36752000  1.0
  C  C83  1  0.34517000  0.67445000  0.36315000  1.0
  C  C84  1  0.31261000  0.70624000  0.32511000  1.0
  C  C85  1  0.31411000  0.68154000  0.28956000  1.0
  C  C86  1  0.27873000  0.71467000  0.25086000  1.0
  C  C87  1  0.25801000  0.77396000  0.22857000  1.0
  C  C88  1  0.21877000  0.80687000  0.19362000  1.0
  C  C89  1  0.17991000  0.78389000  0.19769000  1.0
  C  C90  1  0.14192000  0.81528000  0.16489000  1.0
  C  C91  1  0.14088000  0.87234000  0.12739000  1.0
  C  C92  1  0.17855000  0.89639000  0.12278000  1.0
  C  C93  1  0.21828000  0.86427000  0.15455000  1.0
  C  C94  1  0.09994000  0.90739000  0.09220000  1.0
  C  C95  1  0.41437000  0.57965000  0.40879000  1.0
  C  C96  1  0.28100000  0.34874000  0.63639000  1.0
  C  C97  1  0.32073000  0.38036000  0.60488000  1.0
  C  C98  1  0.35528000  0.37860000  0.63060000  1.0
  C  C99  1  0.35061000  0.34444000  0.68903000  1.0
  C  C100  1  0.31280000  0.31151000  0.71989000  1.0
  C  C101  1  0.27754000  0.31224000  0.69496000  1.0
  C  C102  1  0.23957000  0.27614000  0.72651000  1.0
  C  C103  1  0.21643000  0.25477000  0.78538000  1.0
  C  C104  1  0.18245000  0.21488000  0.81686000  1.0
  C  C105  1  0.18746000  0.17750000  0.79193000  1.0
  C  C106  1  0.15642000  0.13814000  0.82253000  1.0
  C  C107  1  0.11981000  0.13418000  0.88077000  1.0
  C  C108  1  0.11391000  0.17069000  0.90651000  1.0
  C  C109  1  0.14358000  0.21184000  0.87529000  1.0
  C  C110  1  0.08708000  0.09128000  0.91608000  1.0
  C  C111  1  0.39742000  0.41252000  0.59524000  1.0
  C  C112  1  0.63004000  0.28089000  0.35650000  1.0
  C  C113  1  0.59975000  0.31914000  0.38953000  1.0
  C  C114  1  0.62722000  0.35277000  0.38643000  1.0
  C  C115  1  0.68616000  0.34893000  0.34919000  1.0
  C  C116  1  0.71582000  0.31246000  0.31499000  1.0
  C  C117  1  0.68926000  0.27778000  0.31744000  1.0
  C  C118  1  0.72031000  0.23969000  0.28153000  1.0
  C  C119  1  0.78045000  0.21634000  0.25895000  1.0
  C  C120  1  0.81179000  0.18035000  0.22092000  1.0
  C  C121  1  0.78554000  0.18310000  0.18588000  1.0
  C  C122  1  0.81574000  0.14937000  0.14893000  1.0
  C  C123  1  0.87494000  0.11234000  0.14501000  1.0
  C  C124  1  0.90208000  0.10872000  0.17920000  1.0
  C  C125  1  0.87120000  0.14123000  0.21797000  1.0
  C  C126  1  0.91025000  0.07706000  0.10414000  1.0
  C  C127  1  0.59259000  0.39272000  0.42270000  1.0
  C  C128  1  0.35101000  0.72848000  0.63163000  1.0
  C  C129  1  0.38164000  0.68918000  0.59962000  1.0
  C  C130  1  0.37675000  0.63340000  0.62470000  1.0
  C  C131  1  0.34018000  0.61605000  0.68276000  1.0
  C  C132  1  0.30832000  0.65536000  0.71409000  1.0
  C  C133  1  0.31259000  0.71189000  0.69003000  1.0
  C  C134  1  0.27836000  0.75310000  0.72290000  1.0
  C  C135  1  0.25705000  0.73862000  0.78193000  1.0
  C  C136  1  0.21897000  0.77976000  0.81490000  1.0
  C  C137  1  0.18183000  0.83607000  0.79157000  1.0
  C  C138  1  0.14487000  0.87538000  0.82298000  1.0
  C  C139  1  0.14300000  0.85813000  0.88049000  1.0
  C  C140  1  0.17906000  0.80249000  0.90488000  1.0
  C  C141  1  0.21792000  0.76328000  0.87269000  1.0
  C  C142  1  0.10249000  0.89867000  0.91607000  1.0
  C  C143  1  0.41082000  0.59251000  0.58956000  1.0
  C  C144  1  0.63904000  0.71501000  0.29757000  1.0
  C  C145  1  0.60777000  0.67540000  0.33534000  1.0
  C  C146  1  0.63406000  0.62002000  0.36969000  1.0
  C  C147  1  0.69302000  0.60351000  0.36683000  1.0
  C  C148  1  0.72375000  0.64323000  0.33069000  1.0
  C  C149  1  0.69822000  0.69948000  0.29552000  1.0
  C  C150  1  0.72935000  0.74193000  0.25808000  1.0
  C  C151  1  0.78935000  0.73029000  0.23553000  1.0
  C  C152  1  0.81925000  0.77385000  0.19910000  1.0
  C  C153  1  0.79084000  0.83253000  0.19941000  1.0
  C  C154  1  0.81941000  0.87407000  0.16471000  1.0
  C  C155  1  0.87922000  0.85699000  0.12905000  1.0
  C  C156  1  0.90849000  0.79920000  0.12807000  1.0
  C  C157  1  0.87935000  0.75756000  0.16151000  1.0
  C  C158  1  0.91301000  0.89906000  0.09228000  1.0
  C  C159  1  0.59794000  0.58010000  0.40916000  1.0
  C  C160  1  0.62376000  0.34289000  0.74130000  1.0
  C  C161  1  0.59378000  0.37530000  0.70030000  1.0
  C  C162  1  0.62202000  0.37199000  0.64359000  1.0
  C  C163  1  0.68149000  0.33512000  0.62704000  1.0
  C  C164  1  0.71079000  0.30142000  0.66800000  1.0
  C  C165  1  0.68347000  0.30403000  0.72555000  1.0
  C  C166  1  0.71417000  0.26814000  0.76849000  1.0
  C  C167  1  0.77435000  0.24469000  0.75613000  1.0
  C  C168  1  0.80649000  0.20597000  0.79766000  1.0
  C  C169  1  0.78088000  0.17138000  0.85388000  1.0
  C  C170  1  0.81261000  0.13325000  0.89257000  1.0
  C  C171  1  0.87280000  0.12734000  0.87482000  1.0
  C  C172  1  0.89924000  0.16112000  0.81947000  1.0
  C  C173  1  0.86680000  0.20138000  0.78109000  1.0
  C  C174  1  0.90949000  0.08551000  0.91404000  1.0
  C  C175  1  0.58802000  0.40767000  0.60164000  1.0
  N  N176  1  0.35407000  0.59559000  0.25889000  1.0
  N  N177  1  0.25570000  0.88898000  0.14897000  1.0
  N  N178  1  0.24680000  0.35172000  0.60971000  1.0
  N  N179  1  0.13621000  0.24787000  0.90223000  1.0
  N  N180  1  0.60169000  0.24754000  0.36085000  1.0
  N  N181  1  0.89917000  0.13648000  0.25184000  1.0
  N  N182  1  0.35695000  0.78365000  0.60598000  1.0
  N  N183  1  0.25391000  0.70820000  0.89760000  1.0
  N  N184  1  0.61136000  0.76967000  0.26379000  1.0
  N  N185  1  0.91005000  0.70057000  0.15873000  1.0
  N  N186  1  0.59446000  0.34769000  0.79729000  1.0
  N  N187  1  0.89418000  0.23510000  0.72660000  1.0
  O  O188  1  0.00081000  0.99362000  0.00475000  1.0
  O  O189  1  0.07224000  0.88101000  0.09178000  1.0
  O  O190  1  0.09560000  0.96139000  0.06474000  1.0
  O  O191  1  0.41590000  0.60637000  0.43515000  1.0
  O  O192  1  0.44012000  0.52483000  0.41471000  1.0
  O  O193  1  0.08726000  0.06325000  0.88993000  1.0
  O  O194  1  0.06103000  0.08592000  0.97050000  1.0
  O  O195  1  0.42180000  0.41692000  0.62208000  1.0
  O  O196  1  0.40609000  0.43468000  0.54031000  1.0
  O  O197  1  0.88271000  0.07413000  0.07938000  1.0
  O  O198  1  0.96618000  0.05228000  0.09713000  1.0
  O  O199  1  0.62061000  0.41653000  0.42631000  1.0
  O  O200  1  0.53671000  0.39986000  0.44768000  1.0
  O  O201  1  0.07719000  0.95194000  0.88968000  1.0
  O  O202  1  0.09624000  0.87683000  0.97046000  1.0
  O  O203  1  0.41149000  0.53949000  0.61634000  1.0
  O  O204  1  0.43696000  0.61377000  0.53512000  1.0
  O  O205  1  0.88390000  0.95348000  0.08681000  1.0
  O  O206  1  0.96930000  0.87661000  0.06885000  1.0
  O  O207  1  0.62436000  0.52680000  0.43438000  1.0
  O  O208  1  0.54242000  0.60305000  0.41442000  1.0
  O  O209  1  0.88194000  0.06497000  0.96816000  1.0
  O  O210  1  0.96603000  0.07385000  0.88975000  1.0
  O  O211  1  0.61728000  0.41111000  0.54792000  1.0
  O  O212  1  0.53181000  0.43212000  0.62331000  1.0
  O  O213  1  0.50284000  0.49229000  0.50574000  1.0
