# generated using pymatgen
data_AlH15(C5O2)6
_symmetry_space_group_name_H-M   'P 1'
_cell_length_a   4.08915000
_cell_length_b   16.01270000
_cell_length_c   16.02957503
_cell_angle_alpha   60.08035935
_cell_angle_beta   89.61035880
_cell_angle_gamma   89.41370000
_symmetry_Int_Tables_number   1
_chemical_formula_structural   AlH15(C5O2)6
_chemical_formula_sum   'Al1 H15 C30 O12'
_cell_volume   909.65724247
_cell_formula_units_Z   1
loop_
 _symmetry_equiv_pos_site_id
 _symmetry_equiv_pos_as_xyz
  1  'x, y, z'
loop_
 _atom_site_type_symbol
 _atom_site_label
 _atom_site_symmetry_multiplicity
 _atom_site_fract_x
 _atom_site_fract_y
 _atom_site_fract_z
 _atom_site_occupancy
  Al  Al0  1  0.01786000  0.00329000  0.49988000  1.0
  H  H1  1  0.48051000  0.84386000  0.07641000  1.0
  H  H2  1  0.50926000  0.57819000  0.34646000  1.0
  H  H3  1  0.45016000  0.57325000  0.08144000  1.0
  H  H4  1  0.29485000  0.98300000  0.76177000  1.0
  H  H5  1  0.25501000  0.89870000  0.93838000  1.0
  H  H6  1  0.70637000  0.64736000  0.95123000  1.0
  H  H7  1  0.70655000  0.90078000  0.14954000  1.0
  H  H8  1  0.29732000  0.75618000  0.48454000  1.0
  H  H9  1  0.26358000  0.66365000  0.40019000  1.0
  H  H10  1  0.21803000  0.44580000  0.39708000  1.0
  H  H11  1  0.76150000  0.26320000  0.25917000  1.0
  H  H12  1  0.75045000  0.44154000  0.16579000  1.0
  H  H13  1  0.01950000  0.80613000  0.67071000  1.0
  H  H14  1  0.00813000  0.02479000  0.30597000  1.0
  H  H15  1  0.62825000  0.21900000  0.57996000  1.0
  C  C16  1  0.52348000  0.93309000  0.41993000  1.0
  C  C17  1  0.51492000  0.14801000  0.43284000  1.0
  C  C18  1  0.52232000  0.91880000  0.64918000  1.0
  C  C19  1  0.48440000  0.71761000  0.21769000  1.0
  C  C20  1  0.47911000  0.76538000  0.11675000  1.0
  C  C21  1  0.47583000  0.71478000  0.06638000  1.0
  C  C22  1  0.46909000  0.61376000  0.11923000  1.0
  C  C23  1  0.47757000  0.56381000  0.22005000  1.0
  C  C24  1  0.48727000  0.61664000  0.26829000  1.0
  C  C25  1  0.38798000  0.90941000  0.80403000  1.0
  C  C26  1  0.36854000  0.86169000  0.90394000  1.0
  C  C27  1  0.48501000  0.76652000  0.95983000  1.0
  C  C28  1  0.61390000  0.72108000  0.91147000  1.0
  C  C29  1  0.62994000  0.76682000  0.81106000  1.0
  C  C30  1  0.51961000  0.86281000  0.75681000  1.0
  C  C31  1  0.61702000  0.86678000  0.22334000  1.0
  C  C32  1  0.62828000  0.92170000  0.26893000  1.0
  C  C33  1  0.52167000  0.88022000  0.36498000  1.0
  C  C34  1  0.39284000  0.78684000  0.41145000  1.0
  C  C35  1  0.37711000  0.73447000  0.36374000  1.0
  C  C36  1  0.49484000  0.77291000  0.26900000  1.0
  C  C37  1  0.34254000  0.40673000  0.36652000  1.0
  C  C38  1  0.35678000  0.30654000  0.42066000  1.0
  C  C39  1  0.50718000  0.25438000  0.38129000  1.0
  C  C40  1  0.64642000  0.30429000  0.28904000  1.0
  C  C41  1  0.63473000  0.40422000  0.23648000  1.0
  C  C42  1  0.48336000  0.45737000  0.27447000  1.0
  C  C43  1  0.73985000  0.70433000  0.77019000  1.0
  C  C44  1  0.72408000  0.02559000  0.20616000  1.0
  C  C45  1  0.20973000  0.25963000  0.51977000  1.0
  O  O46  1  0.75393000  0.97791000  0.60873000  1.0
  O  O47  1  0.75652000  0.91585000  0.47824000  1.0
  O  O48  1  0.75255000  0.10727000  0.41445000  1.0
  O  O49  1  0.28469000  0.90632000  0.60471000  1.0
  O  O50  1  0.28247000  0.10261000  0.49187000  1.0
  O  O51  1  0.28206000  0.99032000  0.40667000  1.0
  O  O52  1  0.91054000  0.74493000  0.68666000  1.0
  O  O53  1  0.66786000  0.61943000  0.81033000  1.0
  O  O54  1  0.89261000  0.06949000  0.24565000  1.0
  O  O55  1  0.64138000  0.07002000  0.12209000  1.0
  O  O56  1  0.38611000  0.20370000  0.59641000  1.0
  O  O57  1  0.91998000  0.27743000  0.52765000  1.0
