# generated using pymatgen
data_CdH20C24S2(N3O4)2
_symmetry_space_group_name_H-M   'P 1'
_cell_length_a   7.56656000
_cell_length_b   9.58392000
_cell_length_c   19.35270000
_cell_angle_alpha   89.99960000
_cell_angle_beta   101.08200000
_cell_angle_gamma   89.99990000
_symmetry_Int_Tables_number   1
_chemical_formula_structural   CdH20C24S2(N3O4)2
_chemical_formula_sum   'Cd2 H40 C48 S4 N12 O16'
_cell_volume   1377.23649460
_cell_formula_units_Z   2
loop_
 _symmetry_equiv_pos_site_id
 _symmetry_equiv_pos_as_xyz
  1  'x, y, z'
loop_
 _atom_site_type_symbol
 _atom_site_label
 _atom_site_symmetry_multiplicity
 _atom_site_fract_x
 _atom_site_fract_y
 _atom_site_fract_z
 _atom_site_occupancy
  Cd  Cd0  1  0.50000000  0.50000000  0.50000000  1.0
  Cd  Cd1  1  0.00000000  0.00000000  0.00000000  1.0
  H  H2  1  0.01047000  0.72920000  0.31018000  1.0
  H  H3  1  0.48953000  0.22921000  0.18982000  1.0
  H  H4  1  0.98953000  0.27079000  0.68982000  1.0
  H  H5  1  0.51047000  0.77080000  0.81018000  1.0
  H  H6  1  0.93974000  0.83735000  0.19104000  1.0
  H  H7  1  0.56026000  0.33735000  0.30895000  1.0
  H  H8  1  0.06025000  0.16265000  0.80896000  1.0
  H  H9  1  0.43975000  0.66265000  0.69105000  1.0
  H  H10  1  0.62293000  0.85753000  0.12701000  1.0
  H  H11  1  0.87707000  0.35753000  0.37298000  1.0
  H  H12  1  0.37707000  0.14247000  0.87298000  1.0
  H  H13  1  0.12293000  0.64247000  0.62702000  1.0
  H  H14  1  0.36946000  0.78059000  0.18299000  1.0
  H  H15  1  0.13054000  0.28058000  0.31701000  1.0
  H  H16  1  0.63054000  0.21942000  0.81701000  1.0
  H  H17  1  0.86946000  0.71942000  0.68299000  1.0
  H  H18  1  0.83598000  0.29505000  0.52241000  1.0
  H  H19  1  0.66401000  0.79505000  0.97759000  1.0
  H  H20  1  0.16402000  0.70495000  0.47759000  1.0
  H  H21  1  0.33599000  0.20495000  0.02241000  1.0
  H  H22  1  0.31535000  0.22535000  0.41325000  1.0
  H  H23  1  0.18465000  0.72536000  0.08675000  1.0
  H  H24  1  0.68465000  0.77464000  0.58675000  1.0
  H  H25  1  0.81535000  0.27465000  0.91325000  1.0
  H  H26  1  0.71575000  0.89966000  0.41954000  1.0
  H  H27  1  0.78425000  0.39966000  0.08047000  1.0
  H  H28  1  0.28425000  0.10033000  0.58047000  1.0
  H  H29  1  0.21575000  0.60034000  0.91954000  1.0
  H  H30  1  0.39690000  0.98369000  0.37765000  1.0
  H  H31  1  0.10310000  0.48369000  0.12235000  1.0
  H  H32  1  0.60311000  0.01631000  0.62235000  1.0
  H  H33  1  0.89690000  0.51631000  0.87765000  1.0
  H  H34  1  0.15204000  0.42357000  0.49477000  1.0
  H  H35  1  0.34796000  0.92357000  0.00523000  1.0
  H  H36  1  0.84796000  0.57643000  0.50523000  1.0
  H  H37  1  0.65204000  0.07643000  0.99477000  1.0
  H  H38  1  0.10803000  0.50855000  0.42402000  1.0
  H  H39  1  0.39197000  0.00855000  0.07598000  1.0
  H  H40  1  0.89197000  0.49145000  0.57598000  1.0
  H  H41  1  0.60803000  0.99145000  0.92402000  1.0
  C  C42  1  0.55202000  0.70339000  0.27527000  1.0
  C  C43  1  0.94799000  0.20339000  0.22472000  1.0
  C  C44  1  0.44798000  0.29661000  0.72472000  1.0
  C  C45  1  0.05202000  0.79661000  0.77528000  1.0
  C  C46  1  0.72946000  0.68868000  0.31150000  1.0
  C  C47  1  0.77054000  0.18868000  0.18849000  1.0
  C  C48  1  0.27053000  0.31132000  0.68849000  1.0
  C  C49  1  0.22946000  0.81132000  0.81151000  1.0
  C  C50  1  0.73747000  0.62271000  0.38178000  1.0
  C  C51  1  0.76253000  0.12271000  0.11821000  1.0
  C  C52  1  0.26252000  0.37729000  0.61822000  1.0
  C  C53  1  0.23747000  0.87730000  0.88179000  1.0
  C  C54  1  0.87163000  0.73709000  0.28185000  1.0
  C  C55  1  0.62837000  0.23709000  0.21815000  1.0
  C  C56  1  0.12837000  0.26291000  0.71815000  1.0
  C  C57  1  0.37163000  0.76292000  0.78185000  1.0
  C  C58  1  0.83060000  0.79738000  0.21481000  1.0
  C  C59  1  0.66940000  0.29737000  0.28519000  1.0
  C  C60  1  0.16940000  0.20262000  0.78519000  1.0
  C  C61  1  0.33060000  0.70263000  0.71481000  1.0
  C  C62  1  0.65208000  0.80996000  0.17900000  1.0
  C  C63  1  0.84792000  0.30995000  0.32100000  1.0
  C  C64  1  0.34792000  0.19004000  0.82100000  1.0
  C  C65  1  0.15208000  0.69005000  0.67900000  1.0
  C  C66  1  0.50842000  0.76451000  0.20932000  1.0
  C  C67  1  0.99158000  0.26450000  0.29067000  1.0
  C  C68  1  0.49158000  0.23549000  0.79068000  1.0
  C  C69  1  0.00842000  0.73550000  0.70933000  1.0
  C  C70  1  0.74006000  0.22578000  0.49006000  1.0
  C  C71  1  0.75993000  0.72578000  0.00994000  1.0
  C  C72  1  0.25994000  0.77422000  0.50994000  1.0
  C  C73  1  0.24006000  0.27422000  0.99006000  1.0
  C  C74  1  0.45141000  0.18398000  0.42901000  1.0
  C  C75  1  0.04858000  0.68398000  0.07099000  1.0
  C  C76  1  0.54859000  0.81601000  0.57099000  1.0
  C  C77  1  0.95141000  0.31602000  0.92901000  1.0
  C  C78  1  0.67257000  0.00301000  0.43274000  1.0
  C  C79  1  0.82743000  0.50301000  0.06726000  1.0
  C  C80  1  0.32744000  0.99699000  0.56726000  1.0
  C  C81  1  0.17257000  0.49699000  0.93274000  1.0
  C  C82  1  0.79647000  0.09282000  0.47406000  1.0
  C  C83  1  0.70353000  0.59282000  0.02595000  1.0
  C  C84  1  0.20353000  0.90718000  0.52595000  1.0
  C  C85  1  0.29647000  0.40718000  0.97406000  1.0
  C  C86  1  0.49744000  0.05012000  0.40979000  1.0
  C  C87  1  0.00256000  0.55013000  0.09022000  1.0
  C  C88  1  0.50256000  0.94987000  0.59022000  1.0
  C  C89  1  0.99745000  0.44988000  0.90979000  1.0
  S  S90  1  0.40878000  0.63432000  0.32919000  1.0
  S  S91  1  0.09122000  0.13432000  0.17081000  1.0
  S  S92  1  0.59121000  0.36568000  0.67081000  1.0
  S  S93  1  0.90878000  0.86568000  0.82919000  1.0
  N  N94  1  0.57337000  0.58974000  0.39507000  1.0
  N  N95  1  0.92663000  0.08974000  0.10493000  1.0
  N  N96  1  0.42663000  0.41026000  0.60493000  1.0
  N  N97  1  0.07337000  0.91026000  0.89507000  1.0
  N  N98  1  0.57081000  0.27032000  0.46837000  1.0
  N  N99  1  0.92918000  0.77032000  0.03163000  1.0
  N  N100  1  0.42919000  0.72968000  0.53163000  1.0
  N  N101  1  0.07081000  0.22968000  0.96837000  1.0
  N  N102  1  0.97945000  0.06378000  0.50106000  1.0
  N  N103  1  0.52055000  0.56378000  0.99894000  1.0
  N  N104  1  0.02055000  0.93621000  0.49894000  1.0
  N  N105  1  0.47945000  0.43622000  0.00106000  1.0
  O  O106  1  0.31374000  0.51147000  0.29793000  1.0
  O  O107  1  0.18626000  0.01147000  0.20207000  1.0
  O  O108  1  0.68625000  0.48853000  0.70207000  1.0
  O  O109  1  0.81374000  0.98853000  0.79793000  1.0
  O  O110  1  0.88345000  0.60191000  0.42474000  1.0
  O  O111  1  0.61655000  0.10191000  0.07526000  1.0
  O  O112  1  0.11655000  0.39808000  0.57526000  1.0
  O  O113  1  0.38345000  0.89809000  0.92474000  1.0
  O  O114  1  0.29992000  0.74313000  0.35255000  1.0
  O  O115  1  0.20008000  0.24313000  0.14744000  1.0
  O  O116  1  0.70008000  0.25687000  0.64744000  1.0
  O  O117  1  0.79991000  0.75687000  0.85256000  1.0
  O  O118  1  0.19579000  0.44206000  0.44963000  1.0
  O  O119  1  0.30421000  0.94206000  0.05037000  1.0
  O  O120  1  0.80421000  0.55794000  0.55037000  1.0
  O  O121  1  0.69579000  0.05794000  0.94963000  1.0
