# generated using pymatgen
data_Cu2SiH18C20(N3F4)2
_symmetry_space_group_name_H-M   'P 1'
_cell_length_a   7.27419000
_cell_length_b   11.04960000
_cell_length_c   16.90320000
_cell_angle_alpha   84.90850000
_cell_angle_beta   89.99920000
_cell_angle_gamma   70.79900000
_symmetry_Int_Tables_number   1
_chemical_formula_structural   Cu2SiH18C20(N3F4)2
_chemical_formula_sum   'Cu4 Si2 H36 C40 N12 F16'
_cell_volume   1277.36972742
_cell_formula_units_Z   2
loop_
 _symmetry_equiv_pos_site_id
 _symmetry_equiv_pos_as_xyz
  1  'x, y, z'
loop_
 _atom_site_type_symbol
 _atom_site_label
 _atom_site_symmetry_multiplicity
 _atom_site_fract_x
 _atom_site_fract_y
 _atom_site_fract_z
 _atom_site_occupancy
  Cu  Cu0  1  0.75204000  0.99671000  0.16071000  1.0
  Cu  Cu1  1  0.74874000  0.00342000  0.33911000  1.0
  Cu  Cu2  1  0.24778000  0.00331000  0.83930000  1.0
  Cu  Cu3  1  0.25107000  0.99655000  0.66088000  1.0
  Si  Si4  1  0.26477000  0.00000000  0.25007000  1.0
  Si  Si5  1  0.73513000  0.99999000  0.74993000  1.0
  H  H6  1  0.80239000  0.00180000  0.91115000  1.0
  H  H7  1  0.80436000  0.99823000  0.58865000  1.0
  H  H8  1  0.19722000  0.99817000  0.08885000  1.0
  H  H9  1  0.19524000  0.00181000  0.41132000  1.0
  H  H10  1  0.51093000  0.25311000  0.15911000  1.0
  H  H11  1  0.76370000  0.74708000  0.34065000  1.0
  H  H12  1  0.48900000  0.74692000  0.84094000  1.0
  H  H13  1  0.23631000  0.25285000  0.65931000  1.0
  H  H14  1  0.09525000  0.57458000  0.96481000  1.0
  H  H15  1  0.66991000  0.42553000  0.53504000  1.0
  H  H16  1  0.90514000  0.42546000  0.03531000  1.0
  H  H17  1  0.33040000  0.57443000  0.46484000  1.0
  H  H18  1  0.61478000  0.20082000  0.87459000  1.0
  H  H19  1  0.81552000  0.79916000  0.62520000  1.0
  H  H20  1  0.38499000  0.79924000  0.12543000  1.0
  H  H21  1  0.18429000  0.20079000  0.37478000  1.0
  H  H22  1  0.94240000  0.79723000  0.89923000  1.0
  H  H23  1  0.73984000  0.20283000  0.60061000  1.0
  H  H24  1  0.05761000  0.20271000  0.10082000  1.0
  H  H25  1  0.25996000  0.79723000  0.39934000  1.0
  H  H26  1  0.92840000  0.72841000  0.19049000  1.0
  H  H27  1  0.65643000  0.27175000  0.30938000  1.0
  H  H28  1  0.07210000  0.27170000  0.80960000  1.0
  H  H29  1  0.34389000  0.72818000  0.69054000  1.0
  H  H30  1  0.41851000  0.41710000  0.91451000  1.0
  H  H31  1  0.83531000  0.58293000  0.58520000  1.0
  H  H32  1  0.58156000  0.58296000  0.08557000  1.0
  H  H33  1  0.16475000  0.41703000  0.41474000  1.0
  H  H34  1  0.36528000  0.44493000  0.06068000  1.0
  H  H35  1  0.80980000  0.55517000  0.43901000  1.0
  H  H36  1  0.63484000  0.55513000  0.93939000  1.0
  H  H37  1  0.19033000  0.44477000  0.56094000  1.0
  H  H38  1  0.08391000  0.53752000  0.11507000  1.0
  H  H39  1  0.62109000  0.46265000  0.38479000  1.0
  H  H40  1  0.91670000  0.46260000  0.88506000  1.0
  H  H41  1  0.37948000  0.53726000  0.61508000  1.0
  C  C42  1  0.53234000  0.24868000  0.09560000  1.0
  C  C43  1  0.78072000  0.75145000  0.40416000  1.0
  C  C44  1  0.46761000  0.75138000  0.90445000  1.0
  C  C45  1  0.21930000  0.24846000  0.59580000  1.0
  C  C46  1  0.02755000  0.65401000  0.00052000  1.0
  C  C47  1  0.68152000  0.34608000  0.49933000  1.0
  C  C48  1  0.97273000  0.34600000  0.99956000  1.0
  C  C49  1  0.31867000  0.65391000  0.50057000  1.0
  C  C50  1  0.67194000  0.11588000  0.99656000  1.0
  C  C51  1  0.78782000  0.88419000  0.50325000  1.0
  C  C52  1  0.32785000  0.88415000  0.00347000  1.0
  C  C53  1  0.21206000  0.11575000  0.49673000  1.0
  C  C54  1  0.59108000  0.21831000  0.93691000  1.0
  C  C55  1  0.80929000  0.78172000  0.56288000  1.0
  C  C56  1  0.40881000  0.78175000  0.06312000  1.0
  C  C57  1  0.19061000  0.21821000  0.43711000  1.0
  C  C58  1  0.85803000  0.87903000  0.01096000  1.0
  C  C59  1  0.73700000  0.12108000  0.48888000  1.0
  C  C60  1  0.14190000  0.12095000  0.98906000  1.0
  C  C61  1  0.26279000  0.87897000  0.51109000  1.0
  C  C62  1  0.94507000  0.77667000  0.96368000  1.0
  C  C63  1  0.72176000  0.22340000  0.53617000  1.0
  C  C64  1  0.05498000  0.22330000  0.03636000  1.0
  C  C65  1  0.27813000  0.77666000  0.46377000  1.0
  C  C66  1  0.93526000  0.73698000  0.12604000  1.0
  C  C67  1  0.67194000  0.26318000  0.37383000  1.0
  C  C68  1  0.06505000  0.26309000  0.87404000  1.0
  C  C69  1  0.32827000  0.73679000  0.62609000  1.0
  C  C70  1  0.48193000  0.33707000  0.95962000  1.0
  C  C71  1  0.81872000  0.66302000  0.54011000  1.0
  C  C72  1  0.51806000  0.66300000  0.04043000  1.0
  C  C73  1  0.18130000  0.33692000  0.45985000  1.0
  C  C74  1  0.45157000  0.35313000  0.04053000  1.0
  C  C75  1  0.80442000  0.64694000  0.45921000  1.0
  C  C76  1  0.54849000  0.64694000  0.95953000  1.0
  C  C77  1  0.19567000  0.35298000  0.54076000  1.0
  C  C78  1  0.02203000  0.63285000  0.08347000  1.0
  C  C79  1  0.65458000  0.36731000  0.41639000  1.0
  C  C80  1  0.97841000  0.36722000  0.91662000  1.0
  C  C81  1  0.34575000  0.63265000  0.58351000  1.0
  N  N82  1  0.85453000  0.85835000  0.09092000  1.0
  N  N83  1  0.71270000  0.14180000  0.40893000  1.0
  N  N84  1  0.14550000  0.14166000  0.90912000  1.0
  N  N85  1  0.28723000  0.85822000  0.59103000  1.0
  N  N86  1  0.64388000  0.13231000  0.07440000  1.0
  N  N87  1  0.77612000  0.86778000  0.42541000  1.0
  N  N88  1  0.35596000  0.86774000  0.92564000  1.0
  N  N89  1  0.22378000  0.13215000  0.57457000  1.0
  N  N90  1  0.78005000  0.99935000  0.97189000  1.0
  N  N91  1  0.77952000  0.00071000  0.52793000  1.0
  N  N92  1  0.21964000  0.00063000  0.02812000  1.0
  N  N93  1  0.22014000  0.99931000  0.47205000  1.0
  F  F94  1  0.42910000  0.99581000  0.17667000  1.0
  F  F95  1  0.42472000  0.00426000  0.32356000  1.0
  F  F96  1  0.57070000  0.00419000  0.82331000  1.0
  F  F97  1  0.57511000  0.99570000  0.67645000  1.0
  F  F98  1  0.09678000  0.99626000  0.17704000  1.0
  F  F99  1  0.09293000  0.00363000  0.32301000  1.0
  F  F100  1  0.90307000  0.00373000  0.82296000  1.0
  F  F101  1  0.90694000  0.99637000  0.67697000  1.0
  F  F102  1  0.70107000  0.11983000  0.24164000  1.0
  F  F103  1  0.82055000  0.88032000  0.25816000  1.0
  F  F104  1  0.29877000  0.88015000  0.75837000  1.0
  F  F105  1  0.17931000  0.11969000  0.74183000  1.0
  F  F106  1  0.17970000  0.16367000  0.23734000  1.0
  F  F107  1  0.34332000  0.83631000  0.26277000  1.0
  F  F108  1  0.82017000  0.83634000  0.76266000  1.0
  F  F109  1  0.65656000  0.16366000  0.73721000  1.0
