# generated using pymatgen
data_Cd3H9C17N2O11
_symmetry_space_group_name_H-M   'P 1'
_cell_length_a   9.41868000
_cell_length_b   9.68485000
_cell_length_c   11.03780000
_cell_angle_alpha   76.46070000
_cell_angle_beta   84.90740000
_cell_angle_gamma   68.06970000
_symmetry_Int_Tables_number   1
_chemical_formula_structural   Cd3H9C17N2O11
_chemical_formula_sum   'Cd6 H18 C34 N4 O22'
_cell_volume   908.03757616
_cell_formula_units_Z   2
loop_
 _symmetry_equiv_pos_site_id
 _symmetry_equiv_pos_as_xyz
  1  'x, y, z'
loop_
 _atom_site_type_symbol
 _atom_site_label
 _atom_site_symmetry_multiplicity
 _atom_site_fract_x
 _atom_site_fract_y
 _atom_site_fract_z
 _atom_site_occupancy
  Cd  Cd0  1  0.48556000  0.88921000  0.71073000  1.0
  Cd  Cd1  1  0.51444000  0.11078000  0.28927000  1.0
  Cd  Cd2  1  0.38168000  0.22376000  0.87813000  1.0
  Cd  Cd3  1  0.61832000  0.77624000  0.12187000  1.0
  Cd  Cd4  1  0.87270000  0.83550000  0.54277000  1.0
  Cd  Cd5  1  0.12730000  0.16450000  0.45723000  1.0
  H  H6  1  0.97086000  0.64327000  0.02976000  1.0
  H  H7  1  0.02914000  0.35673000  0.97024000  1.0
  H  H8  1  0.11558000  0.07432000  0.79205000  1.0
  H  H9  1  0.88442000  0.92568000  0.20795000  1.0
  H  H10  1  0.88782000  0.03978000  0.72888000  1.0
  H  H11  1  0.11218000  0.96023000  0.27112000  1.0
  H  H12  1  0.19869000  0.68122000  0.09347000  1.0
  H  H13  1  0.80131000  0.31878000  0.90653000  1.0
  H  H14  1  0.69673000  0.52121000  0.62287000  1.0
  H  H15  1  0.30327000  0.47879000  0.37713000  1.0
  H  H16  1  0.36990000  0.71333000  0.32330000  1.0
  H  H17  1  0.63010000  0.28667000  0.67670000  1.0
  H  H18  1  0.55123000  0.50819000  0.89982000  1.0
  H  H19  1  0.44877000  0.49181000  0.10018000  1.0
  H  H20  1  0.92943000  0.68154000  0.32370000  1.0
  H  H21  1  0.07057000  0.31846000  0.67630000  1.0
  H  H22  1  0.06569000  0.62242000  0.41923000  1.0
  H  H23  1  0.93431000  0.37758000  0.58077000  1.0
  C  C24  1  0.27921000  0.70418000  0.70166000  1.0
  C  C25  1  0.72079000  0.29582000  0.29833000  1.0
  C  C26  1  0.00392000  0.73673000  0.97716000  1.0
  C  C27  1  0.99608000  0.26328000  0.02284000  1.0
  C  C28  1  0.08425000  0.97958000  0.84317000  1.0
  C  C29  1  0.91575000  0.02042000  0.15683000  1.0
  C  C30  1  0.57944000  0.76888000  0.44027000  1.0
  C  C31  1  0.42056000  0.23112000  0.55973000  1.0
  C  C32  1  0.95714000  0.95929000  0.80727000  1.0
  C  C33  1  0.04286000  0.04071000  0.19273000  1.0
  C  C34  1  0.21290000  0.83846000  0.60079000  1.0
  C  C35  1  0.78710000  0.16154000  0.39921000  1.0
  C  C36  1  0.17209000  0.87937000  0.94556000  1.0
  C  C37  1  0.82791000  0.12063000  0.05444000  1.0
  C  C38  1  0.13111000  0.75778000  0.01278000  1.0
  C  C39  1  0.86889000  0.24222000  0.98722000  1.0
  C  C40  1  0.91621000  0.83762000  0.87439000  1.0
  C  C41  1  0.08379000  0.16238000  0.12561000  1.0
  C  C42  1  0.61194000  0.50953000  0.56884000  1.0
  C  C43  1  0.38806000  0.49047000  0.43116000  1.0
  C  C44  1  0.42682000  0.61949000  0.40008000  1.0
  C  C45  1  0.57318000  0.38051000  0.59992000  1.0
  C  C46  1  0.53960000  0.62925000  0.46898000  1.0
  C  C47  1  0.46040000  0.37074000  0.53102000  1.0
  C  C48  1  0.24944000  0.56964000  0.74703000  1.0
  C  C49  1  0.75056000  0.43036000  0.25297000  1.0
  C  C50  1  0.30963000  0.90310000  0.98029000  1.0
  C  C51  1  0.69037000  0.09690000  0.01971000  1.0
  C  C52  1  0.13149000  0.51333000  0.72055000  1.0
  C  C53  1  0.86851000  0.48667000  0.27945000  1.0
  C  C54  1  0.45143000  0.55260000  0.84014000  1.0
  C  C55  1  0.54857000  0.44740000  0.15986000  1.0
  C  C56  1  0.77557000  0.82172000  0.83858000  1.0
  C  C57  1  0.22442000  0.17828000  0.16142000  1.0
  N  N58  1  0.40636000  0.69098000  0.76317000  1.0
  N  N59  1  0.59364000  0.30902000  0.23684000  1.0
  N  N60  1  0.36073000  0.47552000  0.83348000  1.0
  N  N61  1  0.63927000  0.52448000  0.16652000  1.0
  O  O62  1  0.36459000  0.98805000  0.89715000  1.0
  O  O63  1  0.63541000  0.01195000  0.10285000  1.0
  O  O64  1  0.63560000  0.79793000  0.52818000  1.0
  O  O65  1  0.36440000  0.20207000  0.47183000  1.0
  O  O66  1  0.27067000  0.94409000  0.58580000  1.0
  O  O67  1  0.72934000  0.05591000  0.41420000  1.0
  O  O68  1  0.11078000  0.85015000  0.52883000  1.0
  O  O69  1  0.88922000  0.14985000  0.47118000  1.0
  O  O70  1  0.36675000  0.83653000  0.08754000  1.0
  O  O71  1  0.63325000  0.16348000  0.91246000  1.0
  O  O72  1  0.15952000  0.36925000  0.76310000  1.0
  O  O73  1  0.84048000  0.63075000  0.23690000  1.0
  O  O74  1  0.01001000  0.59756000  0.66066000  1.0
  O  O75  1  0.99000000  0.40244000  0.33934000  1.0
  O  O76  1  0.73135000  0.87706000  0.72389000  1.0
  O  O77  1  0.26865000  0.12293000  0.27611000  1.0
  O  O78  1  0.69862000  0.76056000  0.91735000  1.0
  O  O79  1  0.30138000  0.23944000  0.08265000  1.0
  O  O80  1  0.55332000  0.85319000  0.33047000  1.0
  O  O81  1  0.44668000  0.14680000  0.66953000  1.0
  O  O82  1  0.98323000  0.71479000  0.38052000  1.0
  O  O83  1  0.01677000  0.28521000  0.61948000  1.0
