# generated using pymatgen
data_AgH6C8NO4
_symmetry_space_group_name_H-M   'P 1'
_cell_length_a   4.96038000
_cell_length_b   12.36110000
_cell_length_c   13.91760000
_cell_angle_alpha   95.06020000
_cell_angle_beta   89.99990000
_cell_angle_gamma   90.00000000
_symmetry_Int_Tables_number   1
_chemical_formula_structural   AgH6C8NO4
_chemical_formula_sum   'Ag4 H24 C32 N4 O16'
_cell_volume   850.04218848
_cell_formula_units_Z   4
loop_
 _symmetry_equiv_pos_site_id
 _symmetry_equiv_pos_as_xyz
  1  'x, y, z'
loop_
 _atom_site_type_symbol
 _atom_site_label
 _atom_site_symmetry_multiplicity
 _atom_site_fract_x
 _atom_site_fract_y
 _atom_site_fract_z
 _atom_site_occupancy
  Ag  Ag0  1  0.00010000  0.93267000  0.72678000  1.0
  Ag  Ag1  1  0.50009000  0.06734000  0.77321000  1.0
  Ag  Ag2  1  0.99990000  0.06734000  0.27321000  1.0
  Ag  Ag3  1  0.49990000  0.93266000  0.22679000  1.0
  H  H4  1  0.74291000  0.86150000  0.89618000  1.0
  H  H5  1  0.24291000  0.13850000  0.60382000  1.0
  H  H6  1  0.25709000  0.13850000  0.10382000  1.0
  H  H7  1  0.75709000  0.86150000  0.39618000  1.0
  H  H8  1  0.23455000  0.62591000  0.99896000  1.0
  H  H9  1  0.73455000  0.37409000  0.50104000  1.0
  H  H10  1  0.76545000  0.37409000  0.00104000  1.0
  H  H11  1  0.26544000  0.62591000  0.49896000  1.0
  H  H12  1  0.00504000  0.47636000  0.88844000  1.0
  H  H13  1  0.50504000  0.52364000  0.61156000  1.0
  H  H14  1  0.99497000  0.52364000  0.11156000  1.0
  H  H15  1  0.49495000  0.47636000  0.38844000  1.0
  H  H16  1  0.64034000  0.52809000  0.78086000  1.0
  H  H17  1  0.14035000  0.47191000  0.71914000  1.0
  H  H18  1  0.35966000  0.47191000  0.21914000  1.0
  H  H19  1  0.85965000  0.52808000  0.28086000  1.0
  H  H20  1  0.22841000  0.88687000  0.95627000  1.0
  H  H21  1  0.72840000  0.11313000  0.54373000  1.0
  H  H22  1  0.77159000  0.11313000  0.04373000  1.0
  H  H23  1  0.27159000  0.88687000  0.45627000  1.0
  H  H24  1  0.30971000  0.79505000  0.04386000  1.0
  H  H25  1  0.80971000  0.20494000  0.45614000  1.0
  H  H26  1  0.69030000  0.20495000  0.95614000  1.0
  H  H27  1  0.19029000  0.79505000  0.54386000  1.0
  C  C28  1  0.43231000  0.73715000  0.76655000  1.0
  C  C29  1  0.93231000  0.26285000  0.73345000  1.0
  C  C30  1  0.56769000  0.26285000  0.23345000  1.0
  C  C31  1  0.06770000  0.73714000  0.26655000  1.0
  C  C32  1  0.65889000  0.69887000  0.82975000  1.0
  C  C33  1  0.15889000  0.30114000  0.67026000  1.0
  C  C34  1  0.34112000  0.30113000  0.17025000  1.0
  C  C35  1  0.84111000  0.69886000  0.32974000  1.0
  C  C36  1  0.79319000  0.77551000  0.89146000  1.0
  C  C37  1  0.29319000  0.22449000  0.60854000  1.0
  C  C38  1  0.20681000  0.22449000  0.10854000  1.0
  C  C39  1  0.70682000  0.77551000  0.39146000  1.0
  C  C40  1  0.07254000  0.64114000  0.94926000  1.0
  C  C41  1  0.57255000  0.35886000  0.55074000  1.0
  C  C42  1  0.92746000  0.35886000  0.05074000  1.0
  C  C43  1  0.42744000  0.64114000  0.44926000  1.0
  C  C44  1  0.94433000  0.56127000  0.89001000  1.0
  C  C45  1  0.44434000  0.43872000  0.61000000  1.0
  C  C46  1  0.05566000  0.43872000  0.10999000  1.0
  C  C47  1  0.55565000  0.56127000  0.39000000  1.0
  C  C48  1  0.73851000  0.59042000  0.82884000  1.0
  C  C49  1  0.23852000  0.40958000  0.67117000  1.0
  C  C50  1  0.26149000  0.40958000  0.17117000  1.0
  C  C51  1  0.76148000  0.59042000  0.32883000  1.0
  C  C52  1  0.14381000  0.83204000  0.00621000  1.0
  C  C53  1  0.64380000  0.16797000  0.49379000  1.0
  C  C54  1  0.85620000  0.16796000  0.99379000  1.0
  C  C55  1  0.35620000  0.83203000  0.50621000  1.0
  C  C56  1  0.96879000  0.89578000  0.08191000  1.0
  C  C57  1  0.46879000  0.10423000  0.41809000  1.0
  C  C58  1  0.03121000  0.10423000  0.91809000  1.0
  C  C59  1  0.53121000  0.89578000  0.58191000  1.0
  N  N60  1  0.99728000  0.74625000  0.94807000  1.0
  N  N61  1  0.49728000  0.25375000  0.55193000  1.0
  N  N62  1  0.00273000  0.25374000  0.05193000  1.0
  N  N63  1  0.50272000  0.74625000  0.44807000  1.0
  O  O64  1  0.34999000  0.83299000  0.79336000  1.0
  O  O65  1  0.84999000  0.16702000  0.70664000  1.0
  O  O66  1  0.65001000  0.16702000  0.20664000  1.0
  O  O67  1  0.15002000  0.83298000  0.29336000  1.0
  O  O68  1  0.34907000  0.67298000  0.69811000  1.0
  O  O69  1  0.84908000  0.32702000  0.80190000  1.0
  O  O70  1  0.65093000  0.32702000  0.30190000  1.0
  O  O71  1  0.15092000  0.67298000  0.19810000  1.0
  O  O72  1  0.08561000  0.97973000  0.12118000  1.0
  O  O73  1  0.58559000  0.02027000  0.37882000  1.0
  O  O74  1  0.91439000  0.02028000  0.87881000  1.0
  O  O75  1  0.41440000  0.97973000  0.62118000  1.0
  O  O76  1  0.73720000  0.86007000  0.09915000  1.0
  O  O77  1  0.23719000  0.13994000  0.40085000  1.0
  O  O78  1  0.26281000  0.13993000  0.90085000  1.0
  O  O79  1  0.76281000  0.86007000  0.59915000  1.0
