# generated using pymatgen
data_NiH36C24(NO)6
_symmetry_space_group_name_H-M   'P 1'
_cell_length_a   8.42165000
_cell_length_b   11.45210000
_cell_length_c   15.66130000
_cell_angle_alpha   89.99980000
_cell_angle_beta   89.99930000
_cell_angle_gamma   92.00150000
_symmetry_Int_Tables_number   1
_chemical_formula_structural   NiH36C24(NO)6
_chemical_formula_sum   'Ni2 H72 C48 N12 O12'
_cell_volume   1509.54161615
_cell_formula_units_Z   2
loop_
 _symmetry_equiv_pos_site_id
 _symmetry_equiv_pos_as_xyz
  1  'x, y, z'
loop_
 _atom_site_type_symbol
 _atom_site_label
 _atom_site_symmetry_multiplicity
 _atom_site_fract_x
 _atom_site_fract_y
 _atom_site_fract_z
 _atom_site_occupancy
  Ni  Ni0  1  0.50000000  0.50000000  0.50000000  1.0
  Ni  Ni1  1  0.00000000  0.50000000  0.00000000  1.0
  H  H2  1  0.78309000  0.24549000  0.78935000  1.0
  H  H3  1  0.71692000  0.75450000  0.28935000  1.0
  H  H4  1  0.21691000  0.75451000  0.21065000  1.0
  H  H5  1  0.28308000  0.24550000  0.71065000  1.0
  H  H6  1  0.53872000  0.37755000  0.63228000  1.0
  H  H7  1  0.96127000  0.62245000  0.13228000  1.0
  H  H8  1  0.46128000  0.62245000  0.36772000  1.0
  H  H9  1  0.03874000  0.37755000  0.86772000  1.0
  H  H10  1  0.62681000  0.32323000  0.44060000  1.0
  H  H11  1  0.87318000  0.67677000  0.94060000  1.0
  H  H12  1  0.37319000  0.67677000  0.55940000  1.0
  H  H13  1  0.12682000  0.32323000  0.05940000  1.0
  H  H14  1  0.57360000  0.62720000  0.67479000  1.0
  H  H15  1  0.92639000  0.37280000  0.17479000  1.0
  H  H16  1  0.42640000  0.37280000  0.32521000  1.0
  H  H17  1  0.07361000  0.62720000  0.82521000  1.0
  H  H18  1  0.51706000  0.51196000  0.74640000  1.0
  H  H19  1  0.98293000  0.48805000  0.24640000  1.0
  H  H20  1  0.48293000  0.48804000  0.25360000  1.0
  H  H21  1  0.01707000  0.51195000  0.75360000  1.0
  H  H22  1  0.80119000  0.55359000  0.60827000  1.0
  H  H23  1  0.69881000  0.44640000  0.10827000  1.0
  H  H24  1  0.19881000  0.44641000  0.39173000  1.0
  H  H25  1  0.30120000  0.55360000  0.89173000  1.0
  H  H26  1  0.79845000  0.44126000  0.68881000  1.0
  H  H27  1  0.70154000  0.55873000  0.18881000  1.0
  H  H28  1  0.20155000  0.55874000  0.31119000  1.0
  H  H29  1  0.29846000  0.44126000  0.81119000  1.0
  H  H30  1  0.91449000  0.36127000  0.44194000  1.0
  H  H31  1  0.58551000  0.63872000  0.94194000  1.0
  H  H32  1  0.08551000  0.63873000  0.55806000  1.0
  H  H33  1  0.41449000  0.36128000  0.05806000  1.0
  H  H34  1  0.87189000  0.50860000  0.46911000  1.0
  H  H35  1  0.62811000  0.49139000  0.96910000  1.0
  H  H36  1  0.12811000  0.49140000  0.53090000  1.0
  H  H37  1  0.37190000  0.50861000  0.03090000  1.0
  H  H38  1  0.27745000  0.61604000  0.69750000  1.0
  H  H39  1  0.22255000  0.38396000  0.19750000  1.0
  H  H40  1  0.72256000  0.38396000  0.30250000  1.0
  H  H41  1  0.77745000  0.61604000  0.80250000  1.0
  H  H42  1  0.27208000  0.46963000  0.65899000  1.0
  H  H43  1  0.22791000  0.53037000  0.15899000  1.0
  H  H44  1  0.72791000  0.53037000  0.34101000  1.0
  H  H45  1  0.77209000  0.46962000  0.84101000  1.0
  H  H46  1  0.86953000  0.21170000  0.53428000  1.0
  H  H47  1  0.63045000  0.78829000  0.03428000  1.0
  H  H48  1  0.13047000  0.78830000  0.46572000  1.0
  H  H49  1  0.36955000  0.21170000  0.96572000  1.0
  H  H50  1  0.67397000  0.23301000  0.57304000  1.0
  H  H51  1  0.82602000  0.76699000  0.07304000  1.0
  H  H52  1  0.32603000  0.76699000  0.42696000  1.0
  H  H53  1  0.17399000  0.23301000  0.92696000  1.0
  H  H54  1  0.86220000  0.12484000  0.66864000  1.0
  H  H55  1  0.63779000  0.87515000  0.16864000  1.0
  H  H56  1  0.13779000  0.87516000  0.33136000  1.0
  H  H57  1  0.36221000  0.12484000  0.83136000  1.0
  H  H58  1  0.96820000  0.25980000  0.68645000  1.0
  H  H59  1  0.53180000  0.74019000  0.18646000  1.0
  H  H60  1  0.03180000  0.74020000  0.31355000  1.0
  H  H61  1  0.46820000  0.25980000  0.81354000  1.0
  H  H62  1  0.82294000  0.75561000  0.61442000  1.0
  H  H63  1  0.67706000  0.24439000  0.11442000  1.0
  H  H64  1  0.17706000  0.24438000  0.38559000  1.0
  H  H65  1  0.32294000  0.75561000  0.88558000  1.0
  H  H66  1  0.02808000  0.90397000  0.66251000  1.0
  H  H67  1  0.47191000  0.09603000  0.16251000  1.0
  H  H68  1  0.97191000  0.09603000  0.33750000  1.0
  H  H69  1  0.52809000  0.90397000  0.83749000  1.0
  H  H70  1  0.80037000  0.91974000  0.36852000  1.0
  H  H71  1  0.69963000  0.08026000  0.86852000  1.0
  H  H72  1  0.19963000  0.08026000  0.63148000  1.0
  H  H73  1  0.30037000  0.91975000  0.13148000  1.0
  C  C74  1  0.50961000  0.54189000  0.67959000  1.0
  C  C75  1  0.99038000  0.45811000  0.17959000  1.0
  C  C76  1  0.49039000  0.45811000  0.32041000  1.0
  C  C77  1  0.00962000  0.54189000  0.82041000  1.0
  C  C78  1  0.76057000  0.46396000  0.62399000  1.0
  C  C79  1  0.73943000  0.53603000  0.12399000  1.0
  C  C80  1  0.23943000  0.53604000  0.37601000  1.0
  C  C81  1  0.26057000  0.46397000  0.87601000  1.0
  C  C82  1  0.83085000  0.41697000  0.47627000  1.0
  C  C83  1  0.66916000  0.58302000  0.97626000  1.0
  C  C84  1  0.16915000  0.58303000  0.52373000  1.0
  C  C85  1  0.33085000  0.41697000  0.02373000  1.0
  C  C86  1  0.33582000  0.55489000  0.65399000  1.0
  C  C87  1  0.16417000  0.44511000  0.15399000  1.0
  C  C88  1  0.66418000  0.44511000  0.34601000  1.0
  C  C89  1  0.83583000  0.55489000  0.84601000  1.0
  C  C90  1  0.80085000  0.25955000  0.58162000  1.0
  C  C91  1  0.69914000  0.74044000  0.08162000  1.0
  C  C92  1  0.19915000  0.74045000  0.41838000  1.0
  C  C93  1  0.30086000  0.25955000  0.91838000  1.0
  C  C94  1  0.85032000  0.22061000  0.67025000  1.0
  C  C95  1  0.64966000  0.77938000  0.17025000  1.0
  C  C96  1  0.14967000  0.77939000  0.32975000  1.0
  C  C97  1  0.35034000  0.22061000  0.82975000  1.0
  C  C98  1  0.67986000  0.73672000  0.45919000  1.0
  C  C99  1  0.82014000  0.26328000  0.95918000  1.0
  C  C100  1  0.32013000  0.26328000  0.54081000  1.0
  C  C101  1  0.17986000  0.73672000  0.04082000  1.0
  C  C102  1  0.80018000  0.82904000  0.48811000  1.0
  C  C103  1  0.69982000  0.17096000  0.98811000  1.0
  C  C104  1  0.19982000  0.17096000  0.51190000  1.0
  C  C105  1  0.30018000  0.82904000  0.01189000  1.0
  C  C106  1  0.86520000  0.82519000  0.57180000  1.0
  C  C107  1  0.63480000  0.17481000  0.07180000  1.0
  C  C108  1  0.13479000  0.17481000  0.42821000  1.0
  C  C109  1  0.36521000  0.82519000  0.92820000  1.0
  C  C110  1  0.97863000  0.90696000  0.59810000  1.0
  C  C111  1  0.52137000  0.09304000  0.09810000  1.0
  C  C112  1  0.02136000  0.09304000  0.40190000  1.0
  C  C113  1  0.47864000  0.90696000  0.90190000  1.0
  C  C114  1  0.85006000  0.91722000  0.43284000  1.0
  C  C115  1  0.64994000  0.08278000  0.93284000  1.0
  C  C116  1  0.14994000  0.08278000  0.56716000  1.0
  C  C117  1  0.35006000  0.91722000  0.06716000  1.0
  C  C118  1  0.03343000  0.99742000  0.54213000  1.0
  C  C119  1  0.46656000  0.00258000  0.04213000  1.0
  C  C120  1  0.96656000  0.00258000  0.45787000  1.0
  C  C121  1  0.53344000  0.99742000  0.95787000  1.0
  N  N122  1  0.58421000  0.46102000  0.62008000  1.0
  N  N123  1  0.91578000  0.53898000  0.12008000  1.0
  N  N124  1  0.41579000  0.53899000  0.37992000  1.0
  N  N125  1  0.08422000  0.46102000  0.87992000  1.0
  N  N126  1  0.83281000  0.38461000  0.56509000  1.0
  N  N127  1  0.66718000  0.61538000  0.06509000  1.0
  N  N128  1  0.16719000  0.61539000  0.43491000  1.0
  N  N129  1  0.33282000  0.38461000  0.93491000  1.0
  N  N130  1  0.67092000  0.40745000  0.43582000  1.0
  N  N131  1  0.82909000  0.59255000  0.93582000  1.0
  N  N132  1  0.32908000  0.59255000  0.56418000  1.0
  N  N133  1  0.17091000  0.40745000  0.06418000  1.0
  O  O134  1  0.73346000  0.25111000  0.73196000  1.0
  O  O135  1  0.76653000  0.74888000  0.23197000  1.0
  O  O136  1  0.26653000  0.74889000  0.26804000  1.0
  O  O137  1  0.23347000  0.25112000  0.76803000  1.0
  O  O138  1  0.64253000  0.65766000  0.51425000  1.0
  O  O139  1  0.85748000  0.34235000  0.01425000  1.0
  O  O140  1  0.35747000  0.34234000  0.48575000  1.0
  O  O141  1  0.14252000  0.65765000  0.98575000  1.0
  O  O142  1  0.62367000  0.74210000  0.38433000  1.0
  O  O143  1  0.87633000  0.25791000  0.88434000  1.0
  O  O144  1  0.37633000  0.25791000  0.61567000  1.0
  O  O145  1  0.12367000  0.74209000  0.11566000  1.0
