# generated using pymatgen
data_GdCu3H22C24N3Cl3O8
_symmetry_space_group_name_H-M   'P 1'
_cell_length_a   9.62067000
_cell_length_b   13.04950000
_cell_length_c   13.13300000
_cell_angle_alpha   97.43550000
_cell_angle_beta   98.32620000
_cell_angle_gamma   107.08500000
_symmetry_Int_Tables_number   1
_chemical_formula_structural   GdCu3H22C24N3Cl3O8
_chemical_formula_sum   'Gd2 Cu6 H44 C48 N6 Cl6 O16'
_cell_volume   1533.41991377
_cell_formula_units_Z   2
loop_
 _symmetry_equiv_pos_site_id
 _symmetry_equiv_pos_as_xyz
  1  'x, y, z'
loop_
 _atom_site_type_symbol
 _atom_site_label
 _atom_site_symmetry_multiplicity
 _atom_site_fract_x
 _atom_site_fract_y
 _atom_site_fract_z
 _atom_site_occupancy
  Gd  Gd0  1  0.76239000  0.51030000  0.52348000  1.0
  Gd  Gd1  1  0.23760000  0.48971000  0.47652000  1.0
  Cu  Cu2  1  0.16583000  0.20407000  0.78817000  1.0
  Cu  Cu3  1  0.83418000  0.79593000  0.21183000  1.0
  Cu  Cu4  1  0.09600000  0.00803000  0.10069000  1.0
  Cu  Cu5  1  0.90400000  0.99197000  0.89931000  1.0
  Cu  Cu6  1  0.05399000  0.25515000  0.03674000  1.0
  Cu  Cu7  1  0.94602000  0.74486000  0.96326000  1.0
  H  H8  1  0.75110000  0.64116000  0.72736000  1.0
  H  H9  1  0.24890000  0.35884000  0.27264000  1.0
  H  H10  1  0.58754000  0.56130000  0.68384000  1.0
  H  H11  1  0.41245000  0.43870000  0.31615000  1.0
  H  H12  1  0.91639000  0.50838000  0.73833000  1.0
  H  H13  1  0.08360000  0.49162000  0.26167000  1.0
  H  H14  1  0.01012000  0.45937000  0.66605000  1.0
  H  H15  1  0.98988000  0.54063000  0.33395000  1.0
  H  H16  1  0.14138000  0.83505000  0.71191000  1.0
  H  H17  1  0.85861000  0.16495000  0.28810000  1.0
  H  H18  1  0.39152000  0.74692000  0.65727000  1.0
  H  H19  1  0.60846000  0.25307000  0.34274000  1.0
  H  H20  1  0.53023000  0.84704000  0.47389000  1.0
  H  H21  1  0.46976000  0.15296000  0.52610000  1.0
  H  H22  1  0.82695000  0.81880000  0.56829000  1.0
  H  H23  1  0.17302000  0.18120000  0.43170000  1.0
  H  H24  1  0.43860000  0.28658000  0.70795000  1.0
  H  H25  1  0.56142000  0.71341000  0.29205000  1.0
  H  H26  1  0.77547000  0.44416000  0.98350000  1.0
  H  H27  1  0.22454000  0.55584000  0.01650000  1.0
  H  H28  1  0.31382000  0.29680000  0.99727000  1.0
  H  H29  1  0.68620000  0.70320000  0.00274000  1.0
  H  H30  1  0.70276000  0.38500000  0.78833000  1.0
  H  H31  1  0.29725000  0.61498000  0.21166000  1.0
  H  H32  1  0.96616000  0.29088000  0.67626000  1.0
  H  H33  1  0.03385000  0.70912000  0.32374000  1.0
  H  H34  1  0.73014000  0.21881000  0.54714000  1.0
  H  H35  1  0.26986000  0.78119000  0.45286000  1.0
  H  H36  1  0.74856000  0.14064000  0.95526000  1.0
  H  H37  1  0.25143000  0.85936000  0.04474000  1.0
  H  H38  1  0.48386000  0.13722000  0.92728000  1.0
  H  H39  1  0.51613000  0.86278000  0.07272000  1.0
  H  H40  1  0.63808000  0.84279000  0.75611000  1.0
  H  H41  1  0.36192000  0.15721000  0.24389000  1.0
  H  H42  1  0.79055000  0.51937000  0.15470000  1.0
  H  H43  1  0.20946000  0.48064000  0.84531000  1.0
  H  H44  1  0.47953000  0.36334000  0.15543000  1.0
  H  H45  1  0.52048000  0.63667000  0.84456000  1.0
  H  H46  1  0.29170000  0.98227000  0.80733000  1.0
  H  H47  1  0.70829000  0.01772000  0.19268000  1.0
  H  H48  1  0.62914000  0.01691000  0.47568000  1.0
  H  H49  1  0.37085000  0.98309000  0.52433000  1.0
  H  H50  1  0.00268000  0.98204000  0.67769000  1.0
  H  H51  1  0.99731000  0.01796000  0.32230000  1.0
  C  C52  1  0.55211000  0.68654000  0.48017000  1.0
  C  C53  1  0.44789000  0.31347000  0.51984000  1.0
  C  C54  1  0.19646000  0.78333000  0.67350000  1.0
  C  C55  1  0.80353000  0.21667000  0.32650000  1.0
  C  C56  1  0.34459000  0.80478000  0.69576000  1.0
  C  C57  1  0.65540000  0.19521000  0.30425000  1.0
  C  C58  1  0.61149000  0.80679000  0.49645000  1.0
  C  C59  1  0.38849000  0.19322000  0.50355000  1.0
  C  C60  1  0.75184000  0.86391000  0.54420000  1.0
  C  C61  1  0.24815000  0.13609000  0.45580000  1.0
  C  C62  1  0.47330000  0.31317000  0.79222000  1.0
  C  C63  1  0.52671000  0.68682000  0.20778000  1.0
  C  C64  1  0.66009000  0.40140000  0.94645000  1.0
  C  C65  1  0.33993000  0.59859000  0.05355000  1.0
  C  C66  1  0.40357000  0.31921000  0.95376000  1.0
  C  C67  1  0.59645000  0.68079000  0.04624000  1.0
  C  C68  1  0.62084000  0.36868000  0.83828000  1.0
  C  C69  1  0.37917000  0.63131000  0.16171000  1.0
  C  C70  1  0.91831000  0.20420000  0.64554000  1.0
  C  C71  1  0.08170000  0.79580000  0.35445000  1.0
  C  C72  1  0.78590000  0.16242000  0.57289000  1.0
  C  C73  1  0.21410000  0.83758000  0.42711000  1.0
  C  C74  1  0.66095000  0.07292000  0.90398000  1.0
  C  C75  1  0.33904000  0.92707000  0.09602000  1.0
  C  C76  1  0.51406000  0.07107000  0.88690000  1.0
  C  C77  1  0.48593000  0.92893000  0.11310000  1.0
  C  C78  1  0.44892000  0.89921000  0.76872000  1.0
  C  C79  1  0.55107000  0.10078000  0.23128000  1.0
  C  C80  1  0.59918000  0.90696000  0.79147000  1.0
  C  C81  1  0.40081000  0.09304000  0.20853000  1.0
  C  C82  1  0.54863000  0.37639000  0.00660000  1.0
  C  C83  1  0.45139000  0.62360000  0.99340000  1.0
  C  C84  1  0.70707000  0.49203000  0.29867000  1.0
  C  C85  1  0.29293000  0.50798000  0.70133000  1.0
  C  C86  1  0.69517000  0.47318000  0.18421000  1.0
  C  C87  1  0.30484000  0.52683000  0.81579000  1.0
  C  C88  1  0.57248000  0.40354000  0.12013000  1.0
  C  C89  1  0.42754000  0.59646000  0.87986000  1.0
  C  C90  1  0.09419000  0.68632000  0.59907000  1.0
  C  C91  1  0.90580000  0.31369000  0.40092000  1.0
  C  C92  1  0.40691000  0.98411000  0.81921000  1.0
  C  C93  1  0.59308000  0.01588000  0.18079000  1.0
  C  C94  1  0.80712000  0.98242000  0.57253000  1.0
  C  C95  1  0.19288000  0.01759000  0.42748000  1.0
  C  C96  1  0.73051000  0.05100000  0.53492000  1.0
  C  C97  1  0.26949000  0.94899000  0.46507000  1.0
  C  C98  1  0.93986000  0.03158000  0.64536000  1.0
  C  C99  1  0.06014000  0.96842000  0.35464000  1.0
  N  N100  1  0.70337000  0.99111000  0.85791000  1.0
  N  N101  1  0.29662000  0.00888000  0.14209000  1.0
  N  N102  1  0.99497000  0.14009000  0.68120000  1.0
  N  N103  1  0.00504000  0.85991000  0.31880000  1.0
  N  N104  1  0.36527000  0.28837000  0.84902000  1.0
  N  N105  1  0.63475000  0.71163000  0.15098000  1.0
  Cl  Cl106  1  0.14140000  0.06935000  0.91405000  1.0
  Cl  Cl107  1  0.85860000  0.93066000  0.08596000  1.0
  Cl  Cl108  1  0.11130000  0.20539000  0.18019000  1.0
  Cl  Cl109  1  0.88870000  0.79461000  0.81981000  1.0
  Cl  Cl110  1  0.00537000  0.32593000  0.90612000  1.0
  Cl  Cl111  1  0.99464000  0.67407000  0.09387000  1.0
  O  O112  1  0.69373000  0.56571000  0.69188000  1.0
  O  O113  1  0.30627000  0.43429000  0.30812000  1.0
  O  O114  1  0.41183000  0.64492000  0.44978000  1.0
  O  O115  1  0.58817000  0.35507000  0.55022000  1.0
  O  O116  1  0.83063000  0.55524000  0.35574000  1.0
  O  O117  1  0.16936000  0.44477000  0.64427000  1.0
  O  O118  1  0.60050000  0.44549000  0.34213000  1.0
  O  O119  1  0.39949000  0.55452000  0.65787000  1.0
  O  O120  1  0.90948000  0.46550000  0.67042000  1.0
  O  O121  1  0.09051000  0.53450000  0.32958000  1.0
  O  O122  1  0.95614000  0.67406000  0.59031000  1.0
  O  O123  1  0.04385000  0.32595000  0.40968000  1.0
  O  O124  1  0.14417000  0.61984000  0.54794000  1.0
  O  O125  1  0.85583000  0.38017000  0.45205000  1.0
  O  O126  1  0.63917000  0.63203000  0.49853000  1.0
  O  O127  1  0.36084000  0.36799000  0.50149000  1.0
