# generated using pymatgen
data_CuH22C18(N2Cl)2
_symmetry_space_group_name_H-M   'P 1'
_cell_length_a   7.95003000
_cell_length_b   8.13365000
_cell_length_c   8.83404000
_cell_angle_alpha   71.73180000
_cell_angle_beta   84.53910000
_cell_angle_gamma   101.42700000
_symmetry_Int_Tables_number   1
_chemical_formula_structural   CuH22C18(N2Cl)2
_chemical_formula_sum   'Cu1 H22 C18 N4 Cl2'
_cell_volume   524.04593017
_cell_formula_units_Z   1
loop_
 _symmetry_equiv_pos_site_id
 _symmetry_equiv_pos_as_xyz
  1  'x, y, z'
loop_
 _atom_site_type_symbol
 _atom_site_label
 _atom_site_symmetry_multiplicity
 _atom_site_fract_x
 _atom_site_fract_y
 _atom_site_fract_z
 _atom_site_occupancy
  Cu  Cu0  1  0.99999000  0.00001000  0.00000000  1.0
  H  H1  1  0.38244000  0.97665000  0.09646000  1.0
  H  H2  1  0.61755000  0.02336000  0.90352000  1.0
  H  H3  1  0.36367000  0.86102000  0.30525000  1.0
  H  H4  1  0.63631000  0.13900000  0.69475000  1.0
  H  H5  1  0.50643000  0.07697000  0.21641000  1.0
  H  H6  1  0.49355000  0.92304000  0.78357000  1.0
  H  H7  1  0.05390000  0.46554000  0.38885000  1.0
  H  H8  1  0.94609000  0.53445000  0.61118000  1.0
  H  H9  1  0.98793000  0.26984000  0.56360000  1.0
  H  H10  1  0.01207000  0.73014000  0.43643000  1.0
  H  H11  1  0.84920000  0.31709000  0.41679000  1.0
  H  H12  1  0.15079000  0.68289000  0.58324000  1.0
  H  H13  1  0.40611000  0.06467000  0.50503000  1.0
  H  H14  1  0.59391000  0.93535000  0.49493000  1.0
  H  H15  1  0.22400000  0.08168000  0.62278000  1.0
  H  H16  1  0.77602000  0.91832000  0.37723000  1.0
  H  H17  1  0.26266000  0.31390000  0.72868000  1.0
  H  H18  1  0.73738000  0.68609000  0.27132000  1.0
  H  H19  1  0.42354000  0.60727000  0.72545000  1.0
  H  H20  1  0.57651000  0.39273000  0.27452000  1.0
  H  H21  1  0.93244000  0.25059000  0.14317000  1.0
  H  H22  1  0.06754000  0.74941000  0.85684000  1.0
  C  C23  1  0.37997000  0.99382000  0.21444000  1.0
  C  C24  1  0.62002000  0.00619000  0.78554000  1.0
  C  C25  1  0.23795000  0.07947000  0.24667000  1.0
  C  C26  1  0.76204000  0.92054000  0.75332000  1.0
  C  C27  1  0.21237000  0.15113000  0.37123000  1.0
  C  C28  1  0.78763000  0.84889000  0.62876000  1.0
  C  C29  1  0.06917000  0.22569000  0.34564000  1.0
  C  C30  1  0.93083000  0.77433000  0.65437000  1.0
  C  C31  1  0.98508000  0.32393000  0.43362000  1.0
  C  C32  1  0.01491000  0.67606000  0.56640000  1.0
  C  C33  1  0.31327000  0.14825000  0.50666000  1.0
  C  C34  1  0.68674000  0.85175000  0.49334000  1.0
  C  C35  1  0.40952000  0.33013000  0.50301000  1.0
  C  C36  1  0.59051000  0.66984000  0.49697000  1.0
  C  C37  1  0.36810000  0.39399000  0.62838000  1.0
  C  C38  1  0.63190000  0.60598000  0.37163000  1.0
  C  C39  1  0.45750000  0.56114000  0.62555000  1.0
  C  C40  1  0.54253000  0.43883000  0.37441000  1.0
  N  N41  1  0.11528000  0.10750000  0.15124000  1.0
  N  N42  1  0.88471000  0.89251000  0.84877000  1.0
  N  N43  1  0.01508000  0.19536000  0.21468000  1.0
  N  N44  1  0.98489000  0.80465000  0.78533000  1.0
  Cl  Cl45  1  0.91523000  0.25989000  0.89181000  1.0
  Cl  Cl46  1  0.08475000  0.74012000  0.10819000  1.0
