# generated using pymatgen
data_MnH13C19NO6
_symmetry_space_group_name_H-M   'P 1'
_cell_length_a   7.66184000
_cell_length_b   9.91514000
_cell_length_c   12.11140000
_cell_angle_alpha   107.27400000
_cell_angle_beta   96.43430000
_cell_angle_gamma   108.42300000
_symmetry_Int_Tables_number   1
_chemical_formula_structural   MnH13C19NO6
_chemical_formula_sum   'Mn2 H26 C38 N2 O12'
_cell_volume   811.73912027
_cell_formula_units_Z   2
loop_
 _symmetry_equiv_pos_site_id
 _symmetry_equiv_pos_as_xyz
  1  'x, y, z'
loop_
 _atom_site_type_symbol
 _atom_site_label
 _atom_site_symmetry_multiplicity
 _atom_site_fract_x
 _atom_site_fract_y
 _atom_site_fract_z
 _atom_site_occupancy
  Mn  Mn0  1  0.19602000  0.40963000  0.04625000  1.0
  Mn  Mn1  1  0.80400000  0.59038000  0.95375000  1.0
  H  H2  1  0.45561000  0.59656000  0.25177000  1.0
  H  H3  1  0.54439000  0.40341000  0.74823000  1.0
  H  H4  1  0.57434000  0.60926000  0.15599000  1.0
  H  H5  1  0.42567000  0.39075000  0.84402000  1.0
  H  H6  1  0.18321000  0.94961000  0.02390000  1.0
  H  H7  1  0.81679000  0.05039000  0.97611000  1.0
  H  H8  1  0.38855000  0.63671000  0.79754000  1.0
  H  H9  1  0.61146000  0.36330000  0.20246000  1.0
  H  H10  1  0.39174000  0.04036000  0.72799000  1.0
  H  H11  1  0.60821000  0.95963000  0.27200000  1.0
  H  H12  1  0.46877000  0.69330000  0.43210000  1.0
  H  H13  1  0.53122000  0.30671000  0.56789000  1.0
  H  H14  1  0.74508000  0.80046000  0.35238000  1.0
  H  H15  1  0.25493000  0.19954000  0.64763000  1.0
  H  H16  1  0.03191000  0.12101000  0.70661000  1.0
  H  H17  1  0.96809000  0.87896000  0.29340000  1.0
  H  H18  1  0.75618000  0.02061000  0.78067000  1.0
  H  H19  1  0.24378000  0.97940000  0.21932000  1.0
  H  H20  1  0.16594000  0.26074000  0.22932000  1.0
  H  H21  1  0.83412000  0.73929000  0.77069000  1.0
  H  H22  1  0.08596000  0.28442000  0.42403000  1.0
  H  H23  1  0.91411000  0.71560000  0.57598000  1.0
  H  H24  1  0.98524000  0.69062000  0.42156000  1.0
  H  H25  1  0.01472000  0.30936000  0.57842000  1.0
  H  H26  1  0.06660000  0.64626000  0.22474000  1.0
  H  H27  1  0.93335000  0.35372000  0.77524000  1.0
  C  C28  1  0.26318000  0.16010000  0.92306000  1.0
  C  C29  1  0.73681000  0.83990000  0.07696000  1.0
  C  C30  1  0.29345000  0.01313000  0.88385000  1.0
  C  C31  1  0.70655000  0.98687000  0.11615000  1.0
  C  C32  1  0.24714000  0.91759000  0.94947000  1.0
  C  C33  1  0.75286000  0.08241000  0.05053000  1.0
  C  C34  1  0.28034000  0.78216000  0.91854000  1.0
  C  C35  1  0.71965000  0.21785000  0.08146000  1.0
  C  C36  1  0.35936000  0.74109000  0.82081000  1.0
  C  C37  1  0.64063000  0.25891000  0.17919000  1.0
  C  C38  1  0.39448000  0.83271000  0.75180000  1.0
  C  C39  1  0.60550000  0.16728000  0.24819000  1.0
  C  C40  1  0.36412000  0.96945000  0.78248000  1.0
  C  C41  1  0.63586000  0.03055000  0.21752000  1.0
  C  C42  1  0.22084000  0.67583000  0.98443000  1.0
  C  C43  1  0.77917000  0.32418000  0.01557000  1.0
  C  C44  1  0.59472000  0.84833000  0.61009000  1.0
  C  C45  1  0.40526000  0.15166000  0.38990000  1.0
  C  C46  1  0.59433000  0.78896000  0.48964000  1.0
  C  C47  1  0.40567000  0.21104000  0.51036000  1.0
  C  C48  1  0.75080000  0.84903000  0.44674000  1.0
  C  C49  1  0.24921000  0.15096000  0.55327000  1.0
  C  C50  1  0.91498000  0.96983000  0.52247000  1.0
  C  C51  1  0.08503000  0.03015000  0.47754000  1.0
  C  C52  1  0.90954000  0.02908000  0.64272000  1.0
  C  C53  1  0.09046000  0.97089000  0.35728000  1.0
  C  C54  1  0.75266000  0.97098000  0.68678000  1.0
  C  C55  1  0.24733000  0.02901000  0.31322000  1.0
  C  C56  1  0.12453000  0.35415000  0.27558000  1.0
  C  C57  1  0.87552000  0.64587000  0.72442000  1.0
  C  C58  1  0.07902000  0.36880000  0.38505000  1.0
  C  C59  1  0.92104000  0.63122000  0.61495000  1.0
  C  C60  1  0.02558000  0.49036000  0.44190000  1.0
  C  C61  1  0.97444000  0.50964000  0.55809000  1.0
  C  C62  1  0.02292000  0.59262000  0.38322000  1.0
  C  C63  1  0.97707000  0.40737000  0.61678000  1.0
  C  C64  1  0.06913000  0.56990000  0.27330000  1.0
  C  C65  1  0.93085000  0.43010000  0.72669000  1.0
  N  N66  1  0.11891000  0.45217000  0.21961000  1.0
  N  N67  1  0.88110000  0.54785000  0.78039000  1.0
  O  O68  1  0.22337000  0.20154000  0.02479000  1.0
  O  O69  1  0.77662000  0.79845000  0.97523000  1.0
  O  O70  1  0.27527000  0.23871000  0.85614000  1.0
  O  O71  1  0.72470000  0.76132000  0.14389000  1.0
  O  O72  1  0.09611000  0.68690000  0.04532000  1.0
  O  O73  1  0.90389000  0.31310000  0.95468000  1.0
  O  O74  1  0.29258000  0.57400000  0.97308000  1.0
  O  O75  1  0.70743000  0.42602000  0.02693000  1.0
  O  O76  1  0.43915000  0.77173000  0.64428000  1.0
  O  O77  1  0.56082000  0.22826000  0.35571000  1.0
  O  O78  1  0.48054000  0.53478000  0.18108000  1.0
  O  O79  1  0.51946000  0.46522000  0.81891000  1.0
