# generated using pymatgen
data_AlH21(C5O)6
_symmetry_space_group_name_H-M   'P 1'
_cell_length_a   4.00379000
_cell_length_b   15.96710000
_cell_length_c   16.05289961
_cell_angle_alpha   119.73895527
_cell_angle_beta   90.36767320
_cell_angle_gamma   91.21250000
_symmetry_Int_Tables_number   1
_chemical_formula_structural   AlH21(C5O)6
_chemical_formula_sum   'Al1 H21 C30 O6'
_cell_volume   890.71373913
_cell_formula_units_Z   1
loop_
 _symmetry_equiv_pos_site_id
 _symmetry_equiv_pos_as_xyz
  1  'x, y, z'
loop_
 _atom_site_type_symbol
 _atom_site_label
 _atom_site_symmetry_multiplicity
 _atom_site_fract_x
 _atom_site_fract_y
 _atom_site_fract_z
 _atom_site_occupancy
  Al  Al0  1  0.99355000  0.99949000  0.50138000  1.0
  H  H1  1  0.49698000  0.15445000  0.07984000  1.0
  H  H2  1  0.54030000  0.42109000  0.07485000  1.0
  H  H3  1  0.48363000  0.42474000  0.34395000  1.0
  H  H4  1  0.21881000  0.02008000  0.25737000  1.0
  H  H5  1  0.20750000  0.10729000  0.16594000  1.0
  H  H6  1  0.77766000  0.34212000  0.39358000  1.0
  H  H7  1  0.76250000  0.10456000  0.94722000  1.0
  H  H8  1  0.24277000  0.24580000  0.76574000  1.0
  H  H9  1  0.23681000  0.33508000  0.94315000  1.0
  H  H10  1  0.24805000  0.55030000  0.15407000  1.0
  H  H11  1  0.77083000  0.73874000  0.47688000  1.0
  H  H12  1  0.78851000  0.56003000  0.39166000  1.0
  H  H13  1  0.68652000  0.34177000  0.56409000  1.0
  H  H14  1  0.80657000  0.22924000  0.55025000  1.0
  H  H15  1  0.07560000  0.29273000  0.51252000  1.0
  H  H16  1  0.68694000  0.93964000  0.78729000  1.0
  H  H17  1  0.72891000  0.94458000  0.67968000  1.0
  H  H18  1  0.05887000  0.98782000  0.76575000  1.0
  H  H19  1  0.94276000  0.76401000  0.24678000  1.0
  H  H20  1  0.33984000  0.80148000  0.22960000  1.0
  H  H21  1  0.17046000  0.68593000  0.14308000  1.0
  C  C22  1  0.50146000  0.07286000  0.64947000  1.0
  C  C23  1  0.48397000  0.85170000  0.42378000  1.0
  C  C24  1  0.49917000  0.07701000  0.42966000  1.0
  C  C25  1  0.50960000  0.28139000  0.06474000  1.0
  C  C26  1  0.50195000  0.23310000  0.11768000  1.0
  C  C27  1  0.50079000  0.28353000  0.21828000  1.0
  C  C28  1  0.50225000  0.38464000  0.26601000  1.0
  C  C29  1  0.51204000  0.43518000  0.21531000  1.0
  C  C30  1  0.51863000  0.38255000  0.11483000  1.0
  C  C31  1  0.34486000  0.09047000  0.28627000  1.0
  C  C32  1  0.34128000  0.13929000  0.23476000  1.0
  C  C33  1  0.49602000  0.23115000  0.27270000  1.0
  C  C34  1  0.64774000  0.27206000  0.36399000  1.0
  C  C35  1  0.65085000  0.22504000  0.41790000  1.0
  C  C36  1  0.50008000  0.13253000  0.37710000  1.0
  C  C37  1  0.64353000  0.13557000  0.90770000  1.0
  C  C38  1  0.64229000  0.08260000  0.80735000  1.0
  C  C39  1  0.50496000  0.12504000  0.75684000  1.0
  C  C40  1  0.36258000  0.21602000  0.80614000  1.0
  C  C41  1  0.36239000  0.26644000  0.90582000  1.0
  C  C42  1  0.50778000  0.22743000  0.95861000  1.0
  C  C43  1  0.36393000  0.59158000  0.22538000  1.0
  C  C44  1  0.34843000  0.69210000  0.27227000  1.0
  C  C45  1  0.49133000  0.74498000  0.36571000  1.0
  C  C46  1  0.65031000  0.69599000  0.40663000  1.0
  C  C47  1  0.65736000  0.59611000  0.35908000  1.0
  C  C48  1  0.51087000  0.54169000  0.26703000  1.0
  C  C49  1  0.81252000  0.27426000  0.51641000  1.0
  C  C50  1  0.78575000  0.98333000  0.75692000  1.0
  C  C51  1  0.19295000  0.73838000  0.22005000  1.0
  O  O52  1  0.72986000  0.01658000  0.41063000  1.0
  O  O53  1  0.73836000  0.09196000  0.60830000  1.0
  O  O54  1  0.71608000  0.89499000  0.48744000  1.0
  O  O55  1  0.26667000  0.09289000  0.48906000  1.0
  O  O56  1  0.24636000  0.89501000  0.40873000  1.0
  O  O57  1  0.26004000  0.01297000  0.60639000  1.0
