# generated using pymatgen
data_AgH8C6S2O2F3
_symmetry_space_group_name_H-M   'P 1'
_cell_length_a   6.90638000
_cell_length_b   8.25063000
_cell_length_c   17.26260000
_cell_angle_alpha   90.00140000
_cell_angle_beta   90.00000000
_cell_angle_gamma   89.99990000
_symmetry_Int_Tables_number   1
_chemical_formula_structural   AgH8C6S2O2F3
_chemical_formula_sum   'Ag4 H32 C24 S8 O8 F12'
_cell_volume   983.65723156
_cell_formula_units_Z   4
loop_
 _symmetry_equiv_pos_site_id
 _symmetry_equiv_pos_as_xyz
  1  'x, y, z'
loop_
 _atom_site_type_symbol
 _atom_site_label
 _atom_site_symmetry_multiplicity
 _atom_site_fract_x
 _atom_site_fract_y
 _atom_site_fract_z
 _atom_site_occupancy
  Ag  Ag0  1  0.27680000  0.57094000  0.22482000  1.0
  Ag  Ag1  1  0.22320000  0.42906000  0.72482000  1.0
  Ag  Ag2  1  0.77680000  0.92906000  0.77517000  1.0
  Ag  Ag3  1  0.72320000  0.07094000  0.27518000  1.0
  H  H4  1  0.77827000  0.47557000  0.28622000  1.0
  H  H5  1  0.72174000  0.52443000  0.78621000  1.0
  H  H6  1  0.27826000  0.02443000  0.71378000  1.0
  H  H7  1  0.22174000  0.97556000  0.21378000  1.0
  H  H8  1  0.93671000  0.51730000  0.36689000  1.0
  H  H9  1  0.56331000  0.48270000  0.86688000  1.0
  H  H10  1  0.43670000  0.98270000  0.63311000  1.0
  H  H11  1  0.06331000  0.01730000  0.13312000  1.0
  H  H12  1  0.98340000  0.29655000  0.48152000  1.0
  H  H13  1  0.51662000  0.70345000  0.98151000  1.0
  H  H14  1  0.48339000  0.20345000  0.51848000  1.0
  H  H15  1  0.01661000  0.79654000  0.01848000  1.0
  H  H16  1  0.87711000  0.10099000  0.47796000  1.0
  H  H17  1  0.62291000  0.89901000  0.97796000  1.0
  H  H18  1  0.37711000  0.39901000  0.52204000  1.0
  H  H19  1  0.12290000  0.60098000  0.02204000  1.0
  H  H20  1  0.07672000  0.02570000  0.36433000  1.0
  H  H21  1  0.42329000  0.97430000  0.86434000  1.0
  H  H22  1  0.57671000  0.47429000  0.63567000  1.0
  H  H23  1  0.92329000  0.52571000  0.13566000  1.0
  H  H24  1  0.22249000  0.08497000  0.44291000  1.0
  H  H25  1  0.27752000  0.91502000  0.94292000  1.0
  H  H26  1  0.72249000  0.41503000  0.55709000  1.0
  H  H27  1  0.77751000  0.58498000  0.05709000  1.0
  H  H28  1  0.34822000  0.19849000  0.32048000  1.0
  H  H29  1  0.15179000  0.80151000  0.82048000  1.0
  H  H30  1  0.84821000  0.30151000  0.67952000  1.0
  H  H31  1  0.65179000  0.69849000  0.17952000  1.0
  H  H32  1  0.27908000  0.35838000  0.38320000  1.0
  H  H33  1  0.22093000  0.64162000  0.88320000  1.0
  H  H34  1  0.77908000  0.14162000  0.61680000  1.0
  H  H35  1  0.72092000  0.85839000  0.11680000  1.0
  C  C36  1  0.88192000  0.42357000  0.32741000  1.0
  C  C37  1  0.61809000  0.57644000  0.82741000  1.0
  C  C38  1  0.38192000  0.07643000  0.67259000  1.0
  C  C39  1  0.11809000  0.92356000  0.17259000  1.0
  C  C40  1  0.94375000  0.19640000  0.44267000  1.0
  C  C41  1  0.55627000  0.80361000  0.94267000  1.0
  C  C42  1  0.44375000  0.30361000  0.55733000  1.0
  C  C43  1  0.05626000  0.69639000  0.05733000  1.0
  C  C44  1  0.11916000  0.13079000  0.39965000  1.0
  C  C45  1  0.38084000  0.86921000  0.89965000  1.0
  C  C46  1  0.61916000  0.36921000  0.60035000  1.0
  C  C47  1  0.88084000  0.63080000  0.10034000  1.0
  C  C48  1  0.22408000  0.25483000  0.34975000  1.0
  C  C49  1  0.27593000  0.74517000  0.84975000  1.0
  C  C50  1  0.72407000  0.24517000  0.65025000  1.0
  C  C51  1  0.77593000  0.75483000  0.15025000  1.0
  C  C52  1  0.52412000  0.25909000  0.14398000  1.0
  C  C53  1  0.97588000  0.74093000  0.64397000  1.0
  C  C54  1  0.02411000  0.24091000  0.85602000  1.0
  C  C55  1  0.47587000  0.75907000  0.35603000  1.0
  C  C56  1  0.39953000  0.28855000  0.06968000  1.0
  C  C57  1  0.10045000  0.71145000  0.56968000  1.0
  C  C58  1  0.89953000  0.21145000  0.93032000  1.0
  C  C59  1  0.60045000  0.78854000  0.43033000  1.0
  S  S60  1  0.07631000  0.33545000  0.27133000  1.0
  S  S61  1  0.42369000  0.66455000  0.77132000  1.0
  S  S62  1  0.57631000  0.16454000  0.72867000  1.0
  S  S63  1  0.92369000  0.83545000  0.22868000  1.0
  S  S64  1  0.74930000  0.27146000  0.38106000  1.0
  S  S65  1  0.75071000  0.72854000  0.88105000  1.0
  S  S66  1  0.24930000  0.22854000  0.61894000  1.0
  S  S67  1  0.25071000  0.77146000  0.11894000  1.0
  O  O68  1  0.55773000  0.38202000  0.18470000  1.0
  O  O69  1  0.94226000  0.61800000  0.68470000  1.0
  O  O70  1  0.05773000  0.11800000  0.81530000  1.0
  O  O71  1  0.44227000  0.88202000  0.31530000  1.0
  O  O72  1  0.56845000  0.11267000  0.15543000  1.0
  O  O73  1  0.93155000  0.88737000  0.65542000  1.0
  O  O74  1  0.06846000  0.38736000  0.84458000  1.0
  O  O75  1  0.43150000  0.61266000  0.34458000  1.0
  F  F76  1  0.45222000  0.42656000  0.03060000  1.0
  F  F77  1  0.04773000  0.57345000  0.53059000  1.0
  F  F78  1  0.95224000  0.07345000  0.96941000  1.0
  F  F79  1  0.54774000  0.92653000  0.46942000  1.0
  F  F80  1  0.20881000  0.30772000  0.09026000  1.0
  F  F81  1  0.29118000  0.69225000  0.59025000  1.0
  F  F82  1  0.70881000  0.19227000  0.90975000  1.0
  F  F83  1  0.79118000  0.80775000  0.40975000  1.0
  F  F84  1  0.40534000  0.16506000  0.01797000  1.0
  F  F85  1  0.09467000  0.83495000  0.51797000  1.0
  F  F86  1  0.90533000  0.33495000  0.98203000  1.0
  F  F87  1  0.59468000  0.66503000  0.48202000  1.0
