# generated using pymatgen
data_ZnH4C11(NF)4
_symmetry_space_group_name_H-M   'P 1'
_cell_length_a   13.18200000
_cell_length_b   13.20780000
_cell_length_c   14.34493214
_cell_angle_alpha   115.43807104
_cell_angle_beta   115.24631882
_cell_angle_gamma   75.11200000
_symmetry_Int_Tables_number   1
_chemical_formula_structural   ZnH4C11(NF)4
_chemical_formula_sum   'Zn4 H16 C44 N16 F16'
_cell_volume   2031.63528211
_cell_formula_units_Z   4
loop_
 _symmetry_equiv_pos_site_id
 _symmetry_equiv_pos_as_xyz
  1  'x, y, z'
loop_
 _atom_site_type_symbol
 _atom_site_label
 _atom_site_symmetry_multiplicity
 _atom_site_fract_x
 _atom_site_fract_y
 _atom_site_fract_z
 _atom_site_occupancy
  Zn  Zn0  1  0.63884000  0.36100000  0.99994000  1.0
  Zn  Zn1  1  0.34498000  0.65491000  0.00009000  1.0
  Zn  Zn2  1  0.50783000  0.52485000  0.85227000  1.0
  Zn  Zn3  1  0.47499000  0.49180000  0.14768000  1.0
  H  H4  1  0.26833000  0.89385000  0.95169000  1.0
  H  H5  1  0.48536000  0.07618000  0.23601000  1.0
  H  H6  1  0.92312000  0.51699000  0.76398000  1.0
  H  H7  1  0.74570000  0.50738000  0.59451000  1.0
  H  H8  1  0.49481000  0.25410000  0.40562000  1.0
  H  H9  1  0.50047000  0.85884000  0.13722000  1.0
  H  H10  1  0.14039000  0.49998000  0.86314000  1.0
  H  H11  1  0.10607000  0.73167000  0.04917000  1.0
  H  H12  1  0.64088000  0.44800000  0.37741000  1.0
  H  H13  1  0.55266000  0.35902000  0.62282000  1.0
  H  H14  1  0.85398000  0.26820000  0.18466000  1.0
  H  H15  1  0.73208000  0.14661000  0.81490000  1.0
  H  H16  1  0.69884000  0.69902000  0.96384000  1.0
  H  H17  1  0.30035000  0.30064000  0.03620000  1.0
  H  H18  1  0.98140000  0.20207000  0.34513000  1.0
  H  H19  1  0.79791000  0.01868000  0.65451000  1.0
  C  C20  1  0.80357000  0.53107000  0.10203000  1.0
  C  C21  1  0.14309000  0.62544000  0.14990000  1.0
  C  C22  1  0.37443000  0.85622000  0.85012000  1.0
  C  C23  1  0.78564000  0.34768000  0.32281000  1.0
  C  C24  1  0.65303000  0.21464000  0.67704000  1.0
  C  C25  1  0.88625000  0.42254000  0.52891000  1.0
  C  C26  1  0.57872000  0.11379000  0.47088000  1.0
  C  C27  1  0.46941000  0.19531000  0.89819000  1.0
  C  C28  1  0.87941000  0.34368000  0.42306000  1.0
  C  C29  1  0.65719000  0.12074000  0.57665000  1.0
  C  C30  1  0.97744000  0.26930000  0.42191000  1.0
  C  C31  1  0.73109000  0.02255000  0.57773000  1.0
  C  C32  1  0.07437000  0.28043000  0.51697000  1.0
  C  C33  1  0.71968000  0.92535000  0.48267000  1.0
  C  C34  1  0.08621000  0.36617000  0.62163000  1.0
  C  C35  1  0.63422000  0.91342000  0.37810000  1.0
  C  C36  1  0.98435000  0.43236000  0.62210000  1.0
  C  C37  1  0.56864000  0.01544000  0.37765000  1.0
  C  C38  1  0.93270000  0.53051000  0.69766000  1.0
  C  C39  1  0.47111000  0.06720000  0.30225000  1.0
  C  C40  1  0.52989000  0.79672000  0.17604000  1.0
  C  C41  1  0.20264000  0.47024000  0.82409000  1.0
  C  C42  1  0.82243000  0.52184000  0.59095000  1.0
  C  C43  1  0.60220000  0.80802000  0.28529000  1.0
  C  C44  1  0.47987000  0.17766000  0.40905000  1.0
  C  C45  1  0.35776000  0.06582000  0.90617000  1.0
  C  C46  1  0.93341000  0.64251000  0.09426000  1.0
  C  C47  1  0.37905000  0.95904000  0.84049000  1.0
  C  C48  1  0.04009000  0.62093000  0.15959000  1.0
  C  C49  1  0.19148000  0.39788000  0.71465000  1.0
  C  C50  1  0.43398000  0.75131000  0.81366000  1.0
  C  C51  1  0.24789000  0.56576000  0.18593000  1.0
  C  C52  1  0.67788000  0.40419000  0.31410000  1.0
  C  C53  1  0.59638000  0.32224000  0.68600000  1.0
  C  C54  1  0.32311000  0.83642000  0.90857000  1.0
  C  C55  1  0.16332000  0.67684000  0.09189000  1.0
  C  C56  1  0.78614000  0.31174000  0.21541000  1.0
  C  C57  1  0.68866000  0.21431000  0.78433000  1.0
  C  C58  1  0.60579000  0.70063000  0.28533000  1.0
  C  C59  1  0.29920000  0.39375000  0.71464000  1.0
  C  C60  1  0.72075000  0.64030000  0.00555000  1.0
  C  C61  1  0.35949000  0.27852000  0.99460000  1.0
  C  C62  1  0.82777000  0.61153000  0.07629000  1.0
  C  C63  1  0.38871000  0.17132000  0.92399000  1.0
  N  N64  1  0.69453000  0.51310000  0.05232000  1.0
  N  N65  1  0.32299000  0.57872000  0.15344000  1.0
  N  N66  1  0.42114000  0.67658000  0.84644000  1.0
  N  N67  1  0.61940000  0.40181000  0.21048000  1.0
  N  N68  1  0.59841000  0.38079000  0.78966000  1.0
  N  N69  1  0.35080000  0.73019000  0.90584000  1.0
  N  N70  1  0.26972000  0.64919000  0.09461000  1.0
  N  N71  1  0.48712000  0.30439000  0.94775000  1.0
  N  N72  1  0.68713000  0.34467000  0.14878000  1.0
  N  N73  1  0.65542000  0.31328000  0.85114000  1.0
  N  N74  1  0.54178000  0.63261000  0.18717000  1.0
  N  N75  1  0.36725000  0.45759000  0.81288000  1.0
  N  N76  1  0.64305000  0.58085000  0.99152000  1.0
  N  N77  1  0.41896000  0.35613000  0.00854000  1.0
  N  N78  1  0.49450000  0.69300000  0.11919000  1.0
  N  N79  1  0.30657000  0.50523000  0.88099000  1.0
  F  F80  1  0.87426000  0.47078000  0.16323000  1.0
  F  F81  1  0.36824000  0.01987000  0.25348000  1.0
  F  F82  1  0.98082000  0.63288000  0.74633000  1.0
  F  F83  1  0.79603000  0.61666000  0.56212000  1.0
  F  F84  1  0.38478000  0.20458000  0.43802000  1.0
  F  F85  1  0.31038000  0.07604000  0.97947000  1.0
  F  F86  1  0.92363000  0.69010000  0.02148000  1.0
  F  F87  1  0.53007000  0.12446000  0.83698000  1.0
  F  F88  1  0.42039000  0.94469000  0.76260000  1.0
  F  F89  1  0.05402000  0.57935000  0.23696000  1.0
  F  F90  1  0.50077000  0.72045000  0.75487000  1.0
  F  F91  1  0.27834000  0.49880000  0.24412000  1.0
  F  F92  1  0.65765000  0.66435000  0.36969000  1.0
  F  F93  1  0.33575000  0.34147000  0.63017000  1.0
  F  F94  1  0.16386000  0.20393000  0.50555000  1.0
  F  F95  1  0.79555000  0.83560000  0.49398000  1.0
