# generated using pymatgen
data_Zn3H14(C12O5)2
_symmetry_space_group_name_H-M   'P 1'
_cell_length_a   12.06700000
_cell_length_b   13.71520000
_cell_length_c   13.71520000
_cell_angle_alpha   85.06560000
_cell_angle_beta   86.79780000
_cell_angle_gamma   86.79790000
_symmetry_Int_Tables_number   1
_chemical_formula_structural   Zn3H14(C12O5)2
_chemical_formula_sum   'Zn6 H28 C48 O20'
_cell_volume   2254.96433156
_cell_formula_units_Z   2
loop_
 _symmetry_equiv_pos_site_id
 _symmetry_equiv_pos_as_xyz
  1  'x, y, z'
loop_
 _atom_site_type_symbol
 _atom_site_label
 _atom_site_symmetry_multiplicity
 _atom_site_fract_x
 _atom_site_fract_y
 _atom_site_fract_z
 _atom_site_occupancy
  Zn  Zn0  1  0.00000000  0.00000000  0.00000000  1.0
  Zn  Zn1  1  0.50000000  0.00000000  0.00000000  1.0
  Zn  Zn2  1  0.25000000  0.91674000  0.08326000  1.0
  Zn  Zn3  1  0.25000000  0.08034000  0.91966000  1.0
  Zn  Zn4  1  0.75000000  0.08326000  0.91674000  1.0
  Zn  Zn5  1  0.75000000  0.91966000  0.08034000  1.0
  H  H6  1  0.15790000  0.91061000  0.91663000  1.0
  H  H7  1  0.18629000  0.95227000  0.38049000  1.0
  H  H8  1  0.85514000  0.99352000  0.27777000  1.0
  H  H9  1  0.21838000  0.96810000  0.55608000  1.0
  H  H10  1  0.10168000  0.73195000  0.90037000  1.0
  H  H11  1  0.17758000  0.56291000  0.87594000  1.0
  H  H12  1  0.83681000  0.61796000  0.09168000  1.0
  H  H13  1  0.34210000  0.08337000  0.08940000  1.0
  H  H14  1  0.31371000  0.61951000  0.04773000  1.0
  H  H15  1  0.64486000  0.72223000  0.00648000  1.0
  H  H16  1  0.28162000  0.44392000  0.03190000  1.0
  H  H17  1  0.39832000  0.09963000  0.26805000  1.0
  H  H18  1  0.32243000  0.12406000  0.43709000  1.0
  H  H19  1  0.66319000  0.90832000  0.38204000  1.0
  H  H20  1  0.84211000  0.08939000  0.08337000  1.0
  H  H21  1  0.81371000  0.04773000  0.61952000  1.0
  H  H22  1  0.14486000  0.00648000  0.72223000  1.0
  H  H23  1  0.78161000  0.03190000  0.44392000  1.0
  H  H24  1  0.89832000  0.26805000  0.09963000  1.0
  H  H25  1  0.82243000  0.43709000  0.12406000  1.0
  H  H26  1  0.16320000  0.38204000  0.90832000  1.0
  H  H27  1  0.65790000  0.91663000  0.91060000  1.0
  H  H28  1  0.68629000  0.38049000  0.95227000  1.0
  H  H29  1  0.35514000  0.27777000  0.99352000  1.0
  H  H30  1  0.71838000  0.55608000  0.96810000  1.0
  H  H31  1  0.60168000  0.90037000  0.73195000  1.0
  H  H32  1  0.67758000  0.87594000  0.56291000  1.0
  H  H33  1  0.33681000  0.09168000  0.61796000  1.0
  C  C34  1  0.07026000  0.95278000  0.21884000  1.0
  C  C35  1  0.02601000  0.97166000  0.31977000  1.0
  C  C36  1  0.09792000  0.96908000  0.39538000  1.0
  C  C37  1  0.05824000  0.98835000  0.49110000  1.0
  C  C38  1  0.91061000  0.99364000  0.33776000  1.0
  C  C39  1  0.13004000  0.98613000  0.57002000  1.0
  C  C40  1  0.91768000  0.78654000  0.00934000  1.0
  C  C41  1  0.96364000  0.68435000  0.99718000  1.0
  C  C42  1  0.06102000  0.66858000  0.93623000  1.0
  C  C43  1  0.10261000  0.57496000  0.92257000  1.0
  C  C44  1  0.91079000  0.60496000  0.04431000  1.0
  C  C45  1  0.04891000  0.49219000  0.96874000  1.0
  C  C46  1  0.42974000  0.78117000  0.04722000  1.0
  C  C47  1  0.47398000  0.68023000  0.02835000  1.0
  C  C48  1  0.40208000  0.60462000  0.03092000  1.0
  C  C49  1  0.44176000  0.50890000  0.01165000  1.0
  C  C50  1  0.58939000  0.66224000  0.00636000  1.0
  C  C51  1  0.36996000  0.42998000  0.01387000  1.0
  C  C52  1  0.58232000  0.99066000  0.21346000  1.0
  C  C53  1  0.53636000  0.00281000  0.31565000  1.0
  C  C54  1  0.43898000  0.06376000  0.33142000  1.0
  C  C55  1  0.39739000  0.07743000  0.42504000  1.0
  C  C56  1  0.58921000  0.95569000  0.39504000  1.0
  C  C57  1  0.45110000  0.03125000  0.50781000  1.0
  C  C58  1  0.92974000  0.04722000  0.78117000  1.0
  C  C59  1  0.97398000  0.02834000  0.68023000  1.0
  C  C60  1  0.90208000  0.03092000  0.60462000  1.0
  C  C61  1  0.94176000  0.01165000  0.50890000  1.0
  C  C62  1  0.08939000  0.00636000  0.66224000  1.0
  C  C63  1  0.86996000  0.01387000  0.42998000  1.0
  C  C64  1  0.08232000  0.21346000  0.99065000  1.0
  C  C65  1  0.03636000  0.31565000  0.00281000  1.0
  C  C66  1  0.93898000  0.33142000  0.06376000  1.0
  C  C67  1  0.89739000  0.42504000  0.07743000  1.0
  C  C68  1  0.08921000  0.39504000  0.95569000  1.0
  C  C69  1  0.95110000  0.50781000  0.03125000  1.0
  C  C70  1  0.57026000  0.21883000  0.95278000  1.0
  C  C71  1  0.52601000  0.31977000  0.97166000  1.0
  C  C72  1  0.59792000  0.39538000  0.96908000  1.0
  C  C73  1  0.55824000  0.49110000  0.98835000  1.0
  C  C74  1  0.41061000  0.33776000  0.99365000  1.0
  C  C75  1  0.63004000  0.57002000  0.98613000  1.0
  C  C76  1  0.41768000  0.00934000  0.78654000  1.0
  C  C77  1  0.46364000  0.99719000  0.68435000  1.0
  C  C78  1  0.56102000  0.93624000  0.66858000  1.0
  C  C79  1  0.60261000  0.92257000  0.57496000  1.0
  C  C80  1  0.41079000  0.04431000  0.60496000  1.0
  C  C81  1  0.54890000  0.96874000  0.49219000  1.0
  O  O82  1  0.16368000  0.95934000  0.96339000  1.0
  O  O83  1  0.00302000  0.95093000  0.15170000  1.0
  O  O84  1  0.17687000  0.93941000  0.20798000  1.0
  O  O85  1  0.82863000  0.79457000  0.06531000  1.0
  O  O86  1  0.96653000  0.85727000  0.96355000  1.0
  O  O87  1  0.33632000  0.03661000  0.04067000  1.0
  O  O88  1  0.49698000  0.84830000  0.04907000  1.0
  O  O89  1  0.32313000  0.79202000  0.06059000  1.0
  O  O90  1  0.67137000  0.93469000  0.20543000  1.0
  O  O91  1  0.53347000  0.03644000  0.14273000  1.0
  O  O92  1  0.83632000  0.04066000  0.03661000  1.0
  O  O93  1  0.99698000  0.04907000  0.84830000  1.0
  O  O94  1  0.82313000  0.06059000  0.79202000  1.0
  O  O95  1  0.17137000  0.20543000  0.93468000  1.0
  O  O96  1  0.03347000  0.14273000  0.03644000  1.0
  O  O97  1  0.66368000  0.96339000  0.95934000  1.0
  O  O98  1  0.50302000  0.15170000  0.95093000  1.0
  O  O99  1  0.67687000  0.20798000  0.93941000  1.0
  O  O100  1  0.32862000  0.06531000  0.79457000  1.0
  O  O101  1  0.46653000  0.96356000  0.85727000  1.0
