# generated using pymatgen
data_ZnH14C24S2(NO2)4
_symmetry_space_group_name_H-M   'P 1'
_cell_length_a   9.98160000
_cell_length_b   10.48320000
_cell_length_c   14.76500000
_cell_angle_alpha   89.73060000
_cell_angle_beta   89.43410000
_cell_angle_gamma   61.57050000
_symmetry_Int_Tables_number   1
_chemical_formula_structural   ZnH14C24S2(NO2)4
_chemical_formula_sum   'Zn2 H28 C48 S4 N8 O16'
_cell_volume   1358.60912147
_cell_formula_units_Z   2
loop_
 _symmetry_equiv_pos_site_id
 _symmetry_equiv_pos_as_xyz
  1  'x, y, z'
loop_
 _atom_site_type_symbol
 _atom_site_label
 _atom_site_symmetry_multiplicity
 _atom_site_fract_x
 _atom_site_fract_y
 _atom_site_fract_z
 _atom_site_occupancy
  Zn  Zn0  1  0.06320000  0.87360000  0.75000000  1.0
  Zn  Zn1  1  0.93679000  0.12640000  0.25000000  1.0
  H  H2  1  0.58110000  0.15102000  0.72295000  1.0
  H  H3  1  0.26788000  0.15103000  0.77705000  1.0
  H  H4  1  0.41889000  0.84898000  0.27705000  1.0
  H  H5  1  0.73210000  0.84898000  0.22294000  1.0
  H  H6  1  0.40119000  0.66211000  0.75416000  1.0
  H  H7  1  0.93669000  0.66212000  0.74585000  1.0
  H  H8  1  0.59880000  0.33788000  0.24585000  1.0
  H  H9  1  0.06330000  0.33788000  0.25416000  1.0
  H  H10  1  0.25089000  0.64982000  0.44028000  1.0
  H  H11  1  0.09931000  0.64981000  0.05972000  1.0
  H  H12  1  0.74911000  0.35020000  0.55972000  1.0
  H  H13  1  0.90071000  0.35018000  0.94028000  1.0
  H  H14  1  0.26035000  0.32962000  0.50244000  1.0
  H  H15  1  0.41002000  0.32963000  0.99756000  1.0
  H  H16  1  0.73965000  0.67037000  0.49755000  1.0
  H  H17  1  0.58998000  0.67037000  0.00242000  1.0
  H  H18  1  0.46132000  0.16593000  0.39576000  1.0
  H  H19  1  0.37274000  0.16594000  0.10424000  1.0
  H  H20  1  0.53868000  0.83406000  0.60424000  1.0
  H  H21  1  0.62727000  0.83406000  0.89575000  1.0
  H  H22  1  0.07158000  0.80848000  0.55515000  1.0
  H  H23  1  0.11996000  0.80847000  0.94485000  1.0
  H  H24  1  0.92843000  0.19154000  0.44485000  1.0
  H  H25  1  0.88005000  0.19153000  0.05516000  1.0
  H  H26  1  0.59636000  0.48595000  0.64855000  1.0
  H  H27  1  0.91768000  0.48596000  0.85147000  1.0
  H  H28  1  0.40364000  0.51404000  0.35146000  1.0
  H  H29  1  0.08232000  0.51403000  0.14855000  1.0
  C  C30  1  0.55424000  0.15602000  0.65118000  1.0
  C  C31  1  0.28975000  0.15602000  0.84882000  1.0
  C  C32  1  0.44575000  0.84398000  0.34881000  1.0
  C  C33  1  0.71024000  0.84398000  0.15118000  1.0
  C  C34  1  0.63153000  0.06954000  0.49915000  1.0
  C  C35  1  0.29895000  0.06953000  0.00085000  1.0
  C  C36  1  0.36848000  0.93046000  0.50085000  1.0
  C  C37  1  0.70105000  0.93047000  0.99914000  1.0
  C  C38  1  0.66676000  0.06044000  0.59173000  1.0
  C  C39  1  0.27281000  0.06044000  0.90827000  1.0
  C  C40  1  0.33323000  0.93956000  0.40827000  1.0
  C  C41  1  0.72719000  0.93957000  0.09173000  1.0
  C  C42  1  0.44327000  0.54971000  0.53316000  1.0
  C  C43  1  0.00703000  0.54970000  0.96685000  1.0
  C  C44  1  0.55673000  0.45030000  0.46684000  1.0
  C  C45  1  0.99298000  0.45028000  0.03317000  1.0
  C  C46  1  0.40977000  0.25387000  0.61965000  1.0
  C  C47  1  0.33638000  0.25386000  0.88035000  1.0
  C  C48  1  0.59023000  0.74614000  0.38034000  1.0
  C  C49  1  0.66362000  0.74614000  0.11964000  1.0
  C  C50  1  0.37405000  0.65159000  0.68408000  1.0
  C  C51  1  0.97436000  0.65159000  0.81593000  1.0
  C  C52  1  0.62594000  0.34841000  0.31593000  1.0
  C  C53  1  0.02564000  0.34840000  0.18408000  1.0
  C  C54  1  0.29210000  0.64384000  0.50891000  1.0
  C  C55  1  0.06406000  0.64384000  0.99109000  1.0
  C  C56  1  0.70790000  0.35616000  0.49109000  1.0
  C  C57  1  0.93595000  0.35615000  0.00892000  1.0
  C  C58  1  0.37416000  0.25689000  0.52740000  1.0
  C  C59  1  0.36897000  0.25689000  0.97259000  1.0
  C  C60  1  0.62585000  0.74311000  0.47259000  1.0
  C  C61  1  0.63105000  0.74310000  0.02739000  1.0
  C  C62  1  0.48583000  0.16507000  0.46745000  1.0
  C  C63  1  0.34911000  0.16507000  0.03254000  1.0
  C  C64  1  0.51417000  0.83493000  0.53254000  1.0
  C  C65  1  0.65091000  0.83493000  0.96745000  1.0
  C  C66  1  0.18911000  0.73566000  0.57318000  1.0
  C  C67  1  0.07524000  0.73566000  0.92683000  1.0
  C  C68  1  0.81089000  0.26435000  0.42683000  1.0
  C  C69  1  0.92477000  0.26433000  0.07318000  1.0
  C  C70  1  0.48195000  0.55554000  0.62373000  1.0
  C  C71  1  0.96252000  0.55554000  0.87628000  1.0
  C  C72  1  0.51805000  0.44446000  0.37628000  1.0
  C  C73  1  0.03749000  0.44445000  0.12373000  1.0
  C  C74  1  0.81135000  0.94679000  0.63546000  1.0
  C  C75  1  0.24187000  0.94678000  0.86454000  1.0
  C  C76  1  0.18864000  0.05322000  0.36454000  1.0
  C  C77  1  0.75812000  0.05322000  0.13546000  1.0
  S  S78  1  0.26114000  0.37830000  0.69027000  1.0
  S  S79  1  0.36056000  0.37831000  0.80972000  1.0
  S  S80  1  0.73886000  0.62170000  0.30971000  1.0
  S  S81  1  0.63943000  0.62170000  0.19027000  1.0
  N  N82  1  0.22892000  0.74053000  0.65951000  1.0
  N  N83  1  0.03056000  0.74053000  0.84050000  1.0
  N  N84  1  0.77108000  0.25947000  0.34050000  1.0
  N  N85  1  0.96945000  0.25947000  0.15951000  1.0
  N  N86  1  0.74619000  0.97982000  0.43261000  1.0
  N  N87  1  0.27400000  0.97982000  0.06739000  1.0
  N  N88  1  0.25381000  0.02018000  0.56739000  1.0
  N  N89  1  0.72600000  0.02019000  0.93261000  1.0
  O  O90  1  0.83340000  0.81940000  0.63942000  1.0
  O  O91  1  0.34720000  0.81940000  0.86058000  1.0
  O  O92  1  0.16658000  0.18060000  0.36059000  1.0
  O  O93  1  0.65279000  0.18061000  0.13942000  1.0
  O  O94  1  0.88056000  0.90798000  0.45748000  1.0
  O  O95  1  0.21147000  0.90798000  0.04252000  1.0
  O  O96  1  0.11944000  0.09202000  0.54252000  1.0
  O  O97  1  0.78852000  0.09203000  0.95748000  1.0
  O  O98  1  0.70427000  0.98083000  0.35326000  1.0
  O  O99  1  0.31490000  0.98084000  0.14674000  1.0
  O  O100  1  0.29573000  0.01917000  0.64673000  1.0
  O  O101  1  0.68511000  0.01917000  0.85326000  1.0
  O  O102  1  0.89303000  0.99844000  0.67109000  1.0
  O  O103  1  0.10853000  0.99843000  0.82891000  1.0
  O  O104  1  0.10697000  0.00156000  0.32891000  1.0
  O  O105  1  0.89146000  0.00158000  0.17109000  1.0
