# generated using pymatgen
data_CuH9C5SNO6
_symmetry_space_group_name_H-M   'P 1'
_cell_length_a   4.98859000
_cell_length_b   7.76684498
_cell_length_c   11.07930000
_cell_angle_alpha   89.99953706
_cell_angle_beta   89.99980000
_cell_angle_gamma   82.41984356
_symmetry_Int_Tables_number   1
_chemical_formula_structural   CuH9C5SNO6
_chemical_formula_sum   'Cu2 H18 C10 S2 N2 O12'
_cell_volume   425.52287940
_cell_formula_units_Z   2
loop_
 _symmetry_equiv_pos_site_id
 _symmetry_equiv_pos_as_xyz
  1  'x, y, z'
loop_
 _atom_site_type_symbol
 _atom_site_label
 _atom_site_symmetry_multiplicity
 _atom_site_fract_x
 _atom_site_fract_y
 _atom_site_fract_z
 _atom_site_occupancy
  Cu  Cu0  1  0.59614000  0.90569000  0.23971000  1.0
  Cu  Cu1  1  0.40388000  0.09431000  0.73971000  1.0
  H  H2  1  0.04905000  0.75037000  0.18235000  1.0
  H  H3  1  0.95098000  0.24962000  0.68236000  1.0
  H  H4  1  0.08461000  0.87419000  0.00598000  1.0
  H  H5  1  0.91540000  0.12580000  0.50599000  1.0
  H  H6  1  0.16578000  0.56928000  0.94532000  1.0
  H  H7  1  0.83419000  0.43073000  0.44532000  1.0
  H  H8  1  0.91208000  0.65944000  0.83851000  1.0
  H  H9  1  0.08792000  0.34056000  0.33851000  1.0
  H  H10  1  0.97199000  0.48315000  0.17950000  1.0
  H  H11  1  0.02800000  0.51685000  0.67950000  1.0
  H  H12  1  0.70312000  0.22135000  0.23077000  1.0
  H  H13  1  0.29690000  0.77864000  0.73076000  1.0
  H  H14  1  0.97844000  0.09357000  0.27194000  1.0
  H  H15  1  0.02159000  0.90643000  0.77192000  1.0
  H  H16  1  0.01495000  0.73185000  0.43784000  1.0
  H  H17  1  0.98501000  0.26814000  0.93785000  1.0
  H  H18  1  0.74393000  0.85984000  0.46734000  1.0
  H  H19  1  0.25604000  0.14015000  0.96733000  1.0
  C  C20  1  0.90858000  0.80244000  0.00876000  1.0
  C  C21  1  0.09143000  0.19756000  0.50877000  1.0
  C  C22  1  0.66506000  0.92277000  0.95774000  1.0
  C  C23  1  0.33496000  0.07723000  0.45774000  1.0
  C  C24  1  0.95954000  0.63629000  0.93383000  1.0
  C  C25  1  0.04045000  0.36371000  0.43383000  1.0
  C  C26  1  0.79854000  0.57025000  0.14376000  1.0
  C  C27  1  0.20146000  0.42976000  0.64376000  1.0
  C  C28  1  0.54351000  0.55698000  0.21596000  1.0
  C  C29  1  0.45648000  0.44303000  0.71597000  1.0
  S  S30  1  0.71570000  0.50495000  0.99168000  1.0
  S  S31  1  0.28429000  0.49506000  0.49167000  1.0
  N  N32  1  0.86933000  0.74979000  0.13578000  1.0
  N  N33  1  0.13067000  0.25021000  0.63577000  1.0
  O  O34  1  0.68806000  0.95865000  0.84468000  1.0
  O  O35  1  0.31196000  0.04136000  0.34468000  1.0
  O  O36  1  0.39635000  0.70036000  0.24476000  1.0
  O  O37  1  0.60364000  0.29966000  0.74477000  1.0
  O  O38  1  0.81409000  0.10466000  0.22047000  1.0
  O  O39  1  0.18593000  0.89534000  0.72045000  1.0
  O  O40  1  0.47051000  0.97582000  0.02563000  1.0
  O  O41  1  0.52948000  0.02417000  0.52563000  1.0
  O  O42  1  0.48087000  0.40878000  0.23685000  1.0
  O  O43  1  0.51911000  0.59124000  0.73685000  1.0
  O  O44  1  0.83713000  0.78028000  0.40596000  1.0
  O  O45  1  0.16285000  0.21971000  0.90596000  1.0
