# generated using pymatgen
data_ZnH10C13N2O7
_symmetry_space_group_name_H-M   'P 1'
_cell_length_a   8.02403000
_cell_length_b   9.21059000
_cell_length_c   10.32660000
_cell_angle_alpha   74.46610000
_cell_angle_beta   88.76940000
_cell_angle_gamma   76.76320000
_symmetry_Int_Tables_number   1
_chemical_formula_structural   ZnH10C13N2O7
_chemical_formula_sum   'Zn2 H20 C26 N4 O14'
_cell_volume   715.13801265
_cell_formula_units_Z   2
loop_
 _symmetry_equiv_pos_site_id
 _symmetry_equiv_pos_as_xyz
  1  'x, y, z'
loop_
 _atom_site_type_symbol
 _atom_site_label
 _atom_site_symmetry_multiplicity
 _atom_site_fract_x
 _atom_site_fract_y
 _atom_site_fract_z
 _atom_site_occupancy
  Zn  Zn0  1  0.51147000  0.77379000  0.61686000  1.0
  Zn  Zn1  1  0.48854000  0.22620000  0.38314000  1.0
  H  H2  1  0.49923000  0.55177000  0.80478000  1.0
  H  H3  1  0.50078000  0.44822000  0.19523000  1.0
  H  H4  1  0.48730000  0.46990000  0.68067000  1.0
  H  H5  1  0.51270000  0.53010000  0.31933000  1.0
  H  H6  1  0.52861000  0.71059000  0.13533000  1.0
  H  H7  1  0.47139000  0.28940000  0.86466000  1.0
  H  H8  1  0.19172000  0.06996000  0.84054000  1.0
  H  H9  1  0.80826000  0.93002000  0.15946000  1.0
  H  H10  1  0.17210000  0.07339000  0.25745000  1.0
  H  H11  1  0.82791000  0.92662000  0.74255000  1.0
  H  H12  1  0.81826000  0.55254000  0.76961000  1.0
  H  H13  1  0.18176000  0.44745000  0.23039000  1.0
  H  H14  1  0.12725000  0.46817000  0.72640000  1.0
  H  H15  1  0.87277000  0.53184000  0.27359000  1.0
  H  H16  1  0.24319000  0.60782000  0.51388000  1.0
  H  H17  1  0.75680000  0.39222000  0.48612000  1.0
  H  H18  1  0.04289000  0.83405000  0.35496000  1.0
  H  H19  1  0.95709000  0.16597000  0.64505000  1.0
  H  H20  1  0.73787000  0.90587000  0.41255000  1.0
  H  H21  1  0.26212000  0.09413000  0.58745000  1.0
  C  C22  1  0.42262000  0.80765000  0.35603000  1.0
  C  C23  1  0.57738000  0.19234000  0.64397000  1.0
  C  C24  1  0.35677000  0.88255000  0.21342000  1.0
  C  C25  1  0.64323000  0.11743000  0.78658000  1.0
  C  C26  1  0.42589000  0.81504000  0.11198000  1.0
  C  C27  1  0.57410000  0.18495000  0.88801000  1.0
  C  C28  1  0.36845000  0.88145000  0.97786000  1.0
  C  C29  1  0.63153000  0.11854000  0.02215000  1.0
  C  C30  1  0.44796000  0.80493000  0.87260000  1.0
  C  C31  1  0.55203000  0.19506000  0.12739000  1.0
  C  C32  1  0.23855000  0.01661000  0.94424000  1.0
  C  C33  1  0.76143000  0.98338000  0.05577000  1.0
  C  C34  1  0.16879000  0.08128000  0.04651000  1.0
  C  C35  1  0.83120000  0.91872000  0.95349000  1.0
  C  C36  1  0.22679000  0.01818000  0.18049000  1.0
  C  C37  1  0.77321000  0.98182000  0.81951000  1.0
  C  C38  1  0.87319000  0.61112000  0.67864000  1.0
  C  C39  1  0.12682000  0.38888000  0.32136000  1.0
  C  C40  1  0.04551000  0.56484000  0.65379000  1.0
  C  C41  1  0.95451000  0.43517000  0.34620000  1.0
  C  C42  1  0.10941000  0.64380000  0.53622000  1.0
  C  C43  1  0.89060000  0.35622000  0.46378000  1.0
  C  C44  1  0.99888000  0.76883000  0.44808000  1.0
  C  C45  1  0.00112000  0.23119000  0.55192000  1.0
  C  C46  1  0.82829000  0.80927000  0.47894000  1.0
  C  C47  1  0.17170000  0.19073000  0.52107000  1.0
  N  N48  1  0.02730000  0.22059000  0.01144000  1.0
  N  N49  1  0.97271000  0.77942000  0.98856000  1.0
  N  N50  1  0.76629000  0.73068000  0.59211000  1.0
  N  N51  1  0.23371000  0.26932000  0.40790000  1.0
  O  O52  1  0.39099000  0.89105000  0.43992000  1.0
  O  O53  1  0.60900000  0.10894000  0.56009000  1.0
  O  O54  1  0.40196000  0.88196000  0.74914000  1.0
  O  O55  1  0.59804000  0.11804000  0.25085000  1.0
  O  O56  1  0.50488000  0.66799000  0.38941000  1.0
  O  O57  1  0.49515000  0.33201000  0.61059000  1.0
  O  O58  1  0.55172000  0.67563000  0.90923000  1.0
  O  O59  1  0.44827000  0.32436000  0.09076000  1.0
  O  O60  1  0.45849000  0.56741000  0.71148000  1.0
  O  O61  1  0.54151000  0.43259000  0.28852000  1.0
  O  O62  1  0.96007000  0.27210000  0.10395000  1.0
  O  O63  1  0.03998000  0.72793000  0.89605000  1.0
  O  O64  1  0.98172000  0.27701000  0.89050000  1.0
  O  O65  1  0.01827000  0.72299000  0.10951000  1.0
