# generated using pymatgen
data_CaH4C7(NO4)2
_symmetry_space_group_name_H-M   'P 1'
_cell_length_a   6.71844000
_cell_length_b   12.44060000
_cell_length_c   12.47390000
_cell_angle_alpha   68.42100000
_cell_angle_beta   89.99990000
_cell_angle_gamma   89.99960000
_symmetry_Int_Tables_number   1
_chemical_formula_structural   CaH4C7(NO4)2
_chemical_formula_sum   'Ca4 H16 C28 N8 O32'
_cell_volume   969.51286255
_cell_formula_units_Z   4
loop_
 _symmetry_equiv_pos_site_id
 _symmetry_equiv_pos_as_xyz
  1  'x, y, z'
loop_
 _atom_site_type_symbol
 _atom_site_label
 _atom_site_symmetry_multiplicity
 _atom_site_fract_x
 _atom_site_fract_y
 _atom_site_fract_z
 _atom_site_occupancy
  Ca  Ca0  1  0.00897000  0.15453000  0.48727000  1.0
  Ca  Ca1  1  0.50896000  0.34547000  0.51273000  1.0
  Ca  Ca2  1  0.99103000  0.84547000  0.51273000  1.0
  Ca  Ca3  1  0.49103000  0.65453000  0.48726000  1.0
  H  H4  1  0.32722000  0.81524000  0.80833000  1.0
  H  H5  1  0.82722000  0.68476000  0.19167000  1.0
  H  H6  1  0.67277000  0.18476000  0.19168000  1.0
  H  H7  1  0.17277000  0.31524000  0.80833000  1.0
  H  H8  1  0.78669000  0.96463000  0.95281000  1.0
  H  H9  1  0.28670000  0.53536000  0.04719000  1.0
  H  H10  1  0.21331000  0.03537000  0.04719000  1.0
  H  H11  1  0.71331000  0.46464000  0.95280000  1.0
  H  H12  1  0.84042000  0.35344000  0.31032000  1.0
  H  H13  1  0.34042000  0.14655000  0.68968000  1.0
  H  H14  1  0.15958000  0.64655000  0.68968000  1.0
  H  H15  1  0.65958000  0.85345000  0.31032000  1.0
  H  H16  1  0.01244000  0.32794000  0.23638000  1.0
  H  H17  1  0.51244000  0.17206000  0.76362000  1.0
  H  H18  1  0.98757000  0.67206000  0.76362000  1.0
  H  H19  1  0.48756000  0.82794000  0.23638000  1.0
  C  C20  1  0.77299000  0.94668000  0.68592000  1.0
  C  C21  1  0.27298000  0.55332000  0.31408000  1.0
  C  C22  1  0.22701000  0.05332000  0.31408000  1.0
  C  C23  1  0.72702000  0.44668000  0.68592000  1.0
  C  C24  1  0.58591000  0.88507000  0.70140000  1.0
  C  C25  1  0.08591000  0.61493000  0.29861000  1.0
  C  C26  1  0.41409000  0.11493000  0.29861000  1.0
  C  C27  1  0.91410000  0.38507000  0.70139000  1.0
  C  C28  1  0.46671000  0.86227000  0.79889000  1.0
  C  C29  1  0.96671000  0.63773000  0.20111000  1.0
  C  C30  1  0.53329000  0.13773000  0.20111000  1.0
  C  C31  1  0.03329000  0.36227000  0.79889000  1.0
  C  C32  1  0.54216000  0.89138000  0.88756000  1.0
  C  C33  1  0.04216000  0.60862000  0.11245000  1.0
  C  C34  1  0.45784000  0.10862000  0.11245000  1.0
  C  C35  1  0.95784000  0.39138000  0.88755000  1.0
  C  C36  1  0.72698000  0.94707000  0.87954000  1.0
  C  C37  1  0.22697000  0.55293000  0.12047000  1.0
  C  C38  1  0.27302000  0.05293000  0.12046000  1.0
  C  C39  1  0.77303000  0.44708000  0.87954000  1.0
  C  C40  1  0.83771000  0.98011000  0.77881000  1.0
  C  C41  1  0.33770000  0.51989000  0.22119000  1.0
  C  C42  1  0.16229000  0.01989000  0.22119000  1.0
  C  C43  1  0.66231000  0.48012000  0.77881000  1.0
  C  C44  1  0.02699000  0.04958000  0.77392000  1.0
  C  C45  1  0.52700000  0.45043000  0.22608000  1.0
  C  C46  1  0.97300000  0.95042000  0.22608000  1.0
  C  C47  1  0.47300000  0.54958000  0.77392000  1.0
  N  N48  1  0.42995000  0.85602000  0.99455000  1.0
  N  N49  1  0.92994000  0.64399000  0.00545000  1.0
  N  N50  1  0.57005000  0.14398000  0.00545000  1.0
  N  N51  1  0.07005000  0.35602000  0.99455000  1.0
  N  N52  1  0.51323000  0.84891000  0.61345000  1.0
  N  N53  1  0.01323000  0.65109000  0.38655000  1.0
  N  N54  1  0.48676000  0.15109000  0.38655000  1.0
  N  N55  1  0.98677000  0.34891000  0.61344000  1.0
  O  O56  1  0.86946000  0.97259000  0.59002000  1.0
  O  O57  1  0.36946000  0.52740000  0.40999000  1.0
  O  O58  1  0.13053000  0.02741000  0.40999000  1.0
  O  O59  1  0.63054000  0.47260000  0.59000000  1.0
  O  O60  1  0.11179000  0.09928000  0.67323000  1.0
  O  O61  1  0.61178000  0.40072000  0.32678000  1.0
  O  O62  1  0.88820000  0.90072000  0.32677000  1.0
  O  O63  1  0.38821000  0.59928000  0.67322000  1.0
  O  O64  1  0.08870000  0.05775000  0.86401000  1.0
  O  O65  1  0.58870000  0.44226000  0.13599000  1.0
  O  O66  1  0.91130000  0.94225000  0.13599000  1.0
  O  O67  1  0.41130000  0.55775000  0.86401000  1.0
  O  O68  1  0.26061000  0.81643000  0.99699000  1.0
  O  O69  1  0.76061000  0.68357000  0.00301000  1.0
  O  O70  1  0.73939000  0.18357000  0.00302000  1.0
  O  O71  1  0.23939000  0.31642000  0.99699000  1.0
  O  O72  1  0.51359000  0.86780000  0.07912000  1.0
  O  O73  1  0.01359000  0.63220000  0.92088000  1.0
  O  O74  1  0.48641000  0.13220000  0.92089000  1.0
  O  O75  1  0.98641000  0.36781000  0.07911000  1.0
  O  O76  1  0.33060000  0.84931000  0.59591000  1.0
  O  O77  1  0.83060000  0.65069000  0.40409000  1.0
  O  O78  1  0.66940000  0.15069000  0.40409000  1.0
  O  O79  1  0.16940000  0.34930000  0.59592000  1.0
  O  O80  1  0.63332000  0.81326000  0.55481000  1.0
  O  O81  1  0.13332000  0.68674000  0.44518000  1.0
  O  O82  1  0.36667000  0.18674000  0.44519000  1.0
  O  O83  1  0.86668000  0.31326000  0.55481000  1.0
  O  O84  1  0.97709000  0.31764000  0.31604000  1.0
  O  O85  1  0.47709000  0.18235000  0.68396000  1.0
  O  O86  1  0.02291000  0.68236000  0.68396000  1.0
  O  O87  1  0.52291000  0.81765000  0.31604000  1.0
