# generated using pymatgen
data_BaCuH8(C5O4)2
_symmetry_space_group_name_H-M   'P 1'
_cell_length_a   8.95677000
_cell_length_b   9.33708000
_cell_length_c   9.33705000
_cell_angle_alpha   64.87450000
_cell_angle_beta   62.56190000
_cell_angle_gamma   62.56190000
_symmetry_Int_Tables_number   1
_chemical_formula_structural   BaCuH8(C5O4)2
_chemical_formula_sum   'Ba2 Cu2 H16 C20 O16'
_cell_volume   592.30417881
_cell_formula_units_Z   2
loop_
 _symmetry_equiv_pos_site_id
 _symmetry_equiv_pos_as_xyz
  1  'x, y, z'
loop_
 _atom_site_type_symbol
 _atom_site_label
 _atom_site_symmetry_multiplicity
 _atom_site_fract_x
 _atom_site_fract_y
 _atom_site_fract_z
 _atom_site_occupancy
  Ba  Ba0  1  0.25000000  0.03460000  0.96541000  1.0
  Ba  Ba1  1  0.75000000  0.96541000  0.03459000  1.0
  Cu  Cu2  1  0.50000000  0.00000000  0.50000000  1.0
  Cu  Cu3  1  0.00000000  0.50000000  0.00000000  1.0
  H  H4  1  0.35469000  0.55937000  0.49332000  1.0
  H  H5  1  0.14532000  0.50667000  0.44063000  1.0
  H  H6  1  0.64532000  0.44062000  0.50668000  1.0
  H  H7  1  0.85469000  0.49333000  0.55937000  1.0
  H  H8  1  0.22194000  0.57559000  0.70922000  1.0
  H  H9  1  0.27807000  0.29078000  0.42441000  1.0
  H  H10  1  0.77806000  0.42441000  0.29078000  1.0
  H  H11  1  0.72194000  0.70922000  0.57558000  1.0
  H  H12  1  0.97473000  0.81308000  0.60830000  1.0
  H  H13  1  0.52527000  0.39170000  0.18692000  1.0
  H  H14  1  0.02527000  0.18692000  0.39170000  1.0
  H  H15  1  0.47473000  0.60830000  0.81308000  1.0
  H  H16  1  0.10872000  0.79692000  0.39021000  1.0
  H  H17  1  0.39128000  0.60978000  0.20308000  1.0
  H  H18  1  0.89128000  0.20308000  0.60978000  1.0
  H  H19  1  0.60872000  0.39022000  0.79692000  1.0
  C  C20  1  0.24676000  0.81926000  0.52184000  1.0
  C  C21  1  0.25324000  0.47816000  0.18074000  1.0
  C  C22  1  0.75324000  0.18074000  0.47816000  1.0
  C  C23  1  0.74676000  0.52185000  0.81926000  1.0
  C  C24  1  0.19077000  0.88707000  0.66567000  1.0
  C  C25  1  0.30923000  0.33433000  0.11293000  1.0
  C  C26  1  0.80923000  0.11293000  0.33433000  1.0
  C  C27  1  0.69077000  0.66568000  0.88707000  1.0
  C  C28  1  0.24986000  0.63734000  0.57572000  1.0
  C  C29  1  0.25014000  0.42428000  0.36266000  1.0
  C  C30  1  0.75014000  0.36266000  0.42428000  1.0
  C  C31  1  0.74986000  0.57572000  0.63733000  1.0
  C  C32  1  0.10513000  0.77751000  0.51514000  1.0
  C  C33  1  0.39487000  0.48486000  0.22249000  1.0
  C  C34  1  0.89487000  0.22249000  0.48486000  1.0
  C  C35  1  0.60513000  0.51514000  0.77751000  1.0
  C  C36  1  0.39245000  0.85674000  0.36106000  1.0
  C  C37  1  0.10755000  0.63894000  0.14327000  1.0
  C  C38  1  0.60755000  0.14326000  0.63894000  1.0
  C  C39  1  0.89245000  0.36106000  0.85673000  1.0
  O  O40  1  0.27666000  0.96998000  0.66136000  1.0
  O  O41  1  0.22334000  0.33864000  0.03002000  1.0
  O  O42  1  0.72334000  0.03002000  0.33864000  1.0
  O  O43  1  0.77666000  0.66136000  0.96998000  1.0
  O  O44  1  0.52598000  0.87256000  0.36708000  1.0
  O  O45  1  0.97402000  0.63291000  0.12744000  1.0
  O  O46  1  0.47402000  0.12744000  0.63292000  1.0
  O  O47  1  0.02598000  0.36709000  0.87256000  1.0
  O  O48  1  0.05832000  0.86167000  0.78986000  1.0
  O  O49  1  0.44168000  0.21014000  0.13833000  1.0
  O  O50  1  0.94168000  0.13833000  0.21014000  1.0
  O  O51  1  0.55832000  0.78986000  0.86167000  1.0
  O  O52  1  0.39199000  0.86188000  0.22465000  1.0
  O  O53  1  0.10801000  0.77535000  0.13812000  1.0
  O  O54  1  0.60801000  0.13812000  0.77535000  1.0
  O  O55  1  0.89199000  0.22466000  0.86188000  1.0
