# generated using pymatgen
data_Zn2H6C14SBrO7
_symmetry_space_group_name_H-M   'P 1'
_cell_length_a   18.58560000
_cell_length_b   19.69470000
_cell_length_c   32.74510000
_cell_angle_alpha   86.10110000
_cell_angle_beta   73.62610000
_cell_angle_gamma   62.04810000
_symmetry_Int_Tables_number   1
_chemical_formula_structural   Zn2H6C14SBrO7
_chemical_formula_sum   'Zn16 H48 C112 S8 Br8 O56'
_cell_volume   10129.13815500
_cell_formula_units_Z   8
loop_
 _symmetry_equiv_pos_site_id
 _symmetry_equiv_pos_as_xyz
  1  'x, y, z'
loop_
 _atom_site_type_symbol
 _atom_site_label
 _atom_site_symmetry_multiplicity
 _atom_site_fract_x
 _atom_site_fract_y
 _atom_site_fract_z
 _atom_site_occupancy
  Zn  Zn0  1  0.87291000  0.55437000  0.51837000  1.0
  Zn  Zn1  1  0.03858000  0.48357000  0.43825000  1.0
  Zn  Zn2  1  0.04351000  0.39923000  0.52394000  1.0
  Zn  Zn3  1  0.04439000  0.56217000  0.51763000  1.0
  Zn  Zn4  1  0.62527000  0.19187000  0.73286000  1.0
  Zn  Zn5  1  0.46403000  0.35044000  0.72512000  1.0
  Zn  Zn6  1  0.45611000  0.26575000  0.81231000  1.0
  Zn  Zn7  1  0.45358000  0.19338000  0.72843000  1.0
  Zn  Zn8  1  0.46254000  0.76332000  0.31273000  1.0
  Zn  Zn9  1  0.45358000  0.69058000  0.23193000  1.0
  Zn  Zn10  1  0.62507000  0.69488000  0.22947000  1.0
  Zn  Zn11  1  0.45680000  0.85085000  0.22561000  1.0
  Zn  Zn12  1  0.03672000  0.89970000  0.02447000  1.0
  Zn  Zn13  1  0.05005000  0.05729000  0.01881000  1.0
  Zn  Zn14  1  0.87628000  0.05780000  0.01950000  1.0
  Zn  Zn15  1  0.03703000  0.98642000  0.93719000  1.0
  H  H16  1  0.80550000  0.96384000  0.65495000  1.0
  H  H17  1  0.31295000  0.97419000  0.40141000  1.0
  H  H18  1  0.81140000  0.24206000  0.65457000  1.0
  H  H19  1  0.54780000  0.48388000  0.61908000  1.0
  H  H20  1  0.55254000  0.52506000  0.66437000  1.0
  H  H21  1  0.65415000  0.56770000  0.61601000  1.0
  H  H22  1  0.64970000  0.52616000  0.57078000  1.0
  H  H23  1  0.29293000  0.60467000  0.29606000  1.0
  H  H24  1  0.34870000  0.67234000  0.43602000  1.0
  H  H25  1  0.25858000  0.76120000  0.43369000  1.0
  H  H26  1  0.16135000  0.71085000  0.47826000  1.0
  H  H27  1  0.25119000  0.62237000  0.48095000  1.0
  H  H28  1  0.80907000  0.60240000  0.29470000  1.0
  H  H29  1  0.54884000  0.76142000  0.43086000  1.0
  H  H30  1  0.54355000  0.67313000  0.43287000  1.0
  H  H31  1  0.64371000  0.62236000  0.47900000  1.0
  H  H32  1  0.64957000  0.71023000  0.47668000  1.0
  H  H33  1  0.30999000  0.45626000  0.64598000  1.0
  H  H34  1  0.32671000  0.18069000  0.62882000  1.0
  H  H35  1  0.23636000  0.22217000  0.67428000  1.0
  H  H36  1  0.14090000  0.27676000  0.62570000  1.0
  H  H37  1  0.23137000  0.23538000  0.58038000  1.0
  H  H38  1  0.18742000  0.66001000  0.96263000  1.0
  H  H39  1  0.69059000  0.14729000  0.95596000  1.0
  H  H40  1  0.95214000  0.07962000  0.81599000  1.0
  H  H41  1  0.94836000  0.99082000  0.81825000  1.0
  H  H42  1  0.84531000  0.04141000  0.77350000  1.0
  H  H43  1  0.84929000  0.13018000  0.77147000  1.0
  H  H44  1  0.19117000  0.05291000  0.84491000  1.0
  H  H45  1  0.17279000  0.21619000  0.97501000  1.0
  H  H46  1  0.26378000  0.12772000  0.97692000  1.0
  H  H47  1  0.35828000  0.17419000  0.92542000  1.0
  H  H48  1  0.26745000  0.26222000  0.92352000  1.0
  H  H49  1  0.92721000  0.28386000  0.09401000  1.0
  H  H50  1  0.19188000  0.79446000  0.10294000  1.0
  H  H51  1  0.26326000  0.03008000  0.07514000  1.0
  H  H52  1  0.17234000  0.07151000  0.12043000  1.0
  H  H53  1  0.26691000  0.01741000  0.16922000  1.0
  H  H54  1  0.35778000  0.97623000  0.12410000  1.0
  H  H55  1  0.69128000  0.00656000  0.09571000  1.0
  H  H56  1  0.94921000  0.72230000  0.08592000  1.0
  H  H57  1  0.95311000  0.76325000  0.13153000  1.0
  H  H58  1  0.85069000  0.72121000  0.17912000  1.0
  H  H59  1  0.84628000  0.68045000  0.13355000  1.0
  H  H60  1  0.61999000  0.82254000  0.60783000  1.0
  H  H61  1  0.21320000  0.26065000  0.31333000  1.0
  H  H62  1  0.28594000  0.65191000  0.77519000  1.0
  H  H63  1  0.55388000  0.43024000  0.14355000  1.0
  C  C64  1  0.86305000  0.56719000  0.43003000  1.0
  C  C65  1  0.12454000  0.31460000  0.43938000  1.0
  C  C66  1  0.86755000  0.42604000  0.56878000  1.0
  C  C67  1  0.13903000  0.43705000  0.56794000  1.0
  C  C68  1  0.87143000  0.68438000  0.56021000  1.0
  C  C69  1  0.13756000  0.56846000  0.43035000  1.0
  C  C70  1  0.63987000  0.31763000  0.68147000  1.0
  C  C71  1  0.37620000  0.43493000  0.81031000  1.0
  C  C72  1  0.63229000  0.18206000  0.82148000  1.0
  C  C73  1  0.36096000  0.18022000  0.81642000  1.0
  C  C74  1  0.62583000  0.06611000  0.68845000  1.0
  C  C75  1  0.36269000  0.31893000  0.68020000  1.0
  C  C76  1  0.36232000  0.68177000  0.32071000  1.0
  C  C77  1  0.62434000  0.56641000  0.18875000  1.0
  C  C78  1  0.63785000  0.68252000  0.31855000  1.0
  C  C79  1  0.63307000  0.82262000  0.18027000  1.0
  C  C80  1  0.37527000  0.93323000  0.31139000  1.0
  C  C81  1  0.36064000  0.81587000  0.18138000  1.0
  C  C82  1  0.13848000  0.93163000  0.06858000  1.0
  C  C83  1  0.87941000  0.18406000  0.06135000  1.0
  C  C84  1  0.86242000  0.93054000  0.06922000  1.0
  C  C85  1  0.86203000  0.06898000  0.93096000  1.0
  C  C86  1  0.12165000  0.81639000  0.93886000  1.0
  C  C87  1  0.13859000  0.06879000  0.93083000  1.0
  C  C88  1  0.73379000  0.80327000  0.60089000  1.0
  C  C89  1  0.76164000  0.94629000  0.64907000  1.0
  C  C90  1  0.82173000  0.75847000  0.58557000  1.0
  C  C91  1  0.67446000  0.99090000  0.66376000  1.0
  C  C92  1  0.78360000  0.87796000  0.62605000  1.0
  C  C93  1  0.71222000  0.87183000  0.62394000  1.0
  C  C94  1  0.20182000  0.22681000  0.36987000  1.0
  C  C95  1  0.29948000  0.02106000  0.38037000  1.0
  C  C96  1  0.17414000  0.24051000  0.41426000  1.0
  C  C97  1  0.32624000  0.00799000  0.33641000  1.0
  C  C98  1  0.25411000  0.10074000  0.39281000  1.0
  C  C99  1  0.24750000  0.14663000  0.35779000  1.0
  C  C100  1  0.69753000  0.34514000  0.65306000  1.0
  C  C101  1  0.81342000  0.39494000  0.59745000  1.0
  C  C102  1  0.66857000  0.41666000  0.63592000  1.0
  C  C103  1  0.84232000  0.32195000  0.61503000  1.0
  C  C104  1  0.72494000  0.43991000  0.60930000  1.0
  C  C105  1  0.78620000  0.29841000  0.64186000  1.0
  C  C106  1  0.59059000  0.49064000  0.63379000  1.0
  C  C107  1  0.65420000  0.51723000  0.60362000  1.0
  C  C108  1  0.30510000  0.65371000  0.34882000  1.0
  C  C109  1  0.19388000  0.59630000  0.40091000  1.0
  C  C110  1  0.27904000  0.66438000  0.39321000  1.0
  C  C111  1  0.22059000  0.58595000  0.35557000  1.0
  C  C112  1  0.22542000  0.63653000  0.41788000  1.0
  C  C113  1  0.27420000  0.61380000  0.33067000  1.0
  C  C114  1  0.28487000  0.69819000  0.43162000  1.0
  C  C115  1  0.22402000  0.66666667  0.45966000  1.0
  C  C116  1  0.69476000  0.65317000  0.34680000  1.0
  C  C117  1  0.80919000  0.59459000  0.40009000  1.0
  C  C118  1  0.66501000  0.66380000  0.39117000  1.0
  C  C119  1  0.83894000  0.58390000  0.35473000  1.0
  C  C120  1  0.72068000  0.63525000  0.41643000  1.0
  C  C121  1  0.78337000  0.61220000  0.32926000  1.0
  C  C122  1  0.58652000  0.69837000  0.42903000  1.0
  C  C123  1  0.64941000  0.66633000  0.45779000  1.0
  C  C124  1  0.30576000  0.34872000  0.65195000  1.0
  C  C125  1  0.19603000  0.41062000  0.59635000  1.0
  C  C126  1  0.27142000  0.30732000  0.63900000  1.0
  C  C127  1  0.23153000  0.45229000  0.60976000  1.0
  C  C128  1  0.21874000  0.33773000  0.61224000  1.0
  C  C129  1  0.28432000  0.42220000  0.63655000  1.0
  C  C130  1  0.26618000  0.23262000  0.64212000  1.0
  C  C131  1  0.20648000  0.26684000  0.61179000  1.0
  C  C132  1  0.29835000  0.58336000  0.81998000  1.0
  C  C133  1  0.20040000  0.66885000  0.92874000  1.0
  C  C134  1  0.32685000  0.50972000  0.83487000  1.0
  C  C135  1  0.17213000  0.74162000  0.91374000  1.0
  C  C136  1  0.24643000  0.61089000  0.89472000  1.0
  C  C137  1  0.25236000  0.64106000  0.85440000  1.0
  C  C138  1  0.80402000  0.09769000  0.90319000  1.0
  C  C139  1  0.68681000  0.15493000  0.85117000  1.0
  C  C140  1  0.83222000  0.08720000  0.85880000  1.0
  C  C141  1  0.65867000  0.16522000  0.89651000  1.0
  C  C142  1  0.77524000  0.11510000  0.83420000  1.0
  C  C143  1  0.71538000  0.13774000  0.92137000  1.0
  C  C144  1  0.90969000  0.05376000  0.82039000  1.0
  C  C145  1  0.84534000  0.08534000  0.79243000  1.0
  C  C146  1  0.19500000  0.09713000  0.90204000  1.0
  C  C147  1  0.30404000  0.15073000  0.84370000  1.0
  C  C148  1  0.22880000  0.13750000  0.91660000  1.0
  C  C149  1  0.26905000  0.10968000  0.82919000  1.0
  C  C150  1  0.28106000  0.16300000  0.88814000  1.0
  C  C151  1  0.21654000  0.08407000  0.85749000  1.0
  C  C152  1  0.23353000  0.17050000  0.95566000  1.0
  C  C153  1  0.29277000  0.19942000  0.92346000  1.0
  C  C154  1  0.64349000  0.44791000  0.14935000  1.0
  C  C155  1  0.85969000  0.30259000  0.10041000  1.0
  C  C156  1  0.67350000  0.49214000  0.16375000  1.0
  C  C157  1  0.82958000  0.25901000  0.08626000  1.0
  C  C158  1  0.79218000  0.37160000  0.12333000  1.0
  C  C159  1  0.71179000  0.37896000  0.12618000  1.0
  C  C160  1  0.19483000  0.90260000  0.09711000  1.0
  C  C161  1  0.30380000  0.84191000  0.15300000  1.0
  C  C162  1  0.22830000  0.94469000  0.11023000  1.0
  C  C163  1  0.26935000  0.79940000  0.13943000  1.0
  C  C164  1  0.28060000  0.91478000  0.13716000  1.0
  C  C165  1  0.21685000  0.82906000  0.11248000  1.0
  C  C166  1  0.23301000  0.01968000  0.10722000  1.0
  C  C167  1  0.29225000  0.98593000  0.13778000  1.0
  C  C168  1  0.80469000  0.90291000  0.09732000  1.0
  C  C169  1  0.68777000  0.85340000  0.15194000  1.0
  C  C170  1  0.83306000  0.83112000  0.11415000  1.0
  C  C171  1  0.65946000  0.92639000  0.13437000  1.0
  C  C172  1  0.77619000  0.80810000  0.14047000  1.0
  C  C173  1  0.71606000  0.95001000  0.10823000  1.0
  C  C174  1  0.91062000  0.75685000  0.11643000  1.0
  C  C175  1  0.84642000  0.73058000  0.14626000  1.0
  S  S176  1  0.87730000  0.79996000  0.59950000  1.0
  S  S177  1  0.61824000  0.95026000  0.64998000  1.0
  S  S178  1  0.20425000  0.15588000  0.44075000  1.0
  S  S179  1  0.29679000  0.09202000  0.30969000  1.0
  S  S180  1  0.29740000  0.51152000  0.89051000  1.0
  S  S181  1  0.20136000  0.74047000  0.85828000  1.0
  S  S182  1  0.78423000  0.44948000  0.14896000  1.0
  S  S183  1  0.71916000  0.30123000  0.10069000  1.0
  Br  Br184  1  0.95935000  0.24760000  0.60387000  1.0
  Br  Br185  1  0.18604000  0.53522000  0.32344000  1.0
  Br  Br186  1  0.95606000  0.53029000  0.32330000  1.0
  Br  Br187  1  0.21212000  0.55286000  0.59301000  1.0
  Br  Br188  1  0.54176000  0.21681000  0.92857000  1.0
  Br  Br189  1  0.28819000  0.08526000  0.77033000  1.0
  Br  Br190  1  0.28947000  0.69878000  0.15614000  1.0
  Br  Br191  1  0.54253000  0.00015000  0.14399000  1.0
  O  O192  1  0.99794000  0.50068000  0.50070000  1.0
  O  O193  1  0.82320000  0.57748000  0.46985000  1.0
  O  O194  1  0.10024000  0.37480000  0.41874000  1.0
  O  O195  1  0.94763000  0.38667000  0.56095000  1.0
  O  O196  1  0.94306000  0.53666000  0.41407000  1.0
  O  O197  1  0.82713000  0.49126000  0.55462000  1.0
  O  O198  1  0.10956000  0.31237000  0.48010000  1.0
  O  O199  1  0.11710000  0.38818000  0.55947000  1.0
  O  O200  1  0.95232000  0.65796000  0.55011000  1.0
  O  O201  1  0.11698000  0.50397000  0.55456000  1.0
  O  O202  1  0.83141000  0.65296000  0.55046000  1.0
  O  O203  1  0.11677000  0.52568000  0.41440000  1.0
  O  O204  1  0.11526000  0.59006000  0.46995000  1.0
  O  O205  1  0.50074000  0.24978000  0.74970000  1.0
  O  O206  1  0.67447000  0.25193000  0.69618000  1.0
  O  O207  1  0.39914000  0.43505000  0.76973000  1.0
  O  O208  1  0.55214000  0.21709000  0.83715000  1.0
  O  O209  1  0.56031000  0.36273000  0.68851000  1.0
  O  O210  1  0.67276000  0.16692000  0.78169000  1.0
  O  O211  1  0.39208000  0.37549000  0.83219000  1.0
  O  O212  1  0.38134000  0.21916000  0.83639000  1.0
  O  O213  1  0.54503000  0.09669000  0.69620000  1.0
  O  O214  1  0.38483000  0.16466000  0.77635000  1.0
  O  O215  1  0.66782000  0.09377000  0.69972000  1.0
  O  O216  1  0.38986000  0.36273000  0.68958000  1.0
  O  O217  1  0.37958000  0.25144000  0.69253000  1.0
  O  O218  1  0.50031000  0.75062000  0.25019000  1.0
  O  O219  1  0.38805000  0.71758000  0.33926000  1.0
  O  O220  1  0.54369000  0.59426000  0.20024000  1.0
  O  O221  1  0.67286000  0.67055000  0.27837000  1.0
  O  O222  1  0.38080000  0.66767000  0.28058000  1.0
  O  O223  1  0.55822000  0.71743000  0.33750000  1.0
  O  O224  1  0.66708000  0.59685000  0.19695000  1.0
  O  O225  1  0.67300000  0.75585000  0.19298000  1.0
  O  O226  1  0.39138000  0.93554000  0.27078000  1.0
  O  O227  1  0.55295000  0.86367000  0.18942000  1.0
  O  O228  1  0.39708000  0.87340000  0.33244000  1.0
  O  O229  1  0.38244000  0.74909000  0.19486000  1.0
  O  O230  1  0.38308000  0.86451000  0.18973000  1.0
  O  O231  1  0.00075000  0.00026000  0.99985000  1.0
  O  O232  1  0.11141000  0.88742000  0.05952000  1.0
  O  O233  1  0.96014000  0.15513000  0.05118000  1.0
  O  O234  1  0.82773000  0.99758000  0.05598000  1.0
  O  O235  1  0.12210000  0.99864000  0.05566000  1.0
  O  O236  1  0.94207000  0.88452000  0.06073000  1.0
  O  O237  1  0.83659000  0.15481000  0.05220000  1.0
  O  O238  1  0.82753000  0.08190000  0.97119000  1.0
  O  O239  1  0.10254000  0.87624000  0.91750000  1.0
  O  O240  1  0.94163000  0.03372000  0.91197000  1.0
  O  O241  1  0.10146000  0.81472000  0.97940000  1.0
  O  O242  1  0.12170000  0.08344000  0.97083000  1.0
  O  O243  1  0.11201000  0.03264000  0.91322000  1.0
  O  O244  1  0.67749000  0.78278000  0.59412000  1.0
  O  O245  1  0.18644000  0.28359000  0.34260000  1.0
  O  O246  1  0.31333000  0.59652000  0.77797000  1.0
  O  O247  1  0.55986000  0.46938000  0.15685000  1.0
