# generated using pymatgen
data_ZnH7C14Br2NO4
_symmetry_space_group_name_H-M   'P 1'
_cell_length_a   8.98277000
_cell_length_b   13.92650000
_cell_length_c   15.36950000
_cell_angle_alpha   89.83360000
_cell_angle_beta   89.95700000
_cell_angle_gamma   98.57800000
_symmetry_Int_Tables_number   1
_chemical_formula_structural   ZnH7C14Br2NO4
_chemical_formula_sum   'Zn2 H14 C28 Br4 N2 O8'
_cell_volume   1901.18485559
_cell_formula_units_Z   2
loop_
 _symmetry_equiv_pos_site_id
 _symmetry_equiv_pos_as_xyz
  1  'x, y, z'
loop_
 _atom_site_type_symbol
 _atom_site_label
 _atom_site_symmetry_multiplicity
 _atom_site_fract_x
 _atom_site_fract_y
 _atom_site_fract_z
 _atom_site_occupancy
  Zn  Zn0  1  0.49267000  0.40029000  0.50437000  1.0
  Zn  Zn1  1  0.50475000  0.59928000  0.49480000  1.0
  H  H2  1  0.01669000  0.61252000  0.49743000  1.0
  H  H3  1  0.98005000  0.38871000  0.49994000  1.0
  H  H4  1  0.38061000  0.34824000  0.93325000  1.0
  H  H5  1  0.37563000  0.62620000  0.06722000  1.0
  H  H6  1  0.39777000  0.35792000  0.77147000  1.0
  H  H7  1  0.39664000  0.62048000  0.22886000  1.0
  H  H8  1  0.56620000  0.65165000  0.94683000  1.0
  H  H9  1  0.57531000  0.36382000  0.05165000  1.0
  H  H10  1  0.70002000  0.95526000  0.41961000  1.0
  H  H11  1  0.30861000  0.04700000  0.42064000  1.0
  H  H12  1  0.69322000  0.77356000  0.41707000  1.0
  H  H13  1  0.31134000  0.22831000  0.42342000  1.0
  H  H14  1  0.31907000  0.72992000  0.57779000  1.0
  H  H15  1  0.68463000  0.26846000  0.58440000  1.0
  C  C16  1  0.49228000  0.50554000  0.66969000  1.0
  C  C17  1  0.49792000  0.49240000  0.32954000  1.0
  C  C18  1  0.61341000  0.90751000  0.45507000  1.0
  C  C19  1  0.39388000  0.09385000  0.45752000  1.0
  C  C20  1  0.61061000  0.80757000  0.45317000  1.0
  C  C21  1  0.39395000  0.19356000  0.45889000  1.0
  C  C22  1  0.40026000  0.78247000  0.54322000  1.0
  C  C23  1  0.60378000  0.21667000  0.54910000  1.0
  C  C24  1  0.39611000  0.88208000  0.54752000  1.0
  C  C25  1  0.61085000  0.11726000  0.54995000  1.0
  C  C26  1  0.50413000  0.94700000  0.50272000  1.0
  C  C27  1  0.50372000  0.05339000  0.50392000  1.0
  C  C28  1  0.79187000  0.52412000  0.49977000  1.0
  C  C29  1  0.20514000  0.47691000  0.49771000  1.0
  C  C30  1  0.95911000  0.53783000  0.49810000  1.0
  C  C31  1  0.03781000  0.46334000  0.49807000  1.0
  C  C32  1  0.42503000  0.41659000  0.90132000  1.0
  C  C33  1  0.42392000  0.56769000  0.09868000  1.0
  C  C34  1  0.43309000  0.42193000  0.81122000  1.0
  C  C35  1  0.43417000  0.56427000  0.18875000  1.0
  C  C36  1  0.48664000  0.50901000  0.76733000  1.0
  C  C37  1  0.49231000  0.48889000  0.23191000  1.0
  C  C38  1  0.53146000  0.59181000  0.81832000  1.0
  C  C39  1  0.54027000  0.41617000  0.18050000  1.0
  C  C40  1  0.52491000  0.58715000  0.90897000  1.0
  C  C41  1  0.53162000  0.41917000  0.08994000  1.0
  C  C42  1  0.47242000  0.49949000  0.95171000  1.0
  C  C43  1  0.47380000  0.49512000  0.04781000  1.0
  Br  Br44  1  0.61519000  0.71458000  0.76986000  1.0
  Br  Br45  1  0.63166000  0.31283000  0.22908000  1.0
  Br  Br46  1  0.24471000  0.92582000  0.61640000  1.0
  Br  Br47  1  0.76435000  0.07185000  0.61601000  1.0
  N  N48  1  0.50539000  0.74693000  0.49644000  1.0
  N  N49  1  0.49671000  0.25303000  0.50455000  1.0
  O  O50  1  0.51523000  0.42514000  0.63670000  1.0
  O  O51  1  0.52918000  0.57664000  0.36295000  1.0
  O  O52  1  0.47136000  0.58090000  0.62759000  1.0
  O  O53  1  0.46796000  0.41281000  0.37083000  1.0
  O  O54  1  0.72139000  0.43808000  0.49239000  1.0
  O  O55  1  0.27548000  0.56149000  0.48163000  1.0
  O  O56  1  0.73198000  0.60123000  0.50826000  1.0
  O  O57  1  0.26481000  0.40104000  0.51399000  1.0
