# generated using pymatgen
data_NiH34C36(NO3)2
_symmetry_space_group_name_H-M   'P 1'
_cell_length_a   6.07927000
_cell_length_b   7.35409000
_cell_length_c   17.65460000
_cell_angle_alpha   93.48360000
_cell_angle_beta   99.62930000
_cell_angle_gamma   96.82650000
_symmetry_Int_Tables_number   1
_chemical_formula_structural   NiH34C36(NO3)2
_chemical_formula_sum   'Ni1 H34 C36 N2 O6'
_cell_volume   770.02922905
_cell_formula_units_Z   1
loop_
 _symmetry_equiv_pos_site_id
 _symmetry_equiv_pos_as_xyz
  1  'x, y, z'
loop_
 _atom_site_type_symbol
 _atom_site_label
 _atom_site_symmetry_multiplicity
 _atom_site_fract_x
 _atom_site_fract_y
 _atom_site_fract_z
 _atom_site_occupancy
  Ni  Ni0  1  0.50000000  0.49999000  0.00000000  1.0
  H  H1  1  0.70747000  0.06887000  0.36079000  1.0
  H  H2  1  0.29248000  0.93109000  0.63922000  1.0
  H  H3  1  0.27633000  0.79874000  0.32503000  1.0
  H  H4  1  0.72368000  0.20128000  0.67497000  1.0
  H  H5  1  0.05395000  0.63116000  0.20573000  1.0
  H  H6  1  0.94608000  0.36883000  0.79427000  1.0
  H  H7  1  0.48061000  0.89195000  0.24306000  1.0
  H  H8  1  0.51936000  0.10797000  0.75695000  1.0
  H  H9  1  0.53452000  0.19998000  0.51697000  1.0
  H  H10  1  0.46541000  0.80004000  0.48302000  1.0
  H  H11  1  0.84180000  0.42346000  0.49149000  1.0
  H  H12  1  0.15816000  0.57657000  0.50852000  1.0
  H  H13  1  0.82792000  0.54429000  0.36143000  1.0
  H  H14  1  0.17208000  0.45570000  0.63857000  1.0
  H  H15  1  0.49499000  0.44040000  0.25857000  1.0
  H  H16  1  0.50505000  0.55956000  0.74141000  1.0
  H  H17  1  0.18487000  0.21638000  0.28437000  1.0
  H  H18  1  0.81516000  0.78358000  0.71562000  1.0
  H  H19  1  0.18702000  0.15981000  0.53500000  1.0
  H  H20  1  0.81292000  0.84022000  0.46499000  1.0
  H  H21  1  0.81286000  0.31132000  0.12097000  1.0
  H  H22  1  0.18717000  0.68867000  0.87904000  1.0
  H  H23  1  0.88462000  0.14059000  0.18599000  1.0
  H  H24  1  0.11541000  0.85941000  0.81401000  1.0
  H  H25  1  0.72414000  0.07290000  0.09265000  1.0
  H  H26  1  0.27590000  0.92711000  0.90736000  1.0
  H  H27  1  0.27395000  0.97914000  0.05599000  1.0
  H  H28  1  0.72608000  0.02086000  0.94402000  1.0
  H  H29  1  0.01951000  0.87303000  0.08271000  1.0
  H  H30  1  0.98055000  0.12698000  0.91731000  1.0
  H  H31  1  0.24941000  0.97078000  0.15467000  1.0
  H  H32  1  0.75066000  0.02927000  0.84535000  1.0
  H  H33  1  0.09580000  0.43245000  0.07032000  1.0
  H  H34  1  0.90421000  0.56755000  0.92967000  1.0
  C  C35  1  0.78156000  0.97024000  0.32768000  1.0
  C  C36  1  0.21843000  0.02974000  0.67232000  1.0
  C  C37  1  0.10174000  0.82082000  0.30683000  1.0
  C  C38  1  0.89827000  0.17921000  0.69317000  1.0
  C  C39  1  0.97504000  0.72378000  0.24015000  1.0
  C  C40  1  0.02498000  0.27623000  0.75985000  1.0
  C  C41  1  0.74979000  0.75044000  0.21677000  1.0
  C  C42  1  0.25022000  0.24954000  0.78322000  1.0
  C  C43  1  0.65518000  0.87253000  0.26190000  1.0
  C  C44  1  0.34481000  0.12743000  0.73809000  1.0
  C  C45  1  0.60112000  0.66102000  0.14450000  1.0
  C  C46  1  0.39887000  0.33897000  0.85549000  1.0
  C  C47  1  0.52257000  0.25462000  0.46065000  1.0
  C  C48  1  0.47736000  0.74540000  0.53935000  1.0
  C  C49  1  0.69725000  0.38028000  0.44593000  1.0
  C  C50  1  0.30270000  0.61974000  0.55407000  1.0
  C  C51  1  0.68974000  0.44777000  0.37332000  1.0
  C  C52  1  0.31024000  0.55224000  0.62668000  1.0
  C  C53  1  0.50416000  0.38785000  0.31530000  1.0
  C  C54  1  0.49584000  0.61213000  0.68469000  1.0
  C  C55  1  0.32965000  0.26130000  0.32977000  1.0
  C  C56  1  0.67034000  0.73869000  0.67023000  1.0
  C  C57  1  0.33451000  0.19256000  0.40287000  1.0
  C  C58  1  0.66543000  0.80744000  0.59713000  1.0
  C  C59  1  0.14513000  0.06355000  0.41788000  1.0
  C  C60  1  0.85484000  0.93648000  0.58211000  1.0
  C  C61  1  0.00833000  0.94745000  0.35081000  1.0
  C  C62  1  0.99165000  0.05258000  0.64918000  1.0
  C  C63  1  0.08901000  0.06084000  0.48968000  1.0
  C  C64  1  0.91095000  0.93922000  0.51031000  1.0
  C  C65  1  0.86089000  0.17291000  0.12539000  1.0
  C  C66  1  0.13913000  0.82709000  0.87462000  1.0
  C  C67  1  0.15799000  0.98614000  0.09688000  1.0
  C  C68  1  0.84207000  0.01387000  0.90314000  1.0
  C  C69  1  0.17476000  0.30601000  0.06921000  1.0
  C  C70  1  0.82526000  0.69398000  0.93079000  1.0
  N  N71  1  0.06726000  0.16080000  0.09473000  1.0
  N  N72  1  0.93277000  0.83920000  0.90528000  1.0
  O  O73  1  0.36081000  0.29943000  0.04574000  1.0
  O  O74  1  0.63922000  0.70056000  0.95425000  1.0
  O  O75  1  0.39431000  0.66925000  0.13485000  1.0
  O  O76  1  0.60571000  0.33074000  0.86515000  1.0
  O  O77  1  0.70137000  0.58196000  0.09380000  1.0
  O  O78  1  0.29866000  0.41803000  0.90619000  1.0
