# generated using pymatgen
data_CuP2H18C12(NO4)2
_symmetry_space_group_name_H-M   'P 1'
_cell_length_a   8.94543000
_cell_length_b   9.48982000
_cell_length_c   11.10830000
_cell_angle_alpha   73.68100000
_cell_angle_beta   66.26470000
_cell_angle_gamma   61.88330000
_symmetry_Int_Tables_number   1
_chemical_formula_structural   CuP2H18C12(NO4)2
_chemical_formula_sum   'Cu2 P4 H36 C24 N4 O16'
_cell_volume   756.47383550
_cell_formula_units_Z   2
loop_
 _symmetry_equiv_pos_site_id
 _symmetry_equiv_pos_as_xyz
  1  'x, y, z'
loop_
 _atom_site_type_symbol
 _atom_site_label
 _atom_site_symmetry_multiplicity
 _atom_site_fract_x
 _atom_site_fract_y
 _atom_site_fract_z
 _atom_site_occupancy
  Cu  Cu0  1  0.00000000  0.50000000  0.00000000  1.0
  Cu  Cu1  1  0.50000000  0.00000000  0.50000000  1.0
  P  P2  1  0.86550000  0.80077000  0.78915000  1.0
  P  P3  1  0.45541000  0.69924000  0.71090000  1.0
  P  P4  1  0.13450000  0.19923000  0.21085000  1.0
  P  P5  1  0.54459000  0.30076000  0.28910000  1.0
  H  H6  1  0.68240000  0.54178000  0.91089000  1.0
  H  H7  1  0.13524000  0.95829000  0.58908000  1.0
  H  H8  1  0.31760000  0.45822000  0.08911000  1.0
  H  H9  1  0.86476000  0.04172000  0.41092000  1.0
  H  H10  1  0.63940000  0.46127000  0.05619000  1.0
  H  H11  1  0.15699000  0.03871000  0.44374000  1.0
  H  H12  1  0.36060000  0.53873000  0.94381000  1.0
  H  H13  1  0.84301000  0.96130000  0.55626000  1.0
  H  H14  1  0.72700000  0.74315000  0.69397000  1.0
  H  H15  1  0.16406000  0.75674000  0.80607000  1.0
  H  H16  1  0.27300000  0.25685000  0.30603000  1.0
  H  H17  1  0.83594000  0.24326000  0.19393000  1.0
  H  H18  1  0.77230000  0.17229000  0.98542000  1.0
  H  H19  1  0.93011000  0.32763000  0.51457000  1.0
  H  H20  1  0.22770000  0.82771000  0.01458000  1.0
  H  H21  1  0.06989000  0.67237000  0.48543000  1.0
  H  H22  1  0.85732000  0.10993000  0.82422000  1.0
  H  H23  1  0.79156000  0.38999000  0.67578000  1.0
  H  H24  1  0.14268000  0.89007000  0.17578000  1.0
  H  H25  1  0.20844000  0.61001000  0.32422000  1.0
  H  H26  1  0.92372000  0.97091000  0.95507000  1.0
  H  H27  1  0.84974000  0.52903000  0.54493000  1.0
  H  H28  1  0.07628000  0.02909000  0.04492000  1.0
  H  H29  1  0.15026000  0.47097000  0.45507000  1.0
  H  H30  1  0.51584000  0.79015000  0.89997000  1.0
  H  H31  1  0.20607000  0.70979000  0.60014000  1.0
  H  H32  1  0.48416000  0.20985000  0.10003000  1.0
  H  H33  1  0.79393000  0.29021000  0.39986000  1.0
  H  H34  1  0.93930000  0.33847000  0.84485000  1.0
  H  H35  1  0.12233000  0.16176000  0.65543000  1.0
  H  H36  1  0.06070000  0.66153000  0.15514000  1.0
  H  H37  1  0.87767000  0.83824000  0.34457000  1.0
  H  H38  1  0.40270000  0.34110000  0.84170000  1.0
  H  H39  1  0.58518000  0.15906000  0.65871000  1.0
  H  H40  1  0.59730000  0.65890000  0.15830000  1.0
  H  H41  1  0.41482000  0.84094000  0.34130000  1.0
  C  C42  1  0.80962000  0.07450000  0.93099000  1.0
  C  C43  1  0.81522000  0.42541000  0.56900000  1.0
  C  C44  1  0.19039000  0.92550000  0.06900000  1.0
  C  C45  1  0.18478000  0.57459000  0.43100000  1.0
  C  C46  1  0.65353000  0.03305000  0.96515000  1.0
  C  C47  1  0.65181000  0.46686000  0.53484000  1.0
  C  C48  1  0.34647000  0.96695000  0.03485000  1.0
  C  C49  1  0.34819000  0.53314000  0.46516000  1.0
  C  C50  1  0.66088000  0.91339000  0.90821000  1.0
  C  C51  1  0.48261000  0.58649000  0.59183000  1.0
  C  C52  1  0.33912000  0.08661000  0.09179000  1.0
  C  C53  1  0.51739000  0.41351000  0.40817000  1.0
  C  C54  1  0.50887000  0.88313000  0.94360000  1.0
  C  C55  1  0.33569000  0.61684000  0.55646000  1.0
  C  C56  1  0.49113000  0.11687000  0.05640000  1.0
  C  C57  1  0.66431000  0.38316000  0.44354000  1.0
  C  C58  1  0.08370000  0.29885000  0.80129000  1.0
  C  C59  1  0.18359000  0.20133000  0.69901000  1.0
  C  C60  1  0.91630000  0.70115000  0.19871000  1.0
  C  C61  1  0.81641000  0.79868000  0.30098000  1.0
  C  C62  1  0.33990000  0.30044000  0.80059000  1.0
  C  C63  1  0.44063000  0.19970000  0.69979000  1.0
  C  C64  1  0.66010000  0.69955000  0.19941000  1.0
  C  C65  1  0.55937000  0.80030000  0.30021000  1.0
  N  N66  1  0.16164000  0.34885000  0.85182000  1.0
  N  N67  1  0.36203000  0.15134000  0.64848000  1.0
  N  N68  1  0.83836000  0.65115000  0.14818000  1.0
  N  N69  1  0.63797000  0.84866000  0.35152000  1.0
  O  O70  1  0.73257000  0.49377000  0.98441000  1.0
  O  O71  1  0.21079000  0.00639000  0.51555000  1.0
  O  O72  1  0.26743000  0.50623000  0.01559000  1.0
  O  O73  1  0.78921000  0.99361000  0.48445000  1.0
  O  O74  1  0.00673000  0.68821000  0.85953000  1.0
  O  O75  1  0.55433000  0.81185000  0.64055000  1.0
  O  O76  1  0.99327000  0.31178000  0.14047000  1.0
  O  O77  1  0.44568000  0.18815000  0.35945000  1.0
  O  O78  1  0.92817000  0.91636000  0.67890000  1.0
  O  O79  1  0.52341000  0.58374000  0.82119000  1.0
  O  O80  1  0.07183000  0.08364000  0.32110000  1.0
  O  O81  1  0.47659000  0.41626000  0.17881000  1.0
  O  O82  1  0.82597000  0.68783000  0.73546000  1.0
  O  O83  1  0.24922000  0.81207000  0.76455000  1.0
  O  O84  1  0.17403000  0.31217000  0.26454000  1.0
  O  O85  1  0.75078000  0.18793000  0.23545000  1.0
