# generated using pymatgen
data_Cd2PH20C21NO12
_symmetry_space_group_name_H-M   'P 1'
_cell_length_a   7.02652000
_cell_length_b   13.63500000
_cell_length_c   14.44530000
_cell_angle_alpha   117.36400000
_cell_angle_beta   97.24080000
_cell_angle_gamma   97.85290000
_symmetry_Int_Tables_number   1
_chemical_formula_structural   Cd2PH20C21NO12
_chemical_formula_sum   'Cd4 P2 H40 C42 N2 O24'
_cell_volume   1189.19089493
_cell_formula_units_Z   2
loop_
 _symmetry_equiv_pos_site_id
 _symmetry_equiv_pos_as_xyz
  1  'x, y, z'
loop_
 _atom_site_type_symbol
 _atom_site_label
 _atom_site_symmetry_multiplicity
 _atom_site_fract_x
 _atom_site_fract_y
 _atom_site_fract_z
 _atom_site_occupancy
  Cd  Cd0  1  0.64811000  0.41058000  0.01851000  1.0
  Cd  Cd1  1  0.35189000  0.58942000  0.98149000  1.0
  Cd  Cd2  1  0.09904000  0.60229000  0.21318000  1.0
  Cd  Cd3  1  0.90096000  0.39771000  0.78682000  1.0
  P  P4  1  0.12221000  0.35757000  0.98256000  1.0
  P  P5  1  0.87779000  0.64243000  0.01744000  1.0
  H  H6  1  0.01473000  0.29911000  0.13867000  1.0
  H  H7  1  0.98527000  0.70089000  0.86133000  1.0
  H  H8  1  0.32063000  0.29864000  0.08775000  1.0
  H  H9  1  0.67937000  0.70136000  0.91225000  1.0
  H  H10  1  0.21141000  0.18083000  0.95949000  1.0
  H  H11  1  0.78858000  0.81917000  0.04051000  1.0
  H  H12  1  0.87806000  0.08359000  0.92796000  1.0
  H  H13  1  0.12195000  0.91641000  0.07204000  1.0
  H  H14  1  0.78716000  0.20835000  0.96201000  1.0
  H  H15  1  0.21284000  0.79165000  0.03799000  1.0
  H  H16  1  0.22668000  0.21291000  0.19049000  1.0
  H  H17  1  0.77332000  0.78709000  0.80951000  1.0
  H  H18  1  0.14626000  0.08439000  0.06464000  1.0
  H  H19  1  0.85375000  0.91561000  0.93537000  1.0
  H  H20  1  0.90062000  0.19316000  0.23342000  1.0
  H  H21  1  0.09938000  0.80684000  0.76658000  1.0
  H  H22  1  0.98293000  0.06507000  0.20255000  1.0
  H  H23  1  0.01708000  0.93493000  0.79745000  1.0
  H  H24  1  0.57237000  0.30805000  0.29007000  1.0
  H  H25  1  0.42763000  0.69195000  0.70993000  1.0
  H  H26  1  0.62061000  0.33246000  0.47581000  1.0
  H  H27  1  0.37940000  0.66754000  0.52420000  1.0
  H  H28  1  0.85568000  0.65713000  0.41783000  1.0
  H  H29  1  0.14431000  0.34287000  0.58217000  1.0
  H  H30  1  0.90510000  0.68029000  0.60254000  1.0
  H  H31  1  0.09489000  0.31972000  0.39747000  1.0
  H  H32  1  0.43819000  0.25511000  0.62822000  1.0
  H  H33  1  0.56181000  0.74489000  0.37178000  1.0
  H  H34  1  0.37395000  0.01727000  0.74588000  1.0
  H  H35  1  0.62606000  0.98273000  0.25411000  1.0
  H  H36  1  0.26996000  0.10041000  0.44422000  1.0
  H  H37  1  0.73004000  0.89960000  0.55578000  1.0
  H  H38  1  0.55823000  0.06639000  0.98166000  1.0
  H  H39  1  0.44177000  0.93361000  0.01834000  1.0
  H  H40  1  0.65323000  0.19343000  0.10603000  1.0
  H  H41  1  0.34677000  0.80657000  0.89397000  1.0
  H  H42  1  0.21408000  0.86063000  0.55988000  1.0
  H  H43  1  0.78593000  0.13937000  0.44011000  1.0
  H  H44  1  0.05233000  0.82642000  0.23470000  1.0
  H  H45  1  0.94767000  0.17358000  0.76530000  1.0
  C  C46  1  0.18443000  0.25623000  0.02580000  1.0
  C  C47  1  0.81557000  0.74376000  0.97420000  1.0
  C  C48  1  0.84241000  0.15617000  0.99372000  1.0
  C  C49  1  0.15760000  0.84382000  0.00629000  1.0
  C  C50  1  0.10005000  0.15612000  0.12568000  1.0
  C  C51  1  0.89995000  0.84388000  0.87432000  1.0
  C  C52  1  0.93577000  0.11816000  0.16940000  1.0
  C  C53  1  0.06424000  0.88184000  0.83061000  1.0
  C  C54  1  0.71085000  0.48111000  0.34333000  1.0
  C  C55  1  0.28915000  0.51889000  0.65667000  1.0
  C  C56  1  0.69665000  0.46427000  0.23316000  1.0
  C  C57  1  0.30334000  0.53573000  0.76684000  1.0
  C  C58  1  0.64271000  0.38974000  0.35946000  1.0
  C  C59  1  0.35729000  0.61026000  0.64055000  1.0
  C  C60  1  0.66958000  0.40287000  0.46178000  1.0
  C  C61  1  0.33041000  0.59713000  0.53822000  1.0
  C  C62  1  0.80184000  0.58694000  0.43129000  1.0
  C  C63  1  0.19815000  0.41306000  0.56871000  1.0
  C  C64  1  0.82903000  0.59964000  0.53354000  1.0
  C  C65  1  0.17097000  0.40036000  0.46646000  1.0
  C  C66  1  0.76562000  0.50782000  0.54966000  1.0
  C  C67  1  0.23438000  0.49218000  0.45034000  1.0
  C  C68  1  0.81232000  0.51982000  0.65927000  1.0
  C  C69  1  0.18768000  0.48018000  0.34073000  1.0
  C  C70  1  0.51538000  0.23602000  0.80762000  1.0
  C  C71  1  0.48462000  0.76398000  0.19238000  1.0
  C  C72  1  0.41654000  0.14462000  0.69729000  1.0
  C  C73  1  0.58346000  0.85538000  0.30271000  1.0
  C  C74  1  0.38708000  0.16871000  0.61272000  1.0
  C  C75  1  0.61292000  0.83129000  0.38728000  1.0
  C  C76  1  0.35135000  0.03381000  0.67876000  1.0
  C  C77  1  0.64866000  0.96619000  0.32123000  1.0
  C  C78  1  0.29365000  0.08251000  0.51039000  1.0
  C  C79  1  0.70635000  0.91750000  0.48961000  1.0
  C  C80  1  0.69131000  0.11871000  0.04342000  1.0
  C  C81  1  0.30869000  0.88129000  0.95658000  1.0
  C  C82  1  0.23248000  0.97146000  0.49160000  1.0
  C  C83  1  0.76752000  0.02854000  0.50839000  1.0
  C  C84  1  0.14366000  0.87474000  0.38335000  1.0
  C  C85  1  0.85635000  0.12526000  0.61665000  1.0
  C  C86  1  0.26186000  0.94770000  0.57659000  1.0
  C  C87  1  0.73815000  0.05230000  0.42341000  1.0
  N  N88  1  0.03053000  0.22221000  0.07389000  1.0
  N  N89  1  0.96948000  0.77779000  0.92611000  1.0
  O  O90  1  0.99330000  0.42555000  0.05710000  1.0
  O  O91  1  0.00670000  0.57445000  0.94290000  1.0
  O  O92  1  0.00758000  0.29223000  0.86588000  1.0
  O  O93  1  0.99242000  0.70777000  0.13412000  1.0
  O  O94  1  0.32156000  0.43131000  0.99894000  1.0
  O  O95  1  0.67844000  0.56869000  0.00106000  1.0
  O  O96  1  0.60725000  0.33151000  0.82220000  1.0
  O  O97  1  0.39275000  0.66849000  0.17781000  1.0
  O  O98  1  0.60897000  0.36727000  0.15431000  1.0
  O  O99  1  0.39103000  0.63272000  0.84569000  1.0
  O  O100  1  0.77163000  0.54555000  0.21845000  1.0
  O  O101  1  0.22837000  0.45444000  0.78155000  1.0
  O  O102  1  0.76282000  0.05142000  0.08728000  1.0
  O  O103  1  0.23718000  0.94858000  0.91272000  1.0
  O  O104  1  0.92229000  0.61154000  0.73315000  1.0
  O  O105  1  0.07771000  0.38846000  0.26685000  1.0
  O  O106  1  0.50205000  0.21739000  0.88560000  1.0
  O  O107  1  0.49795000  0.78261000  0.11440000  1.0
  O  O108  1  0.74152000  0.43376000  0.66839000  1.0
  O  O109  1  0.25847000  0.56623000  0.33162000  1.0
  O  O110  1  0.10853000  0.77619000  0.36881000  1.0
  O  O111  1  0.89147000  0.22382000  0.63119000  1.0
  O  O112  1  0.10915000  0.90040000  0.30541000  1.0
  O  O113  1  0.89085000  0.09960000  0.69458000  1.0
