# generated using pymatgen
data_HgH16C20(BrN3)2
_symmetry_space_group_name_H-M   'P 1'
_cell_length_a   5.14154000
_cell_length_b   12.42500000
_cell_length_c   15.78470000
_cell_angle_alpha   94.37420000
_cell_angle_beta   89.99480000
_cell_angle_gamma   101.94600000
_symmetry_Int_Tables_number   1
_chemical_formula_structural   HgH16C20(BrN3)2
_chemical_formula_sum   'Hg2 H32 C40 Br4 N12'
_cell_volume   983.54459039
_cell_formula_units_Z   2
loop_
 _symmetry_equiv_pos_site_id
 _symmetry_equiv_pos_as_xyz
  1  'x, y, z'
loop_
 _atom_site_type_symbol
 _atom_site_label
 _atom_site_symmetry_multiplicity
 _atom_site_fract_x
 _atom_site_fract_y
 _atom_site_fract_z
 _atom_site_occupancy
  Hg  Hg0  1  0.51037000  0.99997000  0.75007000  1.0
  Hg  Hg1  1  0.48962000  0.00003000  0.24993000  1.0
  H  H2  1  0.84674000  0.90227000  0.56221000  1.0
  H  H3  1  0.94458000  0.09769000  0.93773000  1.0
  H  H4  1  0.15326000  0.09773000  0.43779000  1.0
  H  H5  1  0.05542000  0.90231000  0.06227000  1.0
  H  H6  1  0.81822000  0.78183000  0.80471000  1.0
  H  H7  1  0.03650000  0.21825000  0.69528000  1.0
  H  H8  1  0.18178000  0.21817000  0.19529000  1.0
  H  H9  1  0.96350000  0.78175000  0.30472000  1.0
  H  H10  1  0.38351000  0.75706000  0.56724000  1.0
  H  H11  1  0.62651000  0.24292000  0.93274000  1.0
  H  H12  1  0.61650000  0.24294000  0.43276000  1.0
  H  H13  1  0.37349000  0.75708000  0.06726000  1.0
  H  H14  1  0.15870000  0.78605000  0.49315000  1.0
  H  H15  1  0.37268000  0.21388000  0.00683000  1.0
  H  H16  1  0.84130000  0.21395000  0.50685000  1.0
  H  H17  1  0.62732000  0.78612000  0.99317000  1.0
  H  H18  1  0.46636000  0.65903000  0.64844000  1.0
  H  H19  1  0.80753000  0.34097000  0.85160000  1.0
  H  H20  1  0.53364000  0.34097000  0.35156000  1.0
  H  H21  1  0.19247000  0.65903000  0.14840000  1.0
  H  H22  1  0.69571000  0.52733000  0.70708000  1.0
  H  H23  1  0.16840000  0.47270000  0.79287000  1.0
  H  H24  1  0.30429000  0.47267000  0.29292000  1.0
  H  H25  1  0.83160000  0.52730000  0.20713000  1.0
  H  H26  1  0.56392000  0.32597000  0.65993000  1.0
  H  H27  1  0.23786000  0.67407000  0.83999000  1.0
  H  H28  1  0.43608000  0.67403000  0.34007000  1.0
  H  H29  1  0.76214000  0.32593000  0.16001000  1.0
  H  H30  1  0.21059000  0.26018000  0.55509000  1.0
  H  H31  1  0.95045000  0.73987000  0.94485000  1.0
  H  H32  1  0.78941000  0.73982000  0.44491000  1.0
  H  H33  1  0.04955000  0.26013000  0.05515000  1.0
  C  C34  1  0.87353000  0.85614000  0.61613000  1.0
  C  C35  1  0.01755000  0.14384000  0.88382000  1.0
  C  C36  1  0.12647000  0.14386000  0.38387000  1.0
  C  C37  1  0.98244000  0.85616000  0.11618000  1.0
  C  C38  1  0.86411000  0.79391000  0.73865000  1.0
  C  C39  1  0.07033000  0.20616000  0.76133000  1.0
  C  C40  1  0.13589000  0.20609000  0.26135000  1.0
  C  C41  1  0.92967000  0.79384000  0.23867000  1.0
  C  C42  1  0.17411000  0.73707000  0.54710000  1.0
  C  C43  1  0.43713000  0.26292000  0.95289000  1.0
  C  C44  1  0.82589000  0.26293000  0.45290000  1.0
  C  C45  1  0.56287000  0.73708000  0.04711000  1.0
  C  C46  1  0.08202000  0.61491000  0.52407000  1.0
  C  C47  1  0.46721000  0.38508000  0.97596000  1.0
  C  C48  1  0.91798000  0.38509000  0.47593000  1.0
  C  C49  1  0.53279000  0.61492000  0.02404000  1.0
  C  C50  1  0.20640000  0.53893000  0.56196000  1.0
  C  C51  1  0.66751000  0.46108000  0.93805000  1.0
  C  C52  1  0.79361000  0.46107000  0.43804000  1.0
  C  C53  1  0.33249000  0.53892000  0.06195000  1.0
  C  C54  1  0.41166000  0.57260000  0.62525000  1.0
  C  C55  1  0.83912000  0.42740000  0.87476000  1.0
  C  C56  1  0.58834000  0.42740000  0.37475000  1.0
  C  C57  1  0.16088000  0.57260000  0.12524000  1.0
  C  C58  1  0.53807000  0.49864000  0.65954000  1.0
  C  C59  1  0.03942000  0.50139000  0.84043000  1.0
  C  C60  1  0.46194000  0.50136000  0.34046000  1.0
  C  C61  1  0.96058000  0.49861000  0.15957000  1.0
  C  C62  1  0.46394000  0.38489000  0.63281000  1.0
  C  C63  1  0.07894000  0.61514000  0.86713000  1.0
  C  C64  1  0.53607000  0.61511000  0.36719000  1.0
  C  C65  1  0.92106000  0.38486000  0.13287000  1.0
  C  C66  1  0.26252000  0.34825000  0.57391000  1.0
  C  C67  1  0.91419000  0.65179000  0.92604000  1.0
  C  C68  1  0.73748000  0.65175000  0.42609000  1.0
  C  C69  1  0.08581000  0.34821000  0.07396000  1.0
  C  C70  1  0.87477000  0.57782000  0.46345000  1.0
  C  C71  1  0.29699000  0.42215000  0.03658000  1.0
  C  C72  1  0.12523000  0.42218000  0.53655000  1.0
  C  C73  1  0.70301000  0.57785000  0.96342000  1.0
  Br  Br74  1  0.44068000  0.07076000  0.60691000  1.0
  Br  Br75  1  0.37042000  0.92954000  0.89339000  1.0
  Br  Br76  1  0.55932000  0.92924000  0.39309000  1.0
  Br  Br77  1  0.62958000  0.07046000  0.10661000  1.0
  N  N78  1  0.76954000  0.86715000  0.69323000  1.0
  N  N79  1  0.90258000  0.13285000  0.80673000  1.0
  N  N80  1  0.23046000  0.13285000  0.30677000  1.0
  N  N81  1  0.09742000  0.86715000  0.19327000  1.0
  N  N82  1  0.02186000  0.77869000  0.61621000  1.0
  N  N83  1  0.24328000  0.22135000  0.88377000  1.0
  N  N84  1  0.97813000  0.22131000  0.38379000  1.0
  N  N85  1  0.75672000  0.77865000  0.11623000  1.0
  N  N86  1  0.01911000  0.73834000  0.69405000  1.0
  N  N87  1  0.28086000  0.26175000  0.80595000  1.0
  N  N88  1  0.98089000  0.26166000  0.30595000  1.0
  N  N89  1  0.71914000  0.73825000  0.19405000  1.0
