# generated using pymatgen
data_Al2H16C23S2(N2O5)2
_symmetry_space_group_name_H-M   'P 1'
_cell_length_a   6.65881000
_cell_length_b   12.72774792
_cell_length_c   16.87870000
_cell_angle_alpha   90.34441030
_cell_angle_beta   96.70430000
_cell_angle_gamma   104.80331613
_symmetry_Int_Tables_number   1
_chemical_formula_structural   Al2H16C23S2(N2O5)2
_chemical_formula_sum   'Al2 H16 C23 S2 N4 O10'
_cell_volume   1372.60317466
_cell_formula_units_Z   1
loop_
 _symmetry_equiv_pos_site_id
 _symmetry_equiv_pos_as_xyz
  1  'x, y, z'
loop_
 _atom_site_type_symbol
 _atom_site_label
 _atom_site_symmetry_multiplicity
 _atom_site_fract_x
 _atom_site_fract_y
 _atom_site_fract_z
 _atom_site_occupancy
  Al  Al0  1  0.99385000  0.49259000  0.49537000  1.0
  Al  Al1  1  0.49431000  0.49192000  0.49582000  1.0
  H  H2  1  0.16578000  0.36675000  0.44332000  1.0
  H  H3  1  0.81942000  0.62299000  0.53680000  1.0
  H  H4  1  0.58391000  0.43997000  0.73071000  1.0
  H  H5  1  0.65342000  0.44387000  0.88066000  1.0
  H  H6  1  0.09699000  0.55215000  0.89452000  1.0
  H  H7  1  0.93268000  0.54953000  0.09598000  1.0
  H  H8  1  0.27187000  0.44250000  0.11095000  1.0
  H  H9  1  0.34843000  0.44049000  0.26040000  1.0
  H  H10  1  0.83542000  0.13981000  0.44248000  1.0
  H  H11  1  0.94076000  0.53796000  0.68026000  1.0
  H  H12  1  0.88761000  0.57263000  0.77378000  1.0
  H  H13  1  0.08702000  0.55099000  0.31028000  1.0
  H  H14  1  0.17124000  0.57306000  0.21545000  1.0
  H  H15  1  0.96565000  0.81415000  0.52699000  1.0
  H  H16  1  0.09435000  0.91018000  0.60493000  1.0
  H  H17  1  0.12245000  0.77462000  0.60781000  1.0
  C  C18  1  0.64347000  0.29709000  0.50141000  1.0
  C  C19  1  0.70904000  0.49506000  0.35094000  1.0
  C  C20  1  0.34708000  0.68848000  0.48998000  1.0
  C  C21  1  0.27800000  0.49202000  0.63999000  1.0
  C  C22  1  0.30567000  0.49532000  0.72802000  1.0
  C  C23  1  0.48107000  0.46654000  0.76772000  1.0
  C  C24  1  0.52099000  0.46877000  0.84997000  1.0
  C  C25  1  0.37967000  0.50137000  0.89492000  1.0
  C  C26  1  0.20349000  0.52890000  0.85739000  1.0
  C  C27  1  0.16162000  0.52730000  0.77327000  1.0
  C  C28  1  0.80609000  0.52762000  0.13331000  1.0
  C  C29  1  0.60105000  0.50008000  0.09622000  1.0
  C  C30  1  0.43080000  0.46806000  0.14139000  1.0
  C  C31  1  0.47435000  0.46696000  0.22332000  1.0
  C  C32  1  0.68046000  0.49795000  0.26325000  1.0
  C  C33  1  0.85246000  0.52897000  0.21735000  1.0
  C  C34  1  0.29726000  0.87581000  0.52439000  1.0
  C  C35  1  0.69065000  0.10958000  0.46854000  1.0
  C  C36  1  0.40172000  0.80752000  0.49126000  1.0
  C  C37  1  0.58525000  0.17778000  0.49973000  1.0
  C  C38  1  0.58444000  0.99954000  0.47537000  1.0
  C  C39  1  0.40223000  0.98553000  0.51348000  1.0
  C  C40  1  0.11026000  0.84167000  0.56854000  1.0
  S  S41  1  0.62465000  0.87603000  0.44992000  1.0
  S  S42  1  0.35784000  0.10880000  0.53782000  1.0
  N  N43  1  0.40018000  0.50463000  0.97948000  1.0
  N  N44  1  0.58071000  0.50324000  0.01200000  1.0
  N  N45  1  0.99309000  0.56022000  0.73854000  1.0
  N  N46  1  0.05521000  0.56054000  0.25077000  1.0
  O  O47  1  0.82921000  0.34436000  0.48823000  1.0
  O  O48  1  0.54614000  0.47488000  0.38741000  1.0
  O  O49  1  0.48971000  0.64133000  0.47786000  1.0
  O  O50  1  0.09105000  0.47754000  0.60454000  1.0
  O  O51  1  0.16047000  0.64035000  0.50158000  1.0
  O  O52  1  0.44139000  0.50534000  0.60449000  1.0
  O  O53  1  0.50263000  0.34429000  0.51517000  1.0
  O  O54  1  0.89705000  0.51185000  0.38654000  1.0
  O  O55  1  0.20949000  0.44296000  0.46013000  1.0
  O  O56  1  0.77976000  0.54418000  0.53113000  1.0
