# generated using pymatgen
data_UH8C9SNO8
_symmetry_space_group_name_H-M   'P 1'
_cell_length_a   7.85506000
_cell_length_b   12.02460000
_cell_length_c   13.31820000
_cell_angle_alpha   90.00000000
_cell_angle_beta   94.59300000
_cell_angle_gamma   90.00000000
_symmetry_Int_Tables_number   1
_chemical_formula_structural   UH8C9SNO8
_chemical_formula_sum   'U4 H32 C36 S4 N4 O32'
_cell_volume   1253.91694150
_cell_formula_units_Z   4
loop_
 _symmetry_equiv_pos_site_id
 _symmetry_equiv_pos_as_xyz
  1  'x, y, z'
loop_
 _atom_site_type_symbol
 _atom_site_label
 _atom_site_symmetry_multiplicity
 _atom_site_fract_x
 _atom_site_fract_y
 _atom_site_fract_z
 _atom_site_occupancy
  U  U0  1  0.99364000  0.28829000  0.60341000  1.0
  U  U1  1  0.00636000  0.78829000  0.89659000  1.0
  U  U2  1  0.00637000  0.71171000  0.39659000  1.0
  U  U3  1  0.99363000  0.21171000  0.10341000  1.0
  H  H4  1  0.02179000  0.04566000  0.66504000  1.0
  H  H5  1  0.97821000  0.54566000  0.83496000  1.0
  H  H6  1  0.97821000  0.95434000  0.33496000  1.0
  H  H7  1  0.02179000  0.45434000  0.16504000  1.0
  H  H8  1  0.82042000  0.06967000  0.62263000  1.0
  H  H9  1  0.17958000  0.56967000  0.87737000  1.0
  H  H10  1  0.17958000  0.93033000  0.37737000  1.0
  H  H11  1  0.82042000  0.43033000  0.12263000  1.0
  H  H12  1  0.52375000  0.13685000  0.31896000  1.0
  H  H13  1  0.47625000  0.63685000  0.18104000  1.0
  H  H14  1  0.47625000  0.86315000  0.68104000  1.0
  H  H15  1  0.52375000  0.36315000  0.81896000  1.0
  H  H16  1  0.27433000  0.26385000  0.32528000  1.0
  H  H17  1  0.72567000  0.76385000  0.17472000  1.0
  H  H18  1  0.72567000  0.73615000  0.67472000  1.0
  H  H19  1  0.27433000  0.23615000  0.82528000  1.0
  H  H20  1  0.32163000  0.46784000  0.35017000  1.0
  H  H21  1  0.67837000  0.96785000  0.14983000  1.0
  H  H22  1  0.67837000  0.53216000  0.64983000  1.0
  H  H23  1  0.32163000  0.03215000  0.85017000  1.0
  H  H24  1  0.61771000  0.54200000  0.37051000  1.0
  H  H25  1  0.38229000  0.04200000  0.12949000  1.0
  H  H26  1  0.38229000  0.45800000  0.62949000  1.0
  H  H27  1  0.61771000  0.95800000  0.87051000  1.0
  H  H28  1  0.49297000  0.34089000  0.11286000  1.0
  H  H29  1  0.50702000  0.84088000  0.38714000  1.0
  H  H30  1  0.50702000  0.65912000  0.88714000  1.0
  H  H31  1  0.49297000  0.15911000  0.61286000  1.0
  H  H32  1  0.76546000  0.60286000  0.99972000  1.0
  H  H33  1  0.23454000  0.10287000  0.50028000  1.0
  H  H34  1  0.23454000  0.39714000  0.00028000  1.0
  H  H35  1  0.76546000  0.89714000  0.49972000  1.0
  C  C36  1  0.90756000  0.43452000  0.38882000  1.0
  C  C37  1  0.09244000  0.93452000  0.11118000  1.0
  C  C38  1  0.09245000  0.56548000  0.61118000  1.0
  C  C39  1  0.90755000  0.06548000  0.88882000  1.0
  C  C40  1  0.73721000  0.38178000  0.36348000  1.0
  C  C41  1  0.26279000  0.88178000  0.13652000  1.0
  C  C42  1  0.26279000  0.61822000  0.63652000  1.0
  C  C43  1  0.73721000  0.11822000  0.86348000  1.0
  C  C44  1  0.70848000  0.26658000  0.35016000  1.0
  C  C45  1  0.29152000  0.76658000  0.14984000  1.0
  C  C46  1  0.29152000  0.73342000  0.64985000  1.0
  C  C47  1  0.70848000  0.23342000  0.85016000  1.0
  C  C48  1  0.54267000  0.22530000  0.33342000  1.0
  C  C49  1  0.45733000  0.72530000  0.16658000  1.0
  C  C50  1  0.45733000  0.77470000  0.66658000  1.0
  C  C51  1  0.54267000  0.27470000  0.83342000  1.0
  C  C52  1  0.40330000  0.29724000  0.33527000  1.0
  C  C53  1  0.59671000  0.79724000  0.16473000  1.0
  C  C54  1  0.59671000  0.70276000  0.66473000  1.0
  C  C55  1  0.40329000  0.20276000  0.83527000  1.0
  C  C56  1  0.42958000  0.41108000  0.34912000  1.0
  C  C57  1  0.57042000  0.91108000  0.15088000  1.0
  C  C58  1  0.57042000  0.58892000  0.65088000  1.0
  C  C59  1  0.42958000  0.08892000  0.84912000  1.0
  C  C60  1  0.59556000  0.45300000  0.36059000  1.0
  C  C61  1  0.40444000  0.95300000  0.13941000  1.0
  C  C62  1  0.40444000  0.54700000  0.63941000  1.0
  C  C63  1  0.59556000  0.04700000  0.86059000  1.0
  C  C64  1  0.49676000  0.41234000  0.06282000  1.0
  C  C65  1  0.50323000  0.91234000  0.43718000  1.0
  C  C66  1  0.50323000  0.58766000  0.93718000  1.0
  C  C67  1  0.49676000  0.08766000  0.56282000  1.0
  C  C68  1  0.64644000  0.55689000  0.99975000  1.0
  C  C69  1  0.35356000  0.05689000  0.50025000  1.0
  C  C70  1  0.35356000  0.44311000  0.00025000  1.0
  C  C71  1  0.64644000  0.94311000  0.49975000  1.0
  S  S72  1  0.87800000  0.16798000  0.35334000  1.0
  S  S73  1  0.12201000  0.66798000  0.14666000  1.0
  S  S74  1  0.12201000  0.83202000  0.64666000  1.0
  S  S75  1  0.87799000  0.33202000  0.85334000  1.0
  N  N76  1  0.64314000  0.46974000  0.06244000  1.0
  N  N77  1  0.35686000  0.96974000  0.43756000  1.0
  N  N78  1  0.35686000  0.53026000  0.93756000  1.0
  N  N79  1  0.64314000  0.03026000  0.56244000  1.0
  O  O80  1  0.76637000  0.31275000  0.59679000  1.0
  O  O81  1  0.23363000  0.81275000  0.90321000  1.0
  O  O82  1  0.23363000  0.68725000  0.40321000  1.0
  O  O83  1  0.76637000  0.18725000  0.09679000  1.0
  O  O84  1  0.21918000  0.25668000  0.61210000  1.0
  O  O85  1  0.78082000  0.75668000  0.88790000  1.0
  O  O86  1  0.78082000  0.74332000  0.38790000  1.0
  O  O87  1  0.21918000  0.24332000  0.11210000  1.0
  O  O88  1  0.01558000  0.38824000  0.45212000  1.0
  O  O89  1  0.98442000  0.88824000  0.04788000  1.0
  O  O90  1  0.98443000  0.61177000  0.54789000  1.0
  O  O91  1  0.01557000  0.11176000  0.95212000  1.0
  O  O92  1  0.93491000  0.52835000  0.34926000  1.0
  O  O93  1  0.06509000  0.02835000  0.15073000  1.0
  O  O94  1  0.06509000  0.47165000  0.65074000  1.0
  O  O95  1  0.93491000  0.97165000  0.84926000  1.0
  O  O96  1  0.95833000  0.16429000  0.45773000  1.0
  O  O97  1  0.04167000  0.66429000  0.04227000  1.0
  O  O98  1  0.04167000  0.83571000  0.54227000  1.0
  O  O99  1  0.95833000  0.33571000  0.95773000  1.0
  O  O100  1  0.00461000  0.21041000  0.28511000  1.0
  O  O101  1  0.99540000  0.71041000  0.21489000  1.0
  O  O102  1  0.99539000  0.78959000  0.71489000  1.0
  O  O103  1  0.00461000  0.28959000  0.78511000  1.0
  O  O104  1  0.80770000  0.06024000  0.32218000  1.0
  O  O105  1  0.19231000  0.56024000  0.17782000  1.0
  O  O106  1  0.19230000  0.93976000  0.67782000  1.0
  O  O107  1  0.80770000  0.43976000  0.82218000  1.0
  O  O108  1  0.93338000  0.10384000  0.65425000  1.0
  O  O109  1  0.06662000  0.60384000  0.84575000  1.0
  O  O110  1  0.06662000  0.89616000  0.34575000  1.0
  O  O111  1  0.93338000  0.39616000  0.15425000  1.0
