# generated using pymatgen
data_AgH9C10SN4O7
_symmetry_space_group_name_H-M   'P 1'
_cell_length_a   8.40029000
_cell_length_b   9.22948000
_cell_length_c   9.44959000
_cell_angle_alpha   70.45540000
_cell_angle_beta   70.56360000
_cell_angle_gamma   79.96730000
_symmetry_Int_Tables_number   1
_chemical_formula_structural   AgH9C10SN4O7
_chemical_formula_sum   'Ag2 H18 C20 S2 N8 O14'
_cell_volume   649.43838282
_cell_formula_units_Z   2
loop_
 _symmetry_equiv_pos_site_id
 _symmetry_equiv_pos_as_xyz
  1  'x, y, z'
loop_
 _atom_site_type_symbol
 _atom_site_label
 _atom_site_symmetry_multiplicity
 _atom_site_fract_x
 _atom_site_fract_y
 _atom_site_fract_z
 _atom_site_occupancy
  Ag  Ag0  1  0.30399000  0.62650000  0.48169000  1.0
  Ag  Ag1  1  0.69600000  0.37350000  0.51831000  1.0
  H  H2  1  0.05341000  0.05802000  0.02944000  1.0
  H  H3  1  0.94659000  0.94197000  0.97055000  1.0
  H  H4  1  0.93476000  0.04309000  0.31192000  1.0
  H  H5  1  0.06524000  0.95691000  0.68808000  1.0
  H  H6  1  0.99433000  0.24379000  0.40670000  1.0
  H  H7  1  0.00567000  0.75621000  0.59330000  1.0
  H  H8  1  0.16740000  0.46115000  0.21655000  1.0
  H  H9  1  0.83260000  0.53885000  0.78345000  1.0
  H  H10  1  0.37128000  0.49728000  0.79786000  1.0
  H  H11  1  0.62872000  0.50273000  0.20214000  1.0
  H  H12  1  0.67005000  0.86206000  0.47838000  1.0
  H  H13  1  0.32995000  0.13794000  0.52162000  1.0
  H  H14  1  0.57854000  0.03872000  0.84693000  1.0
  H  H15  1  0.42146000  0.96128000  0.15307000  1.0
  H  H16  1  0.04064000  0.65406000  0.31178000  1.0
  H  H17  1  0.95936000  0.34594000  0.68822000  1.0
  H  H18  1  0.21129000  0.73787000  0.19900000  1.0
  H  H19  1  0.78870000  0.26213000  0.80100000  1.0
  C  C20  1  0.20270000  0.38343000  0.01708000  1.0
  C  C21  1  0.79730000  0.61657000  0.98292000  1.0
  C  C22  1  0.16911000  0.26892000  0.96367000  1.0
  C  C23  1  0.83090000  0.73108000  0.03633000  1.0
  C  C24  1  0.07344000  0.14776000  0.07096000  1.0
  C  C25  1  0.92656000  0.85224000  0.92904000  1.0
  C  C26  1  0.00841000  0.13899000  0.22974000  1.0
  C  C27  1  0.99159000  0.86101000  0.77026000  1.0
  C  C28  1  0.04137000  0.25240000  0.28184000  1.0
  C  C29  1  0.95863000  0.74760000  0.71816000  1.0
  C  C30  1  0.13838000  0.37372000  0.17671000  1.0
  C  C31  1  0.86162000  0.62628000  0.82328000  1.0
  C  C32  1  0.42445000  0.72723000  0.84879000  1.0
  C  C33  1  0.57555000  0.27277000  0.15121000  1.0
  C  C34  1  0.51306000  0.73176000  0.68655000  1.0
  C  C35  1  0.48694000  0.26825000  0.31345000  1.0
  C  C36  1  0.44528000  0.84823000  0.90785000  1.0
  C  C37  1  0.55472000  0.15177000  0.09215000  1.0
  C  C38  1  0.63465000  0.97069000  0.64694000  1.0
  C  C39  1  0.36535000  0.02931000  0.35307000  1.0
  S  S40  1  0.25237000  0.27541000  0.76171000  1.0
  S  S41  1  0.74763000  0.72459000  0.23829000  1.0
  N  N42  1  0.30331000  0.50359000  0.91025000  1.0
  N  N43  1  0.69669000  0.49641000  0.08975000  1.0
  N  N44  1  0.32398000  0.61771000  0.95192000  1.0
  N  N45  1  0.67602000  0.38230000  0.04808000  1.0
  N  N46  1  0.60896000  0.85538000  0.59482000  1.0
  N  N47  1  0.39104000  0.14462000  0.40518000  1.0
  N  N48  1  0.55794000  0.95588000  0.80405000  1.0
  N  N49  1  0.44206000  0.04412000  0.19595000  1.0
  O  O50  1  0.50398000  0.62954000  0.62979000  1.0
  O  O51  1  0.49602000  0.37046000  0.37021000  1.0
  O  O52  1  0.37082000  0.85660000  0.04339000  1.0
  O  O53  1  0.62918000  0.14340000  0.95661000  1.0
  O  O54  1  0.72149000  0.07838000  0.55598000  1.0
  O  O55  1  0.27852000  0.92162000  0.44402000  1.0
  O  O56  1  0.14593000  0.68978000  0.30876000  1.0
  O  O57  1  0.85407000  0.31023000  0.69124000  1.0
  O  O58  1  0.15639000  0.40783000  0.67704000  1.0
  O  O59  1  0.84361000  0.59217000  0.32296000  1.0
  O  O60  1  0.22622000  0.12930000  0.74651000  1.0
  O  O61  1  0.77378000  0.87069000  0.25349000  1.0
  O  O62  1  0.43044000  0.30445000  0.72284000  1.0
  O  O63  1  0.56956000  0.69555000  0.27716000  1.0
