# generated using pymatgen
data_PrH8(CO)9
_symmetry_space_group_name_H-M   'P 1'
_cell_length_a   7.84560000
_cell_length_b   8.56474000
_cell_length_c   9.69802000
_cell_angle_alpha   68.36670000
_cell_angle_beta   76.80010000
_cell_angle_gamma   76.16170000
_symmetry_Int_Tables_number   1
_chemical_formula_structural   PrH8(CO)9
_chemical_formula_sum   'Pr2 H16 C18 O18'
_cell_volume   581.04325396
_cell_formula_units_Z   2
loop_
 _symmetry_equiv_pos_site_id
 _symmetry_equiv_pos_as_xyz
  1  'x, y, z'
loop_
 _atom_site_type_symbol
 _atom_site_label
 _atom_site_symmetry_multiplicity
 _atom_site_fract_x
 _atom_site_fract_y
 _atom_site_fract_z
 _atom_site_occupancy
  Pr  Pr0  1  0.25104000  0.27466000  0.45247000  1.0
  Pr  Pr1  1  0.74895000  0.72535000  0.54753000  1.0
  H  H2  1  0.00980000  0.31326000  0.23032000  1.0
  H  H3  1  0.99020000  0.68674000  0.76968000  1.0
  H  H4  1  0.88418000  0.38789000  0.35726000  1.0
  H  H5  1  0.11583000  0.61211000  0.64274000  1.0
  H  H6  1  0.83882000  0.60150000  0.01949000  1.0
  H  H7  1  0.16118000  0.39849000  0.98051000  1.0
  H  H8  1  0.68569000  0.74453000  0.18938000  1.0
  H  H9  1  0.31431000  0.25546000  0.81062000  1.0
  H  H10  1  0.98730000  0.97760000  0.75921000  1.0
  H  H11  1  0.01270000  0.02240000  0.24079000  1.0
  H  H12  1  0.63762000  0.29172000  0.00250000  1.0
  H  H13  1  0.36237000  0.70827000  0.99750000  1.0
  H  H14  1  0.32653000  0.91515000  0.48045000  1.0
  H  H15  1  0.67347000  0.08485000  0.51955000  1.0
  H  H16  1  0.13245000  0.88507000  0.57014000  1.0
  H  H17  1  0.86755000  0.11493000  0.42985000  1.0
  C  C18  1  0.52927000  0.03252000  0.25053000  1.0
  C  C19  1  0.47073000  0.96749000  0.74947000  1.0
  C  C20  1  0.64989000  0.01956000  0.11016000  1.0
  C  C21  1  0.35010000  0.98043000  0.88984000  1.0
  C  C22  1  0.72143000  0.85789000  0.09818000  1.0
  C  C23  1  0.27856000  0.14211000  0.90182000  1.0
  C  C24  1  0.83956000  0.84358000  0.97085000  1.0
  C  C25  1  0.16043000  0.15642000  0.02915000  1.0
  C  C26  1  0.89169000  0.98785000  0.85741000  1.0
  C  C27  1  0.10831000  0.01215000  0.14259000  1.0
  C  C28  1  0.81888000  0.14930000  0.86898000  1.0
  C  C29  1  0.18112000  0.85070000  0.13102000  1.0
  C  C30  1  0.69515000  0.16599000  0.99419000  1.0
  C  C31  1  0.30484000  0.83401000  0.00581000  1.0
  C  C32  1  0.87371000  0.30368000  0.74433000  1.0
  C  C33  1  0.12630000  0.69632000  0.25567000  1.0
  C  C34  1  0.42556000  0.52772000  0.55872000  1.0
  C  C35  1  0.57443000  0.47228000  0.44128000  1.0
  O  O36  1  0.42483000  0.17116000  0.24746000  1.0
  O  O37  1  0.57519000  0.82885000  0.75255000  1.0
  O  O38  1  0.20974000  0.97276000  0.51907000  1.0
  O  O39  1  0.79026000  0.02724000  0.48093000  1.0
  O  O40  1  0.53832000  0.89973000  0.36949000  1.0
  O  O41  1  0.46169000  0.10027000  0.63050000  1.0
  O  O42  1  0.97930000  0.29170000  0.33985000  1.0
  O  O43  1  0.02070000  0.70830000  0.66015000  1.0
  O  O44  1  0.91267000  0.68571000  0.95447000  1.0
  O  O45  1  0.08733000  0.31429000  0.04553000  1.0
  O  O46  1  0.99768000  0.28024000  0.63940000  1.0
  O  O47  1  0.00232000  0.71975000  0.36061000  1.0
  O  O48  1  0.79281000  0.44967000  0.74827000  1.0
  O  O49  1  0.20720000  0.55033000  0.25173000  1.0
  O  O50  1  0.27744000  0.47810000  0.57972000  1.0
  O  O51  1  0.72256000  0.52190000  0.42028000  1.0
  O  O52  1  0.45811000  0.61616000  0.62468000  1.0
  O  O53  1  0.54189000  0.38384000  0.37533000  1.0
