# generated using pymatgen
data_CsH7C8O3
_symmetry_space_group_name_H-M   'P 1'
_cell_length_a   7.21775000
_cell_length_b   7.46680000
_cell_length_c   17.27600000
_cell_angle_alpha   89.99990000
_cell_angle_beta   89.99910000
_cell_angle_gamma   89.99990000
_symmetry_Int_Tables_number   1
_chemical_formula_structural   CsH7C8O3
_chemical_formula_sum   'Cs4 H28 C32 O12'
_cell_volume   931.06403160
_cell_formula_units_Z   4
loop_
 _symmetry_equiv_pos_site_id
 _symmetry_equiv_pos_as_xyz
  1  'x, y, z'
loop_
 _atom_site_type_symbol
 _atom_site_label
 _atom_site_symmetry_multiplicity
 _atom_site_fract_x
 _atom_site_fract_y
 _atom_site_fract_z
 _atom_site_occupancy
  Cs  Cs0  1  0.85776000  0.02909000  0.57679000  1.0
  Cs  Cs1  1  0.35777000  0.97092000  0.42322000  1.0
  Cs  Cs2  1  0.35777000  0.47092000  0.57679000  1.0
  Cs  Cs3  1  0.85777000  0.52909000  0.42321000  1.0
  H  H4  1  0.50761000  0.79236000  0.84631000  1.0
  H  H5  1  0.00761000  0.20762000  0.15369000  1.0
  H  H6  1  0.00763000  0.70763000  0.84631000  1.0
  H  H7  1  0.50762000  0.29238000  0.15369000  1.0
  H  H8  1  0.67657000  0.77012000  0.96936000  1.0
  H  H9  1  0.17657000  0.22987000  0.03064000  1.0
  H  H10  1  0.17658000  0.72987000  0.96937000  1.0
  H  H11  1  0.67658000  0.27012000  0.03064000  1.0
  H  H12  1  0.94247000  0.97227000  0.99802000  1.0
  H  H13  1  0.44247000  0.02772000  0.00198000  1.0
  H  H14  1  0.44248000  0.52771000  0.99802000  1.0
  H  H15  1  0.94249000  0.47227000  0.00198000  1.0
  H  H16  1  0.04745000  0.19051000  0.89709000  1.0
  H  H17  1  0.54746000  0.80947000  0.10291000  1.0
  H  H18  1  0.54745000  0.30946000  0.89709000  1.0
  H  H19  1  0.04746000  0.69052000  0.10291000  1.0
  H  H20  1  0.88056000  0.21167000  0.77187000  1.0
  H  H21  1  0.38057000  0.78832000  0.22813000  1.0
  H  H22  1  0.38056000  0.28832000  0.77187000  1.0
  H  H23  1  0.88055000  0.71168000  0.22813000  1.0
  H  H24  1  0.33000000  0.93882000  0.75701000  1.0
  H  H25  1  0.83001000  0.06118000  0.24299000  1.0
  H  H26  1  0.83000000  0.56119000  0.75701000  1.0
  H  H27  1  0.32999000  0.43884000  0.24299000  1.0
  H  H28  1  0.48274000  0.77690000  0.71542000  1.0
  H  H29  1  0.98276000  0.22310000  0.28457000  1.0
  H  H30  1  0.98276000  0.72311000  0.71542000  1.0
  H  H31  1  0.48274000  0.27691000  0.28457000  1.0
  C  C32  1  0.68245000  0.00583000  0.80116000  1.0
  C  C33  1  0.18244000  0.99415000  0.19884000  1.0
  C  C34  1  0.18245000  0.49416000  0.80116000  1.0
  C  C35  1  0.68244000  0.50584000  0.19884000  1.0
  C  C36  1  0.62515000  0.88037000  0.85653000  1.0
  C  C37  1  0.12516000  0.11962000  0.14347000  1.0
  C  C38  1  0.12516000  0.61963000  0.85653000  1.0
  C  C39  1  0.62516000  0.38037000  0.14347000  1.0
  C  C40  1  0.72066000  0.86909000  0.92684000  1.0
  C  C41  1  0.22067000  0.13091000  0.07316000  1.0
  C  C42  1  0.22067000  0.63091000  0.92684000  1.0
  C  C43  1  0.72067000  0.36909000  0.07317000  1.0
  C  C44  1  0.87059000  0.98086000  0.94272000  1.0
  C  C45  1  0.37059000  0.01912000  0.05727000  1.0
  C  C46  1  0.37059000  0.51913000  0.94272000  1.0
  C  C47  1  0.87060000  0.48086000  0.05728000  1.0
  C  C48  1  0.92867000  0.10367000  0.88647000  1.0
  C  C49  1  0.42867000  0.89632000  0.11352000  1.0
  C  C50  1  0.42867000  0.39632000  0.88648000  1.0
  C  C51  1  0.92868000  0.60368000  0.11353000  1.0
  C  C52  1  0.83605000  0.11635000  0.81594000  1.0
  C  C53  1  0.33606000  0.88364000  0.18406000  1.0
  C  C54  1  0.33605000  0.38364000  0.81594000  1.0
  C  C55  1  0.83605000  0.61636000  0.18406000  1.0
  C  C56  1  0.44072000  0.91863000  0.71382000  1.0
  C  C57  1  0.94072000  0.08137000  0.28618000  1.0
  C  C58  1  0.94073000  0.58138000  0.71382000  1.0
  C  C59  1  0.44071000  0.41863000  0.28618000  1.0
  C  C60  1  0.36347000  0.95872000  0.63294000  1.0
  C  C61  1  0.86345000  0.04130000  0.36705000  1.0
  C  C62  1  0.86347000  0.54129000  0.63295000  1.0
  C  C63  1  0.36346000  0.45870000  0.36706000  1.0
  O  O64  1  0.59694000  0.03073000  0.73094000  1.0
  O  O65  1  0.09694000  0.96927000  0.26906000  1.0
  O  O66  1  0.09695000  0.46927000  0.73094000  1.0
  O  O67  1  0.59693000  0.53074000  0.26906000  1.0
  O  O68  1  0.43496000  0.08319000  0.59302000  1.0
  O  O69  1  0.93494000  0.91685000  0.40699000  1.0
  O  O70  1  0.93496000  0.41682000  0.59302000  1.0
  O  O71  1  0.43494000  0.58317000  0.40699000  1.0
  O  O72  1  0.23020000  0.85800000  0.61266000  1.0
  O  O73  1  0.73019000  0.14205000  0.38734000  1.0
  O  O74  1  0.73021000  0.64203000  0.61265000  1.0
  O  O75  1  0.23020000  0.35797000  0.38734000  1.0
