# generated using pymatgen
data_CuH20C24(N2O3)2
_symmetry_space_group_name_H-M   'P 1'
_cell_length_a   6.81787000
_cell_length_b   10.62650000
_cell_length_c   14.63690000
_cell_angle_alpha   83.89720000
_cell_angle_beta   89.99970000
_cell_angle_gamma   89.99980000
_symmetry_Int_Tables_number   1
_chemical_formula_structural   CuH20C24(N2O3)2
_chemical_formula_sum   'Cu2 H40 C48 N8 O12'
_cell_volume   1054.43499769
_cell_formula_units_Z   2
loop_
 _symmetry_equiv_pos_site_id
 _symmetry_equiv_pos_as_xyz
  1  'x, y, z'
loop_
 _atom_site_type_symbol
 _atom_site_label
 _atom_site_symmetry_multiplicity
 _atom_site_fract_x
 _atom_site_fract_y
 _atom_site_fract_z
 _atom_site_occupancy
  Cu  Cu0  1  0.55353000  0.08885000  0.09152000  1.0
  Cu  Cu1  1  0.05353000  0.91115000  0.90848000  1.0
  H  H2  1  0.58945000  0.62602000  0.73020000  1.0
  H  H3  1  0.08945000  0.37398000  0.26979000  1.0
  H  H4  1  0.63880000  0.12449000  0.25625000  1.0
  H  H5  1  0.13880000  0.87551000  0.74375000  1.0
  H  H6  1  0.44134000  0.05207000  0.93096000  1.0
  H  H7  1  0.94134000  0.94793000  0.06904000  1.0
  H  H8  1  0.70671000  0.54801000  0.44573000  1.0
  H  H9  1  0.20671000  0.45199000  0.55427000  1.0
  H  H10  1  0.70265000  0.42074000  0.15426000  1.0
  H  H11  1  0.20265000  0.57926000  0.84574000  1.0
  H  H12  1  0.72675000  0.57415000  0.03469000  1.0
  H  H13  1  0.22675000  0.42585000  0.96530000  1.0
  H  H14  1  0.68588000  0.66310000  0.87269000  1.0
  H  H15  1  0.18588000  0.33690000  0.12731000  1.0
  H  H16  1  0.45268000  0.30412000  0.80941000  1.0
  H  H17  1  0.95268000  0.69588000  0.19059000  1.0
  H  H18  1  0.43033000  0.75037000  0.03100000  1.0
  H  H19  1  0.93032000  0.24963000  0.96900000  1.0
  H  H20  1  0.45926000  0.58971000  0.15066000  1.0
  H  H21  1  0.95926000  0.41029000  0.84934000  1.0
  H  H22  1  0.56421000  0.50277000  0.30653000  1.0
  H  H23  1  0.06421000  0.49723000  0.69348000  1.0
  H  H24  1  0.71089000  0.88060000  0.36677000  1.0
  H  H25  1  0.21088000  0.11940000  0.63323000  1.0
  H  H26  1  0.13436000  0.54006000  0.38759000  1.0
  H  H27  1  0.63435000  0.45994000  0.61241000  1.0
  H  H28  1  0.13928000  0.75332000  0.30626000  1.0
  H  H29  1  0.63928000  0.24668000  0.69374000  1.0
  H  H30  1  0.29088000  0.89331000  0.56487000  1.0
  H  H31  1  0.79088000  0.10669000  0.43513000  1.0
  H  H32  1  0.29180000  0.67159000  0.63453000  1.0
  H  H33  1  0.79180000  0.32841000  0.36547000  1.0
  H  H34  1  0.34222000  0.06663000  0.49328000  1.0
  H  H35  1  0.84222000  0.93337000  0.50672000  1.0
  H  H36  1  0.29185000  0.28286000  0.41995000  1.0
  H  H37  1  0.79184000  0.71714000  0.58005000  1.0
  H  H38  1  0.03032000  0.15251000  0.19142000  1.0
  H  H39  1  0.53032000  0.84749000  0.80858000  1.0
  H  H40  1  0.05855000  0.93096000  0.25758000  1.0
  H  H41  1  0.55854000  0.06904000  0.74242000  1.0
  C  C42  1  0.65087000  0.34984000  0.11085000  1.0
  C  C43  1  0.15087000  0.65016000  0.88915000  1.0
  C  C44  1  0.62298000  0.38816000  0.01502000  1.0
  C  C45  1  0.12298000  0.61184000  0.98498000  1.0
  C  C46  1  0.66878000  0.51518000  0.98448000  1.0
  C  C47  1  0.16878000  0.48482000  0.01552000  1.0
  C  C48  1  0.64453000  0.56562000  0.89452000  1.0
  C  C49  1  0.14453000  0.43438000  0.10547000  1.0
  C  C50  1  0.56684000  0.48825000  0.83053000  1.0
  C  C51  1  0.06683000  0.51175000  0.16947000  1.0
  C  C52  1  0.51739000  0.36206000  0.85864000  1.0
  C  C53  1  0.01738000  0.63794000  0.14136000  1.0
  C  C54  1  0.54599000  0.30876000  0.94996000  1.0
  C  C55  1  0.04599000  0.69124000  0.05004000  1.0
  C  C56  1  0.47446000  0.82344000  0.07434000  1.0
  C  C57  1  0.97446000  0.17656000  0.92566000  1.0
  C  C58  1  0.52730000  0.78376000  0.16763000  1.0
  C  C59  1  0.02730000  0.21624000  0.83237000  1.0
  C  C60  1  0.51707000  0.65299000  0.19818000  1.0
  C  C61  1  0.01707000  0.34701000  0.80182000  1.0
  C  C62  1  0.57501000  0.60387000  0.28511000  1.0
  C  C63  1  0.07501000  0.39613000  0.71489000  1.0
  C  C64  1  0.64906000  0.68675000  0.34660000  1.0
  C  C65  1  0.14906000  0.31324000  0.65340000  1.0
  C  C66  1  0.65825000  0.81674000  0.31870000  1.0
  C  C67  1  0.15824000  0.18326000  0.68130000  1.0
  C  C68  1  0.59575000  0.86800000  0.23114000  1.0
  C  C69  1  0.09574000  0.13200000  0.76886000  1.0
  C  C70  1  0.17080000  0.62027000  0.42503000  1.0
  C  C71  1  0.67080000  0.37973000  0.57497000  1.0
  C  C72  1  0.17061000  0.74179000  0.37951000  1.0
  C  C73  1  0.67060000  0.25821000  0.62049000  1.0
  C  C74  1  0.21215000  0.84533000  0.42809000  1.0
  C  C75  1  0.71215000  0.15467000  0.57191000  1.0
  C  C76  1  0.25746000  0.81852000  0.52186000  1.0
  C  C77  1  0.75746000  0.18148000  0.47814000  1.0
  C  C78  1  0.25765000  0.69392000  0.56190000  1.0
  C  C79  1  0.75764000  0.30608000  0.43810000  1.0
  C  C80  1  0.20199000  0.97673000  0.38318000  1.0
  C  C81  1  0.70198000  0.02327000  0.61682000  1.0
  C  C82  1  0.27047000  0.07991000  0.42657000  1.0
  C  C83  1  0.77046000  0.92009000  0.57343000  1.0
  C  C84  1  0.24534000  0.20258000  0.38469000  1.0
  C  C85  1  0.74534000  0.79742000  0.61531000  1.0
  C  C86  1  0.09849000  0.13025000  0.25863000  1.0
  C  C87  1  0.59849000  0.86975000  0.74137000  1.0
  C  C88  1  0.11624000  0.00498000  0.29604000  1.0
  C  C89  1  0.61623000  0.99502000  0.70396000  1.0
  N  N90  1  0.61898000  0.23650000  0.15025000  1.0
  N  N91  1  0.11899000  0.76350000  0.84975000  1.0
  N  N92  1  0.47860000  0.93985000  0.03677000  1.0
  N  N93  1  0.97860000  0.06015000  0.96323000  1.0
  N  N94  1  0.15892000  0.22835000  0.30238000  1.0
  N  N95  1  0.65892000  0.77165000  0.69762000  1.0
  N  N96  1  0.21326000  0.59603000  0.51472000  1.0
  N  N97  1  0.71326000  0.40397000  0.48528000  1.0
  O  O98  1  0.53786000  0.53437000  0.74204000  1.0
  O  O99  1  0.03786000  0.46563000  0.25796000  1.0
  O  O100  1  0.49925000  0.18833000  0.97343000  1.0
  O  O101  1  0.99925000  0.81167000  0.02657000  1.0
  O  O102  1  0.65184000  0.21946000  0.24464000  1.0
  O  O103  1  0.15184000  0.78054000  0.75536000  1.0
  O  O104  1  0.60235000  0.99235000  0.21037000  1.0
  O  O105  1  0.10234000  0.00765000  0.78963000  1.0
  O  O106  1  0.42744000  0.95740000  0.94355000  1.0
  O  O107  1  0.92744000  0.04260000  0.05645000  1.0
  O  O108  1  0.70858000  0.64633000  0.43199000  1.0
  O  O109  1  0.20858000  0.35367000  0.56801000  1.0
