# generated using pymatgen
data_AgH10C14S2N4ClO4
_symmetry_space_group_name_H-M   'P 1'
_cell_length_a   7.96344000
_cell_length_b   13.89530000
_cell_length_c   14.99540000
_cell_angle_alpha   78.35300000
_cell_angle_beta   89.99990000
_cell_angle_gamma   89.99980000
_symmetry_Int_Tables_number   1
_chemical_formula_structural   AgH10C14S2N4ClO4
_chemical_formula_sum   'Ag4 H40 C56 S8 N16 Cl4 O16'
_cell_volume   1625.14163842
_cell_formula_units_Z   4
loop_
 _symmetry_equiv_pos_site_id
 _symmetry_equiv_pos_as_xyz
  1  'x, y, z'
loop_
 _atom_site_type_symbol
 _atom_site_label
 _atom_site_symmetry_multiplicity
 _atom_site_fract_x
 _atom_site_fract_y
 _atom_site_fract_z
 _atom_site_occupancy
  Ag  Ag0  1  0.08561000  0.99575000  0.23295000  1.0
  Ag  Ag1  1  0.58560000  0.50425000  0.26706000  1.0
  Ag  Ag2  1  0.91440000  0.00425000  0.76706000  1.0
  Ag  Ag3  1  0.41439000  0.49575000  0.73294000  1.0
  H  H4  1  0.77947000  0.13625000  0.15701000  1.0
  H  H5  1  0.27946000  0.36375000  0.34299000  1.0
  H  H6  1  0.22054000  0.86375000  0.84299000  1.0
  H  H7  1  0.72053000  0.63625000  0.65701000  1.0
  H  H8  1  0.29527000  0.20695000  0.13367000  1.0
  H  H9  1  0.79527000  0.29305000  0.36632000  1.0
  H  H10  1  0.70474000  0.79305000  0.86632000  1.0
  H  H11  1  0.20473000  0.70695000  0.63367000  1.0
  H  H12  1  0.10639000  0.37720000  0.06942000  1.0
  H  H13  1  0.60639000  0.12280000  0.43058000  1.0
  H  H14  1  0.89362000  0.62280000  0.93057000  1.0
  H  H15  1  0.39361000  0.87720000  0.56943000  1.0
  H  H16  1  0.59766000  0.26504000  0.19969000  1.0
  H  H17  1  0.09766000  0.23496000  0.30031000  1.0
  H  H18  1  0.40235000  0.73495000  0.80031000  1.0
  H  H19  1  0.90234000  0.76505000  0.69969000  1.0
  H  H20  1  0.37080000  0.39998000  0.13602000  1.0
  H  H21  1  0.87080000  0.10002000  0.36398000  1.0
  H  H22  1  0.62921000  0.60001000  0.86399000  1.0
  H  H23  1  0.12920000  0.89999000  0.63601000  1.0
  H  H24  1  0.79469000  0.82847000  0.26542000  1.0
  H  H25  1  0.29468000  0.67153000  0.23458000  1.0
  H  H26  1  0.20531000  0.17153000  0.73459000  1.0
  H  H27  1  0.70531000  0.32847000  0.76541000  1.0
  H  H28  1  0.25160000  0.83242000  0.40768000  1.0
  H  H29  1  0.75159000  0.66758000  0.09233000  1.0
  H  H30  1  0.74841000  0.16757000  0.59233000  1.0
  H  H31  1  0.24840000  0.33243000  0.90766000  1.0
  H  H32  1  0.04908000  0.68086000  0.50227000  1.0
  H  H33  1  0.54909000  0.81914000  0.99774000  1.0
  H  H34  1  0.95091000  0.31913000  0.49774000  1.0
  H  H35  1  0.45091000  0.18087000  0.00226000  1.0
  H  H36  1  0.53911000  0.77977000  0.36033000  1.0
  H  H37  1  0.03911000  0.72023000  0.13966000  1.0
  H  H38  1  0.46088000  0.22023000  0.63966000  1.0
  H  H39  1  0.96089000  0.27977000  0.86034000  1.0
  H  H40  1  0.32497000  0.63780000  0.42419000  1.0
  H  H41  1  0.82496000  0.86220000  0.07580000  1.0
  H  H42  1  0.67503000  0.36220000  0.57580000  1.0
  H  H43  1  0.17502000  0.13780000  0.92420000  1.0
  C  C44  1  0.89623000  0.17627000  0.14231000  1.0
  C  C45  1  0.39622000  0.32373000  0.35770000  1.0
  C  C46  1  0.10379000  0.82373000  0.85769000  1.0
  C  C47  1  0.60377000  0.67627000  0.64230000  1.0
  C  C48  1  0.16075000  0.21770000  0.12781000  1.0
  C  C49  1  0.66074000  0.28230000  0.37219000  1.0
  C  C50  1  0.83926000  0.78230000  0.87219000  1.0
  C  C51  1  0.33926000  0.71770000  0.62780000  1.0
  C  C52  1  0.07012000  0.30167000  0.09563000  1.0
  C  C53  1  0.57012000  0.19832000  0.40437000  1.0
  C  C54  1  0.92989000  0.69832000  0.90437000  1.0
  C  C55  1  0.42988000  0.80168000  0.59563000  1.0
  C  C56  1  0.75915000  0.33434000  0.08866000  1.0
  C  C57  1  0.25915000  0.16566000  0.41134000  1.0
  C  C58  1  0.24086000  0.66565000  0.91134000  1.0
  C  C59  1  0.74085000  0.83435000  0.58866000  1.0
  C  C60  1  0.61386000  0.32245000  0.13937000  1.0
  C  C61  1  0.11386000  0.17755000  0.36063000  1.0
  C  C62  1  0.38615000  0.67754000  0.86063000  1.0
  C  C63  1  0.88614000  0.82245000  0.63937000  1.0
  C  C64  1  0.49238000  0.39430000  0.10437000  1.0
  C  C65  1  0.99237000  0.10570000  0.39563000  1.0
  C  C66  1  0.50764000  0.60570000  0.89563000  1.0
  C  C67  1  0.00763000  0.89430000  0.60437000  1.0
  C  C68  1  0.54472000  0.45906000  0.02649000  1.0
  C  C69  1  0.04471000  0.04093000  0.47351000  1.0
  C  C70  1  0.45530000  0.54093000  0.97351000  1.0
  C  C71  1  0.95529000  0.95907000  0.52649000  1.0
  C  C72  1  0.89456000  0.80976000  0.31509000  1.0
  C  C73  1  0.39454000  0.69024000  0.18491000  1.0
  C  C74  1  0.10545000  0.19024000  0.68491000  1.0
  C  C75  1  0.60545000  0.30976000  0.81509000  1.0
  C  C76  1  0.12799000  0.80811000  0.39186000  1.0
  C  C77  1  0.62798000  0.69189000  0.10815000  1.0
  C  C78  1  0.87201000  0.19189000  0.60815000  1.0
  C  C79  1  0.37201000  0.30811000  0.89184000  1.0
  C  C80  1  0.03062000  0.73337000  0.43899000  1.0
  C  C81  1  0.53062000  0.76663000  0.06102000  1.0
  C  C82  1  0.96937000  0.26663000  0.56102000  1.0
  C  C83  1  0.46937000  0.23338000  0.93898000  1.0
  C  C84  1  0.73908000  0.67767000  0.41437000  1.0
  C  C85  1  0.23908000  0.82233000  0.08563000  1.0
  C  C86  1  0.26091000  0.32233000  0.58563000  1.0
  C  C87  1  0.76091000  0.17767000  0.91437000  1.0
  C  C88  1  0.57483000  0.70667000  0.39658000  1.0
  C  C89  1  0.07482000  0.79333000  0.10341000  1.0
  C  C90  1  0.42517000  0.29333000  0.60341000  1.0
  C  C91  1  0.92517000  0.20668000  0.89659000  1.0
  C  C92  1  0.46063000  0.63032000  0.43111000  1.0
  C  C93  1  0.96062000  0.86968000  0.06889000  1.0
  C  C94  1  0.53936000  0.36968000  0.56889000  1.0
  C  C95  1  0.03936000  0.13032000  0.93111000  1.0
  C  C96  1  0.53804000  0.54484000  0.47617000  1.0
  C  C97  1  0.03803000  0.95516000  0.02383000  1.0
  C  C98  1  0.46196000  0.45516000  0.52383000  1.0
  C  C99  1  0.96195000  0.04484000  0.97617000  1.0
  S  S100  1  0.75548000  0.55695000  0.47167000  1.0
  S  S101  1  0.25547000  0.94306000  0.02833000  1.0
  S  S102  1  0.24451000  0.44305000  0.52833000  1.0
  S  S103  1  0.74451000  0.05695000  0.97167000  1.0
  S  S104  1  0.74716000  0.43055000  0.99603000  1.0
  S  S105  1  0.24715000  0.06944000  0.50397000  1.0
  S  S106  1  0.25285000  0.56944000  0.00397000  1.0
  S  S107  1  0.75285000  0.93056000  0.49602000  1.0
  N  N108  1  0.05085000  0.14053000  0.15689000  1.0
  N  N109  1  0.55085000  0.35947000  0.34311000  1.0
  N  N110  1  0.94916000  0.85947000  0.84311000  1.0
  N  N111  1  0.44915000  0.64054000  0.65689000  1.0
  N  N112  1  0.90223000  0.27445000  0.10570000  1.0
  N  N113  1  0.40223000  0.22555000  0.39430000  1.0
  N  N114  1  0.09778000  0.72554000  0.89430000  1.0
  N  N115  1  0.59777000  0.77446000  0.60570000  1.0
  N  N116  1  0.04175000  0.85505000  0.31514000  1.0
  N  N117  1  0.54173000  0.64495000  0.18487000  1.0
  N  N118  1  0.95826000  0.14495000  0.68487000  1.0
  N  N119  1  0.45826000  0.35505000  0.81512000  1.0
  N  N120  1  0.88241000  0.73547000  0.38978000  1.0
  N  N121  1  0.38240000  0.76453000  0.11022000  1.0
  N  N122  1  0.11759000  0.26453000  0.61023000  1.0
  N  N123  1  0.61759000  0.23548000  0.88977000  1.0
  Cl  Cl124  1  0.54105000  0.99834000  0.24018000  1.0
  Cl  Cl125  1  0.04104000  0.50166000  0.25982000  1.0
  Cl  Cl126  1  0.45896000  0.00166000  0.75982000  1.0
  Cl  Cl127  1  0.95896000  0.49834000  0.74018000  1.0
  O  O128  1  0.69871000  0.01899000  0.28310000  1.0
  O  O129  1  0.19870000  0.48101000  0.21690000  1.0
  O  O130  1  0.30130000  0.98101000  0.71690000  1.0
  O  O131  1  0.80130000  0.51899000  0.78310000  1.0
  O  O132  1  0.49540000  0.08393000  0.17006000  1.0
  O  O133  1  0.99539000  0.41607000  0.32994000  1.0
  O  O134  1  0.50461000  0.91607000  0.82994000  1.0
  O  O135  1  0.00461000  0.58393000  0.67006000  1.0
  O  O136  1  0.40894000  0.97870000  0.30950000  1.0
  O  O137  1  0.90893000  0.52130000  0.19050000  1.0
  O  O138  1  0.59106000  0.02130000  0.69050000  1.0
  O  O139  1  0.09107000  0.47870000  0.80950000  1.0
  O  O140  1  0.56339000  0.91273000  0.19857000  1.0
  O  O141  1  0.06339000  0.58727000  0.30143000  1.0
  O  O142  1  0.43661000  0.08727000  0.80143000  1.0
  O  O143  1  0.93661000  0.41273000  0.69857000  1.0
