# generated using pymatgen
data_CuH6C8(N2O3)2
_symmetry_space_group_name_H-M   'P 1'
_cell_length_a   6.79524000
_cell_length_b   7.60273356
_cell_length_c   12.04184817
_cell_angle_alpha   76.68031686
_cell_angle_beta   73.62061695
_cell_angle_gamma   63.48683577
_symmetry_Int_Tables_number   1
_chemical_formula_structural   CuH6C8(N2O3)2
_chemical_formula_sum   'Cu2 H12 C16 N8 O12'
_cell_volume   530.12039076
_cell_formula_units_Z   2
loop_
 _symmetry_equiv_pos_site_id
 _symmetry_equiv_pos_as_xyz
  1  'x, y, z'
loop_
 _atom_site_type_symbol
 _atom_site_label
 _atom_site_symmetry_multiplicity
 _atom_site_fract_x
 _atom_site_fract_y
 _atom_site_fract_z
 _atom_site_occupancy
  Cu  Cu0  1  0.51998000  0.76980000  0.19041000  1.0
  Cu  Cu1  1  0.48003000  0.23014000  0.80964000  1.0
  H  H2  1  0.29515000  0.76237000  0.01666000  1.0
  H  H3  1  0.07418000  0.23763000  0.98332000  1.0
  H  H4  1  0.70482000  0.23768000  0.98335000  1.0
  H  H5  1  0.92583000  0.76241000  0.01668000  1.0
  H  H6  1  0.28523000  0.75529000  0.40604000  1.0
  H  H7  1  0.44639000  0.24450000  0.59399000  1.0
  H  H8  1  0.71472000  0.24479000  0.59398000  1.0
  H  H9  1  0.55359000  0.75556000  0.40602000  1.0
  H  H10  1  0.01027000  0.75729000  0.59036000  1.0
  H  H11  1  0.35752000  0.24263000  0.40960000  1.0
  H  H12  1  0.98966000  0.24282000  0.40965000  1.0
  H  H13  1  0.64244000  0.75747000  0.59040000  1.0
  C  C14  1  0.17300000  0.76382000  0.09793000  1.0
  C  C15  1  0.03472000  0.23608000  0.90208000  1.0
  C  C16  1  0.82699000  0.23620000  0.90209000  1.0
  C  C17  1  0.96528000  0.76393000  0.09793000  1.0
  C  C18  1  0.07471000  0.76300000  0.29881000  1.0
  C  C19  1  0.13636000  0.23687000  0.70120000  1.0
  C  C20  1  0.92528000  0.23702000  0.70120000  1.0
  C  C21  1  0.86364000  0.76314000  0.29881000  1.0
  C  C22  1  0.12365000  0.75953000  0.40577000  1.0
  C  C23  1  0.28880000  0.24024000  0.59424000  1.0
  C  C24  1  0.87632000  0.24053000  0.59424000  1.0
  C  C25  1  0.71118000  0.75980000  0.40578000  1.0
  C  C26  1  0.97001000  0.75968000  0.50859000  1.0
  C  C27  1  0.23800000  0.24023000  0.49140000  1.0
  C  C28  1  0.02994000  0.24041000  0.49141000  1.0
  C  C29  1  0.76198000  0.75983000  0.50860000  1.0
  N  N30  1  0.22491000  0.76489000  0.19573000  1.0
  N  N31  1  0.18548000  0.23490000  0.80426000  1.0
  N  N32  1  0.77508000  0.23513000  0.80428000  1.0
  N  N33  1  0.81451000  0.76510000  0.19576000  1.0
  N  N34  1  0.71243000  0.36671000  0.20855000  1.0
  N  N35  1  0.28747000  0.63330000  0.79165000  1.0
  N  N36  1  0.32268000  0.17666000  0.17798000  1.0
  N  N37  1  0.67752000  0.82314000  0.82177000  1.0
  O  O38  1  0.68264000  0.51248000  0.12240000  1.0
  O  O39  1  0.31730000  0.48746000  0.87776000  1.0
  O  O40  1  0.81155000  0.19491000  0.18216000  1.0
  O  O41  1  0.18830000  0.80507000  0.81810000  1.0
  O  O42  1  0.64004000  0.40875000  0.31112000  1.0
  O  O43  1  0.35983000  0.59138000  0.68906000  1.0
  O  O44  1  0.35661000  0.02603000  0.26083000  1.0
  O  O45  1  0.64343000  0.97400000  0.73906000  1.0
  O  O46  1  0.22348000  0.34538000  0.20786000  1.0
  O  O47  1  0.77676000  0.65455000  0.79169000  1.0
  O  O48  1  0.39322000  0.13893000  0.07444000  1.0
  O  O49  1  0.60713000  0.86050000  0.92536000  1.0
