# generated using pymatgen
data_Mn3H20C18(NO9)2
_symmetry_space_group_name_H-M   'P 1'
_cell_length_a   6.77250000
_cell_length_b   8.31659000
_cell_length_c   10.40820000
_cell_angle_alpha   83.52030000
_cell_angle_beta   85.25890000
_cell_angle_gamma   77.63210000
_symmetry_Int_Tables_number   1
_chemical_formula_structural   Mn3H20C18(NO9)2
_chemical_formula_sum   'Mn3 H20 C18 N2 O18'
_cell_volume   567.93566707
_cell_formula_units_Z   1
loop_
 _symmetry_equiv_pos_site_id
 _symmetry_equiv_pos_as_xyz
  1  'x, y, z'
loop_
 _atom_site_type_symbol
 _atom_site_label
 _atom_site_symmetry_multiplicity
 _atom_site_fract_x
 _atom_site_fract_y
 _atom_site_fract_z
 _atom_site_occupancy
  Mn  Mn0  1  0.00205000  0.99818000  0.00093000  1.0
  Mn  Mn1  1  0.35619000  0.88409000  0.68845000  1.0
  Mn  Mn2  1  0.62249000  0.12323000  0.31205000  1.0
  H  H3  1  0.76927000  0.73428000  0.98050000  1.0
  H  H4  1  0.23829000  0.25337000  0.01357000  1.0
  H  H5  1  0.65770000  0.90302000  0.91153000  1.0
  H  H6  1  0.35307000  0.08146000  0.07977000  1.0
  H  H7  1  0.31241000  0.71286000  0.91276000  1.0
  H  H8  1  0.67415000  0.29017000  0.07492000  1.0
  H  H9  1  0.53684000  0.64142000  0.85778000  1.0
  H  H10  1  0.45155000  0.37329000  0.12507000  1.0
  H  H11  1  0.43320000  0.08850000  0.83917000  1.0
  H  H12  1  0.56590000  0.88199000  0.15571000  1.0
  H  H13  1  0.63434000  0.06289000  0.73824000  1.0
  H  H14  1  0.35921000  0.91835000  0.25233000  1.0
  H  H15  1  0.18576000  0.80446000  0.50336000  1.0
  H  H16  1  0.82571000  0.19544000  0.50098000  1.0
  H  H17  1  0.01744000  0.86475000  0.62090000  1.0
  H  H18  1  0.98713000  0.13609000  0.37732000  1.0
  H  H19  1  0.33693000  0.51636000  0.48490000  1.0
  H  H20  1  0.68233000  0.48203000  0.52860000  1.0
  H  H21  1  0.93394000  0.68547000  0.80488000  1.0
  H  H22  1  0.06080000  0.32429000  0.19529000  1.0
  C  C23  1  0.00084000  0.13592000  0.72979000  1.0
  C  C24  1  0.99941000  0.86973000  0.27621000  1.0
  C  C25  1  0.07521000  0.29576000  0.70926000  1.0
  C  C26  1  0.92882000  0.70888000  0.30001000  1.0
  C  C27  1  0.20943000  0.33030000  0.60322000  1.0
  C  C28  1  0.80056000  0.67138000  0.40925000  1.0
  C  C29  1  0.30435000  0.20564000  0.51572000  1.0
  C  C30  1  0.69355000  0.79990000  0.49288000  1.0
  C  C31  1  0.23939000  0.49258000  0.57033000  1.0
  C  C32  1  0.77513000  0.50887000  0.44153000  1.0
  C  C33  1  0.13650000  0.62016000  0.64046000  1.0
  C  C34  1  0.87539000  0.38330000  0.36786000  1.0
  C  C35  1  0.01145000  0.58576000  0.74848000  1.0
  C  C36  1  0.98865000  0.42186000  0.25518000  1.0
  C  C37  1  0.98051000  0.42554000  0.78365000  1.0
  C  C38  1  0.01740000  0.58242000  0.22014000  1.0
  C  C39  1  0.84213000  0.40086000  0.90000000  1.0
  C  C40  1  0.14986000  0.60487000  0.09902000  1.0
  N  N41  1  0.15410000  0.78691000  0.60236000  1.0
  N  N42  1  0.85906000  0.21890000  0.40355000  1.0
  O  O43  1  0.10374000  0.00561000  0.79665000  1.0
  O  O44  1  0.90444000  0.99060000  0.19922000  1.0
  O  O45  1  0.83659000  0.13471000  0.68295000  1.0
  O  O46  1  0.15732000  0.87843000  0.32929000  1.0
  O  O47  1  0.83550000  0.25148000  0.94912000  1.0
  O  O48  1  0.16984000  0.75179000  0.05005000  1.0
  O  O49  1  0.73531000  0.52679000  0.94788000  1.0
  O  O50  1  0.24103000  0.47773000  0.04604000  1.0
  O  O51  1  0.31430000  0.05108000  0.55028000  1.0
  O  O52  1  0.72345000  0.94732000  0.46572000  1.0
  O  O53  1  0.37241000  0.25472000  0.40250000  1.0
  O  O54  1  0.57621000  0.75636000  0.58837000  1.0
  O  O55  1  0.74446000  0.85555000  0.98524000  1.0
  O  O56  1  0.26828000  0.13314000  0.00516000  1.0
  O  O57  1  0.40205000  0.70376000  0.83104000  1.0
  O  O58  1  0.57906000  0.30024000  0.15359000  1.0
  O  O59  1  0.52474000  0.01015000  0.78493000  1.0
  O  O60  1  0.47279000  0.96499000  0.20403000  1.0
