# generated using pymatgen
data_Zn2H27C24NO10
_symmetry_space_group_name_H-M   'P 1'
_cell_length_a   10.35270000
_cell_length_b   11.74810000
_cell_length_c   20.37700000
_cell_angle_alpha   89.99990000
_cell_angle_beta   90.00010000
_cell_angle_gamma   89.99990000
_symmetry_Int_Tables_number   1
_chemical_formula_structural   Zn2H27C24NO10
_chemical_formula_sum   'Zn8 H108 C96 N4 O40'
_cell_volume   2478.34355457
_cell_formula_units_Z   4
loop_
 _symmetry_equiv_pos_site_id
 _symmetry_equiv_pos_as_xyz
  1  'x, y, z'
loop_
 _atom_site_type_symbol
 _atom_site_label
 _atom_site_symmetry_multiplicity
 _atom_site_fract_x
 _atom_site_fract_y
 _atom_site_fract_z
 _atom_site_occupancy
  Zn  Zn0  1  0.02880000  0.42490000  0.49226000  1.0
  Zn  Zn1  1  0.47120000  0.57510000  0.99226000  1.0
  Zn  Zn2  1  0.52881000  0.07510000  0.50774000  1.0
  Zn  Zn3  1  0.97119000  0.92490000  0.00774000  1.0
  Zn  Zn4  1  0.34156000  0.32209000  0.48379000  1.0
  Zn  Zn5  1  0.15844000  0.67791000  0.98379000  1.0
  Zn  Zn6  1  0.84156000  0.17791000  0.51620000  1.0
  Zn  Zn7  1  0.65844000  0.82209000  0.01621000  1.0
  H  H8  1  0.24073000  0.01975000  0.52341000  1.0
  H  H9  1  0.25927000  0.98025000  0.02341000  1.0
  H  H10  1  0.74073000  0.48025000  0.47659000  1.0
  H  H11  1  0.75927000  0.51975000  0.97659000  1.0
  H  H12  1  0.35798000  0.06107000  0.62611000  1.0
  H  H13  1  0.14202000  0.93893000  0.12610000  1.0
  H  H14  1  0.85798000  0.43894000  0.37390000  1.0
  H  H15  1  0.64201000  0.56107000  0.87390000  1.0
  H  H16  1  0.18870000  0.08064000  0.63839000  1.0
  H  H17  1  0.31130000  0.91936000  0.13839000  1.0
  H  H18  1  0.68870000  0.41936000  0.36161000  1.0
  H  H19  1  0.81130000  0.58064000  0.86161000  1.0
  H  H20  1  0.29205000  0.20126000  0.62882000  1.0
  H  H21  1  0.20795000  0.79875000  0.12882000  1.0
  H  H22  1  0.79206000  0.29875000  0.37118000  1.0
  H  H23  1  0.70795000  0.70126000  0.87118000  1.0
  H  H24  1  0.05840000  0.51764000  0.68640000  1.0
  H  H25  1  0.44159000  0.48236000  0.18640000  1.0
  H  H26  1  0.55841000  0.98236000  0.31360000  1.0
  H  H27  1  0.94159000  0.01764000  0.81360000  1.0
  H  H28  1  0.08929000  0.55716000  0.80504000  1.0
  H  H29  1  0.41071000  0.44283000  0.30504000  1.0
  H  H30  1  0.58929000  0.94283000  0.19496000  1.0
  H  H31  1  0.91071000  0.05717000  0.69496000  1.0
  H  H32  1  0.49480000  0.48562000  0.78710000  1.0
  H  H33  1  0.00520000  0.51438000  0.28710000  1.0
  H  H34  1  0.99480000  0.01438000  0.21290000  1.0
  H  H35  1  0.50520000  0.98562000  0.71290000  1.0
  H  H36  1  0.46357000  0.44249000  0.66738000  1.0
  H  H37  1  0.03643000  0.55751000  0.16738000  1.0
  H  H38  1  0.96357000  0.05751000  0.33262000  1.0
  H  H39  1  0.53643000  0.94249000  0.83262000  1.0
  H  H40  1  0.05551000  0.65278000  0.57416000  1.0
  H  H41  1  0.44448000  0.34722000  0.07416000  1.0
  H  H42  1  0.55551000  0.84723000  0.42584000  1.0
  H  H43  1  0.94449000  0.15277000  0.92584000  1.0
  H  H44  1  0.81133000  0.88954000  0.49169000  1.0
  H  H45  1  0.68867000  0.11047000  0.99168000  1.0
  H  H46  1  0.31133000  0.61047000  0.50832000  1.0
  H  H47  1  0.18867000  0.38953000  0.00832000  1.0
  H  H48  1  0.72245000  0.76898000  0.52013000  1.0
  H  H49  1  0.77755000  0.23101000  0.02014000  1.0
  H  H50  1  0.22245000  0.73102000  0.47987000  1.0
  H  H51  1  0.27755000  0.26898000  0.97986000  1.0
  H  H52  1  0.82437000  0.75486000  0.45020000  1.0
  H  H53  1  0.67563000  0.24515000  0.95020000  1.0
  H  H54  1  0.32437000  0.74515000  0.54980000  1.0
  H  H55  1  0.17563000  0.25485000  0.04980000  1.0
  H  H56  1  0.97870000  0.93382000  0.56841000  1.0
  H  H57  1  0.52131000  0.06618000  0.06841000  1.0
  H  H58  1  0.47870000  0.56618000  0.43159000  1.0
  H  H59  1  0.02131000  0.43382000  0.93159000  1.0
  H  H60  1  0.04880000  0.82023000  0.61492000  1.0
  H  H61  1  0.45121000  0.17978000  0.11492000  1.0
  H  H62  1  0.54880000  0.67977000  0.38508000  1.0
  H  H63  1  0.95120000  0.32022000  0.88508000  1.0
  H  H64  1  0.88328000  0.86051000  0.62738000  1.0
  H  H65  1  0.61672000  0.13950000  0.12738000  1.0
  H  H66  1  0.38329000  0.63950000  0.37262000  1.0
  H  H67  1  0.11672000  0.36050000  0.87262000  1.0
  H  H68  1  0.92555000  0.70355000  0.23993000  1.0
  H  H69  1  0.57445000  0.29645000  0.73993000  1.0
  H  H70  1  0.42556000  0.79645000  0.76006000  1.0
  H  H71  1  0.07444000  0.20355000  0.26007000  1.0
  H  H72  1  0.81619000  0.68415000  0.12449000  1.0
  H  H73  1  0.68381000  0.31585000  0.62448000  1.0
  H  H74  1  0.31620000  0.81585000  0.87551000  1.0
  H  H75  1  0.18380000  0.18415000  0.37552000  1.0
  H  H76  1  0.58080000  0.60818000  0.15053000  1.0
  H  H77  1  0.91920000  0.39182000  0.65053000  1.0
  H  H78  1  0.08081000  0.89182000  0.84947000  1.0
  H  H79  1  0.41920000  0.10818000  0.34947000  1.0
  H  H80  1  0.57957000  0.75762000  0.15024000  1.0
  H  H81  1  0.92043000  0.24238000  0.65024000  1.0
  H  H82  1  0.07958000  0.74238000  0.84976000  1.0
  H  H83  1  0.42042000  0.25762000  0.34976000  1.0
  H  H84  1  0.52393000  0.75096000  0.26454000  1.0
  H  H85  1  0.97608000  0.24904000  0.76454000  1.0
  H  H86  1  0.02393000  0.74904000  0.73546000  1.0
  H  H87  1  0.47607000  0.25096000  0.23546000  1.0
  H  H88  1  0.55439000  0.60260000  0.26610000  1.0
  H  H89  1  0.94561000  0.39740000  0.76610000  1.0
  H  H90  1  0.05439000  0.89740000  0.73390000  1.0
  H  H91  1  0.44561000  0.10260000  0.23390000  1.0
  H  H92  1  0.77437000  0.50307000  0.58981000  1.0
  H  H93  1  0.72563000  0.49693000  0.08981000  1.0
  H  H94  1  0.27437000  0.99693000  0.41019000  1.0
  H  H95  1  0.22563000  0.00307000  0.91019000  1.0
  H  H96  1  0.55642000  0.59432000  0.55121000  1.0
  H  H97  1  0.94359000  0.40568000  0.05122000  1.0
  H  H98  1  0.05641000  0.90568000  0.44878000  1.0
  H  H99  1  0.44359000  0.09432000  0.94878000  1.0
  H  H100  1  0.46013000  0.69281000  0.65636000  1.0
  H  H101  1  0.03987000  0.30719000  0.15636000  1.0
  H  H102  1  0.96013000  0.80719000  0.34364000  1.0
  H  H103  1  0.53987000  0.19281000  0.84364000  1.0
  H  H104  1  0.55992000  0.79120000  0.61732000  1.0
  H  H105  1  0.94008000  0.20880000  0.11732000  1.0
  H  H106  1  0.05992000  0.70880000  0.38268000  1.0
  H  H107  1  0.44008000  0.29121000  0.88268000  1.0
  H  H108  1  0.70214000  0.78533000  0.71111000  1.0
  H  H109  1  0.79786000  0.21467000  0.21111000  1.0
  H  H110  1  0.20215000  0.71467000  0.28889000  1.0
  H  H111  1  0.29786000  0.28533000  0.78889000  1.0
  H  H112  1  0.61286000  0.67203000  0.74485000  1.0
  H  H113  1  0.88713000  0.32797000  0.24485000  1.0
  H  H114  1  0.11287000  0.82797000  0.25515000  1.0
  H  H115  1  0.38714000  0.17203000  0.75515000  1.0
  C  C116  1  0.13087000  0.17311000  0.52075000  1.0
  C  C117  1  0.36913000  0.82689000  0.02075000  1.0
  C  C118  1  0.63087000  0.32689000  0.47925000  1.0
  C  C119  1  0.86913000  0.67311000  0.97925000  1.0
  C  C120  1  0.25503000  0.10933000  0.53802000  1.0
  C  C121  1  0.24497000  0.89067000  0.03802000  1.0
  C  C122  1  0.75503000  0.39067000  0.46198000  1.0
  C  C123  1  0.74497000  0.60933000  0.96198000  1.0
  C  C124  1  0.27425000  0.11332000  0.61277000  1.0
  C  C125  1  0.22575000  0.88668000  0.11277000  1.0
  C  C126  1  0.77425000  0.38668000  0.38723000  1.0
  C  C127  1  0.72575000  0.61332000  0.88723000  1.0
  C  C128  1  0.23850000  0.44739000  0.59892000  1.0
  C  C129  1  0.26151000  0.55261000  0.09892000  1.0
  C  C130  1  0.73850000  0.05261000  0.40108000  1.0
  C  C131  1  0.76150000  0.94739000  0.90108000  1.0
  C  C132  1  0.25903000  0.47570000  0.66975000  1.0
  C  C133  1  0.24096000  0.52430000  0.16975000  1.0
  C  C134  1  0.75904000  0.02430000  0.33025000  1.0
  C  C135  1  0.74096000  0.97570000  0.83025000  1.0
  C  C136  1  0.15368000  0.50876000  0.70833000  1.0
  C  C137  1  0.34632000  0.49124000  0.20833000  1.0
  C  C138  1  0.65369000  0.99124000  0.29167000  1.0
  C  C139  1  0.84631000  0.00876000  0.79167000  1.0
  C  C140  1  0.17079000  0.53154000  0.77464000  1.0
  C  C141  1  0.32921000  0.46846000  0.27464000  1.0
  C  C142  1  0.67079000  0.96846000  0.22535000  1.0
  C  C143  1  0.82921000  0.03154000  0.72535000  1.0
  C  C144  1  0.29348000  0.52329000  0.80329000  1.0
  C  C145  1  0.20652000  0.47671000  0.30329000  1.0
  C  C146  1  0.79348000  0.97671000  0.19671000  1.0
  C  C147  1  0.70652000  0.02329000  0.69671000  1.0
  C  C148  1  0.39963000  0.49185000  0.76447000  1.0
  C  C149  1  0.10037000  0.50815000  0.26447000  1.0
  C  C150  1  0.89963000  0.00815000  0.23553000  1.0
  C  C151  1  0.60037000  0.99185000  0.73553000  1.0
  C  C152  1  0.38232000  0.46777000  0.69809000  1.0
  C  C153  1  0.11767000  0.53223000  0.19810000  1.0
  C  C154  1  0.88233000  0.03223000  0.30190000  1.0
  C  C155  1  0.61767000  0.96777000  0.80190000  1.0
  C  C156  1  0.30839000  0.55077000  0.87471000  1.0
  C  C157  1  0.19161000  0.44922000  0.37471000  1.0
  C  C158  1  0.80839000  0.94922000  0.12529000  1.0
  C  C159  1  0.69161000  0.05077000  0.62529000  1.0
  C  C160  1  0.97750000  0.66597000  0.53814000  1.0
  C  C161  1  0.52250000  0.33403000  0.03814000  1.0
  C  C162  1  0.47750000  0.83404000  0.46186000  1.0
  C  C163  1  0.02251000  0.16596000  0.96186000  1.0
  C  C164  1  0.81400000  0.79693000  0.49788000  1.0
  C  C165  1  0.68600000  0.20307000  0.99789000  1.0
  C  C166  1  0.31400000  0.70307000  0.50212000  1.0
  C  C167  1  0.18600000  0.29693000  0.00212000  1.0
  C  C168  1  0.96045000  0.85028000  0.59075000  1.0
  C  C169  1  0.53955000  0.14972000  0.09075000  1.0
  C  C170  1  0.46046000  0.64972000  0.40925000  1.0
  C  C171  1  0.03955000  0.35028000  0.90925000  1.0
  C  C172  1  0.72373000  0.70227000  0.28215000  1.0
  C  C173  1  0.77627000  0.29773000  0.78215000  1.0
  C  C174  1  0.22373000  0.79773000  0.71785000  1.0
  C  C175  1  0.27627000  0.20227000  0.21785000  1.0
  C  C176  1  0.82251000  0.69664000  0.23043000  1.0
  C  C177  1  0.67749000  0.30336000  0.73043000  1.0
  C  C178  1  0.32251000  0.80335000  0.76956000  1.0
  C  C179  1  0.17749000  0.19664000  0.26957000  1.0
  C  C180  1  0.76519000  0.68644000  0.17128000  1.0
  C  C181  1  0.73481000  0.31356000  0.67128000  1.0
  C  C182  1  0.26520000  0.81356000  0.82872000  1.0
  C  C183  1  0.23480000  0.18644000  0.32873000  1.0
  C  C184  1  0.62074000  0.68315000  0.17557000  1.0
  C  C185  1  0.87926000  0.31684000  0.67557000  1.0
  C  C186  1  0.12075000  0.81684000  0.82443000  1.0
  C  C187  1  0.37925000  0.18315000  0.32443000  1.0
  C  C188  1  0.59284000  0.68486000  0.24943000  1.0
  C  C189  1  0.90716000  0.31514000  0.74943000  1.0
  C  C190  1  0.09285000  0.81514000  0.75057000  1.0
  C  C191  1  0.40715000  0.18486000  0.25057000  1.0
  C  C192  1  0.76098000  0.61806000  0.67850000  1.0
  C  C193  1  0.73902000  0.38194000  0.17850000  1.0
  C  C194  1  0.26098000  0.88194000  0.32150000  1.0
  C  C195  1  0.23903000  0.11806000  0.82150000  1.0
  C  C196  1  0.71965000  0.56803000  0.61574000  1.0
  C  C197  1  0.78035000  0.43197000  0.11574000  1.0
  C  C198  1  0.21965000  0.93197000  0.38426000  1.0
  C  C199  1  0.28035000  0.06803000  0.88426000  1.0
  C  C200  1  0.60835000  0.61703000  0.59591000  1.0
  C  C201  1  0.89165000  0.38297000  0.09592000  1.0
  C  C202  1  0.10835000  0.88297000  0.40408000  1.0
  C  C203  1  0.39165000  0.11703000  0.90409000  1.0
  C  C204  1  0.56120000  0.70750000  0.64196000  1.0
  C  C205  1  0.93880000  0.29250000  0.14196000  1.0
  C  C206  1  0.06119000  0.79250000  0.35804000  1.0
  C  C207  1  0.43881000  0.20751000  0.85804000  1.0
  C  C208  1  0.65751000  0.70315000  0.69921000  1.0
  C  C209  1  0.84249000  0.29685000  0.19921000  1.0
  C  C210  1  0.15751000  0.79685000  0.30079000  1.0
  C  C211  1  0.34250000  0.20315000  0.80079000  1.0
  N  N212  1  0.92199000  0.76832000  0.54071000  1.0
  N  N213  1  0.57801000  0.23168000  0.04071000  1.0
  N  N214  1  0.42199000  0.73168000  0.45929000  1.0
  N  N215  1  0.07801000  0.26832000  0.95929000  1.0
  O  O216  1  0.14202000  0.26713000  0.48935000  1.0
  O  O217  1  0.35798000  0.73287000  0.98934000  1.0
  O  O218  1  0.64202000  0.23287000  0.51065000  1.0
  O  O219  1  0.85798000  0.76713000  0.01066000  1.0
  O  O220  1  0.02554000  0.13018000  0.53980000  1.0
  O  O221  1  0.47446000  0.86982000  0.03980000  1.0
  O  O222  1  0.52554000  0.36982000  0.46020000  1.0
  O  O223  1  0.97446000  0.63018000  0.96020000  1.0
  O  O224  1  0.36167000  0.15586000  0.50293000  1.0
  O  O225  1  0.13833000  0.84414000  0.00293000  1.0
  O  O226  1  0.86167000  0.34414000  0.49707000  1.0
  O  O227  1  0.63833000  0.65586000  0.99707000  1.0
  O  O228  1  0.12375000  0.45760000  0.57679000  1.0
  O  O229  1  0.37626000  0.54240000  0.07679000  1.0
  O  O230  1  0.62375000  0.04240000  0.42321000  1.0
  O  O231  1  0.87625000  0.95760000  0.92321000  1.0
  O  O232  1  0.33725000  0.41534000  0.56641000  1.0
  O  O233  1  0.16275000  0.58466000  0.06641000  1.0
  O  O234  1  0.83725000  0.08467000  0.43359000  1.0
  O  O235  1  0.66275000  0.91534000  0.93359000  1.0
  O  O236  1  0.41944000  0.53592000  0.90037000  1.0
  O  O237  1  0.08056000  0.46407000  0.40036000  1.0
  O  O238  1  0.91944000  0.96407000  0.09963000  1.0
  O  O239  1  0.58056000  0.03593000  0.59963000  1.0
  O  O240  1  0.20776000  0.58587000  0.90407000  1.0
  O  O241  1  0.29223000  0.41413000  0.40407000  1.0
  O  O242  1  0.70776000  0.91413000  0.09593000  1.0
  O  O243  1  0.79223000  0.08587000  0.59593000  1.0
  O  O244  1  0.94456000  0.58957000  0.49819000  1.0
  O  O245  1  0.55544000  0.41043000  0.99819000  1.0
  O  O246  1  0.44456000  0.91043000  0.50181000  1.0
  O  O247  1  0.05544000  0.08957000  0.00181000  1.0
  O  O248  1  0.74223000  0.71867000  0.34139000  1.0
  O  O249  1  0.75777000  0.28133000  0.84139000  1.0
  O  O250  1  0.24223000  0.78133000  0.65861000  1.0
  O  O251  1  0.25776000  0.21867000  0.15861000  1.0
  O  O252  1  0.86086000  0.59674000  0.70931000  1.0
  O  O253  1  0.63914000  0.40326000  0.20931000  1.0
  O  O254  1  0.36086000  0.90326000  0.29069000  1.0
  O  O255  1  0.13914000  0.09674000  0.79069000  1.0
