# generated using pymatgen
data_MnCuH6C14(NO4)2
_symmetry_space_group_name_H-M   'P 1'
_cell_length_a   4.78975000
_cell_length_b   9.47044000
_cell_length_c   14.92850000
_cell_angle_alpha   89.92040000
_cell_angle_beta   89.89860000
_cell_angle_gamma   103.09800000
_symmetry_Int_Tables_number   1
_chemical_formula_structural   MnCuH6C14(NO4)2
_chemical_formula_sum   'Mn2 Cu2 H12 C28 N4 O16'
_cell_volume   659.55274175
_cell_formula_units_Z   2
loop_
 _symmetry_equiv_pos_site_id
 _symmetry_equiv_pos_as_xyz
  1  'x, y, z'
loop_
 _atom_site_type_symbol
 _atom_site_label
 _atom_site_symmetry_multiplicity
 _atom_site_fract_x
 _atom_site_fract_y
 _atom_site_fract_z
 _atom_site_occupancy
  Mn  Mn0  1  0.00000000  0.50000000  0.50000000  1.0
  Mn  Mn1  1  0.00000000  0.00000000  0.00000000  1.0
  Cu  Cu2  1  0.50000000  0.00000000  0.50000000  1.0
  Cu  Cu3  1  0.50000000  0.50000000  0.00000000  1.0
  H  H4  1  0.97164000  0.69336000  0.68288000  1.0
  H  H5  1  0.02697000  0.80625000  0.18366000  1.0
  H  H6  1  0.02836000  0.30664000  0.31712000  1.0
  H  H7  1  0.97303000  0.19375000  0.81634000  1.0
  H  H8  1  0.80909000  0.76621000  0.83518000  1.0
  H  H9  1  0.19215000  0.73383000  0.33560000  1.0
  H  H10  1  0.19091000  0.23379000  0.16482000  1.0
  H  H11  1  0.80786000  0.26616000  0.66440000  1.0
  H  H12  1  0.32858000  0.03265000  0.69635000  1.0
  H  H13  1  0.66964000  0.46670000  0.19606000  1.0
  H  H14  1  0.67143000  0.96736000  0.30365000  1.0
  H  H15  1  0.33037000  0.53330000  0.80394000  1.0
  C  C16  1  0.74432000  0.83084000  0.61325000  1.0
  C  C17  1  0.25408000  0.66905000  0.11351000  1.0
  C  C18  1  0.25568000  0.16916000  0.38675000  1.0
  C  C19  1  0.74593000  0.33095000  0.88649000  1.0
  C  C20  1  0.83050000  0.76835000  0.68979000  1.0
  C  C21  1  0.16824000  0.73125000  0.19019000  1.0
  C  C22  1  0.16950000  0.23165000  0.31021000  1.0
  C  C23  1  0.83177000  0.26875000  0.80981000  1.0
  C  C24  1  0.73871000  0.80715000  0.77292000  1.0
  C  C25  1  0.26107000  0.69252000  0.27324000  1.0
  C  C26  1  0.26128000  0.19286000  0.22708000  1.0
  C  C27  1  0.73893000  0.30748000  0.72676000  1.0
  C  C28  1  0.55496000  0.90294000  0.77706000  1.0
  C  C29  1  0.44442000  0.59649000  0.27713000  1.0
  C  C30  1  0.44504000  0.09706000  0.22294000  1.0
  C  C31  1  0.55559000  0.40351000  0.72287000  1.0
  C  C32  1  0.47094000  0.95779000  0.69707000  1.0
  C  C33  1  0.52742000  0.54161000  0.19701000  1.0
  C  C34  1  0.52906000  0.04221000  0.30293000  1.0
  C  C35  1  0.47259000  0.45838000  0.80299000  1.0
  C  C36  1  0.84689000  0.80695000  0.52068000  1.0
  C  C37  1  0.15244000  0.69348000  0.02098000  1.0
  C  C38  1  0.15311000  0.19305000  0.47932000  1.0
  C  C39  1  0.84756000  0.30652000  0.97902000  1.0
  C  C40  1  0.46478000  0.95055000  0.86661000  1.0
  C  C41  1  0.53540000  0.54933000  0.36667000  1.0
  C  C42  1  0.53522000  0.04945000  0.13339000  1.0
  C  C43  1  0.46460000  0.45067000  0.63333000  1.0
  N  N44  1  0.56905000  0.92412000  0.61771000  1.0
  N  N45  1  0.42948000  0.57568000  0.11773000  1.0
  N  N46  1  0.43095000  0.07588000  0.38229000  1.0
  N  N47  1  0.57052000  0.42432000  0.88227000  1.0
  O  O48  1  0.75874000  0.87609000  0.45665000  1.0
  O  O49  1  0.23764000  0.62306000  0.95719000  1.0
  O  O50  1  0.24126000  0.12391000  0.54335000  1.0
  O  O51  1  0.76236000  0.37693000  0.04281000  1.0
  O  O52  1  0.02229000  0.72694000  0.51064000  1.0
  O  O53  1  0.98008000  0.77518000  0.01058000  1.0
  O  O54  1  0.97770000  0.27306000  0.48936000  1.0
  O  O55  1  0.01992000  0.22482000  0.98942000  1.0
  O  O56  1  0.23699000  0.99780000  0.87138000  1.0
  O  O57  1  0.76260000  0.50149000  0.37136000  1.0
  O  O58  1  0.76300000  0.00220000  0.12862000  1.0
  O  O59  1  0.23741000  0.49851000  0.62864000  1.0
  O  O60  1  0.62645000  0.93719000  0.93154000  1.0
  O  O61  1  0.37494000  0.56372000  0.43190000  1.0
  O  O62  1  0.37355000  0.06281000  0.06845000  1.0
  O  O63  1  0.62506000  0.43627000  0.56810000  1.0
