# generated using pymatgen
data_CdH9C7I2N
_symmetry_space_group_name_H-M   'P 1'
_cell_length_a   7.61191000
_cell_length_b   8.63079000
_cell_length_c   8.63055000
_cell_angle_alpha   71.46430000
_cell_angle_beta   89.96010000
_cell_angle_gamma   89.96150000
_symmetry_Int_Tables_number   1
_chemical_formula_structural   CdH9C7I2N
_chemical_formula_sum   'Cd2 H18 C14 I4 N2'
_cell_volume   537.58663256
_cell_formula_units_Z   2
loop_
 _symmetry_equiv_pos_site_id
 _symmetry_equiv_pos_as_xyz
  1  'x, y, z'
loop_
 _atom_site_type_symbol
 _atom_site_label
 _atom_site_symmetry_multiplicity
 _atom_site_fract_x
 _atom_site_fract_y
 _atom_site_fract_z
 _atom_site_occupancy
  Cd  Cd0  1  0.25000000  0.57683000  0.42318000  1.0
  Cd  Cd1  1  0.75000000  0.42317000  0.57683000  1.0
  H  H2  1  0.10292000  0.54954000  0.16054000  1.0
  H  H3  1  0.39708000  0.83947000  0.45046000  1.0
  H  H4  1  0.89707000  0.45045000  0.83947000  1.0
  H  H5  1  0.60291000  0.16054000  0.54954000  1.0
  H  H6  1  0.17385000  0.60113000  0.95399000  1.0
  H  H7  1  0.32615000  0.04601000  0.39886000  1.0
  H  H8  1  0.82615000  0.39886000  0.04601000  1.0
  H  H9  1  0.67384000  0.95399000  0.60113000  1.0
  H  H10  1  0.96535000  0.66634000  0.99981000  1.0
  H  H11  1  0.53466000  0.00020000  0.33365000  1.0
  H  H12  1  0.03465000  0.33366000  0.00019000  1.0
  H  H13  1  0.46533000  0.99980000  0.66635000  1.0
  H  H14  1  0.12399000  0.92931000  0.79505000  1.0
  H  H15  1  0.37601000  0.20495000  0.07066000  1.0
  H  H16  1  0.87600000  0.07068000  0.20495000  1.0
  H  H17  1  0.62400000  0.79505000  0.92932000  1.0
  H  H18  1  0.25000000  0.19399000  0.80599000  1.0
  H  H19  1  0.75000000  0.80600000  0.19400000  1.0
  C  C20  1  0.10217000  0.64612000  0.04181000  1.0
  C  C21  1  0.39783000  0.95819000  0.35387000  1.0
  C  C22  1  0.89783000  0.35389000  0.95819000  1.0
  C  C23  1  0.60217000  0.04182000  0.64614000  1.0
  C  C24  1  0.18092000  0.80233000  0.04791000  1.0
  C  C25  1  0.31908000  0.95208000  0.19767000  1.0
  C  C26  1  0.81907000  0.19766000  0.95210000  1.0
  C  C27  1  0.68091000  0.04791000  0.80232000  1.0
  C  C28  1  0.18093000  0.93910000  0.90751000  1.0
  C  C29  1  0.31907000  0.09249000  0.06088000  1.0
  C  C30  1  0.81907000  0.06089000  0.09250000  1.0
  C  C31  1  0.68093000  0.90752000  0.93910000  1.0
  C  C32  1  0.25000000  0.08578000  0.91419000  1.0
  C  C33  1  0.75001000  0.91421000  0.08580000  1.0
  I  I34  1  0.06688000  0.27361000  0.46651000  1.0
  I  I35  1  0.43313000  0.53351000  0.72640000  1.0
  I  I36  1  0.93313000  0.72639000  0.53351000  1.0
  I  I37  1  0.56688000  0.46651000  0.27360000  1.0
  N  N38  1  0.25001000  0.80992000  0.19008000  1.0
  N  N39  1  0.74999000  0.19007000  0.80991000  1.0
