# generated using pymatgen
data_ZnH12C15N2Cl3O4
_symmetry_space_group_name_H-M   'P 1'
_cell_length_a   8.22275000
_cell_length_b   10.48880000
_cell_length_c   11.09080000
_cell_angle_alpha   71.28460000
_cell_angle_beta   78.46140000
_cell_angle_gamma   73.46620000
_symmetry_Int_Tables_number   1
_chemical_formula_structural   ZnH12C15N2Cl3O4
_chemical_formula_sum   'Zn2 H24 C30 N4 Cl6 O8'
_cell_volume   862.25942698
_cell_formula_units_Z   2
loop_
 _symmetry_equiv_pos_site_id
 _symmetry_equiv_pos_as_xyz
  1  'x, y, z'
loop_
 _atom_site_type_symbol
 _atom_site_label
 _atom_site_symmetry_multiplicity
 _atom_site_fract_x
 _atom_site_fract_y
 _atom_site_fract_z
 _atom_site_occupancy
  Zn  Zn0  1  0.37839000  0.90157000  0.90494000  1.0
  Zn  Zn1  1  0.62162000  0.09843000  0.09506000  1.0
  H  H2  1  0.88113000  0.47009000  0.64227000  1.0
  H  H3  1  0.11887000  0.52990000  0.35775000  1.0
  H  H4  1  0.42227000  0.60135000  0.03325000  1.0
  H  H5  1  0.57773000  0.39865000  0.96674000  1.0
  H  H6  1  0.27609000  0.41392000  0.07073000  1.0
  H  H7  1  0.72390000  0.58608000  0.92925000  1.0
  H  H8  1  0.84922000  0.72947000  0.90289000  1.0
  H  H9  1  0.15078000  0.27055000  0.09710000  1.0
  H  H10  1  0.01914000  0.90204000  0.86819000  1.0
  H  H11  1  0.98086000  0.09797000  0.13181000  1.0
  H  H12  1  0.65875000  0.98611000  0.68658000  1.0
  H  H13  1  0.34125000  0.01390000  0.31340000  1.0
  H  H14  1  0.81671000  0.03697000  0.50627000  1.0
  H  H15  1  0.18329000  0.96302000  0.49372000  1.0
  H  H16  1  0.74636000  0.01687000  0.37236000  1.0
  H  H17  1  0.25364000  0.98311000  0.62764000  1.0
  H  H18  1  0.92250000  0.89220000  0.44412000  1.0
  H  H19  1  0.07749000  0.10779000  0.55588000  1.0
  H  H20  1  0.53299000  0.74182000  0.57928000  1.0
  H  H21  1  0.46699000  0.25817000  0.42073000  1.0
  H  H22  1  0.74939000  0.69083000  0.50975000  1.0
  H  H23  1  0.25060000  0.30917000  0.49026000  1.0
  H  H24  1  0.60051000  0.82321000  0.41464000  1.0
  H  H25  1  0.39949000  0.17678000  0.58537000  1.0
  C  C26  1  0.29053000  0.25773000  0.80539000  1.0
  C  C27  1  0.70948000  0.74227000  0.19461000  1.0
  C  C28  1  0.16427000  0.18693000  0.80735000  1.0
  C  C29  1  0.83575000  0.81307000  0.19264000  1.0
  C  C30  1  0.01492000  0.27037000  0.74856000  1.0
  C  C31  1  0.98509000  0.72962000  0.25144000  1.0
  C  C32  1  0.99589000  0.41083000  0.68749000  1.0
  C  C33  1  0.00412000  0.58916000  0.31251000  1.0
  C  C34  1  0.12502000  0.47589000  0.68180000  1.0
  C  C35  1  0.87499000  0.52411000  0.31820000  1.0
  C  C36  1  0.27217000  0.39905000  0.74089000  1.0
  C  C37  1  0.72784000  0.60095000  0.25911000  1.0
  C  C38  1  0.43745000  0.17461000  0.88027000  1.0
  C  C39  1  0.56257000  0.82539000  0.11972000  1.0
  C  C40  1  0.29658000  0.62370000  0.00305000  1.0
  C  C41  1  0.70340000  0.37631000  0.99695000  1.0
  C  C42  1  0.21157000  0.52008000  0.02594000  1.0
  C  C43  1  0.78842000  0.47992000  0.97407000  1.0
  C  C44  1  0.04754000  0.55360000  0.98877000  1.0
  C  C45  1  0.95244000  0.44641000  0.01123000  1.0
  C  C46  1  0.97765000  0.69408000  0.93077000  1.0
  C  C47  1  0.02235000  0.30593000  0.06922000  1.0
  C  C48  1  0.07104000  0.79198000  0.91062000  1.0
  C  C49  1  0.92896000  0.20802000  0.08937000  1.0
  C  C50  1  0.61846000  0.90450000  0.66574000  1.0
  C  C51  1  0.38154000  0.09550000  0.33427000  1.0
  C  C52  1  0.79872000  0.96159000  0.46382000  1.0
  C  C53  1  0.20128000  0.03840000  0.53618000  1.0
  C  C54  1  0.63801000  0.77833000  0.51188000  1.0
  C  C55  1  0.36198000  0.22167000  0.48813000  1.0
  N  N56  1  0.22918000  0.75751000  0.94526000  1.0
  N  N57  1  0.77081000  0.24250000  0.05475000  1.0
  N  N58  1  0.68211000  0.88244000  0.55195000  1.0
  N  N59  1  0.31788000  0.11756000  0.44806000  1.0
  Cl  Cl60  1  0.85418000  0.19098000  0.75545000  1.0
  Cl  Cl61  1  0.14583000  0.80901000  0.24457000  1.0
  Cl  Cl62  1  0.09892000  0.65052000  0.60241000  1.0
  Cl  Cl63  1  0.90107000  0.34948000  0.39760000  1.0
  Cl  Cl64  1  0.43473000  0.47873000  0.72855000  1.0
  Cl  Cl65  1  0.56529000  0.52127000  0.27143000  1.0
  O  O66  1  0.52612000  0.06256000  0.85748000  1.0
  O  O67  1  0.47390000  0.93743000  0.14252000  1.0
  O  O68  1  0.17722000  0.05496000  0.86106000  1.0
  O  O69  1  0.82279000  0.94504000  0.13893000  1.0
  O  O70  1  0.45872000  0.21991000  0.96878000  1.0
  O  O71  1  0.54128000  0.78009000  0.03121000  1.0
  O  O72  1  0.51634000  0.83961000  0.74530000  1.0
  O  O73  1  0.48364000  0.16040000  0.25470000  1.0
