# generated using pymatgen
data_ZnH16C16(NO3)2
_symmetry_space_group_name_H-M   'P 1'
_cell_length_a   7.49476000
_cell_length_b   9.64376000
_cell_length_c   11.83280000
_cell_angle_alpha   66.79780000
_cell_angle_beta   81.94380000
_cell_angle_gamma   86.18130000
_symmetry_Int_Tables_number   1
_chemical_formula_structural   ZnH16C16(NO3)2
_chemical_formula_sum   'Zn2 H32 C32 N4 O12'
_cell_volume   778.25633633
_cell_formula_units_Z   2
loop_
 _symmetry_equiv_pos_site_id
 _symmetry_equiv_pos_as_xyz
  1  'x, y, z'
loop_
 _atom_site_type_symbol
 _atom_site_label
 _atom_site_symmetry_multiplicity
 _atom_site_fract_x
 _atom_site_fract_y
 _atom_site_fract_z
 _atom_site_occupancy
  Zn  Zn0  1  0.10861000  0.66538000  0.25947000  1.0
  Zn  Zn1  1  0.89140000  0.33462000  0.74053000  1.0
  H  H2  1  0.25563000  0.15197000  0.48232000  1.0
  H  H3  1  0.74437000  0.84803000  0.51768000  1.0
  H  H4  1  0.34211000  0.55058000  0.46865000  1.0
  H  H5  1  0.65789000  0.44943000  0.53135000  1.0
  H  H6  1  0.38808000  0.91626000  0.58653000  1.0
  H  H7  1  0.61192000  0.08374000  0.41347000  1.0
  H  H8  1  0.04799000  0.19689000  0.26238000  1.0
  H  H9  1  0.95201000  0.80311000  0.73762000  1.0
  H  H10  1  0.09885000  0.96105000  0.28390000  1.0
  H  H11  1  0.90115000  0.03895000  0.71610000  1.0
  H  H12  1  0.46145000  0.64706000  0.61114000  1.0
  H  H13  1  0.53855000  0.35294000  0.38886000  1.0
  H  H14  1  0.42423000  0.87658000  0.12300000  1.0
  H  H15  1  0.57577000  0.12342000  0.87700000  1.0
  H  H16  1  0.37676000  0.42181000  0.20567000  1.0
  H  H17  1  0.62324000  0.57819000  0.79433000  1.0
  H  H18  1  0.86913000  0.64286000  0.99876000  1.0
  H  H19  1  0.13086000  0.35714000  0.00124000  1.0
  H  H20  1  0.50489000  0.21306000  0.21711000  1.0
  H  H21  1  0.49511000  0.78694000  0.78289000  1.0
  H  H22  1  0.73236000  0.88344000  0.00648000  1.0
  H  H23  1  0.26764000  0.11656000  0.99352000  1.0
  H  H24  1  0.85509000  0.37206000  0.06510000  1.0
  H  H25  1  0.14491000  0.62795000  0.93490000  1.0
  H  H26  1  0.84695000  0.66438000  0.43473000  1.0
  H  H27  1  0.15305000  0.33562000  0.56527000  1.0
  H  H28  1  0.08852000  0.86371000  0.02673000  1.0
  H  H29  1  0.91148000  0.13629000  0.97327000  1.0
  H  H30  1  0.78459000  0.79287000  0.31058000  1.0
  H  H31  1  0.21541000  0.20713000  0.68942000  1.0
  H  H32  1  0.00133000  0.94576000  0.12090000  1.0
  H  H33  1  0.99867000  0.05424000  0.87910000  1.0
  C  C34  1  0.20078000  0.11665000  0.41710000  1.0
  C  C35  1  0.79922000  0.88335000  0.58290000  1.0
  C  C36  1  0.24051000  0.96112000  0.43210000  1.0
  C  C37  1  0.75949000  0.03888000  0.56790000  1.0
  C  C38  1  0.31808000  0.66645000  0.46057000  1.0
  C  C39  1  0.68191000  0.33355000  0.53943000  1.0
  C  C40  1  0.34284000  0.86926000  0.52555000  1.0
  C  C41  1  0.65716000  0.13074000  0.47445000  1.0
  C  C42  1  0.09222000  0.37808000  0.32296000  1.0
  C  C43  1  0.90778000  0.62192000  0.67704000  1.0
  C  C44  1  0.10727000  0.22049000  0.33196000  1.0
  C  C45  1  0.89273000  0.77951000  0.66804000  1.0
  C  C46  1  0.18079000  0.89630000  0.35716000  1.0
  C  C47  1  0.81921000  0.10369000  0.64284000  1.0
  C  C48  1  0.38252000  0.72097000  0.53959000  1.0
  C  C49  1  0.61748000  0.27903000  0.46041000  1.0
  C  C50  1  0.48672000  0.77574000  0.11372000  1.0
  C  C51  1  0.51327000  0.22425000  0.88628000  1.0
  C  C52  1  0.46127000  0.52114000  0.16205000  1.0
  C  C53  1  0.53873000  0.47886000  0.83795000  1.0
  C  C54  1  0.63577000  0.51009000  0.10480000  1.0
  C  C55  1  0.36423000  0.48991000  0.89521000  1.0
  C  C56  1  0.74517000  0.08597000  0.18571000  1.0
  C  C57  1  0.25483000  0.91403000  0.81429000  1.0
  C  C58  1  0.73361000  0.64437000  0.04571000  1.0
  C  C59  1  0.26639000  0.35563000  0.95429000  1.0
  C  C60  1  0.64232000  0.22851000  0.16959000  1.0
  C  C61  1  0.35768000  0.77149000  0.83041000  1.0
  C  C62  1  0.65809000  0.77827000  0.04998000  1.0
  C  C63  1  0.34191000  0.22173000  0.95002000  1.0
  C  C64  1  0.71674000  0.36614000  0.11012000  1.0
  C  C65  1  0.28326000  0.63386000  0.88988000  1.0
  N  N66  1  0.38851000  0.64908000  0.16752000  1.0
  N  N67  1  0.61149000  0.35092000  0.83248000  1.0
  N  N68  1  0.21810000  0.75306000  0.37151000  1.0
  N  N69  1  0.78190000  0.24694000  0.62849000  1.0
  O  O70  1  0.90319000  0.09516000  0.12276000  1.0
  O  O71  1  0.09681000  0.90484000  0.87724000  1.0
  O  O72  1  0.08445000  0.86206000  0.11204000  1.0
  O  O73  1  0.91555000  0.13794000  0.88796000  1.0
  O  O74  1  0.14302000  0.41441000  0.40636000  1.0
  O  O75  1  0.85698000  0.58559000  0.59365000  1.0
  O  O76  1  0.03963000  0.47905000  0.22439000  1.0
  O  O77  1  0.96037000  0.52095000  0.77562000  1.0
  O  O78  1  0.84365000  0.69076000  0.34488000  1.0
  O  O79  1  0.15635000  0.30924000  0.65512000  1.0
  O  O80  1  0.67519000  0.96420000  0.26392000  1.0
  O  O81  1  0.32481000  0.03580000  0.73608000  1.0
