# generated using pymatgen
data_H12PbC17N3O5F
_symmetry_space_group_name_H-M   'P 1'
_cell_length_a   6.54910000
_cell_length_b   8.35686000
_cell_length_c   16.07430000
_cell_angle_alpha   84.72980000
_cell_angle_beta   84.59200000
_cell_angle_gamma   83.21420000
_symmetry_Int_Tables_number   1
_chemical_formula_structural   H12PbC17N3O5F
_chemical_formula_sum   'H24 Pb2 C34 N6 O10 F2'
_cell_volume   866.78996036
_cell_formula_units_Z   2
loop_
 _symmetry_equiv_pos_site_id
 _symmetry_equiv_pos_as_xyz
  1  'x, y, z'
loop_
 _atom_site_type_symbol
 _atom_site_label
 _atom_site_symmetry_multiplicity
 _atom_site_fract_x
 _atom_site_fract_y
 _atom_site_fract_z
 _atom_site_occupancy
  H  H0  1  0.32618000  0.29885000  0.05592000  1.0
  H  H1  1  0.67376000  0.70109000  0.94410000  1.0
  H  H2  1  0.18517000  0.03514000  0.05504000  1.0
  H  H3  1  0.81479000  0.96478000  0.94500000  1.0
  H  H4  1  0.35336000  0.79238000  0.13887000  1.0
  H  H5  1  0.64670000  0.20754000  0.86114000  1.0
  H  H6  1  0.66128000  0.82374000  0.21317000  1.0
  H  H7  1  0.33879000  0.17625000  0.78682000  1.0
  H  H8  1  0.90050000  0.86009000  0.27393000  1.0
  H  H9  1  0.09951000  0.13991000  0.72608000  1.0
  H  H10  1  0.20051000  0.92292000  0.34397000  1.0
  H  H11  1  0.79944000  0.07710000  0.65607000  1.0
  H  H12  1  0.30467000  0.20725000  0.32325000  1.0
  H  H13  1  0.69537000  0.79273000  0.67672000  1.0
  H  H14  1  0.09492000  0.41543000  0.23753000  1.0
  H  H15  1  0.90505000  0.58458000  0.76249000  1.0
  H  H16  1  0.70796000  0.72894000  0.41468000  1.0
  H  H17  1  0.29204000  0.27111000  0.58530000  1.0
  H  H18  1  0.17471000  0.80812000  0.59055000  1.0
  H  H19  1  0.82530000  0.19196000  0.40944000  1.0
  H  H20  1  0.97386000  0.65817000  0.50474000  1.0
  H  H21  1  0.02614000  0.34191000  0.49525000  1.0
  H  H22  1  0.14288000  0.54384000  0.37335000  1.0
  H  H23  1  0.85710000  0.45622000  0.62664000  1.0
  Pb  Pb24  1  0.68380000  0.48076000  0.13317000  1.0
  Pb  Pb25  1  0.31619000  0.51920000  0.86685000  1.0
  C  C26  1  0.39663000  0.19032000  0.08961000  1.0
  C  C27  1  0.60335000  0.80962000  0.91039000  1.0
  C  C28  1  0.31872000  0.04239000  0.08948000  1.0
  C  C29  1  0.68128000  0.95753000  0.91054000  1.0
  C  C30  1  0.41358000  0.90913000  0.13528000  1.0
  C  C31  1  0.58647000  0.09078000  0.86470000  1.0
  C  C32  1  0.58449000  0.92703000  0.17764000  1.0
  C  C33  1  0.41554000  0.07292000  0.82235000  1.0
  C  C34  1  0.65475000  0.07929000  0.17499000  1.0
  C  C35  1  0.34526000  0.92068000  0.82501000  1.0
  C  C36  1  0.83492000  0.10649000  0.21930000  1.0
  C  C37  1  0.16508000  0.89350000  0.78070000  1.0
  C  C38  1  0.94483000  0.98259000  0.26740000  1.0
  C  C39  1  0.05514000  0.01740000  0.73262000  1.0
  C  C40  1  0.11425000  0.01780000  0.30612000  1.0
  C  C41  1  0.88579000  0.98219000  0.69386000  1.0
  C  C42  1  0.17224000  0.17409000  0.29556000  1.0
  C  C43  1  0.82775000  0.82590000  0.70446000  1.0
  C  C44  1  0.05563000  0.29143000  0.24743000  1.0
  C  C45  1  0.94441000  0.70856000  0.75256000  1.0
  C  C46  1  0.54122000  0.56282000  0.30742000  1.0
  C  C47  1  0.45881000  0.43721000  0.69259000  1.0
  C  C48  1  0.43614000  0.62705000  0.38679000  1.0
  C  C49  1  0.56386000  0.37300000  0.61320000  1.0
  C  C50  1  0.54789000  0.71221000  0.43461000  1.0
  C  C51  1  0.45211000  0.28785000  0.56537000  1.0
  C  C52  1  0.44977000  0.77431000  0.50671000  1.0
  C  C53  1  0.55024000  0.22574000  0.49328000  1.0
  C  C54  1  0.24509000  0.75696000  0.53342000  1.0
  C  C55  1  0.75492000  0.24310000  0.46657000  1.0
  C  C56  1  0.13472000  0.67289000  0.48487000  1.0
  C  C57  1  0.86529000  0.32720000  0.51512000  1.0
  C  C58  1  0.22889000  0.60785000  0.41198000  1.0
  C  C59  1  0.77110000  0.39222000  0.58801000  1.0
  N  N60  1  0.55895000  0.20817000  0.13158000  1.0
  N  N61  1  0.44102000  0.79178000  0.86843000  1.0
  N  N62  1  0.89117000  0.25809000  0.21112000  1.0
  N  N63  1  0.10880000  0.74190000  0.78890000  1.0
  N  N64  1  0.13013000  0.64064000  0.05266000  1.0
  N  N65  1  0.86980000  0.35936000  0.94734000  1.0
  O  O66  1  0.44029000  0.47978000  0.26571000  1.0
  O  O67  1  0.55975000  0.52025000  0.73427000  1.0
  O  O68  1  0.72277000  0.59767000  0.28373000  1.0
  O  O69  1  0.27728000  0.40229000  0.71628000  1.0
  O  O70  1  0.32069000  0.58623000  0.04236000  1.0
  O  O71  1  0.67924000  0.41373000  0.95766000  1.0
  O  O72  1  0.02976000  0.67854000  0.98848000  1.0
  O  O73  1  0.97022000  0.32147000  0.01151000  1.0
  O  O74  1  0.04379000  0.65515000  0.12552000  1.0
  O  O75  1  0.95616000  0.34485000  0.87449000  1.0
  F  F76  1  0.55979000  0.85645000  0.55373000  1.0
  F  F77  1  0.44026000  0.14356000  0.44627000  1.0
