# generated using pymatgen
data_Cu3H16C12(N8O)2
_symmetry_space_group_name_H-M   'P 1'
_cell_length_a   7.57654000
_cell_length_b   7.89555000
_cell_length_c   9.33481045
_cell_angle_alpha   81.89131982
_cell_angle_beta   66.07415530
_cell_angle_gamma   69.65830000
_symmetry_Int_Tables_number   1
_chemical_formula_structural   Cu3H16C12(N8O)2
_chemical_formula_sum   'Cu3 H16 C12 N16 O2'
_cell_volume   478.60050697
_cell_formula_units_Z   1
loop_
 _symmetry_equiv_pos_site_id
 _symmetry_equiv_pos_as_xyz
  1  'x, y, z'
loop_
 _atom_site_type_symbol
 _atom_site_label
 _atom_site_symmetry_multiplicity
 _atom_site_fract_x
 _atom_site_fract_y
 _atom_site_fract_z
 _atom_site_occupancy
  Cu  Cu0  1  0.00000000  0.00000000  0.00000000  1.0
  Cu  Cu1  1  0.26910000  0.49983000  0.46173000  1.0
  Cu  Cu2  1  0.73089000  0.50017000  0.53827000  1.0
  H  H3  1  0.14584000  0.01702000  0.28301000  1.0
  H  H4  1  0.57134000  0.98302000  0.28278000  1.0
  H  H5  1  0.85416000  0.98298000  0.71699000  1.0
  H  H6  1  0.42866000  0.01698000  0.71722000  1.0
  H  H7  1  0.08617000  0.21556000  0.38578000  1.0
  H  H8  1  0.52836000  0.78437000  0.38543000  1.0
  H  H9  1  0.91383000  0.78444000  0.61422000  1.0
  H  H10  1  0.47164000  0.21563000  0.61457000  1.0
  H  H11  1  0.18717000  0.37824000  0.12741000  1.0
  H  H12  1  0.68572000  0.62179000  0.12714000  1.0
  H  H13  1  0.81283000  0.62176000  0.87259000  1.0
  H  H14  1  0.31429000  0.37821000  0.87286000  1.0
  H  H15  1  0.39113000  0.19410000  0.14910000  1.0
  H  H16  1  0.46007000  0.80587000  0.14877000  1.0
  H  H17  1  0.60886000  0.80590000  0.85091000  1.0
  H  H18  1  0.53993000  0.19413000  0.85123000  1.0
  C  C19  1  0.88316000  0.23091000  0.27917000  1.0
  C  C20  1  0.83788000  0.76910000  0.27898000  1.0
  C  C21  1  0.11683000  0.76909000  0.72083000  1.0
  C  C22  1  0.16212000  0.23090000  0.72102000  1.0
  C  C23  1  0.09206000  0.16555000  0.27955000  1.0
  C  C24  1  0.62863000  0.83450000  0.27927000  1.0
  C  C25  1  0.90793000  0.83445000  0.72045000  1.0
  C  C26  1  0.37137000  0.16549000  0.72073000  1.0
  C  C27  1  0.24353000  0.22966000  0.13763000  1.0
  C  C28  1  0.61914000  0.77035000  0.13730000  1.0
  C  C29  1  0.75647000  0.77034000  0.86237000  1.0
  C  C30  1  0.38087000  0.22965000  0.86270000  1.0
  N  N31  1  0.82690000  0.18619000  0.17366000  1.0
  N  N32  1  0.99962000  0.81385000  0.17367000  1.0
  N  N33  1  0.17309000  0.81382000  0.82635000  1.0
  N  N34  1  0.00039000  0.18614000  0.82633000  1.0
  N  N35  1  0.62650000  0.27308000  0.21407000  1.0
  N  N36  1  0.15962000  0.72676000  0.21411000  1.0
  N  N37  1  0.37349000  0.72692000  0.78593000  1.0
  N  N38  1  0.84038000  0.27325000  0.78589000  1.0
  N  N39  1  0.56196000  0.36850000  0.34093000  1.0
  N  N40  1  0.09726000  0.63117000  0.34083000  1.0
  N  N41  1  0.43803000  0.63150000  0.65907000  1.0
  N  N42  1  0.90274000  0.36883000  0.65917000  1.0
  N  N43  1  0.72035000  0.34632000  0.38418000  1.0
  N  N44  1  0.89564000  0.65344000  0.38393000  1.0
  N  N45  1  0.27965000  0.65368000  0.61582000  1.0
  N  N46  1  0.10436000  0.34656000  0.61607000  1.0
  O  O47  1  0.26781000  0.14906000  0.00018000  1.0
  O  O48  1  0.73219000  0.85094000  0.99982000  1.0
