# generated using pymatgen
data_MnCrH22C31Br2(N4O)2
_symmetry_space_group_name_H-M   'P 1'
_cell_length_a   10.19740000
_cell_length_b   11.71020000
_cell_length_c   14.77850000
_cell_angle_alpha   68.96590000
_cell_angle_beta   84.97350000
_cell_angle_gamma   86.08210000
_symmetry_Int_Tables_number   1
_chemical_formula_structural   MnCrH22C31Br2(N4O)2
_chemical_formula_sum   'Mn2 Cr2 H44 C62 Br4 N16 O4'
_cell_volume   1639.53712622
_cell_formula_units_Z   2
loop_
 _symmetry_equiv_pos_site_id
 _symmetry_equiv_pos_as_xyz
  1  'x, y, z'
loop_
 _atom_site_type_symbol
 _atom_site_label
 _atom_site_symmetry_multiplicity
 _atom_site_fract_x
 _atom_site_fract_y
 _atom_site_fract_z
 _atom_site_occupancy
  Mn  Mn0  1  0.61324000  0.00526000  0.24451000  1.0
  Mn  Mn1  1  0.38618000  0.99455000  0.75518000  1.0
  Cr  Cr2  1  0.11352000  0.00400000  0.23967000  1.0
  Cr  Cr3  1  0.88615000  0.99684000  0.76036000  1.0
  H  H4  1  0.57289000  0.65109000  0.31332000  1.0
  H  H5  1  0.42956000  0.34838000  0.68632000  1.0
  H  H6  1  0.54761000  0.91000000  0.56316000  1.0
  H  H7  1  0.45091000  0.09013000  0.43625000  1.0
  H  H8  1  0.60371000  0.71092000  0.68868000  1.0
  H  H9  1  0.39531000  0.28961000  0.31104000  1.0
  H  H10  1  0.12440000  0.17040000  0.51302000  1.0
  H  H11  1  0.87453000  0.82875000  0.48810000  1.0
  H  H12  1  0.72844000  0.38215000  0.92228000  1.0
  H  H13  1  0.27321000  0.61767000  0.07775000  1.0
  H  H14  1  0.64290000  0.54097000  0.47212000  1.0
  H  H15  1  0.35919000  0.45903000  0.52792000  1.0
  H  H16  1  0.76975000  0.17303000  0.98001000  1.0
  H  H17  1  0.23139000  0.82665000  0.02024000  1.0
  H  H18  1  0.29772000  0.65172000  0.53463000  1.0
  H  H19  1  0.69979000  0.34760000  0.46507000  1.0
  H  H20  1  0.20558000  0.99491000  0.57498000  1.0
  H  H21  1  0.79529000  0.00468000  0.42510000  1.0
  H  H22  1  0.63014000  0.57588000  0.11987000  1.0
  H  H23  1  0.37006000  0.42387000  0.88008000  1.0
  H  H24  1  0.04160000  0.38257000  0.42284000  1.0
  H  H25  1  0.95780000  0.61693000  0.57879000  1.0
  H  H26  1  0.61027000  0.37855000  0.25763000  1.0
  H  H27  1  0.38909000  0.62111000  0.74223000  1.0
  H  H28  1  0.21661000  0.74588000  0.36793000  1.0
  H  H29  1  0.78113000  0.25445000  0.63179000  1.0
  H  H30  1  0.82444000  0.89380000  0.13687000  1.0
  H  H31  1  0.17583000  0.10637000  0.86292000  1.0
  H  H32  1  0.81853000  0.98521000  0.01316000  1.0
  H  H33  1  0.18146000  0.01519000  0.98667000  1.0
  H  H34  1  0.29229000  0.78378000  0.63944000  1.0
  H  H35  1  0.70707000  0.21527000  0.36042000  1.0
  H  H36  1  0.00869000  0.27490000  0.17520000  1.0
  H  H37  1  0.99281000  0.72679000  0.82507000  1.0
  H  H38  1  0.98333000  0.43745000  0.24939000  1.0
  H  H39  1  0.01837000  0.56363000  0.75152000  1.0
  H  H40  1  0.51603000  0.73401000  0.16655000  1.0
  H  H41  1  0.48597000  0.26459000  0.83356000  1.0
  H  H42  1  0.45724000  0.88742000  0.13215000  1.0
  H  H43  1  0.54265000  0.11054000  0.86795000  1.0
  H  H44  1  0.60788000  0.91156000  0.00110000  1.0
  H  H45  1  0.39199000  0.08920000  0.99878000  1.0
  H  H46  1  0.70962000  0.78541000  0.06272000  1.0
  H  H47  1  0.29080000  0.21524000  0.93618000  1.0
  C  C48  1  0.65389000  0.26658000  0.16923000  1.0
  C  C49  1  0.34574000  0.73324000  0.83063000  1.0
  C  C50  1  0.57357000  0.84337000  0.44341000  1.0
  C  C51  1  0.42593000  0.15640000  0.55622000  1.0
  C  C52  1  0.58547000  0.73944000  0.32124000  1.0
  C  C53  1  0.41578000  0.26011000  0.67853000  1.0
  C  C54  1  0.57199000  0.83004000  0.54264000  1.0
  C  C55  1  0.42713000  0.17004000  0.45696000  1.0
  C  C56  1  0.30405000  0.04934000  0.20470000  1.0
  C  C57  1  0.69587000  0.94979000  0.79554000  1.0
  C  C58  1  0.60132000  0.71795000  0.61324000  1.0
  C  C59  1  0.39816000  0.28236000  0.38651000  1.0
  C  C60  1  0.16231000  0.85877000  0.20008000  1.0
  C  C61  1  0.83662000  0.14209000  0.79986000  1.0
  C  C62  1  0.68776000  0.26961000  0.07276000  1.0
  C  C63  1  0.31264000  0.73030000  0.92716000  1.0
  C  C64  1  0.16361000  0.98485000  0.43685000  1.0
  C  C65  1  0.83572000  0.01513000  0.56341000  1.0
  C  C66  1  0.92645000  0.95144000  0.27809000  1.0
  C  C67  1  0.07303000  0.04982000  0.72147000  1.0
  C  C68  1  0.05678000  0.11064000  0.10889000  1.0
  C  C69  1  0.94375000  0.89063000  0.89105000  1.0
  C  C70  1  0.59843000  0.73622000  0.41835000  1.0
  C  C71  1  0.40226000  0.26355000  0.58143000  1.0
  C  C72  1  0.09789000  0.19620000  0.43829000  1.0
  C  C73  1  0.90166000  0.80355000  0.56263000  1.0
  C  C74  1  0.70045000  0.38268000  0.99510000  1.0
  C  C75  1  0.30057000  0.61719000  0.00488000  1.0
  C  C76  1  0.11192000  0.11109000  0.39134000  1.0
  C  C77  1  0.88785000  0.88912000  0.60913000  1.0
  C  C78  1  0.62468000  0.62217000  0.49190000  1.0
  C  C79  1  0.37650000  0.37788000  0.50798000  1.0
  C  C80  1  0.72071000  0.16000000  0.05195000  1.0
  C  C81  1  0.27976000  0.83983000  0.94810000  1.0
  C  C82  1  0.62928000  0.61392000  0.58747000  1.0
  C  C83  1  0.37119000  0.38638000  0.41241000  1.0
  C  C84  1  0.25926000  0.74613000  0.50926000  1.0
  C  C85  1  0.73891000  0.25340000  0.49061000  1.0
  C  C86  1  0.67803000  0.49112000  0.01245000  1.0
  C  C87  1  0.32269000  0.50875000  0.98751000  1.0
  C  C88  1  0.20775000  0.93827000  0.53047000  1.0
  C  C89  1  0.79201000  0.06132000  0.46968000  1.0
  C  C90  1  0.64718000  0.48978000  0.10723000  1.0
  C  C91  1  0.35308000  0.51001000  0.89271000  1.0
  C  C92  1  0.05106000  0.31466000  0.38778000  1.0
  C  C93  1  0.94889000  0.68533000  0.61337000  1.0
  C  C94  1  0.63655000  0.37942000  0.18433000  1.0
  C  C95  1  0.36320000  0.62036000  0.81556000  1.0
  C  C96  1  0.21464000  0.79739000  0.41650000  1.0
  C  C97  1  0.78344000  0.20259000  0.58344000  1.0
  C  C98  1  0.75763000  0.94812000  0.08130000  1.0
  C  C99  1  0.24246000  0.05194000  0.91857000  1.0
  C  C100  1  0.25624000  0.81781000  0.56703000  1.0
  C  C101  1  0.74281000  0.18152000  0.43293000  1.0
  C  C102  1  0.03274000  0.25624000  0.24966000  1.0
  C  C103  1  0.96836000  0.74493000  0.75076000  1.0
  C  C104  1  0.01828000  0.34540000  0.29204000  1.0
  C  C105  1  0.98271000  0.65539000  0.70877000  1.0
  C  C106  1  0.54580000  0.82771000  0.15268000  1.0
  C  C107  1  0.45486000  0.17131000  0.84724000  1.0
  C  C108  1  0.65483000  0.86619000  0.06986000  1.0
  C  C109  1  0.34537000  0.13394000  0.92980000  1.0
  Br  Br110  1  0.68136000  0.46317000  0.68483000  1.0
  Br  Br111  1  0.31922000  0.53747000  0.31542000  1.0
  Br  Br112  1  0.68618000  0.64521000  0.90949000  1.0
  Br  Br113  1  0.31433000  0.35458000  0.09048000  1.0
  N  N114  1  0.58075000  0.83706000  0.24378000  1.0
  N  N115  1  0.41963000  0.16244000  0.75600000  1.0
  N  N116  1  0.16822000  0.91429000  0.38080000  1.0
  N  N117  1  0.83051000  0.08591000  0.61932000  1.0
  N  N118  1  0.70108000  0.04878000  0.11089000  1.0
  N  N119  1  0.29887000  0.95113000  0.88909000  1.0
  N  N120  1  0.07909000  0.14183000  0.29797000  1.0
  N  N121  1  0.92130000  0.85900000  0.70229000  1.0
  N  N122  1  0.41745000  0.06676000  0.19081000  1.0
  N  N123  1  0.58256000  0.93181000  0.80855000  1.0
  N  N124  1  0.81586000  0.92586000  0.30176000  1.0
  N  N125  1  0.18391000  0.07442000  0.69794000  1.0
  N  N126  1  0.02101000  0.17872000  0.03428000  1.0
  N  N127  1  0.97956000  0.82255000  0.96567000  1.0
  N  N128  1  0.20030000  0.77117000  0.18279000  1.0
  N  N129  1  0.79869000  0.22978000  0.81703000  1.0
  O  O130  1  0.54840000  0.95220000  0.37856000  1.0
  O  O131  1  0.45054000  0.04735000  0.62103000  1.0
  O  O132  1  0.64142000  0.16352000  0.24483000  1.0
  O  O133  1  0.35727000  0.83629000  0.75492000  1.0
