# generated using pymatgen
data_Co5H26(C11O16)2
_symmetry_space_group_name_H-M   'P 1'
_cell_length_a   11.01240000
_cell_length_b   12.52400000
_cell_length_c   15.55150000
_cell_angle_alpha   87.48800000
_cell_angle_beta   89.99940000
_cell_angle_gamma   89.99790000
_symmetry_Int_Tables_number   1
_chemical_formula_structural   Co5H26(C11O16)2
_chemical_formula_sum   'Co10 H52 C44 O64'
_cell_volume   2142.79088974
_cell_formula_units_Z   2
loop_
 _symmetry_equiv_pos_site_id
 _symmetry_equiv_pos_as_xyz
  1  'x, y, z'
loop_
 _atom_site_type_symbol
 _atom_site_label
 _atom_site_symmetry_multiplicity
 _atom_site_fract_x
 _atom_site_fract_y
 _atom_site_fract_z
 _atom_site_occupancy
  Co  Co0  1  0.10067000  0.29310000  0.22759000  1.0
  Co  Co1  1  0.00240000  0.50378000  0.28923000  1.0
  Co  Co2  1  0.60066000  0.70695000  0.27241000  1.0
  Co  Co3  1  0.50240000  0.49624000  0.21079000  1.0
  Co  Co4  1  0.89933000  0.70694000  0.77241000  1.0
  Co  Co5  1  0.99758000  0.49623000  0.71078000  1.0
  Co  Co6  1  0.39936000  0.29307000  0.72758000  1.0
  Co  Co7  1  0.49762000  0.50378000  0.78922000  1.0
  Co  Co8  1  0.99998000  0.99999000  0.00000000  1.0
  Co  Co9  1  0.50002000  0.99999000  0.50000000  1.0
  H  H10  1  0.92837000  0.30916000  0.93646000  1.0
  H  H11  1  0.06092000  0.92535000  0.16323000  1.0
  H  H12  1  0.05159000  0.05436000  0.14983000  1.0
  H  H13  1  0.82826000  0.83639000  0.03408000  1.0
  H  H14  1  0.77850000  0.94299000  0.98789000  1.0
  H  H15  1  0.28673000  0.26583000  0.12166000  1.0
  H  H16  1  0.33610000  0.27326000  0.21262000  1.0
  H  H17  1  0.18949000  0.12861000  0.31983000  1.0
  H  H18  1  0.19142000  0.22870000  0.37619000  1.0
  H  H19  1  0.89225000  0.53757000  0.43670000  1.0
  H  H20  1  0.88699000  0.41308000  0.41206000  1.0
  H  H21  1  0.05134000  0.67548000  0.38413000  1.0
  H  H22  1  0.12229000  0.69125000  0.29449000  1.0
  H  H23  1  0.42838000  0.69086000  0.56354000  1.0
  H  H24  1  0.56090000  0.07463000  0.33676000  1.0
  H  H25  1  0.55161000  0.94560000  0.35016000  1.0
  H  H26  1  0.32827000  0.16360000  0.46593000  1.0
  H  H27  1  0.27850000  0.05700000  0.51210000  1.0
  H  H28  1  0.78669000  0.73413000  0.37833000  1.0
  H  H29  1  0.83605000  0.72669000  0.28738000  1.0
  H  H30  1  0.68947000  0.87134000  0.18019000  1.0
  H  H31  1  0.69140000  0.77128000  0.12383000  1.0
  H  H32  1  0.39225000  0.46243000  0.06327000  1.0
  H  H33  1  0.38695000  0.58692000  0.08791000  1.0
  H  H34  1  0.55133000  0.32446000  0.11586000  1.0
  H  H35  1  0.62231000  0.30871000  0.20551000  1.0
  H  H36  1  0.07164000  0.69086000  0.06354000  1.0
  H  H37  1  0.93906000  0.07463000  0.83677000  1.0
  H  H38  1  0.94839000  0.94562000  0.85016000  1.0
  H  H39  1  0.17172000  0.16359000  0.96592000  1.0
  H  H40  1  0.22150000  0.05699000  0.01210000  1.0
  H  H41  1  0.71329000  0.73415000  0.87833000  1.0
  H  H42  1  0.66392000  0.72672000  0.78737000  1.0
  H  H43  1  0.81053000  0.87137000  0.68019000  1.0
  H  H44  1  0.80860000  0.77128000  0.62382000  1.0
  H  H45  1  0.10775000  0.46244000  0.56328000  1.0
  H  H46  1  0.11303000  0.58691000  0.58792000  1.0
  H  H47  1  0.94866000  0.32447000  0.61586000  1.0
  H  H48  1  0.87770000  0.30872000  0.70550000  1.0
  H  H49  1  0.57161000  0.30915000  0.43645000  1.0
  H  H50  1  0.43910000  0.92535000  0.66324000  1.0
  H  H51  1  0.44842000  0.05437000  0.64984000  1.0
  H  H52  1  0.67174000  0.83637000  0.53407000  1.0
  H  H53  1  0.72151000  0.94298000  0.48790000  1.0
  H  H54  1  0.21328000  0.26585000  0.62167000  1.0
  H  H55  1  0.16392000  0.27327000  0.71262000  1.0
  H  H56  1  0.31051000  0.12864000  0.81982000  1.0
  H  H57  1  0.30858000  0.22869000  0.87618000  1.0
  H  H58  1  0.60775000  0.53758000  0.93672000  1.0
  H  H59  1  0.61303000  0.41308000  0.91207000  1.0
  H  H60  1  0.44869000  0.67551000  0.88414000  1.0
  H  H61  1  0.37770000  0.69126000  0.79448000  1.0
  C  C62  1  0.88527000  0.30991000  0.07143000  1.0
  C  C63  1  0.84375000  0.37169000  0.13849000  1.0
  C  C64  1  0.80370000  0.47663000  0.11972000  1.0
  C  C65  1  0.80684000  0.52168000  0.03540000  1.0
  C  C66  1  0.85568000  0.46058000  0.96959000  1.0
  C  C67  1  0.88981000  0.35472000  0.98776000  1.0
  C  C68  1  0.93739000  0.20053000  0.08632000  1.0
  C  C69  1  0.83955000  0.32565000  0.22991000  1.0
  C  C70  1  0.76549000  0.54500000  0.19117000  1.0
  C  C71  1  0.75908000  0.63431000  0.01869000  1.0
  C  C72  1  0.88901000  0.51036000  0.88362000  1.0
  C  C73  1  0.38529000  0.69010000  0.42856000  1.0
  C  C74  1  0.34376000  0.62833000  0.36151000  1.0
  C  C75  1  0.30367000  0.52341000  0.38030000  1.0
  C  C76  1  0.30683000  0.47835000  0.46462000  1.0
  C  C77  1  0.35568000  0.53945000  0.53041000  1.0
  C  C78  1  0.38982000  0.64531000  0.51224000  1.0
  C  C79  1  0.43746000  0.79944000  0.41365000  1.0
  C  C80  1  0.33956000  0.67437000  0.27011000  1.0
  C  C81  1  0.26545000  0.45504000  0.30887000  1.0
  C  C82  1  0.25909000  0.36570000  0.48133000  1.0
  C  C83  1  0.38901000  0.48967000  0.61638000  1.0
  C  C84  1  0.11472000  0.69010000  0.92857000  1.0
  C  C85  1  0.15625000  0.62832000  0.86151000  1.0
  C  C86  1  0.19631000  0.52340000  0.88030000  1.0
  C  C87  1  0.19316000  0.47833000  0.96462000  1.0
  C  C88  1  0.14431000  0.53943000  0.03042000  1.0
  C  C89  1  0.11019000  0.64529000  0.01224000  1.0
  C  C90  1  0.06257000  0.79946000  0.91366000  1.0
  C  C91  1  0.16044000  0.67437000  0.77009000  1.0
  C  C92  1  0.23453000  0.45503000  0.80886000  1.0
  C  C93  1  0.24091000  0.36570000  0.98132000  1.0
  C  C94  1  0.11097000  0.48967000  0.11640000  1.0
  C  C95  1  0.61472000  0.30991000  0.57143000  1.0
  C  C96  1  0.65625000  0.37168000  0.63849000  1.0
  C  C97  1  0.69632000  0.47661000  0.61970000  1.0
  C  C98  1  0.69315000  0.52167000  0.53539000  1.0
  C  C99  1  0.64431000  0.46057000  0.46959000  1.0
  C  C100  1  0.61018000  0.35470000  0.48776000  1.0
  C  C101  1  0.56259000  0.20055000  0.58634000  1.0
  C  C102  1  0.66046000  0.32564000  0.72989000  1.0
  C  C103  1  0.73452000  0.54499000  0.69115000  1.0
  C  C104  1  0.74090000  0.63431000  0.51867000  1.0
  C  C105  1  0.61100000  0.51036000  0.38362000  1.0
  O  O106  1  0.91518000  0.13553000  0.02818000  1.0
  O  O107  1  0.00306000  0.17877000  0.15336000  1.0
  O  O108  1  0.93555000  0.33942000  0.27719000  1.0
  O  O109  1  0.74626000  0.27884000  0.25664000  1.0
  O  O110  1  0.83733000  0.56087000  0.25237000  1.0
  O  O111  1  0.65907000  0.58754000  0.18639000  1.0
  O  O112  1  0.80875000  0.70820000  0.05999000  1.0
  O  O113  1  0.66905000  0.64631000  0.96805000  1.0
  O  O114  1  0.92445000  0.44969000  0.82529000  1.0
  O  O115  1  0.88585000  0.61224000  0.87725000  1.0
  O  O116  1  0.08052000  0.98601000  0.12457000  1.0
  O  O117  1  0.83546000  0.91660000  0.03183000  1.0
  O  O118  1  0.27478000  0.23399000  0.18089000  1.0
  O  O119  1  0.14120000  0.19066000  0.33392000  1.0
  O  O120  1  0.93935000  0.47576000  0.41224000  1.0
  O  O121  1  0.04467000  0.66403000  0.32283000  1.0
  O  O122  1  0.41523000  0.86442000  0.47180000  1.0
  O  O123  1  0.50315000  0.82121000  0.34662000  1.0
  O  O124  1  0.43557000  0.66064000  0.22283000  1.0
  O  O125  1  0.24626000  0.72117000  0.24337000  1.0
  O  O126  1  0.33726000  0.43914000  0.24766000  1.0
  O  O127  1  0.15901000  0.41250000  0.31363000  1.0
  O  O128  1  0.30878000  0.29182000  0.44002000  1.0
  O  O129  1  0.16903000  0.35373000  0.53196000  1.0
  O  O130  1  0.42445000  0.55036000  0.67469000  1.0
  O  O131  1  0.38585000  0.38780000  0.62278000  1.0
  O  O132  1  0.58054000  0.01396000  0.37542000  1.0
  O  O133  1  0.33544000  0.08340000  0.46817000  1.0
  O  O134  1  0.77475000  0.76600000  0.31910000  1.0
  O  O135  1  0.64119000  0.80930000  0.16612000  1.0
  O  O136  1  0.43934000  0.52425000  0.08771000  1.0
  O  O137  1  0.54466000  0.33592000  0.17716000  1.0
  O  O138  1  0.08478000  0.86446000  0.97180000  1.0
  O  O139  1  0.99689000  0.82123000  0.84663000  1.0
  O  O140  1  0.06443000  0.66063000  0.72281000  1.0
  O  O141  1  0.25375000  0.72114000  0.74336000  1.0
  O  O142  1  0.16273000  0.43916000  0.74765000  1.0
  O  O143  1  0.34097000  0.41249000  0.81363000  1.0
  O  O144  1  0.19123000  0.29182000  0.94001000  1.0
  O  O145  1  0.33096000  0.35370000  0.03195000  1.0
  O  O146  1  0.07552000  0.55034000  0.17472000  1.0
  O  O147  1  0.11413000  0.38779000  0.12275000  1.0
  O  O148  1  0.91947000  0.01397000  0.87543000  1.0
  O  O149  1  0.16453000  0.08339000  0.96817000  1.0
  O  O150  1  0.72523000  0.76600000  0.81910000  1.0
  O  O151  1  0.85879000  0.80932000  0.66609000  1.0
  O  O152  1  0.06064000  0.52425000  0.58773000  1.0
  O  O153  1  0.95533000  0.33594000  0.67717000  1.0
  O  O154  1  0.58481000  0.13557000  0.52818000  1.0
  O  O155  1  0.49692000  0.17877000  0.65337000  1.0
  O  O156  1  0.56446000  0.33940000  0.77719000  1.0
  O  O157  1  0.75375000  0.27883000  0.75664000  1.0
  O  O158  1  0.66270000  0.56088000  0.75235000  1.0
  O  O159  1  0.84096000  0.58753000  0.68637000  1.0
  O  O160  1  0.69123000  0.70820000  0.55997000  1.0
  O  O161  1  0.83094000  0.64628000  0.46804000  1.0
  O  O162  1  0.57557000  0.44967000  0.32531000  1.0
  O  O163  1  0.61415000  0.61223000  0.37721000  1.0
  O  O164  1  0.41948000  0.98601000  0.62459000  1.0
  O  O165  1  0.66457000  0.91659000  0.53184000  1.0
  O  O166  1  0.22523000  0.23398000  0.68089000  1.0
  O  O167  1  0.35881000  0.19067000  0.83391000  1.0
  O  O168  1  0.56066000  0.47576000  0.91228000  1.0
  O  O169  1  0.45535000  0.66407000  0.82284000  1.0
