# generated using pymatgen
data_AgH5C7(NO)4
_symmetry_space_group_name_H-M   'P 1'
_cell_length_a   5.22566000
_cell_length_b   13.18930000
_cell_length_c   14.43850000
_cell_angle_alpha   65.58500000
_cell_angle_beta   89.99980000
_cell_angle_gamma   89.99990000
_symmetry_Int_Tables_number   1
_chemical_formula_structural   AgH5C7(NO)4
_chemical_formula_sum   'Ag4 H20 C28 N16 O16'
_cell_volume   906.15173116
_cell_formula_units_Z   4
loop_
 _symmetry_equiv_pos_site_id
 _symmetry_equiv_pos_as_xyz
  1  'x, y, z'
loop_
 _atom_site_type_symbol
 _atom_site_label
 _atom_site_symmetry_multiplicity
 _atom_site_fract_x
 _atom_site_fract_y
 _atom_site_fract_z
 _atom_site_occupancy
  Ag  Ag0  1  0.74018000  0.88434000  0.52885000  1.0
  Ag  Ag1  1  0.24013000  0.61569000  0.97114000  1.0
  Ag  Ag2  1  0.25981000  0.11567000  0.47115000  1.0
  Ag  Ag3  1  0.75984000  0.38433000  0.02885000  1.0
  H  H4  1  0.24048000  0.15342000  0.69113000  1.0
  H  H5  1  0.74050000  0.34657000  0.80887000  1.0
  H  H6  1  0.75952000  0.84658000  0.30886000  1.0
  H  H7  1  0.25950000  0.65342000  0.19114000  1.0
  H  H8  1  0.34616000  0.19570000  0.84428000  1.0
  H  H9  1  0.84618000  0.30430000  0.65571000  1.0
  H  H10  1  0.65381000  0.80430000  0.15571000  1.0
  H  H11  1  0.15381000  0.69570000  0.34429000  1.0
  H  H12  1  0.72799000  0.10954000  0.94869000  1.0
  H  H13  1  0.22803000  0.39045000  0.55132000  1.0
  H  H14  1  0.27197000  0.89045000  0.05132000  1.0
  H  H15  1  0.77197000  0.60955000  0.44868000  1.0
  H  H16  1  0.99265000  0.97060000  0.90972000  1.0
  H  H17  1  0.49267000  0.52940000  0.59028000  1.0
  H  H18  1  0.00733000  0.02941000  0.09028000  1.0
  H  H19  1  0.50734000  0.47059000  0.40972000  1.0
  H  H20  1  0.08524000  0.80250000  0.70859000  1.0
  H  H21  1  0.58521000  0.69751000  0.79140000  1.0
  H  H22  1  0.91482000  0.19751000  0.29140000  1.0
  H  H23  1  0.41480000  0.30249000  0.20860000  1.0
  C  C24  1  0.40047000  0.11775000  0.74261000  1.0
  C  C25  1  0.90048000  0.38224000  0.75739000  1.0
  C  C26  1  0.59954000  0.88225000  0.25740000  1.0
  C  C27  1  0.09953000  0.61775000  0.24261000  1.0
  C  C28  1  0.46460000  0.13956000  0.82466000  1.0
  C  C29  1  0.96462000  0.36043000  0.67534000  1.0
  C  C30  1  0.53539000  0.86042000  0.17534000  1.0
  C  C31  1  0.03540000  0.63957000  0.32466000  1.0
  C  C32  1  0.68021000  0.08816000  0.88549000  1.0
  C  C33  1  0.18023000  0.41183000  0.61451000  1.0
  C  C34  1  0.31977000  0.91183000  0.11451000  1.0
  C  C35  1  0.81978000  0.58817000  0.38549000  1.0
  C  C36  1  0.82847000  0.01362000  0.86435000  1.0
  C  C37  1  0.32848000  0.48638000  0.63565000  1.0
  C  C38  1  0.17152000  0.98638000  0.13565000  1.0
  C  C39  1  0.67153000  0.51362000  0.36435000  1.0
  C  C40  1  0.76156000  0.99194000  0.78007000  1.0
  C  C41  1  0.26157000  0.50806000  0.71993000  1.0
  C  C42  1  0.23844000  0.00807000  0.21994000  1.0
  C  C43  1  0.73845000  0.49194000  0.28006000  1.0
  C  C44  1  0.85516000  0.92642000  0.73090000  1.0
  C  C45  1  0.35515000  0.57358000  0.76910000  1.0
  C  C46  1  0.14486000  0.07359000  0.26910000  1.0
  C  C47  1  0.64484000  0.42642000  0.23090000  1.0
  C  C48  1  0.06990000  0.85030000  0.75606000  1.0
  C  C49  1  0.56990000  0.64970000  0.74394000  1.0
  C  C50  1  0.93015000  0.14971000  0.24396000  1.0
  C  C51  1  0.43013000  0.35030000  0.25605000  1.0
  N  N52  1  0.70005000  0.94482000  0.64963000  1.0
  N  N53  1  0.20005000  0.55518000  0.85037000  1.0
  N  N54  1  0.29997000  0.05518000  0.35037000  1.0
  N  N55  1  0.79995000  0.44482000  0.14963000  1.0
  N  N56  1  0.51619000  0.01549000  0.64271000  1.0
  N  N57  1  0.01620000  0.48451000  0.85728000  1.0
  N  N58  1  0.48382000  0.98450000  0.35729000  1.0
  N  N59  1  0.98381000  0.51549000  0.14272000  1.0
  N  N60  1  0.55165000  0.04520000  0.72224000  1.0
  N  N61  1  0.05165000  0.45480000  0.77776000  1.0
  N  N62  1  0.44836000  0.95480000  0.27776000  1.0
  N  N63  1  0.94836000  0.54520000  0.22225000  1.0
  N  N64  1  0.21023000  0.78218000  0.48900000  1.0
  N  N65  1  0.71022000  0.71783000  0.01100000  1.0
  N  N66  1  0.78975000  0.21782000  0.51101000  1.0
  N  N67  1  0.28978000  0.28217000  0.98900000  1.0
  O  O68  1  0.22429000  0.83869000  0.82460000  1.0
  O  O69  1  0.72428000  0.66131000  0.67540000  1.0
  O  O70  1  0.77570000  0.16133000  0.17539000  1.0
  O  O71  1  0.27569000  0.33869000  0.32460000  1.0
  O  O72  1  0.98837000  0.80566000  0.44542000  1.0
  O  O73  1  0.48836000  0.69435000  0.05459000  1.0
  O  O74  1  0.01161000  0.19434000  0.55459000  1.0
  O  O75  1  0.51164000  0.30565000  0.94541000  1.0
  O  O76  1  0.36893000  0.72950000  0.46077000  1.0
  O  O77  1  0.86893000  0.77050000  0.03923000  1.0
  O  O78  1  0.63105000  0.27050000  0.53924000  1.0
  O  O79  1  0.13108000  0.22949000  0.96076000  1.0
  O  O80  1  0.26188000  0.81489000  0.55775000  1.0
  O  O81  1  0.76186000  0.68511000  0.94225000  1.0
  O  O82  1  0.73811000  0.18511000  0.44225000  1.0
  O  O83  1  0.23814000  0.31488000  0.05775000  1.0
