# generated using pymatgen
data_MnH8C12(NO2)2
_symmetry_space_group_name_H-M   'P 1'
_cell_length_a   10.02490000
_cell_length_b   10.10940000
_cell_length_c   13.62590000
_cell_angle_alpha   90.00070000
_cell_angle_beta   90.00100000
_cell_angle_gamma   73.06500000
_symmetry_Int_Tables_number   1
_chemical_formula_structural   MnH8C12(NO2)2
_chemical_formula_sum   'Mn4 H32 C48 N8 O16'
_cell_volume   1321.04395503
_cell_formula_units_Z   4
loop_
 _symmetry_equiv_pos_site_id
 _symmetry_equiv_pos_as_xyz
  1  'x, y, z'
loop_
 _atom_site_type_symbol
 _atom_site_label
 _atom_site_symmetry_multiplicity
 _atom_site_fract_x
 _atom_site_fract_y
 _atom_site_fract_z
 _atom_site_occupancy
  Mn  Mn0  1  0.11882000  0.74803000  0.11076000  1.0
  Mn  Mn1  1  0.88117000  0.25197000  0.61076000  1.0
  Mn  Mn2  1  0.62660000  0.75131000  0.11320000  1.0
  Mn  Mn3  1  0.37341000  0.24869000  0.61320000  1.0
  H  H4  1  0.40601000  0.68259000  0.82762000  1.0
  H  H5  1  0.59400000  0.31741000  0.32761000  1.0
  H  H6  1  0.38815000  0.54628000  0.67734000  1.0
  H  H7  1  0.61185000  0.45373000  0.17733000  1.0
  H  H8  1  0.36271000  0.21200000  0.84230000  1.0
  H  H9  1  0.63728000  0.78800000  0.34230000  1.0
  H  H10  1  0.37231000  0.33626000  0.00059000  1.0
  H  H11  1  0.62769000  0.66373000  0.50058000  1.0
  H  H12  1  0.10457000  0.51618000  0.86816000  1.0
  H  H13  1  0.89544000  0.48380000  0.36816000  1.0
  H  H14  1  0.08387000  0.38815000  0.71297000  1.0
  H  H15  1  0.91613000  0.61186000  0.21297000  1.0
  H  H16  1  0.69777000  0.35529000  0.79601000  1.0
  H  H17  1  0.30223000  0.64473000  0.29602000  1.0
  H  H18  1  0.70584000  0.47780000  0.95653000  1.0
  H  H19  1  0.29415000  0.52221000  0.45654000  1.0
  H  H20  1  0.30598000  0.83363000  0.39845000  1.0
  H  H21  1  0.69402000  0.16636000  0.89844000  1.0
  H  H22  1  0.33242000  0.96622000  0.54898000  1.0
  H  H23  1  0.66758000  0.03377000  0.04898000  1.0
  H  H24  1  0.38511000  0.28977000  0.38390000  1.0
  H  H25  1  0.61489000  0.71021000  0.88390000  1.0
  H  H26  1  0.37794000  0.16387000  0.22568000  1.0
  H  H27  1  0.62207000  0.83612000  0.72569000  1.0
  H  H28  1  0.64312000  0.99152000  0.35781000  1.0
  H  H29  1  0.35686000  0.00849000  0.85779000  1.0
  H  H30  1  0.67288000  0.11382000  0.51215000  1.0
  H  H31  1  0.32711000  0.88622000  0.01214000  1.0
  H  H32  1  0.05253000  0.15250000  0.41756000  1.0
  H  H33  1  0.94747000  0.84749000  0.91754000  1.0
  H  H34  1  0.04217000  0.02117000  0.26197000  1.0
  H  H35  1  0.95783000  0.97881000  0.76195000  1.0
  C  C36  1  0.41326000  0.59036000  0.02101000  1.0
  C  C37  1  0.58673000  0.40964000  0.52100000  1.0
  C  C38  1  0.39434000  0.51855000  0.92698000  1.0
  C  C39  1  0.60564000  0.48145000  0.42698000  1.0
  C  C40  1  0.39715000  0.57811000  0.83437000  1.0
  C  C41  1  0.60285000  0.42189000  0.33436000  1.0
  C  C42  1  0.38730000  0.50283000  0.75054000  1.0
  C  C43  1  0.61273000  0.49716000  0.25054000  1.0
  C  C44  1  0.37332000  0.31619000  0.84285000  1.0
  C  C45  1  0.62668000  0.68381000  0.34285000  1.0
  C  C46  1  0.37912000  0.38537000  0.93030000  1.0
  C  C47  1  0.62088000  0.61462000  0.43030000  1.0
  C  C48  1  0.91719000  0.58142000  0.01736000  1.0
  C  C49  1  0.08283000  0.41858000  0.51736000  1.0
  C  C50  1  0.90773000  0.50399000  0.92443000  1.0
  C  C51  1  0.09228000  0.49600000  0.42444000  1.0
  C  C52  1  0.01434000  0.47955000  0.85482000  1.0
  C  C53  1  0.98567000  0.52044000  0.35482000  1.0
  C  C54  1  0.00296000  0.40880000  0.76922000  1.0
  C  C55  1  0.99705000  0.59120000  0.26922000  1.0
  C  C56  1  0.78749000  0.38977000  0.81627000  1.0
  C  C57  1  0.21252000  0.61023000  0.31628000  1.0
  C  C58  1  0.79219000  0.45702000  0.90463000  1.0
  C  C59  1  0.20780000  0.54298000  0.40464000  1.0
  C  C60  1  0.33150000  0.91194000  0.20612000  1.0
  C  C61  1  0.66850000  0.08805000  0.70612000  1.0
  C  C62  1  0.34198000  0.98789000  0.29958000  1.0
  C  C63  1  0.65801000  0.01210000  0.79957000  1.0
  C  C64  1  0.32716000  0.93295000  0.39187000  1.0
  C  C65  1  0.67284000  0.06704000  0.89186000  1.0
  C  C66  1  0.34020000  0.00668000  0.47573000  1.0
  C  C67  1  0.65981000  0.99331000  0.97573000  1.0
  C  C68  1  0.37038000  0.18729000  0.38333000  1.0
  C  C69  1  0.62963000  0.81271000  0.88333000  1.0
  C  C70  1  0.36500000  0.11780000  0.29606000  1.0
  C  C71  1  0.63501000  0.88219000  0.79605000  1.0
  C  C72  1  0.82730000  0.91822000  0.20558000  1.0
  C  C73  1  0.17270000  0.08179000  0.70557000  1.0
  C  C74  1  0.84114000  0.99616000  0.29787000  1.0
  C  C75  1  0.15885000  0.00384000  0.79784000  1.0
  C  C76  1  0.73650000  0.02363000  0.36936000  1.0
  C  C77  1  0.26349000  0.97638000  0.86934000  1.0
  C  C78  1  0.75183000  0.09350000  0.45448000  1.0
  C  C79  1  0.24816000  0.90653000  0.95447000  1.0
  C  C80  1  0.96396000  0.11396000  0.40167000  1.0
  C  C81  1  0.03605000  0.88604000  0.90165000  1.0
  C  C82  1  0.95726000  0.04321000  0.31495000  1.0
  C  C83  1  0.04275000  0.95679000  0.81493000  1.0
  N  N84  1  0.37806000  0.37257000  0.75380000  1.0
  N  N85  1  0.62194000  0.62744000  0.25379000  1.0
  N  N86  1  0.89124000  0.36463000  0.74975000  1.0
  N  N87  1  0.10876000  0.63538000  0.24975000  1.0
  N  N88  1  0.36040000  0.13261000  0.47229000  1.0
  N  N89  1  0.63960000  0.86737000  0.97230000  1.0
  N  N90  1  0.86383000  0.13869000  0.47097000  1.0
  N  N91  1  0.13617000  0.86132000  0.97096000  1.0
  O  O92  1  0.52342000  0.62863000  0.02471000  1.0
  O  O93  1  0.47658000  0.37136000  0.52469000  1.0
  O  O94  1  0.32416000  0.60186000  0.08851000  1.0
  O  O95  1  0.67582000  0.39814000  0.58850000  1.0
  O  O96  1  0.02647000  0.61900000  0.02780000  1.0
  O  O97  1  0.97355000  0.38099000  0.52781000  1.0
  O  O98  1  0.81665000  0.60175000  0.07811000  1.0
  O  O99  1  0.18335000  0.39826000  0.57811000  1.0
  O  O100  1  0.22382000  0.87175000  0.19728000  1.0
  O  O101  1  0.77616000  0.12827000  0.69730000  1.0
  O  O102  1  0.42903000  0.89814000  0.14396000  1.0
  O  O103  1  0.57099000  0.10185000  0.64395000  1.0
  O  O104  1  0.71583000  0.88221000  0.19867000  1.0
  O  O105  1  0.28416000  0.11781000  0.69867000  1.0
  O  O106  1  0.92332000  0.89664000  0.14170000  1.0
  O  O107  1  0.07669000  0.10336000  0.64167000  1.0
