# generated using pymatgen
data_BaH4C5N2O5
_symmetry_space_group_name_H-M   'P 1'
_cell_length_a   7.21651000
_cell_length_b   10.17400000
_cell_length_c   10.54830000
_cell_angle_alpha   90.00000000
_cell_angle_beta   90.00000000
_cell_angle_gamma   101.72100000
_symmetry_Int_Tables_number   1
_chemical_formula_structural   BaH4C5N2O5
_chemical_formula_sum   'Ba4 H16 C20 N8 O20'
_cell_volume   758.31553157
_cell_formula_units_Z   4
loop_
 _symmetry_equiv_pos_site_id
 _symmetry_equiv_pos_as_xyz
  1  'x, y, z'
loop_
 _atom_site_type_symbol
 _atom_site_label
 _atom_site_symmetry_multiplicity
 _atom_site_fract_x
 _atom_site_fract_y
 _atom_site_fract_z
 _atom_site_occupancy
  Ba  Ba0  1  0.16574000  0.26151000  0.14668000  1.0
  Ba  Ba1  1  0.33426000  0.73849000  0.64668000  1.0
  Ba  Ba2  1  0.83426000  0.73849000  0.85332000  1.0
  Ba  Ba3  1  0.66574000  0.26151000  0.35332000  1.0
  H  H4  1  0.70323000  0.95082000  0.42321000  1.0
  H  H5  1  0.79677000  0.04918000  0.92321000  1.0
  H  H6  1  0.29677000  0.04918000  0.57679000  1.0
  H  H7  1  0.20323000  0.95082000  0.07679000  1.0
  H  H8  1  0.14325000  0.36630000  0.43734000  1.0
  H  H9  1  0.35675000  0.63370000  0.93734000  1.0
  H  H10  1  0.85675000  0.63370000  0.56266000  1.0
  H  H11  1  0.64325000  0.36630000  0.06266000  1.0
  H  H12  1  0.55880000  0.66312000  0.12501000  1.0
  H  H13  1  0.94120000  0.33688000  0.62501000  1.0
  H  H14  1  0.44120000  0.33688000  0.87499000  1.0
  H  H15  1  0.05880000  0.66312000  0.37499000  1.0
  H  H16  1  0.07045000  0.21132000  0.46683000  1.0
  H  H17  1  0.42954000  0.78868000  0.96683000  1.0
  H  H18  1  0.92954000  0.78868000  0.53317000  1.0
  H  H19  1  0.57046000  0.21132000  0.03317000  1.0
  C  C20  1  0.75129000  0.95780000  0.15146000  1.0
  C  C21  1  0.74871000  0.04220000  0.65146000  1.0
  C  C22  1  0.24870000  0.04220000  0.84854000  1.0
  C  C23  1  0.25130000  0.95780000  0.34854000  1.0
  C  C24  1  0.57659000  0.71491000  0.21507000  1.0
  C  C25  1  0.92341000  0.28509000  0.71507000  1.0
  C  C26  1  0.42341000  0.28509000  0.78493000  1.0
  C  C27  1  0.07659000  0.71491000  0.28492000  1.0
  C  C28  1  0.51350000  0.66249000  0.33417000  1.0
  C  C29  1  0.98650000  0.33751000  0.83417000  1.0
  C  C30  1  0.48650000  0.33751000  0.66583000  1.0
  C  C31  1  0.01350000  0.66249000  0.16583000  1.0
  C  C32  1  0.66499000  0.84778000  0.23853000  1.0
  C  C33  1  0.83501000  0.15222000  0.73853000  1.0
  C  C34  1  0.33501000  0.15222000  0.76147000  1.0
  C  C35  1  0.16499000  0.84778000  0.26147000  1.0
  C  C36  1  0.39917000  0.52817000  0.36615000  1.0
  C  C37  1  0.10083000  0.47183000  0.86615000  1.0
  C  C38  1  0.60083000  0.47183000  0.63385000  1.0
  C  C39  1  0.89917000  0.52817000  0.13385000  1.0
  N  N40  1  0.65442000  0.86609000  0.36632000  1.0
  N  N41  1  0.84558000  0.13391000  0.86632000  1.0
  N  N42  1  0.34558000  0.13391000  0.63368000  1.0
  N  N43  1  0.15442000  0.86609000  0.13368000  1.0
  N  N44  1  0.56146000  0.75634000  0.42534000  1.0
  N  N45  1  0.93854000  0.24366000  0.92534000  1.0
  N  N46  1  0.43854000  0.24366000  0.57466000  1.0
  N  N47  1  0.06146000  0.75634000  0.07466000  1.0
  O  O48  1  0.41721000  0.43156000  0.29315000  1.0
  O  O49  1  0.08279000  0.56844000  0.79315000  1.0
  O  O50  1  0.58279000  0.56844000  0.70685000  1.0
  O  O51  1  0.91721000  0.43156000  0.20685000  1.0
  O  O52  1  0.28890000  0.51772000  0.46174000  1.0
  O  O53  1  0.21110000  0.48228000  0.96174000  1.0
  O  O54  1  0.71110000  0.48228000  0.53826000  1.0
  O  O55  1  0.78890000  0.51772000  0.03826000  1.0
  O  O56  1  0.82328000  0.07166000  0.19983000  1.0
  O  O57  1  0.67672000  0.92835000  0.69983000  1.0
  O  O58  1  0.17672000  0.92834000  0.80017000  1.0
  O  O59  1  0.32328000  0.07165000  0.30017000  1.0
  O  O60  1  0.05114000  0.28266000  0.40999000  1.0
  O  O61  1  0.44886000  0.71734000  0.90999000  1.0
  O  O62  1  0.94886000  0.71734000  0.59001000  1.0
  O  O63  1  0.55114000  0.28266000  0.09001000  1.0
  O  O64  1  0.74464000  0.92972000  0.03326000  1.0
  O  O65  1  0.75537000  0.07028000  0.53325000  1.0
  O  O66  1  0.25536000  0.07028000  0.96674000  1.0
  O  O67  1  0.24464000  0.92972000  0.46674000  1.0
