# generated using pymatgen
data_Cu2H10C13S2(IBr)2
_symmetry_space_group_name_H-M   'P 1'
_cell_length_a   12.22200000
_cell_length_b   12.26070000
_cell_length_c   14.68066367
_cell_angle_alpha   110.57147942
_cell_angle_beta   98.37291554
_cell_angle_gamma   113.24300000
_symmetry_Int_Tables_number   1
_chemical_formula_structural   Cu2H10C13S2(IBr)2
_chemical_formula_sum   'Cu8 H40 C52 S8 I8 Br8'
_cell_volume   1786.14391870
_cell_formula_units_Z   4
loop_
 _symmetry_equiv_pos_site_id
 _symmetry_equiv_pos_as_xyz
  1  'x, y, z'
loop_
 _atom_site_type_symbol
 _atom_site_label
 _atom_site_symmetry_multiplicity
 _atom_site_fract_x
 _atom_site_fract_y
 _atom_site_fract_z
 _atom_site_occupancy
  Cu  Cu0  1  0.03001000  0.40523000  0.27027000  1.0
  Cu  Cu1  1  0.13515000  0.26017000  0.22954000  1.0
  Cu  Cu2  1  0.96998000  0.59477000  0.72973000  1.0
  Cu  Cu3  1  0.86486000  0.73985000  0.77047000  1.0
  Cu  Cu4  1  0.99816000  0.22892000  0.34662000  1.0
  Cu  Cu5  1  0.88187000  0.15118000  0.15286000  1.0
  Cu  Cu6  1  0.00184000  0.77109000  0.65339000  1.0
  Cu  Cu7  1  0.11813000  0.84883000  0.84715000  1.0
  H  H8  1  0.03463000  0.43768000  0.55493000  1.0
  H  H9  1  0.88223000  0.97772000  0.94334000  1.0
  H  H10  1  0.96537000  0.56232000  0.44507000  1.0
  H  H11  1  0.11778000  0.02229000  0.05667000  1.0
  H  H12  1  0.87208000  0.32131000  0.51752000  1.0
  H  H13  1  0.80283000  0.85435000  0.98258000  1.0
  H  H14  1  0.12791000  0.67868000  0.48247000  1.0
  H  H15  1  0.19717000  0.14565000  0.01742000  1.0
  H  H16  1  0.97755000  0.07919000  0.62231000  1.0
  H  H17  1  0.45773000  0.85638000  0.87772000  1.0
  H  H18  1  0.02245000  0.92080000  0.37769000  1.0
  H  H19  1  0.54228000  0.14363000  0.12229000  1.0
  H  H20  1  0.75737000  0.04585000  0.34629000  1.0
  H  H21  1  0.69834000  0.91028000  0.15375000  1.0
  H  H22  1  0.24264000  0.95416000  0.65372000  1.0
  H  H23  1  0.30166000  0.08972000  0.84625000  1.0
  H  H24  1  0.79672000  0.87859000  0.60704000  1.0
  H  H25  1  0.27264000  0.69030000  0.89338000  1.0
  H  H26  1  0.20329000  0.12140000  0.39296000  1.0
  H  H27  1  0.72737000  0.30970000  0.10662000  1.0
  H  H28  1  0.57750000  0.84334000  0.32970000  1.0
  H  H29  1  0.51251000  0.74637000  0.17073000  1.0
  H  H30  1  0.42251000  0.15666000  0.67030000  1.0
  H  H31  1  0.48748000  0.25362000  0.82926000  1.0
  H  H32  1  0.96872000  0.28237000  0.82841000  1.0
  H  H33  1  0.45465000  0.64141000  0.67155000  1.0
  H  H34  1  0.03128000  0.71764000  0.17159000  1.0
  H  H35  1  0.54535000  0.35859000  0.32845000  1.0
  H  H36  1  0.71865000  0.26340000  0.57541000  1.0
  H  H37  1  0.68722000  0.64293000  0.92461000  1.0
  H  H38  1  0.28135000  0.73660000  0.42459000  1.0
  H  H39  1  0.31278000  0.35707000  0.07539000  1.0
  H  H40  1  0.78578000  0.10667000  0.83870000  1.0
  H  H41  1  0.26937000  0.44832000  0.66171000  1.0
  H  H42  1  0.21422000  0.89333000  0.16130000  1.0
  H  H43  1  0.73064000  0.55169000  0.33829000  1.0
  H  H44  1  0.53970000  0.08285000  0.58119000  1.0
  H  H45  1  0.50145000  0.45798000  0.91910000  1.0
  H  H46  1  0.46030000  0.91714000  0.41880000  1.0
  H  H47  1  0.49855000  0.54202000  0.08090000  1.0
  C  C48  1  0.96811000  0.35080000  0.56119000  1.0
  C  C49  1  0.78908000  0.90649000  0.93841000  1.0
  C  C50  1  0.03189000  0.64920000  0.43881000  1.0
  C  C51  1  0.21091000  0.09351000  0.06159000  1.0
  C  C52  1  0.87814000  0.07580000  0.48600000  1.0
  C  C53  1  0.58950000  0.89271000  0.01430000  1.0
  C  C54  1  0.12186000  0.92419000  0.51400000  1.0
  C  C55  1  0.41051000  0.10730000  0.98571000  1.0
  C  C56  1  0.88971000  0.02760000  0.55833000  1.0
  C  C57  1  0.46966000  0.83218000  0.94191000  1.0
  C  C58  1  0.11029000  0.97239000  0.44167000  1.0
  C  C59  1  0.53034000  0.16782000  0.05809000  1.0
  C  C60  1  0.76627000  0.00889000  0.40301000  1.0
  C  C61  1  0.60507000  0.86290000  0.09726000  1.0
  C  C62  1  0.23373000  0.99110000  0.59699000  1.0
  C  C63  1  0.39493000  0.13710000  0.90274000  1.0
  C  C64  1  0.85611000  0.28276000  0.70055000  1.0
  C  C65  1  0.58210000  0.65631000  0.79974000  1.0
  C  C66  1  0.14389000  0.71724000  0.29945000  1.0
  C  C67  1  0.41790000  0.34369000  0.20026000  1.0
  C  C68  1  0.78839000  0.91481000  0.54979000  1.0
  C  C69  1  0.36556000  0.73902000  0.95061000  1.0
  C  C70  1  0.21162000  0.08518000  0.45021000  1.0
  C  C71  1  0.63444000  0.26098000  0.04939000  1.0
  C  C72  1  0.66507000  0.89558000  0.39373000  1.0
  C  C73  1  0.50115000  0.77060000  0.10670000  1.0
  C  C74  1  0.33493000  0.10442000  0.60627000  1.0
  C  C75  1  0.49885000  0.22940000  0.89330000  1.0
  C  C76  1  0.87435000  0.23920000  0.77488000  1.0
  C  C77  1  0.46484000  0.60050000  0.72534000  1.0
  C  C78  1  0.12565000  0.76081000  0.22512000  1.0
  C  C79  1  0.53516000  0.39950000  0.27466000  1.0
  C  C80  1  0.73521000  0.22808000  0.63185000  1.0
  C  C81  1  0.59583000  0.60350000  0.86840000  1.0
  C  C82  1  0.26479000  0.77192000  0.36815000  1.0
  C  C83  1  0.40417000  0.39650000  0.13160000  1.0
  C  C84  1  0.67646000  0.85026000  0.46764000  1.0
  C  C85  1  0.38259000  0.70860000  0.03289000  1.0
  C  C86  1  0.32355000  0.14974000  0.53236000  1.0
  C  C87  1  0.61742000  0.29140000  0.96711000  1.0
  C  C88  1  0.77202000  0.13972000  0.78023000  1.0
  C  C89  1  0.36037000  0.49279000  0.72016000  1.0
  C  C90  1  0.22798000  0.86028000  0.21976000  1.0
  C  C91  1  0.63962000  0.50720000  0.27983000  1.0
  C  C92  1  0.63357000  0.12679000  0.63533000  1.0
  C  C93  1  0.49136000  0.49824000  0.86503000  1.0
  C  C94  1  0.36643000  0.87321000  0.36466000  1.0
  C  C95  1  0.50863000  0.50175000  0.13496000  1.0
  C  C96  1  0.65266000  0.08352000  0.70955000  1.0
  C  C97  1  0.37446000  0.44369000  0.79099000  1.0
  C  C98  1  0.34734000  0.91647000  0.29044000  1.0
  C  C99  1  0.62553000  0.55631000  0.20900000  1.0
  S  S100  1  0.99085000  0.40939000  0.69797000  1.0
  S  S101  1  0.71117000  0.79332000  0.80187000  1.0
  S  S102  1  0.00914000  0.59062000  0.30203000  1.0
  S  S103  1  0.28883000  0.20670000  0.19814000  1.0
  S  S104  1  0.00948000  0.22172000  0.50123000  1.0
  S  S105  1  0.72051000  0.00850000  0.99868000  1.0
  S  S106  1  0.99052000  0.77828000  0.49877000  1.0
  S  S107  1  0.27950000  0.99151000  0.00133000  1.0
  I  I108  1  0.22292000  0.45445000  0.42018000  1.0
  I  I109  1  0.03398000  0.30217000  0.07877000  1.0
  I  I110  1  0.77707000  0.54555000  0.57982000  1.0
  I  I111  1  0.96601000  0.69783000  0.92123000  1.0
  I  I112  1  0.80173000  0.27098000  0.29443000  1.0
  I  I113  1  0.97607000  0.00790000  0.20583000  1.0
  I  I114  1  0.19827000  0.72903000  0.70558000  1.0
  I  I115  1  0.02393000  0.99211000  0.79418000  1.0
  Br  Br116  1  0.53508000  0.69899000  0.45627000  1.0
  Br  Br117  1  0.24277000  0.57826000  0.04443000  1.0
  Br  Br118  1  0.46492000  0.30100000  0.54372000  1.0
  Br  Br119  1  0.75723000  0.42174000  0.95557000  1.0
  Br  Br120  1  0.50998000  0.94667000  0.71305000  1.0
  Br  Br121  1  0.23429000  0.29764000  0.78768000  1.0
  Br  Br122  1  0.49001000  0.05332000  0.28694000  1.0
  Br  Br123  1  0.76570000  0.70236000  0.21231000  1.0
