# generated using pymatgen
data_BeCdH20C22S2(NO)4
_symmetry_space_group_name_H-M   'P 1'
_cell_length_a   7.14040000
_cell_length_b   11.86310000
_cell_length_c   15.88710000
_cell_angle_alpha   78.47420000
_cell_angle_beta   78.56420000
_cell_angle_gamma   76.41640000
_symmetry_Int_Tables_number   1
_chemical_formula_structural   BeCdH20C22S2(NO)4
_chemical_formula_sum   'Be2 Cd2 H40 C44 S4 N8 O8'
_cell_volume   1265.44665098
_cell_formula_units_Z   2
loop_
 _symmetry_equiv_pos_site_id
 _symmetry_equiv_pos_as_xyz
  1  'x, y, z'
loop_
 _atom_site_type_symbol
 _atom_site_label
 _atom_site_symmetry_multiplicity
 _atom_site_fract_x
 _atom_site_fract_y
 _atom_site_fract_z
 _atom_site_occupancy
  Be  Be0  1  0.38118000  0.27468000  0.49289000  1.0
  Be  Be1  1  0.61882000  0.72532000  0.50711000  1.0
  Cd  Cd2  1  0.46221000  0.25293000  0.02302000  1.0
  Cd  Cd3  1  0.53779000  0.74708000  0.97698000  1.0
  H  H4  1  0.61107000  0.55316000  0.36668000  1.0
  H  H5  1  0.38893000  0.44684000  0.63332000  1.0
  H  H6  1  0.74624000  0.48973000  0.27319000  1.0
  H  H7  1  0.25376000  0.51027000  0.72681000  1.0
  H  H8  1  0.85351000  0.47105000  0.36808000  1.0
  H  H9  1  0.14649000  0.52895000  0.63192000  1.0
  H  H10  1  0.66064000  0.97741000  0.40280000  1.0
  H  H11  1  0.33937000  0.02259000  0.59720000  1.0
  H  H12  1  0.87448000  0.02856000  0.34244000  1.0
  H  H13  1  0.12553000  0.97144000  0.65756000  1.0
  H  H14  1  0.66679000  0.04594000  0.29210000  1.0
  H  H15  1  0.33322000  0.95406000  0.70790000  1.0
  H  H16  1  0.37551000  0.27827000  0.23301000  1.0
  H  H17  1  0.62449000  0.72173000  0.76699000  1.0
  H  H18  1  0.10509000  0.27890000  0.35975000  1.0
  H  H19  1  0.89491000  0.72110000  0.64025000  1.0
  H  H20  1  0.74231000  0.22913000  0.18841000  1.0
  H  H21  1  0.25769000  0.77087000  0.81158000  1.0
  H  H22  1  0.02928000  0.22258000  0.07068000  1.0
  H  H23  1  0.97072000  0.77742000  0.92932000  1.0
  H  H24  1  0.35306000  0.11884000  0.77930000  1.0
  H  H25  1  0.64694000  0.88115000  0.22070000  1.0
  H  H26  1  0.33174000  0.26761000  0.78682000  1.0
  H  H27  1  0.66826000  0.73239000  0.21318000  1.0
  H  H28  1  0.55196000  0.18933000  0.73072000  1.0
  H  H29  1  0.44804000  0.81067000  0.26927000  1.0
  H  H30  1  0.73325000  0.33176000  0.64164000  1.0
  H  H31  1  0.26675000  0.66824000  0.35836000  1.0
  H  H32  1  0.78153000  0.29290000  0.53585000  1.0
  H  H33  1  0.21847000  0.70710000  0.46415000  1.0
  H  H34  1  0.78650000  0.43717000  0.54842000  1.0
  H  H35  1  0.21350000  0.56283000  0.45158000  1.0
  H  H36  1  0.70555000  0.43121000  0.89398000  1.0
  H  H37  1  0.29445000  0.56879000  0.10602000  1.0
  H  H38  1  0.93494000  0.44755000  0.75435000  1.0
  H  H39  1  0.06506000  0.55245000  0.24565000  1.0
  H  H40  1  0.97794000  0.07702000  0.75999000  1.0
  H  H41  1  0.02206000  0.92299000  0.24001000  1.0
  H  H42  1  0.74296000  0.07593000  0.89841000  1.0
  H  H43  1  0.25703000  0.92407000  0.10159000  1.0
  C  C44  1  0.71575000  0.47744000  0.34468000  1.0
  C  C45  1  0.28426000  0.52256000  0.65532000  1.0
  C  C46  1  0.63523000  0.36919000  0.38231000  1.0
  C  C47  1  0.36477000  0.63081000  0.61769000  1.0
  C  C48  1  0.72345000  0.25996000  0.35418000  1.0
  C  C49  1  0.27655000  0.74004000  0.64582000  1.0
  C  C50  1  0.63107000  0.16238000  0.38439000  1.0
  C  C51  1  0.36893000  0.83762000  0.61561000  1.0
  C  C52  1  0.71446000  0.04651000  0.35387000  1.0
  C  C53  1  0.28555000  0.95349000  0.64613000  1.0
  C  C54  1  0.23280000  0.26572000  0.22631000  1.0
  C  C55  1  0.76721000  0.73428000  0.77369000  1.0
  C  C56  1  0.08081000  0.26719000  0.29660000  1.0
  C  C57  1  0.91919000  0.73281000  0.70340000  1.0
  C  C58  1  0.89780000  0.25329000  0.28495000  1.0
  C  C59  1  0.10220000  0.74671000  0.71504000  1.0
  C  C60  1  0.88177000  0.23633000  0.20219000  1.0
  C  C61  1  0.11823000  0.76367000  0.79781000  1.0
  C  C62  1  0.04055000  0.23504000  0.13555000  1.0
  C  C63  1  0.95945000  0.76496000  0.86444000  1.0
  C  C64  1  0.39285000  0.20166000  0.74359000  1.0
  C  C65  1  0.60716000  0.79834000  0.25641000  1.0
  C  C66  1  0.31368000  0.23619000  0.65987000  1.0
  C  C67  1  0.68632000  0.76381000  0.34013000  1.0
  C  C68  1  0.10978000  0.26865000  0.65928000  1.0
  C  C69  1  0.89022000  0.73134000  0.34072000  1.0
  C  C70  1  0.03597000  0.30664000  0.57987000  1.0
  C  C71  1  0.96403000  0.69336000  0.42013000  1.0
  C  C72  1  0.82222000  0.34395000  0.57738000  1.0
  C  C73  1  0.17778000  0.65605000  0.42262000  1.0
  C  C74  1  0.76773000  0.35480000  0.86176000  1.0
  C  C75  1  0.23226000  0.64520000  0.13824000  1.0
  C  C76  1  0.89644000  0.36323000  0.78378000  1.0
  C  C77  1  0.10356000  0.63677000  0.21622000  1.0
  C  C78  1  0.97441000  0.26350000  0.74368000  1.0
  C  C79  1  0.02559000  0.73650000  0.25632000  1.0
  C  C80  1  0.92006000  0.15804000  0.78687000  1.0
  C  C81  1  0.07994000  0.84196000  0.21313000  1.0
  C  C82  1  0.78954000  0.15664000  0.86454000  1.0
  C  C83  1  0.21047000  0.84335000  0.13546000  1.0
  C  C84  1  0.69160000  0.95474000  0.05674000  1.0
  C  C85  1  0.30839000  0.04526000  0.94328000  1.0
  C  C86  1  0.33950000  0.53773000  0.92428000  1.0
  C  C87  1  0.66050000  0.46228000  0.07572000  1.0
  S  S88  1  0.71816000  0.06202000  0.10052000  1.0
  S  S89  1  0.28183000  0.93797000  0.89948000  1.0
  S  S90  1  0.23212000  0.43178000  0.92199000  1.0
  S  S91  1  0.76788000  0.56823000  0.07801000  1.0
  N  N92  1  0.21413000  0.24998000  0.14695000  1.0
  N  N93  1  0.78587000  0.75002000  0.85305000  1.0
  N  N94  1  0.71292000  0.25358000  0.90111000  1.0
  N  N95  1  0.28708000  0.74642000  0.09889000  1.0
  N  N96  1  0.67810000  0.87430000  0.02630000  1.0
  N  N97  1  0.32188000  0.12569000  0.97371000  1.0
  N  N98  1  0.41807000  0.61567000  0.92351000  1.0
  N  N99  1  0.58193000  0.38433000  0.07649000  1.0
  O  O100  1  0.48086000  0.38259000  0.44006000  1.0
  O  O101  1  0.51913000  0.61741000  0.55994000  1.0
  O  O102  1  0.47164000  0.16670000  0.43942000  1.0
  O  O103  1  0.52836000  0.83330000  0.56058000  1.0
  O  O104  1  0.43937000  0.23606000  0.58960000  1.0
  O  O105  1  0.56063000  0.76394000  0.41040000  1.0
  O  O106  1  0.14700000  0.31176000  0.50471000  1.0
  O  O107  1  0.85300000  0.68824000  0.49529000  1.0
