# generated using pymatgen
data_Cu4H16C21N8
_symmetry_space_group_name_H-M   'P 1'
_cell_length_a   20.42300000
_cell_length_b   20.45050000
_cell_length_c   20.60120000
_cell_angle_alpha   93.87030000
_cell_angle_beta   89.88630000
_cell_angle_gamma   89.83660000
_symmetry_Int_Tables_number   1
_chemical_formula_structural   Cu4H16C21N8
_chemical_formula_sum   'Cu12 H48 C63 N24'
_cell_volume   8584.63043994
_cell_formula_units_Z   3
loop_
 _symmetry_equiv_pos_site_id
 _symmetry_equiv_pos_as_xyz
  1  'x, y, z'
loop_
 _atom_site_type_symbol
 _atom_site_label
 _atom_site_symmetry_multiplicity
 _atom_site_fract_x
 _atom_site_fract_y
 _atom_site_fract_z
 _atom_site_occupancy
  Cu  Cu0  1  0.77268000  0.75618000  0.86695000  1.0
  Cu  Cu1  1  0.87556000  0.77496000  0.75382000  1.0
  Cu  Cu2  1  0.74923000  0.86834000  0.77265000  1.0
  Cu  Cu3  1  0.77784000  0.25042000  0.13510000  1.0
  Cu  Cu4  1  0.88473000  0.25204000  0.24524000  1.0
  Cu  Cu5  1  0.77322000  0.14173000  0.23794000  1.0
  Cu  Cu6  1  0.23663000  0.77587000  0.11773000  1.0
  Cu  Cu7  1  0.12067000  0.75636000  0.21773000  1.0
  Cu  Cu8  1  0.20890000  0.88347000  0.23348000  1.0
  Cu  Cu9  1  0.24805000  0.21910000  0.87601000  1.0
  Cu  Cu10  1  0.13019000  0.21415000  0.77325000  1.0
  Cu  Cu11  1  0.24030000  0.10443000  0.76583000  1.0
  H  H12  1  0.83094000  0.63370000  0.92914000  1.0
  H  H13  1  0.97920000  0.66159000  0.78296000  1.0
  H  H14  1  0.63061000  0.94487000  0.84413000  1.0
  H  H15  1  0.65969000  0.78723000  0.97150000  1.0
  H  H16  1  0.94398000  0.83880000  0.63613000  1.0
  H  H17  1  0.76592000  0.95448000  0.65148000  1.0
  H  H18  1  0.83426000  0.35685000  0.04613000  1.0
  H  H19  1  0.98163000  0.36186000  0.19742000  1.0
  H  H20  1  0.65139000  0.05742000  0.18367000  1.0
  H  H21  1  0.65031000  0.21505000  0.05339000  1.0
  H  H22  1  0.95917000  0.21589000  0.37232000  1.0
  H  H23  1  0.81842000  0.05770000  0.35379000  1.0
  H  H24  1  0.20592000  0.65874000  0.01136000  1.0
  H  H25  1  0.05162000  0.63224000  0.15168000  1.0
  H  H26  1  0.32671000  0.98184000  0.21305000  1.0
  H  H27  1  0.36542000  0.83302000  0.05792000  1.0
  H  H28  1  0.02629000  0.78059000  0.34075000  1.0
  H  H29  1  0.13579000  0.96212000  0.34981000  1.0
  H  H30  1  0.21388000  0.35140000  0.95814000  1.0
  H  H31  1  0.04908000  0.33856000  0.82590000  1.0
  H  H32  1  0.35695000  0.01359000  0.80692000  1.0
  H  H33  1  0.36604000  0.16844000  0.96091000  1.0
  H  H34  1  0.03773000  0.16058000  0.65682000  1.0
  H  H35  1  0.19653000  0.01948000  0.63942000  1.0
  H  H36  1  0.00397000  0.55575000  0.86298000  1.0
  H  H37  1  0.90834000  0.56432000  0.97903000  1.0
  H  H38  1  0.00556000  0.44728000  0.10124000  1.0
  H  H39  1  0.90827000  0.43115000  0.98723000  1.0
  H  H40  1  0.11647000  0.55861000  0.97409000  1.0
  H  H41  1  0.00481000  0.55529000  0.07417000  1.0
  H  H42  1  0.11670000  0.44206000  0.98876000  1.0
  H  H43  1  0.00396000  0.43681000  0.88972000  1.0
  H  H44  1  0.55313000  0.87268000  0.00627000  1.0
  H  H45  1  0.57170000  0.00074000  0.93780000  1.0
  H  H46  1  0.45628000  0.99765000  0.89545000  1.0
  H  H47  1  0.43632000  0.08564000  0.02131000  1.0
  H  H48  1  0.55276000  0.12492000  0.02833000  1.0
  H  H49  1  0.56888000  0.00123000  0.10441000  1.0
  H  H50  1  0.44110000  0.00318000  0.13994000  1.0
  H  H51  1  0.43816000  0.91482000  0.01285000  1.0
  H  H52  1  0.85164000  0.98982000  0.55345000  1.0
  H  H53  1  0.98206000  0.91414000  0.55869000  1.0
  H  H54  1  0.98688000  0.87228000  0.44121000  1.0
  H  H55  1  0.05824000  0.00386000  0.43118000  1.0
  H  H56  1  0.10277000  0.00074000  0.54424000  1.0
  H  H57  1  0.97740000  0.08123000  0.57495000  1.0
  H  H58  1  0.97586000  0.12402000  0.46198000  1.0
  H  H59  1  0.89166000  0.00055000  0.43393000  1.0
  C  C60  1  0.86153000  0.64923000  0.88993000  1.0
  C  C61  1  0.92188000  0.62409000  0.86645000  1.0
  C  C62  1  0.93681000  0.66328000  0.81494000  1.0
  C  C63  1  0.64625000  0.90226000  0.86878000  1.0
  C  C64  1  0.62250000  0.87774000  0.92650000  1.0
  C  C65  1  0.66059000  0.82133000  0.93334000  1.0
  C  C66  1  0.89697000  0.86129000  0.64838000  1.0
  C  C67  1  0.86399000  0.91252000  0.61970000  1.0
  C  C68  1  0.80592000  0.92001000  0.65612000  1.0
  C  C69  1  0.86466000  0.35050000  0.08841000  1.0
  C  C70  1  0.92403000  0.38085000  0.10726000  1.0
  C  C71  1  0.93956000  0.35308000  0.16590000  1.0
  C  C72  1  0.66013000  0.10056000  0.15701000  1.0
  C  C73  1  0.62602000  0.12375000  0.10382000  1.0
  C  C74  1  0.65942000  0.18143000  0.09099000  1.0
  C  C75  1  0.91957000  0.18224000  0.35924000  1.0
  C  C76  1  0.90177000  0.12414000  0.38735000  1.0
  C  C77  1  0.84819000  0.10110000  0.34961000  1.0
  C  C78  1  0.17262000  0.66057000  0.05260000  1.0
  C  C79  1  0.11764000  0.62152000  0.06331000  1.0
  C  C80  1  0.09371000  0.64700000  0.12398000  1.0
  C  C81  1  0.32721000  0.93942000  0.17838000  1.0
  C  C82  1  0.37108000  0.92341000  0.12712000  1.0
  C  C83  1  0.34673000  0.86383000  0.09882000  1.0
  C  C84  1  0.05972000  0.82089000  0.33443000  1.0
  C  C85  1  0.06387000  0.88199000  0.36965000  1.0
  C  C86  1  0.11527000  0.91374000  0.33893000  1.0
  C  C87  1  0.17840000  0.33915000  0.92007000  1.0
  C  C88  1  0.11934000  0.37089000  0.90644000  1.0
  C  C89  1  0.09419000  0.33282000  0.85274000  1.0
  C  C90  1  0.35102000  0.05726000  0.83942000  1.0
  C  C91  1  0.38493000  0.07602000  0.89690000  1.0
  C  C92  1  0.35532000  0.13584000  0.91851000  1.0
  C  C93  1  0.08154000  0.13111000  0.66155000  1.0
  C  C94  1  0.10332000  0.07543000  0.62357000  1.0
  C  C95  1  0.16300000  0.05956000  0.65246000  1.0
  C  C96  1  0.97665000  0.99903000  0.49981000  1.0
  C  C97  1  0.99325000  0.49768000  0.98134000  1.0
  C  C98  1  0.50313000  0.00039000  0.01973000  1.0
  C  C99  1  0.96108000  0.57222000  0.89167000  1.0
  C  C100  1  0.94965000  0.54626000  0.94890000  1.0
  C  C101  1  0.96219000  0.42869000  0.07489000  1.0
  C  C102  1  0.94999000  0.45022000  0.01583000  1.0
  C  C103  1  0.08976000  0.57059000  0.01941000  1.0
  C  C104  1  0.03210000  0.54128000  0.02960000  1.0
  C  C105  1  0.09013000  0.42561000  0.94461000  1.0
  C  C106  1  0.03179000  0.45330000  0.93313000  1.0
  C  C107  1  0.57225000  0.90503000  0.97050000  1.0
  C  C108  1  0.55035000  0.96718000  0.97113000  1.0
  C  C109  1  0.43606000  0.03863000  0.92622000  1.0
  C  C110  1  0.45759000  0.04747000  0.98787000  1.0
  C  C111  1  0.57249000  0.09483000  0.06579000  1.0
  C  C112  1  0.54881000  0.03381000  0.06939000  1.0
  C  C113  1  0.42576000  0.96223000  0.10644000  1.0
  C  C114  1  0.45525000  0.95349000  0.04799000  1.0
  C  C115  1  0.88609000  0.95262000  0.56848000  1.0
  C  C116  1  0.94657000  0.94965000  0.54235000  1.0
  C  C117  1  0.02264000  0.90660000  0.42336000  1.0
  C  C118  1  0.02427000  0.96847000  0.45006000  1.0
  C  C119  1  0.07250000  0.03896000  0.56924000  1.0
  C  C120  1  0.01017000  0.04558000  0.54961000  1.0
  C  C121  1  0.93654000  0.09437000  0.43910000  1.0
  C  C122  1  0.92851000  0.03288000  0.45731000  1.0
  N  N123  1  0.88927000  0.70852000  0.80874000  1.0
  N  N124  1  0.84255000  0.69949000  0.85535000  1.0
  N  N125  1  0.70397000  0.81337000  0.88389000  1.0
  N  N126  1  0.69480000  0.86353000  0.84372000  1.0
  N  N127  1  0.80470000  0.87698000  0.70303000  1.0
  N  N128  1  0.86125000  0.84037000  0.69792000  1.0
  N  N129  1  0.89318000  0.30955000  0.18062000  1.0
  N  N130  1  0.84669000  0.30816000  0.13245000  1.0
  N  N131  1  0.70972000  0.19146000  0.13275000  1.0
  N  N132  1  0.70993000  0.14132000  0.17397000  1.0
  N  N133  1  0.83560000  0.14228000  0.30274000  1.0
  N  N134  1  0.88016000  0.19261000  0.30845000  1.0
  N  N135  1  0.13135000  0.69725000  0.14702000  1.0
  N  N136  1  0.18044000  0.70596000  0.10272000  1.0
  N  N137  1  0.29258000  0.84622000  0.13070000  1.0
  N  N138  1  0.28018000  0.89326000  0.18003000  1.0
  N  N139  1  0.13951000  0.87444000  0.28951000  1.0
  N  N140  1  0.10494000  0.81678000  0.28643000  1.0
  N  N141  1  0.13506000  0.28253000  0.83622000  1.0
  N  N142  1  0.18745000  0.28628000  0.87816000  1.0
  N  N143  1  0.30753000  0.15104000  0.87697000  1.0
  N  N144  1  0.30466000  0.10211000  0.82800000  1.0
  N  N145  1  0.17552000  0.10209000  0.70378000  1.0
  N  N146  1  0.12507000  0.14673000  0.70920000  1.0
