# generated using pymatgen
data_ZnH29C26NO10
_symmetry_space_group_name_H-M   'P 1'
_cell_length_a   10.89510000
_cell_length_b   14.08310000
_cell_length_c   15.24710000
_cell_angle_alpha   89.71280000
_cell_angle_beta   91.10890000
_cell_angle_gamma   89.84220000
_symmetry_Int_Tables_number   1
_chemical_formula_structural   ZnH29C26NO10
_chemical_formula_sum   'Zn2 H58 C52 N2 O20'
_cell_volume   2338.98893561
_cell_formula_units_Z   2
loop_
 _symmetry_equiv_pos_site_id
 _symmetry_equiv_pos_as_xyz
  1  'x, y, z'
loop_
 _atom_site_type_symbol
 _atom_site_label
 _atom_site_symmetry_multiplicity
 _atom_site_fract_x
 _atom_site_fract_y
 _atom_site_fract_z
 _atom_site_occupancy
  Zn  Zn0  1  0.50109000  0.40094000  0.49864000  1.0
  Zn  Zn1  1  0.50645000  0.60726000  0.50250000  1.0
  H  H2  1  0.11258000  0.65895000  0.52149000  1.0
  H  H3  1  0.88196000  0.65156000  0.51071000  1.0
  H  H4  1  0.44645000  0.07359000  0.63625000  1.0
  H  H5  1  0.54134000  0.07163000  0.36252000  1.0
  H  H6  1  0.44545000  0.25245000  0.62780000  1.0
  H  H7  1  0.54002000  0.25074000  0.36683000  1.0
  H  H8  1  0.36574000  0.38182000  0.22291000  1.0
  H  H9  1  0.58816000  0.36789000  0.78922000  1.0
  H  H10  1  0.57947000  0.63321000  0.05674000  1.0
  H  H11  1  0.37972000  0.63837000  0.93127000  1.0
  H  H12  1  0.72872000  0.25496000  0.57758000  1.0
  H  H13  1  0.77268000  0.34632000  0.65128000  1.0
  H  H14  1  0.84177000  0.22039000  0.76240000  1.0
  H  H15  1  0.68268000  0.21131000  0.73473000  1.0
  H  H16  1  0.78926000  0.13073000  0.68868000  1.0
  H  H17  1  0.06861000  0.14940000  0.43682000  1.0
  H  H18  1  0.22677000  0.16126000  0.46802000  1.0
  H  H19  1  0.27368000  0.21738000  0.31481000  1.0
  H  H20  1  0.21350000  0.10010000  0.31502000  1.0
  H  H21  1  0.11797000  0.19805000  0.28250000  1.0
  H  H22  1  0.94790000  0.33134000  0.34909000  1.0
  H  H23  1  0.79258000  0.35901000  0.37981000  1.0
  H  H24  1  0.82704000  0.24789000  0.32945000  1.0
  H  H25  1  0.22365000  0.26593000  0.71008000  1.0
  H  H26  1  0.08506000  0.33227000  0.69313000  1.0
  H  H27  1  0.23080000  0.38104000  0.66077000  1.0
  H  H28  1  0.22321000  0.46886000  0.98792000  1.0
  H  H29  1  0.15901000  0.41189000  0.08142000  1.0
  H  H30  1  0.15764000  0.25628000  0.99801000  1.0
  H  H31  1  0.06741000  0.34520000  0.94356000  1.0
  H  H32  1  0.21625000  0.31667000  0.90471000  1.0
  H  H33  1  0.72638000  0.44194000  0.01159000  1.0
  H  H34  1  0.76595000  0.36939000  0.92047000  1.0
  H  H35  1  0.74110000  0.22320000  0.01574000  1.0
  H  H36  1  0.85454000  0.30148000  0.05981000  1.0
  H  H37  1  0.70564000  0.29748000  0.10633000  1.0
  H  H38  1  0.70663000  0.76278000  0.23785000  1.0
  H  H39  1  0.60192000  0.76207000  0.14543000  1.0
  H  H40  1  0.73474000  0.68609000  0.14676000  1.0
  H  H41  1  0.29820000  0.77083000  0.73655000  1.0
  H  H42  1  0.38206000  0.76578000  0.83901000  1.0
  H  H43  1  0.24366000  0.69789000  0.82434000  1.0
  H  H44  1  0.12461000  0.97167000  0.41552000  1.0
  H  H45  1  0.19520000  0.97302000  0.52265000  1.0
  H  H46  1  0.17083000  0.86160000  0.46689000  1.0
  H  H47  1  0.78595000  0.99837000  0.48110000  1.0
  H  H48  1  0.83468000  0.88818000  0.53227000  1.0
  H  H49  1  0.86104000  0.99999000  0.58648000  1.0
  H  H50  1  0.40567000  0.72755000  0.29715000  1.0
  H  H51  1  0.30209000  0.82771000  0.30220000  1.0
  H  H52  1  0.20643000  0.68863000  0.22205000  1.0
  H  H53  1  0.23096000  0.61661000  0.31712000  1.0
  H  H54  1  0.12548000  0.71384000  0.31985000  1.0
  H  H55  1  0.59448000  0.72718000  0.70313000  1.0
  H  H56  1  0.69313000  0.83027000  0.70403000  1.0
  H  H57  1  0.79001000  0.69236000  0.78598000  1.0
  H  H58  1  0.77527000  0.62137000  0.68995000  1.0
  H  H59  1  0.87660000  0.72094000  0.69141000  1.0
  C  C60  1  0.48503000  0.50026000  0.33103000  1.0
  C  C61  1  0.51247000  0.49555000  0.67071000  1.0
  C  C62  1  0.53415000  0.58110000  0.18619000  1.0
  C  C63  1  0.43962000  0.57972000  0.80794000  1.0
  C  C64  1  0.52985000  0.58040000  0.09445000  1.0
  C  C65  1  0.42717000  0.58034000  0.89913000  1.0
  C  C66  1  0.46656000  0.50925000  0.04828000  1.0
  C  C67  1  0.47442000  0.50612000  0.95155000  1.0
  C  C68  1  0.40527000  0.90193000  0.45803000  1.0
  C  C69  1  0.59296000  0.90530000  0.54501000  1.0
  C  C70  1  0.41367000  0.80221000  0.45758000  1.0
  C  C71  1  0.59201000  0.80541000  0.54556000  1.0
  C  C72  1  0.49767000  0.95406000  0.50089000  1.0
  C  C73  1  0.46719000  0.11010000  0.57519000  1.0
  C  C74  1  0.52039000  0.10909000  0.42277000  1.0
  C  C75  1  0.46645000  0.20861000  0.57131000  1.0
  C  C76  1  0.51973000  0.20766000  0.42438000  1.0
  C  C77  1  0.49481000  0.05900000  0.49970000  1.0
  C  C78  1  0.27233000  0.51173000  0.51705000  1.0
  C  C79  1  0.73767000  0.50137000  0.49859000  1.0
  C  C80  1  0.07255000  0.42188000  0.52019000  1.0
  C  C81  1  0.94475000  0.41679000  0.51906000  1.0
  C  C82  1  0.13601000  0.50784000  0.52062000  1.0
  C  C83  1  0.87368000  0.49992000  0.51193000  1.0
  C  C84  1  0.06480000  0.59101000  0.52024000  1.0
  C  C85  1  0.93704000  0.58685000  0.51449000  1.0
  C  C86  1  0.94375000  0.30652000  0.52368000  1.0
  C  C87  1  0.09344000  0.31487000  0.51725000  1.0
  C  C88  1  0.40324000  0.43935000  0.09527000  1.0
  C  C89  1  0.53443000  0.42984000  0.91139000  1.0
  C  C90  1  0.41099000  0.43825000  0.18661000  1.0
  C  C91  1  0.54359000  0.42795000  0.82046000  1.0
  C  C92  1  0.47647000  0.50750000  0.23300000  1.0
  C  C93  1  0.49805000  0.50189000  0.76790000  1.0
  C  C94  1  0.79130000  0.27234000  0.63239000  1.0
  C  C95  1  0.77586000  0.20473000  0.70895000  1.0
  C  C96  1  0.15441000  0.18751000  0.42260000  1.0
  C  C97  1  0.19162000  0.17487000  0.32803000  1.0
  C  C98  1  0.86185000  0.30250000  0.37457000  1.0
  C  C99  1  0.17545000  0.31605000  0.66598000  1.0
  C  C100  1  0.21603000  0.40046000  0.02314000  1.0
  C  C101  1  0.16135000  0.32502000  0.96385000  1.0
  C  C102  1  0.71376000  0.37111000  0.98196000  1.0
  C  C103  1  0.75601000  0.29354000  0.04476000  1.0
  C  C104  1  0.66323000  0.71815000  0.18750000  1.0
  C  C105  1  0.32608000  0.72476000  0.79160000  1.0
  C  C106  1  0.19304000  0.93718000  0.45862000  1.0
  C  C107  1  0.79820000  0.95992000  0.54373000  1.0
  C  C108  1  0.31785000  0.75340000  0.32218000  1.0
  C  C109  1  0.21349000  0.68936000  0.29406000  1.0
  C  C110  1  0.68285000  0.75626000  0.68232000  1.0
  C  C111  1  0.78795000  0.69405000  0.71387000  1.0
  N  N112  1  0.50468000  0.75636000  0.50159000  1.0
  N  N113  1  0.49354000  0.25608000  0.49749000  1.0
  O  O114  1  0.50940000  0.41846000  0.36270000  1.0
  O  O115  1  0.49080000  0.41504000  0.63622000  1.0
  O  O116  1  0.46488000  0.57552000  0.37406000  1.0
  O  O117  1  0.54759000  0.56989000  0.63104000  1.0
  O  O118  1  0.32319000  0.43492000  0.49327000  1.0
  O  O119  1  0.68322000  0.42229000  0.50919000  1.0
  O  O120  1  0.32519000  0.58930000  0.53632000  1.0
  O  O121  1  0.68804000  0.57999000  0.47711000  1.0
  O  O122  1  0.91651000  0.26432000  0.60394000  1.0
  O  O123  1  0.13717000  0.28782000  0.43533000  1.0
  O  O124  1  0.88137000  0.25517000  0.45720000  1.0
  O  O125  1  0.16441000  0.26919000  0.58323000  1.0
  O  O126  1  0.33690000  0.36972000  0.05172000  1.0
  O  O127  1  0.58510000  0.35709000  0.96182000  1.0
  O  O128  1  0.59685000  0.64789000  0.23412000  1.0
  O  O129  1  0.39463000  0.64981000  0.75374000  1.0
  O  O130  1  0.30967000  0.94854000  0.41616000  1.0
  O  O131  1  0.68310000  0.95501000  0.58910000  1.0
  O  O132  1  0.32689000  0.74833000  0.41818000  1.0
  O  O133  1  0.68209000  0.75465000  0.58604000  1.0
