# generated using pymatgen
data_Tb2Cu3H42C42(NO6)6
_symmetry_space_group_name_H-M   'P 1'
_cell_length_a   7.37698000
_cell_length_b   13.26420000
_cell_length_c   15.07010000
_cell_angle_alpha   73.62250000
_cell_angle_beta   76.34170000
_cell_angle_gamma   81.03400000
_symmetry_Int_Tables_number   1
_chemical_formula_structural   Tb2Cu3H42C42(NO6)6
_chemical_formula_sum   'Tb2 Cu3 H42 C42 N6 O36'
_cell_volume   1368.44829932
_cell_formula_units_Z   1
loop_
 _symmetry_equiv_pos_site_id
 _symmetry_equiv_pos_as_xyz
  1  'x, y, z'
loop_
 _atom_site_type_symbol
 _atom_site_label
 _atom_site_symmetry_multiplicity
 _atom_site_fract_x
 _atom_site_fract_y
 _atom_site_fract_z
 _atom_site_occupancy
  Tb  Tb0  1  0.46794000  0.05103000  0.19057000  1.0
  Tb  Tb1  1  0.53206000  0.94897000  0.80944000  1.0
  Cu  Cu2  1  0.44367000  0.60970000  0.15610000  1.0
  Cu  Cu3  1  0.55634000  0.39030000  0.84390000  1.0
  Cu  Cu4  1  0.50000000  0.50000000  0.50000000  1.0
  H  H5  1  0.95441000  0.60903000  0.44199000  1.0
  H  H6  1  0.04559000  0.39097000  0.55801000  1.0
  H  H7  1  0.79096000  0.78918000  0.37931000  1.0
  H  H8  1  0.20905000  0.21082000  0.62069000  1.0
  H  H9  1  0.21855000  0.82413000  0.12651000  1.0
  H  H10  1  0.78146000  0.17588000  0.87349000  1.0
  H  H11  1  0.19528000  0.41522000  0.15889000  1.0
  H  H12  1  0.80472000  0.58478000  0.84111000  1.0
  H  H13  1  0.02964000  0.59433000  0.10789000  1.0
  H  H14  1  0.97036000  0.40567000  0.89211000  1.0
  H  H15  1  0.30994000  0.60048000  0.82044000  1.0
  H  H16  1  0.69006000  0.39952000  0.17956000  1.0
  H  H17  1  0.45288000  0.72956000  0.38601000  1.0
  H  H18  1  0.54712000  0.27044000  0.61399000  1.0
  H  H19  1  0.97940000  0.85981000  0.56204000  1.0
  H  H20  1  0.02059000  0.14019000  0.43796000  1.0
  H  H21  1  0.98935000  0.68491000  0.68615000  1.0
  H  H22  1  0.01064000  0.31509000  0.31385000  1.0
  H  H23  1  0.75893000  0.64315000  0.20770000  1.0
  H  H24  1  0.24107000  0.35685000  0.79230000  1.0
  H  H25  1  0.78548000  0.71192000  0.10187000  1.0
  H  H26  1  0.21453000  0.28808000  0.89813000  1.0
  H  H27  1  0.83833000  0.06205000  0.07067000  1.0
  H  H28  1  0.16167000  0.93795000  0.92933000  1.0
  H  H29  1  0.70393000  0.16499000  0.01723000  1.0
  H  H30  1  0.29607000  0.83500000  0.98277000  1.0
  H  H31  1  0.20658000  0.02224000  0.08208000  1.0
  H  H32  1  0.79342000  0.97776000  0.91792000  1.0
  H  H33  1  0.21206000  0.14476000  0.05147000  1.0
  H  H34  1  0.78795000  0.85524000  0.94853000  1.0
  H  H35  1  0.57393000  0.91457000  0.05729000  1.0
  H  H36  1  0.42607000  0.08543000  0.94271000  1.0
  H  H37  1  0.57823000  0.83071000  0.15504000  1.0
  H  H38  1  0.42177000  0.16929000  0.84496000  1.0
  H  H39  1  0.49357000  0.21757000  0.27610000  1.0
  H  H40  1  0.50643000  0.78243000  0.72390000  1.0
  H  H41  1  0.70317000  0.18394000  0.23642000  1.0
  H  H42  1  0.29683000  0.81606000  0.76358000  1.0
  H  H43  1  0.08171000  0.16516000  0.21924000  1.0
  H  H44  1  0.91829000  0.83484000  0.78076000  1.0
  H  H45  1  0.10729000  0.06698000  0.31114000  1.0
  H  H46  1  0.89270000  0.93302000  0.68886000  1.0
  C  C47  1  0.26929000  0.51322000  0.33789000  1.0
  C  C48  1  0.73071000  0.48678000  0.66211000  1.0
  C  C49  1  0.16433000  0.62133000  0.31386000  1.0
  C  C50  1  0.83567000  0.37867000  0.68614000  1.0
  C  C51  1  0.00754000  0.65857000  0.37205000  1.0
  C  C52  1  0.99247000  0.34143000  0.62795000  1.0
  C  C53  1  0.91788000  0.75817000  0.33763000  1.0
  C  C54  1  0.08212000  0.24183000  0.66237000  1.0
  C  C55  1  0.99163000  0.81925000  0.24778000  1.0
  C  C56  1  0.00837000  0.18075000  0.75222000  1.0
  C  C57  1  0.15377000  0.77813000  0.19535000  1.0
  C  C58  1  0.84623000  0.22187000  0.80464000  1.0
  C  C59  1  0.89936000  0.92434000  0.20184000  1.0
  C  C60  1  0.10064000  0.07566000  0.79816000  1.0
  C  C61  1  0.44391000  0.30757000  0.03870000  1.0
  C  C62  1  0.55609000  0.69243000  0.96130000  1.0
  C  C63  1  0.33852000  0.41507000  0.01685000  1.0
  C  C64  1  0.66147000  0.58493000  0.98315000  1.0
  C  C65  1  0.21708000  0.45883000  0.08492000  1.0
  C  C66  1  0.78292000  0.54117000  0.91508000  1.0
  C  C67  1  0.12562000  0.55888000  0.05584000  1.0
  C  C68  1  0.87438000  0.44112000  0.94416000  1.0
  C  C69  1  0.15510000  0.61166000  0.95997000  1.0
  C  C70  1  0.84490000  0.38834000  0.04003000  1.0
  C  C71  1  0.28139000  0.56308000  0.89585000  1.0
  C  C72  1  0.71861000  0.43692000  0.10415000  1.0
  C  C73  1  0.04877000  0.71636000  0.92443000  1.0
  C  C74  1  0.95123000  0.28364000  0.07557000  1.0
  C  C75  1  0.34719000  0.72299000  0.45100000  1.0
  C  C76  1  0.65280000  0.27701000  0.54900000  1.0
  C  C77  1  0.21393000  0.80704000  0.46549000  1.0
  C  C78  1  0.78607000  0.19296000  0.53452000  1.0
  C  C79  1  0.08288000  0.79413000  0.55067000  1.0
  C  C80  1  0.91712000  0.20587000  0.44933000  1.0
  C  C81  1  0.08765000  0.69783000  0.61857000  1.0
  C  C82  1  0.91234000  0.30216000  0.38143000  1.0
  C  C83  1  0.21943000  0.61630000  0.59776000  1.0
  C  C84  1  0.78056000  0.38370000  0.40224000  1.0
  C  C85  1  0.23423000  0.50647000  0.66114000  1.0
  C  C86  1  0.76577000  0.49353000  0.33887000  1.0
  C  C87  1  0.20640000  0.90704000  0.38800000  1.0
  C  C88  1  0.79360000  0.09296000  0.61200000  1.0
  N  N89  1  0.34587000  0.62992000  0.51520000  1.0
  N  N90  1  0.65412000  0.37008000  0.48481000  1.0
  N  N91  1  0.23454000  0.68141000  0.22737000  1.0
  N  N92  1  0.76546000  0.31859000  0.77263000  1.0
  N  N93  1  0.37122000  0.46777000  0.92445000  1.0
  N  N94  1  0.62878000  0.53223000  0.07555000  1.0
  O  O95  1  0.09073000  0.76228000  0.83725000  1.0
  O  O96  1  0.90927000  0.23772000  0.16275000  1.0
  O  O97  1  0.91883000  0.74981000  0.98472000  1.0
  O  O98  1  0.08117000  0.25019000  0.01528000  1.0
  O  O99  1  0.56424000  0.28345000  0.96864000  1.0
  O  O100  1  0.43576000  0.71655000  0.03135000  1.0
  O  O101  1  0.41162000  0.24858000  0.12055000  1.0
  O  O102  1  0.58838000  0.75142000  0.87945000  1.0
  O  O103  1  0.98919000  0.97580000  0.12297000  1.0
  O  O104  1  0.01082000  0.02420000  0.87703000  1.0
  O  O105  1  0.73580000  0.95209000  0.24226000  1.0
  O  O106  1  0.26420000  0.04791000  0.75775000  1.0
  O  O107  1  0.39756000  0.49003000  0.26862000  1.0
  O  O108  1  0.60244000  0.50997000  0.73138000  1.0
  O  O109  1  0.23357000  0.45327000  0.41844000  1.0
  O  O110  1  0.76642000  0.54673000  0.58155000  1.0
  O  O111  1  0.34962000  0.91941000  0.31975000  1.0
  O  O112  1  0.65038000  0.08059000  0.68025000  1.0
  O  O113  1  0.05930000  0.96941000  0.39492000  1.0
  O  O114  1  0.94070000  0.03059000  0.60508000  1.0
  O  O115  1  0.35499000  0.43904000  0.62617000  1.0
  O  O116  1  0.64502000  0.56096000  0.37383000  1.0
  O  O117  1  0.13272000  0.48385000  0.74209000  1.0
  O  O118  1  0.86728000  0.51615000  0.25791000  1.0
  O  O119  1  0.69654000  0.70140000  0.16364000  1.0
  O  O120  1  0.30346000  0.29859000  0.83636000  1.0
  O  O121  1  0.70993000  0.09306000  0.05857000  1.0
  O  O122  1  0.29007000  0.90694000  0.94143000  1.0
  O  O123  1  0.29720000  0.07670000  0.06466000  1.0
  O  O124  1  0.70280000  0.92330000  0.93534000  1.0
  O  O125  1  0.51826000  0.90061000  0.12589000  1.0
  O  O126  1  0.48174000  0.09939000  0.87411000  1.0
  O  O127  1  0.58216000  0.15553000  0.27194000  1.0
  O  O128  1  0.41784000  0.84447000  0.72805000  1.0
  O  O129  1  0.17410000  0.12370000  0.25762000  1.0
  O  O130  1  0.82590000  0.87630000  0.74238000  1.0
