# generated using pymatgen
data_AlH15(C9O4)3
_symmetry_space_group_name_H-M   'P 1'
_cell_length_a   4.03238000
_cell_length_b   16.00280000
_cell_length_c   16.00510000
_cell_angle_alpha   119.81300000
_cell_angle_beta   90.54690000
_cell_angle_gamma   90.55510000
_symmetry_Int_Tables_number   1
_chemical_formula_structural   AlH15(C9O4)3
_chemical_formula_sum   'Al1 H15 C27 O12'
_cell_volume   895.94600849
_cell_formula_units_Z   1
loop_
 _symmetry_equiv_pos_site_id
 _symmetry_equiv_pos_as_xyz
  1  'x, y, z'
loop_
 _atom_site_type_symbol
 _atom_site_label
 _atom_site_symmetry_multiplicity
 _atom_site_fract_x
 _atom_site_fract_y
 _atom_site_fract_z
 _atom_site_occupancy
  Al  Al0  1  0.00007000  0.50134000  0.49860000  1.0
  H  H1  1  0.49996000  0.92336000  0.07653000  1.0
  H  H2  1  0.50968000  0.65488000  0.07681000  1.0
  H  H3  1  0.49007000  0.92301000  0.34491000  1.0
  H  H4  1  0.79955000  0.05795000  0.16903000  1.0
  H  H5  1  0.16603000  0.05227000  0.38388000  1.0
  H  H6  1  0.20031000  0.83087000  0.94196000  1.0
  H  H7  1  0.83392000  0.61599000  0.94758000  1.0
  H  H8  1  0.80730000  0.61346000  0.16741000  1.0
  H  H9  1  0.19238000  0.83244000  0.38635000  1.0
  H  H10  1  0.01939000  0.29346000  0.49637000  1.0
  H  H11  1  0.96332000  0.29713000  0.30163000  1.0
  H  H12  1  0.03684000  0.69834000  0.70281000  1.0
  H  H13  1  0.98074000  0.50357000  0.70643000  1.0
  H  H14  1  0.84628000  0.48654000  0.29204000  1.0
  H  H15  1  0.15386000  0.70790000  0.51338000  1.0
  C  C16  1  0.51083000  0.57424000  0.64987000  1.0
  C  C17  1  0.50007000  0.57563000  0.42431000  1.0
  C  C18  1  0.48930000  0.35006000  0.42570000  1.0
  C  C19  1  0.51140000  0.78314000  0.06463000  1.0
  C  C20  1  0.49992000  0.88397000  0.11590000  1.0
  C  C21  1  0.48845000  0.93524000  0.21672000  1.0
  C  C22  1  0.48758000  0.88371000  0.26638000  1.0
  C  C23  1  0.49978000  0.78281000  0.21700000  1.0
  C  C24  1  0.51210000  0.73344000  0.11613000  1.0
  C  C25  1  0.66234000  0.19403000  0.28588000  1.0
  C  C26  1  0.65324000  0.09386000  0.23404000  1.0
  C  C27  1  0.48362000  0.04168000  0.26983000  1.0
  C  C28  1  0.31235000  0.09073000  0.35649000  1.0
  C  C29  1  0.30406000  0.19096000  0.40626000  1.0
  C  C30  1  0.48450000  0.24326000  0.37197000  1.0
  C  C31  1  0.34678000  0.76589000  0.90605000  1.0
  C  C32  1  0.33774000  0.71406000  0.80590000  1.0
  C  C33  1  0.51562000  0.62798000  0.75666000  1.0
  C  C34  1  0.69607000  0.59367000  0.80892000  1.0
  C  C35  1  0.68769000  0.64342000  0.90915000  1.0
  C  C36  1  0.51637000  0.73008000  0.95822000  1.0
  C  C37  1  0.66622000  0.64198000  0.23338000  1.0
  C  C38  1  0.67510000  0.59229000  0.28396000  1.0
  C  C39  1  0.49997000  0.62734000  0.37256000  1.0
  C  C40  1  0.32477000  0.71593000  0.40758000  1.0
  C  C41  1  0.33346000  0.76647000  0.35786000  1.0
  C  C42  1  0.49978000  0.72955000  0.27030000  1.0
  O  O43  1  0.25177000  0.39328000  0.40962000  1.0
  O  O44  1  0.27002000  0.51518000  0.60610000  1.0
  O  O45  1  0.27499000  0.59323000  0.48893000  1.0
  O  O46  1  0.73010000  0.39383000  0.48475000  1.0
  O  O47  1  0.72523000  0.51104000  0.40673000  1.0
  O  O48  1  0.74838000  0.59032000  0.60665000  1.0
  O  O49  1  0.12499000  0.23530000  0.48915000  1.0
  O  O50  1  0.84002000  0.24225000  0.24982000  1.0
  O  O51  1  0.16003000  0.75014000  0.75771000  1.0
  O  O52  1  0.87514000  0.51078000  0.76459000  1.0
  O  O53  1  0.84683000  0.50970000  0.24520000  1.0
  O  O54  1  0.15318000  0.75473000  0.49019000  1.0
