# generated using pymatgen
data_HgH4C2(N2Cl)2
_symmetry_space_group_name_H-M   'P 1'
_cell_length_a   3.98511000
_cell_length_b   9.07267000
_cell_length_c   20.27490000
_cell_angle_alpha   90.00020000
_cell_angle_beta   90.00000000
_cell_angle_gamma   94.90270000
_symmetry_Int_Tables_number   1
_chemical_formula_structural   HgH4C2(N2Cl)2
_chemical_formula_sum   'Hg4 H16 C8 N16 Cl8'
_cell_volume   730.36889450
_cell_formula_units_Z   4
loop_
 _symmetry_equiv_pos_site_id
 _symmetry_equiv_pos_as_xyz
  1  'x, y, z'
loop_
 _atom_site_type_symbol
 _atom_site_label
 _atom_site_symmetry_multiplicity
 _atom_site_fract_x
 _atom_site_fract_y
 _atom_site_fract_z
 _atom_site_occupancy
  Hg  Hg0  1  0.77943000  0.64144000  0.43960000  1.0
  Hg  Hg1  1  0.72057000  0.85856000  0.93960000  1.0
  Hg  Hg2  1  0.22057000  0.35856000  0.56040000  1.0
  Hg  Hg3  1  0.27943000  0.14144000  0.06040000  1.0
  H  H4  1  0.94527000  0.15462000  0.34676000  1.0
  H  H5  1  0.55471000  0.34538000  0.84676000  1.0
  H  H6  1  0.05472000  0.84537000  0.65324000  1.0
  H  H7  1  0.44527000  0.65462000  0.15324000  1.0
  H  H8  1  0.26408000  0.08085000  0.39458000  1.0
  H  H9  1  0.23591000  0.41916000  0.89458000  1.0
  H  H10  1  0.73592000  0.91915000  0.60542000  1.0
  H  H11  1  0.76409000  0.58085000  0.10542000  1.0
  H  H12  1  0.83733000  0.02050000  0.40993000  1.0
  H  H13  1  0.66265000  0.47950000  0.90993000  1.0
  H  H14  1  0.16266000  0.97950000  0.59006000  1.0
  H  H15  1  0.33733000  0.52050000  0.09007000  1.0
  H  H16  1  0.31550000  0.03553000  0.24244000  1.0
  H  H17  1  0.18450000  0.46447000  0.74244000  1.0
  H  H18  1  0.68451000  0.96447000  0.75756000  1.0
  H  H19  1  0.81550000  0.53553000  0.25756000  1.0
  C  C20  1  0.01840000  0.05397000  0.37099000  1.0
  C  C21  1  0.48159000  0.44603000  0.87099000  1.0
  C  C22  1  0.98159000  0.94602000  0.62901000  1.0
  C  C23  1  0.51840000  0.55397000  0.12901000  1.0
  C  C24  1  0.03512000  0.93180000  0.32327000  1.0
  C  C25  1  0.46486000  0.56820000  0.82327000  1.0
  C  C26  1  0.96488000  0.06820000  0.67673000  1.0
  C  C27  1  0.53513000  0.43180000  0.17673000  1.0
  N  N28  1  0.18855000  0.94059000  0.26385000  1.0
  N  N29  1  0.31145000  0.55941000  0.76385000  1.0
  N  N30  1  0.81146000  0.05940000  0.73615000  1.0
  N  N31  1  0.68855000  0.44060000  0.23615000  1.0
  N  N32  1  0.15569000  0.80769000  0.23404000  1.0
  N  N33  1  0.34432000  0.69231000  0.73404000  1.0
  N  N34  1  0.84433000  0.19231000  0.76596000  1.0
  N  N35  1  0.65569000  0.30769000  0.26596000  1.0
  N  N36  1  0.98513000  0.71945000  0.27483000  1.0
  N  N37  1  0.51487000  0.78055000  0.77483000  1.0
  N  N38  1  0.01488000  0.28055000  0.72517000  1.0
  N  N39  1  0.48513000  0.21945000  0.22517000  1.0
  N  N40  1  0.90478000  0.79204000  0.33021000  1.0
  N  N41  1  0.59522000  0.70796000  0.83021000  1.0
  N  N42  1  0.09523000  0.20795000  0.66979000  1.0
  N  N43  1  0.40478000  0.29205000  0.16979000  1.0
  Cl  Cl44  1  0.42280000  0.81167000  0.48413000  1.0
  Cl  Cl45  1  0.07720000  0.68832000  0.98414000  1.0
  Cl  Cl46  1  0.57720000  0.18832000  0.51586000  1.0
  Cl  Cl47  1  0.92280000  0.31167000  0.01587000  1.0
  Cl  Cl48  1  0.12489000  0.45572000  0.40435000  1.0
  Cl  Cl49  1  0.37511000  0.04428000  0.90435000  1.0
  Cl  Cl50  1  0.87511000  0.54427000  0.59565000  1.0
  Cl  Cl51  1  0.62489000  0.95572000  0.09565000  1.0
