# generated using pymatgen
data_Hg3H42C50N6(Cl3O4)2
_symmetry_space_group_name_H-M   'P 1'
_cell_length_a   4.94906000
_cell_length_b   25.33160000
_cell_length_c   30.15350000
_cell_angle_alpha   106.61200000
_cell_angle_beta   90.00000000
_cell_angle_gamma   90.00000000
_symmetry_Int_Tables_number   1
_chemical_formula_structural   Hg3H42C50N6(Cl3O4)2
_chemical_formula_sum   'Hg6 H84 C100 N12 Cl12 O16'
_cell_volume   3622.49389471
_cell_formula_units_Z   2
loop_
 _symmetry_equiv_pos_site_id
 _symmetry_equiv_pos_as_xyz
  1  'x, y, z'
loop_
 _atom_site_type_symbol
 _atom_site_label
 _atom_site_symmetry_multiplicity
 _atom_site_fract_x
 _atom_site_fract_y
 _atom_site_fract_z
 _atom_site_occupancy
  Hg  Hg0  1  0.60435000  0.75000000  0.75000000  1.0
  Hg  Hg1  1  0.39565000  0.25000000  0.25000000  1.0
  Hg  Hg2  1  0.17299000  0.76016000  0.39387000  1.0
  Hg  Hg3  1  0.17299000  0.73983000  0.10613000  1.0
  Hg  Hg4  1  0.82701000  0.23984000  0.60613000  1.0
  Hg  Hg5  1  0.82701000  0.26016000  0.89387000  1.0
  H  H6  1  0.46666000  0.93279000  0.62726000  1.0
  H  H7  1  0.46666000  0.56721000  0.87274000  1.0
  H  H8  1  0.53334000  0.06721000  0.37274000  1.0
  H  H9  1  0.53334000  0.43279000  0.12726000  1.0
  H  H10  1  0.23282000  0.01381000  0.76851000  1.0
  H  H11  1  0.23282000  0.48619000  0.73149000  1.0
  H  H12  1  0.76718000  0.98619000  0.23149000  1.0
  H  H13  1  0.76718000  0.51381000  0.26851000  1.0
  H  H14  1  0.83327000  0.05416000  0.65467000  1.0
  H  H15  1  0.83327000  0.44584000  0.84533000  1.0
  H  H16  1  0.16673000  0.94584000  0.34533000  1.0
  H  H17  1  0.16673000  0.55416000  0.15467000  1.0
  H  H18  1  0.26055000  0.98201000  0.50262000  1.0
  H  H19  1  0.26055000  0.51799000  0.99738000  1.0
  H  H20  1  0.73945000  0.01799000  0.49738000  1.0
  H  H21  1  0.73945000  0.48201000  0.00262000  1.0
  H  H22  1  0.03806000  0.92662000  0.49935000  1.0
  H  H23  1  0.03806000  0.57338000  0.00065000  1.0
  H  H24  1  0.96194000  0.07338000  0.50065000  1.0
  H  H25  1  0.96194000  0.42662000  0.99935000  1.0
  H  H26  1  0.45911000  0.85289000  0.53344000  1.0
  H  H27  1  0.45911000  0.64711000  0.96656000  1.0
  H  H28  1  0.54089000  0.14711000  0.46656000  1.0
  H  H29  1  0.54089000  0.35289000  0.03344000  1.0
  H  H30  1  0.80736000  0.78771000  0.48790000  1.0
  H  H31  1  0.80736000  0.71229000  0.01210000  1.0
  H  H32  1  0.19264000  0.21229000  0.51210000  1.0
  H  H33  1  0.19264000  0.28771000  0.98790000  1.0
  H  H34  1  0.85269000  0.87220000  0.38922000  1.0
  H  H35  1  0.85269000  0.62780000  0.11078000  1.0
  H  H36  1  0.14731000  0.12780000  0.61078000  1.0
  H  H37  1  0.14731000  0.37220000  0.88922000  1.0
  H  H38  1  0.49524000  0.93963000  0.42940000  1.0
  H  H39  1  0.49524000  0.56037000  0.07060000  1.0
  H  H40  1  0.50476000  0.06037000  0.57060000  1.0
  H  H41  1  0.50476000  0.43963000  0.92940000  1.0
  H  H42  1  0.45051000  0.93252000  0.77462000  1.0
  H  H43  1  0.45051000  0.56748000  0.72538000  1.0
  H  H44  1  0.54949000  0.06748000  0.22538000  1.0
  H  H45  1  0.54949000  0.43252000  0.27462000  1.0
  H  H46  1  0.69906000  0.98399000  0.77509000  1.0
  H  H47  1  0.69906000  0.51601000  0.72491000  1.0
  H  H48  1  0.30094000  0.01601000  0.22491000  1.0
  H  H49  1  0.30094000  0.48399000  0.27509000  1.0
  H  H50  1  0.90499000  0.87444000  0.68227000  1.0
  H  H51  1  0.90499000  0.62556000  0.81773000  1.0
  H  H52  1  0.09501000  0.12556000  0.31773000  1.0
  H  H53  1  0.09501000  0.37444000  0.18227000  1.0
  H  H54  1  0.26941000  0.80698000  0.68544000  1.0
  H  H55  1  0.26941000  0.69302000  0.81456000  1.0
  H  H56  1  0.73059000  0.19302000  0.31456000  1.0
  H  H57  1  0.73059000  0.30698000  0.18544000  1.0
  H  H58  1  0.21614000  0.84475000  0.82799000  1.0
  H  H59  1  0.21613000  0.65525000  0.67201000  1.0
  H  H60  1  0.78386000  0.15525000  0.17201000  1.0
  H  H61  1  0.78387000  0.34475000  0.32799000  1.0
  H  H62  1  0.85114000  0.91406000  0.83126000  1.0
  H  H63  1  0.85114000  0.58594000  0.66874000  1.0
  H  H64  1  0.14886000  0.08594000  0.16874000  1.0
  H  H65  1  0.14886000  0.41406000  0.33126000  1.0
  H  H66  1  0.54545000  0.08159000  0.70548000  1.0
  H  H67  1  0.54545000  0.41841000  0.79452000  1.0
  H  H68  1  0.45455000  0.91841000  0.29452000  1.0
  H  H69  1  0.45455000  0.58159000  0.20548000  1.0
  H  H70  1  0.79280000  0.13457000  0.71785000  1.0
  H  H71  1  0.79280000  0.36543000  0.78215000  1.0
  H  H72  1  0.20720000  0.86543000  0.28215000  1.0
  H  H73  1  0.20720000  0.63457000  0.21785000  1.0
  H  H74  1  0.63525000  0.10602000  0.82600000  1.0
  H  H75  1  0.63524000  0.39398000  0.67400000  1.0
  H  H76  1  0.36475000  0.89398000  0.17400000  1.0
  H  H77  1  0.36475000  0.60602000  0.32600000  1.0
  H  H78  1  0.30603000  0.16218000  0.88353000  1.0
  H  H79  1  0.30603000  0.33782000  0.61647000  1.0
  H  H80  1  0.69397000  0.83782000  0.11647000  1.0
  H  H81  1  0.69397000  0.66218000  0.38353000  1.0
  H  H82  1  0.00590000  0.23715000  0.78864000  1.0
  H  H83  1  0.00590000  0.26285000  0.71135000  1.0
  H  H84  1  0.99410000  0.76285000  0.21136000  1.0
  H  H85  1  0.99410000  0.73715000  0.28864000  1.0
  H  H86  1  0.32054000  0.18380000  0.72660000  1.0
  H  H87  1  0.32054000  0.31620000  0.77340000  1.0
  H  H88  1  0.67946000  0.81620000  0.27340000  1.0
  H  H89  1  0.67946000  0.68380000  0.22660000  1.0
  C  C90  1  0.14285000  0.99258000  0.63660000  1.0
  C  C91  1  0.14285000  0.50742000  0.86340000  1.0
  C  C92  1  0.85715000  0.00742000  0.36340000  1.0
  C  C93  1  0.85715000  0.49258000  0.13660000  1.0
  C  C94  1  0.33870000  0.96221000  0.65159000  1.0
  C  C95  1  0.33869000  0.53779000  0.84841000  1.0
  C  C96  1  0.66130000  0.03779000  0.34841000  1.0
  C  C97  1  0.66130000  0.46221000  0.15159000  1.0
  C  C98  1  0.37210000  0.96981000  0.69922000  1.0
  C  C99  1  0.37210000  0.53019000  0.80078000  1.0
  C  C100  1  0.62791000  0.03019000  0.30078000  1.0
  C  C101  1  0.62790000  0.46981000  0.19922000  1.0
  C  C102  1  0.21019000  0.00705000  0.73139000  1.0
  C  C103  1  0.21019000  0.49295000  0.76861000  1.0
  C  C104  1  0.78981000  0.99295000  0.26861000  1.0
  C  C105  1  0.78981000  0.50705000  0.23139000  1.0
  C  C106  1  0.01372000  0.03745000  0.71543000  1.0
  C  C107  1  0.01372000  0.46255000  0.78457000  1.0
  C  C108  1  0.98628000  0.96255000  0.28457000  1.0
  C  C109  1  0.98628000  0.53745000  0.21543000  1.0
  C  C110  1  0.98122000  0.03115000  0.66823000  1.0
  C  C111  1  0.98122000  0.46885000  0.83177000  1.0
  C  C112  1  0.01878000  0.96885000  0.33177000  1.0
  C  C113  1  0.01878000  0.53115000  0.16823000  1.0
  C  C114  1  0.09141000  0.98471000  0.58657000  1.0
  C  C115  1  0.09140000  0.51529000  0.91343000  1.0
  C  C116  1  0.90860000  0.01529000  0.41343000  1.0
  C  C117  1  0.90860000  0.48471000  0.08657000  1.0
  C  C118  1  0.24236000  0.94229000  0.51014000  1.0
  C  C119  1  0.24236000  0.55771000  0.98986000  1.0
  C  C120  1  0.75764000  0.05771000  0.48986000  1.0
  C  C121  1  0.75764000  0.44229000  0.01014000  1.0
  C  C122  1  0.45372000  0.90237000  0.48534000  1.0
  C  C123  1  0.45372000  0.59763000  0.01466000  1.0
  C  C124  1  0.54628000  0.09763000  0.51466000  1.0
  C  C125  1  0.54628000  0.40237000  0.98534000  1.0
  C  C126  1  0.54168000  0.85887000  0.50176000  1.0
  C  C127  1  0.54168000  0.64113000  0.99824000  1.0
  C  C128  1  0.45832000  0.14113000  0.49824000  1.0
  C  C129  1  0.45832000  0.35887000  0.00176000  1.0
  C  C130  1  0.73530000  0.82261000  0.47674000  1.0
  C  C131  1  0.73530000  0.67739000  0.02326000  1.0
  C  C132  1  0.26470000  0.17739000  0.52326000  1.0
  C  C133  1  0.26470000  0.32261000  0.97674000  1.0
  C  C134  1  0.75856000  0.86954000  0.42123000  1.0
  C  C135  1  0.75856000  0.63047000  0.07877000  1.0
  C  C136  1  0.24144000  0.13046000  0.57877000  1.0
  C  C137  1  0.24144000  0.36953000  0.92123000  1.0
  C  C138  1  0.56394000  0.90726000  0.44399000  1.0
  C  C139  1  0.56394000  0.59274000  0.05601000  1.0
  C  C140  1  0.43606000  0.09274000  0.55601000  1.0
  C  C141  1  0.43606000  0.40726000  0.94399000  1.0
  C  C142  1  0.63118000  0.94184000  0.75674000  1.0
  C  C143  1  0.63118000  0.55816000  0.74326000  1.0
  C  C144  1  0.36882000  0.05816000  0.24326000  1.0
  C  C145  1  0.36882000  0.44184000  0.25674000  1.0
  C  C146  1  0.85139000  0.90076000  0.75660000  1.0
  C  C147  1  0.85139000  0.59924000  0.74340000  1.0
  C  C148  1  0.14861000  0.09924000  0.24340000  1.0
  C  C149  1  0.14861000  0.40076000  0.25660000  1.0
  C  C150  1  0.97037000  0.86980000  0.71535000  1.0
  C  C151  1  0.97037000  0.63020000  0.78465000  1.0
  C  C152  1  0.02963000  0.13020000  0.28465000  1.0
  C  C153  1  0.02963000  0.36980000  0.21535000  1.0
  C  C154  1  0.17233000  0.83220000  0.71691000  1.0
  C  C155  1  0.17233000  0.66780000  0.78309000  1.0
  C  C156  1  0.82767000  0.16780000  0.28309000  1.0
  C  C157  1  0.82767000  0.33220000  0.21691000  1.0
  C  C158  1  0.14373000  0.85349000  0.79662000  1.0
  C  C159  1  0.14373000  0.64651000  0.70338000  1.0
  C  C160  1  0.85627000  0.14651000  0.20338000  1.0
  C  C161  1  0.85627000  0.35349000  0.29662000  1.0
  C  C162  1  0.94098000  0.89211000  0.79807000  1.0
  C  C163  1  0.94098000  0.60789000  0.70193000  1.0
  C  C164  1  0.05902000  0.10789000  0.20193000  1.0
  C  C165  1  0.05902000  0.39211000  0.29807000  1.0
  C  C166  1  0.67689000  0.10681000  0.73301000  1.0
  C  C167  1  0.67689000  0.39319000  0.76699000  1.0
  C  C168  1  0.32311000  0.89319000  0.26699000  1.0
  C  C169  1  0.32311000  0.60681000  0.23301000  1.0
  C  C170  1  0.50012000  0.13960000  0.77125000  1.0
  C  C171  1  0.50012000  0.36040000  0.72875000  1.0
  C  C172  1  0.49988000  0.86040000  0.22875000  1.0
  C  C173  1  0.49988000  0.63960000  0.27125000  1.0
  C  C174  1  0.49657000  0.13394000  0.81597000  1.0
  C  C175  1  0.49656000  0.36607000  0.68403000  1.0
  C  C176  1  0.50343000  0.86607000  0.18403000  1.0
  C  C177  1  0.50343000  0.63393000  0.31597000  1.0
  C  C178  1  0.31408000  0.16531000  0.84818000  1.0
  C  C179  1  0.31408000  0.33469000  0.65182000  1.0
  C  C180  1  0.68592000  0.83469000  0.15182000  1.0
  C  C181  1  0.68592000  0.66531000  0.34818000  1.0
  C  C182  1  0.14840000  0.20719000  0.79498000  1.0
  C  C183  1  0.14840000  0.29281000  0.70502000  1.0
  C  C184  1  0.85160000  0.79281000  0.20502000  1.0
  C  C185  1  0.85160000  0.70719000  0.29498000  1.0
  C  C186  1  0.32194000  0.17741000  0.76090000  1.0
  C  C187  1  0.32193000  0.32259000  0.73910000  1.0
  C  C188  1  0.67806000  0.82259000  0.23910000  1.0
  C  C189  1  0.67806000  0.67741000  0.26090000  1.0
  N  N190  1  0.84328000  0.82824000  0.43740000  1.0
  N  N191  1  0.84328000  0.67176000  0.06260000  1.0
  N  N192  1  0.15672000  0.17176000  0.56260000  1.0
  N  N193  1  0.15672000  0.32823000  0.93740000  1.0
  N  N194  1  0.25829000  0.82429000  0.75671000  1.0
  N  N195  1  0.25829000  0.67571000  0.74329000  1.0
  N  N196  1  0.74171000  0.17571000  0.24329000  1.0
  N  N197  1  0.74171000  0.32429000  0.25671000  1.0
  N  N198  1  0.14286000  0.20110000  0.83780000  1.0
  N  N199  1  0.14286000  0.29890000  0.66220000  1.0
  N  N200  1  0.85714000  0.79890000  0.16220000  1.0
  N  N201  1  0.85714000  0.70110000  0.33780000  1.0
  Cl  Cl202  1  0.68811000  0.76887000  0.83091000  1.0
  Cl  Cl203  1  0.68811000  0.73113000  0.66909000  1.0
  Cl  Cl204  1  0.31188000  0.23114000  0.16909000  1.0
  Cl  Cl205  1  0.31189000  0.26887000  0.33091000  1.0
  Cl  Cl206  1  0.31436000  0.81076000  0.34073000  1.0
  Cl  Cl207  1  0.31436000  0.68924000  0.15927000  1.0
  Cl  Cl208  1  0.68564000  0.18924000  0.65927000  1.0
  Cl  Cl209  1  0.68564000  0.31076000  0.84073000  1.0
  Cl  Cl210  1  0.24669000  0.70950000  0.44832000  1.0
  Cl  Cl211  1  0.24669000  0.79050000  0.05168000  1.0
  Cl  Cl212  1  0.75331000  0.29050000  0.55168000  1.0
  Cl  Cl213  1  0.75331000  0.20950000  0.94831000  1.0
  O  O214  1  0.90749000  0.00683000  0.57122000  1.0
  O  O215  1  0.90749000  0.49317000  0.92878000  1.0
  O  O216  1  0.09251000  0.99317000  0.42878000  1.0
  O  O217  1  0.09251000  0.50683000  0.07122000  1.0
  O  O218  1  0.27205000  0.95005000  0.55932000  1.0
  O  O219  1  0.27205000  0.54995000  0.94068000  1.0
  O  O220  1  0.72795000  0.04995000  0.44068000  1.0
  O  O221  1  0.72796000  0.45005000  0.05932000  1.0
  O  O222  1  0.57024000  0.93818000  0.70977000  1.0
  O  O223  1  0.57024000  0.56182000  0.79023000  1.0
  O  O224  1  0.42976000  0.06182000  0.29023000  1.0
  O  O225  1  0.42975000  0.43818000  0.20977000  1.0
  O  O226  1  0.85782000  0.07209000  0.74897000  1.0
  O  O227  1  0.85782000  0.42791000  0.75103000  1.0
  O  O228  1  0.14218000  0.92791000  0.25103000  1.0
  O  O229  1  0.14218000  0.57209000  0.24897000  1.0
