# generated using pymatgen
data_ErH5C6N2O7
_symmetry_space_group_name_H-M   'P 1'
_cell_length_a   9.64245000
_cell_length_b   9.64246000
_cell_length_c   9.64248000
_cell_angle_alpha   79.13610000
_cell_angle_beta   79.13630000
_cell_angle_gamma   79.13670000
_symmetry_Int_Tables_number   1
_chemical_formula_structural   ErH5C6N2O7
_chemical_formula_sum   'Er3 H15 C18 N6 O21'
_cell_volume   853.73995269
_cell_formula_units_Z   3
loop_
 _symmetry_equiv_pos_site_id
 _symmetry_equiv_pos_as_xyz
  1  'x, y, z'
loop_
 _atom_site_type_symbol
 _atom_site_label
 _atom_site_symmetry_multiplicity
 _atom_site_fract_x
 _atom_site_fract_y
 _atom_site_fract_z
 _atom_site_occupancy
  Er  Er0  1  0.99093000  0.50000000  0.00906000  1.0
  Er  Er1  1  0.50000000  0.00906000  0.99093000  1.0
  Er  Er2  1  0.00906000  0.99093000  0.50000000  1.0
  H  H3  1  0.41078000  0.58921000  0.00000000  1.0
  H  H4  1  0.58922000  0.00000000  0.41078000  1.0
  H  H5  1  0.99999000  0.41078000  0.58922000  1.0
  H  H6  1  0.14646000  0.23601000  0.92483000  1.0
  H  H7  1  0.23601000  0.92483000  0.14646000  1.0
  H  H8  1  0.92483000  0.14646000  0.23601000  1.0
  H  H9  1  0.85354000  0.07515000  0.76398000  1.0
  H  H10  1  0.76399000  0.85353000  0.07517000  1.0
  H  H11  1  0.07517000  0.76399000  0.85353000  1.0
  H  H12  1  0.97681000  0.23389000  0.93728000  1.0
  H  H13  1  0.23389000  0.93729000  0.97680000  1.0
  H  H14  1  0.93728000  0.97681000  0.23389000  1.0
  H  H15  1  0.02319000  0.06271000  0.76611000  1.0
  H  H16  1  0.76611000  0.02319000  0.06271000  1.0
  H  H17  1  0.06271000  0.76611000  0.02319000  1.0
  C  C18  1  0.33350000  0.32996000  0.99861000  1.0
  C  C19  1  0.32995000  0.99862000  0.33349000  1.0
  C  C20  1  0.99862000  0.33349000  0.32996000  1.0
  C  C21  1  0.66650000  0.00138000  0.67004000  1.0
  C  C22  1  0.67004000  0.66649000  0.00139000  1.0
  C  C23  1  0.00138000  0.67003000  0.66650000  1.0
  C  C24  1  0.48043000  0.36098000  0.00143000  1.0
  C  C25  1  0.36098000  0.00144000  0.48042000  1.0
  C  C26  1  0.00144000  0.48042000  0.36099000  1.0
  C  C27  1  0.51957000  0.99856000  0.63900000  1.0
  C  C28  1  0.63902000  0.51957000  0.99856000  1.0
  C  C29  1  0.99856000  0.63901000  0.51957000  1.0
  C  C30  1  0.49926000  0.50074000  0.00000000  1.0
  C  C31  1  0.50074000  0.00000000  0.49925000  1.0
  C  C32  1  0.99999000  0.49925000  0.50074000  1.0
  C  C33  1  0.72354000  0.27645000  0.99999000  1.0
  C  C34  1  0.27646000  0.00000000  0.72353000  1.0
  C  C35  1  0.99999000  0.72354000  0.27646000  1.0
  N  N36  1  0.58747000  0.25016000  0.99977000  1.0
  N  N37  1  0.25017000  0.99977000  0.58747000  1.0
  N  N38  1  0.99978000  0.58747000  0.25017000  1.0
  N  N39  1  0.41253000  0.00022000  0.74982000  1.0
  N  N40  1  0.74984000  0.41252000  0.00022000  1.0
  N  N41  1  0.00022000  0.74983000  0.41252000  1.0
  O  O42  1  0.22890000  0.42565000  0.02706000  1.0
  O  O43  1  0.42565000  0.02708000  0.22890000  1.0
  O  O44  1  0.02708000  0.22889000  0.42565000  1.0
  O  O45  1  0.77111000  0.97292000  0.57435000  1.0
  O  O46  1  0.57434000  0.77109000  0.97294000  1.0
  O  O47  1  0.97291000  0.57435000  0.77111000  1.0
  O  O48  1  0.32677000  0.20985000  0.96446000  1.0
  O  O49  1  0.20985000  0.96447000  0.32675000  1.0
  O  O50  1  0.96448000  0.32676000  0.20985000  1.0
  O  O51  1  0.67323000  0.03552000  0.79015000  1.0
  O  O52  1  0.79015000  0.67323000  0.03553000  1.0
  O  O53  1  0.03553000  0.79015000  0.67323000  1.0
  O  O54  1  0.82728000  0.17271000  0.99999000  1.0
  O  O55  1  0.17272000  0.00000000  0.82728000  1.0
  O  O56  1  0.99999000  0.82728000  0.17272000  1.0
  O  O57  1  0.05432000  0.29504000  0.90637000  1.0
  O  O58  1  0.29503000  0.90638000  0.05432000  1.0
  O  O59  1  0.90638000  0.05432000  0.29503000  1.0
  O  O60  1  0.94567000  0.09362000  0.70496000  1.0
  O  O61  1  0.70496000  0.94567000  0.09363000  1.0
  O  O62  1  0.09361000  0.70496000  0.94567000  1.0
