# generated using pymatgen
data_CdH15C21S3N5O6
_symmetry_space_group_name_H-M   'P 1'
_cell_length_a   8.63554000
_cell_length_b   11.84540000
_cell_length_c   12.15810000
_cell_angle_alpha   94.88910000
_cell_angle_beta   108.90670000
_cell_angle_gamma   90.50360000
_symmetry_Int_Tables_number   1
_chemical_formula_structural   CdH15C21S3N5O6
_chemical_formula_sum   'Cd2 H30 C42 S6 N10 O12'
_cell_volume   1171.41469829
_cell_formula_units_Z   2
loop_
 _symmetry_equiv_pos_site_id
 _symmetry_equiv_pos_as_xyz
  1  'x, y, z'
loop_
 _atom_site_type_symbol
 _atom_site_label
 _atom_site_symmetry_multiplicity
 _atom_site_fract_x
 _atom_site_fract_y
 _atom_site_fract_z
 _atom_site_occupancy
  Cd  Cd0  1  0.16385000  0.63955000  0.07061000  1.0
  Cd  Cd1  1  0.83616000  0.36046000  0.92939000  1.0
  H  H2  1  0.11228000  0.45861000  0.24851000  1.0
  H  H3  1  0.88772000  0.54139000  0.75148000  1.0
  H  H4  1  0.19781000  0.43624000  0.46504000  1.0
  H  H5  1  0.80218000  0.56375000  0.53495000  1.0
  H  H6  1  0.40411000  0.57610000  0.60321000  1.0
  H  H7  1  0.59587000  0.42389000  0.39679000  1.0
  H  H8  1  0.58427000  0.75156000  0.63291000  1.0
  H  H9  1  0.41571000  0.24843000  0.36709000  1.0
  H  H10  1  0.66985000  0.91661000  0.54965000  1.0
  H  H11  1  0.33014000  0.08339000  0.45036000  1.0
  H  H12  1  0.64222000  0.02549000  0.38118000  1.0
  H  H13  1  0.35777000  0.97451000  0.61883000  1.0
  H  H14  1  0.52017000  0.04029000  0.16392000  1.0
  H  H15  1  0.47984000  0.95970000  0.83610000  1.0
  H  H16  1  0.34414000  0.87538000  0.03938000  1.0
  H  H17  1  0.65587000  0.12462000  0.96062000  1.0
  H  H18  1  0.53791000  0.58877000  0.09452000  1.0
  H  H19  1  0.46210000  0.41123000  0.90547000  1.0
  H  H20  1  0.64520000  0.72441000  0.11985000  1.0
  H  H21  1  0.35479000  0.27560000  0.88014000  1.0
  H  H22  1  0.96084000  0.71153000  0.66963000  1.0
  H  H23  1  0.03914000  0.28849000  0.33038000  1.0
  H  H24  1  0.10393000  0.60593000  0.66419000  1.0
  H  H25  1  0.89604000  0.39407000  0.33582000  1.0
  H  H26  1  0.77531000  0.98188000  0.16717000  1.0
  H  H27  1  0.22470000  0.01812000  0.83282000  1.0
  H  H28  1  0.88841000  0.06952000  0.10562000  1.0
  H  H29  1  0.11160000  0.93048000  0.89438000  1.0
  H  H30  1  0.75038000  0.79143000  0.93437000  1.0
  H  H31  1  0.24966000  0.20857000  0.06561000  1.0
  C  C32  1  0.19850000  0.51904000  0.31289000  1.0
  C  C33  1  0.80150000  0.48095000  0.68710000  1.0
  C  C34  1  0.24803000  0.50669000  0.43334000  1.0
  C  C35  1  0.75196000  0.49330000  0.56666000  1.0
  C  C36  1  0.36094000  0.58439000  0.50953000  1.0
  C  C37  1  0.63906000  0.41560000  0.49046000  1.0
  C  C38  1  0.42115000  0.67603000  0.46601000  1.0
  C  C39  1  0.57885000  0.32396000  0.53399000  1.0
  C  C40  1  0.53683000  0.76042000  0.53943000  1.0
  C  C41  1  0.46316000  0.23957000  0.46057000  1.0
  C  C42  1  0.58352000  0.85123000  0.49402000  1.0
  C  C43  1  0.41647000  0.14876000  0.50599000  1.0
  C  C44  1  0.51885000  0.86439000  0.37189000  1.0
  C  C45  1  0.48114000  0.13560000  0.62812000  1.0
  C  C46  1  0.55911000  0.95968000  0.32316000  1.0
  C  C47  1  0.44089000  0.04032000  0.67685000  1.0
  C  C48  1  0.49360000  0.96697000  0.20420000  1.0
  C  C49  1  0.50641000  0.03303000  0.79581000  1.0
  C  C50  1  0.39169000  0.87718000  0.13419000  1.0
  C  C51  1  0.60832000  0.12282000  0.86582000  1.0
  C  C52  1  0.40939000  0.77992000  0.29530000  1.0
  C  C53  1  0.59062000  0.22007000  0.70470000  1.0
  C  C54  1  0.35946000  0.68404000  0.34359000  1.0
  C  C55  1  0.64055000  0.31595000  0.65641000  1.0
  C  C56  1  0.02225000  0.88253000  0.34128000  1.0
  C  C57  1  0.97776000  0.11747000  0.65872000  1.0
  C  C58  1  0.08324000  0.79380000  0.50615000  1.0
  C  C59  1  0.91676000  0.20620000  0.49385000  1.0
  C  C60  1  0.87843000  0.72428000  0.34425000  1.0
  C  C61  1  0.12157000  0.27572000  0.65575000  1.0
  C  C62  1  0.65845000  0.63316000  0.12771000  1.0
  C  C63  1  0.34156000  0.36685000  0.87229000  1.0
  C  C64  1  0.77020000  0.58682000  0.06005000  1.0
  C  C65  1  0.22982000  0.41320000  0.93995000  1.0
  C  C66  1  0.09091000  0.69214000  0.70067000  1.0
  C  C67  1  0.90907000  0.30787000  0.29933000  1.0
  C  C68  1  0.88668000  0.98855000  0.14354000  1.0
  C  C69  1  0.11333000  0.01145000  0.85645000  1.0
  C  C70  1  0.89092000  0.89434000  0.05289000  1.0
  C  C71  1  0.10911000  0.10565000  0.94710000  1.0
  C  C72  1  0.15626000  0.69806000  0.83396000  1.0
  C  C73  1  0.84370000  0.30195000  0.16604000  1.0
  S  S74  1  0.20464000  0.79372000  0.65193000  1.0
  S  S75  1  0.79535000  0.20628000  0.34807000  1.0
  S  S76  1  0.73711000  0.61189000  0.28111000  1.0
  S  S77  1  0.26288000  0.38811000  0.71889000  1.0
  S  S78  1  0.06345000  0.99775000  0.27268000  1.0
  S  S79  1  0.93655000  0.00225000  0.72732000  1.0
  N  N80  1  0.25296000  0.60513000  0.27010000  1.0
  N  N81  1  0.74705000  0.39486000  0.72990000  1.0
  N  N82  1  0.35030000  0.78697000  0.17849000  1.0
  N  N83  1  0.64971000  0.21303000  0.82151000  1.0
  N  N84  1  0.96230000  0.71488000  0.45771000  1.0
  N  N85  1  0.03771000  0.28511000  0.54228000  1.0
  N  N86  1  0.12428000  0.87744000  0.45063000  1.0
  N  N87  1  0.87573000  0.12256000  0.54938000  1.0
  N  N88  1  0.89722000  0.80945000  0.28309000  1.0
  N  N89  1  0.10278000  0.19055000  0.71691000  1.0
  O  O90  1  0.91784000  0.62273000  0.09910000  1.0
  O  O91  1  0.08219000  0.37728000  0.90093000  1.0
  O  O92  1  0.70355000  0.51802000  0.97033000  1.0
  O  O93  1  0.29648000  0.48201000  0.02966000  1.0
  O  O94  1  0.01409000  0.86207000  0.03330000  1.0
  O  O95  1  0.98591000  0.13795000  0.96670000  1.0
  O  O96  1  0.73840000  0.85266000  0.99043000  1.0
  O  O97  1  0.26162000  0.14733000  0.00956000  1.0
  O  O98  1  0.05849000  0.65055000  0.87819000  1.0
  O  O99  1  0.94147000  0.34947000  0.12181000  1.0
  O  O100  1  0.29320000  0.74519000  0.88847000  1.0
  O  O101  1  0.70678000  0.25480000  0.11154000  1.0
