# generated using pymatgen
data_Zn4H36C30O13
_symmetry_space_group_name_H-M   'P 1'
_cell_length_a   18.08290000
_cell_length_b   18.21000000
_cell_length_c   18.22050000
_cell_angle_alpha   60.65490000
_cell_angle_beta   60.51770000
_cell_angle_gamma   60.42120000
_symmetry_Int_Tables_number   1
_chemical_formula_structural   Zn4H36C30O13
_chemical_formula_sum   'Zn8 H72 C60 O26'
_cell_volume   4293.40645078
_cell_formula_units_Z   2
loop_
 _symmetry_equiv_pos_site_id
 _symmetry_equiv_pos_as_xyz
  1  'x, y, z'
loop_
 _atom_site_type_symbol
 _atom_site_label
 _atom_site_symmetry_multiplicity
 _atom_site_fract_x
 _atom_site_fract_y
 _atom_site_fract_z
 _atom_site_occupancy
  Zn  Zn0  1  0.04919000  0.05210000  0.85630000  1.0
  Zn  Zn1  1  0.04738000  0.05860000  0.03210000  1.0
  Zn  Zn2  1  0.05226000  0.88110000  0.02903000  1.0
  Zn  Zn3  1  0.87388000  0.05390000  0.03243000  1.0
  Zn  Zn4  1  0.46235000  0.46675000  0.61713000  1.0
  Zn  Zn5  1  0.45738000  0.46981000  0.44405000  1.0
  Zn  Zn6  1  0.63875000  0.46666000  0.44450000  1.0
  Zn  Zn7  1  0.46516000  0.64215000  0.44464000  1.0
  H  H8  1  0.22772000  0.19272000  0.66717000  1.0
  H  H9  1  0.30944000  0.11516000  0.71967000  1.0
  H  H10  1  0.39903000  0.20604000  0.62725000  1.0
  H  H11  1  0.31714000  0.28465000  0.57512000  1.0
  H  H12  1  0.39039000  0.21847000  0.76554000  1.0
  H  H13  1  0.30402000  0.30602000  0.80623000  1.0
  H  H14  1  0.21224000  0.21689000  0.89778000  1.0
  H  H15  1  0.29926000  0.12884000  0.85826000  1.0
  H  H16  1  0.19322000  0.40910000  0.63441000  1.0
  H  H17  1  0.18668000  0.41812000  0.73012000  1.0
  H  H18  1  0.09636000  0.32808000  0.82067000  1.0
  H  H19  1  0.10342000  0.31816000  0.72524000  1.0
  H  H20  1  0.18565000  0.91914000  0.66810000  1.0
  H  H21  1  0.10612000  0.86398000  0.72312000  1.0
  H  H22  1  0.19553000  0.77335000  0.63320000  1.0
  H  H23  1  0.27543000  0.82819000  0.57770000  1.0
  H  H24  1  0.20918000  0.63539000  0.77103000  1.0
  H  H25  1  0.29798000  0.59562000  0.81029000  1.0
  H  H26  1  0.20869000  0.68639000  0.90061000  1.0
  H  H27  1  0.11978000  0.72566000  0.86163000  1.0
  H  H28  1  0.40261000  0.77130000  0.63471000  1.0
  H  H29  1  0.41209000  0.67555000  0.73068000  1.0
  H  H30  1  0.32274000  0.76586000  0.82069000  1.0
  H  H31  1  0.31317000  0.86186000  0.72486000  1.0
  H  H32  1  0.91794000  0.23588000  0.67180000  1.0
  H  H33  1  0.86396000  0.31465000  0.72738000  1.0
  H  H34  1  0.77602000  0.40770000  0.63471000  1.0
  H  H35  1  0.82875000  0.32885000  0.57949000  1.0
  H  H36  1  0.63482000  0.39876000  0.77190000  1.0
  H  H37  1  0.59034000  0.31482000  0.80963000  1.0
  H  H38  1  0.67951000  0.22036000  0.90163000  1.0
  H  H39  1  0.72341000  0.30459000  0.86414000  1.0
  H  H40  1  0.76496000  0.20813000  0.63446000  1.0
  H  H41  1  0.66706000  0.20172000  0.72972000  1.0
  H  H42  1  0.75679000  0.10782000  0.82038000  1.0
  H  H43  1  0.85480000  0.11501000  0.72543000  1.0
  H  H44  1  0.23534000  0.92761000  0.17013000  1.0
  H  H45  1  0.31551000  0.87400000  0.08998000  1.0
  H  H46  1  0.40617000  0.78323000  0.18010000  1.0
  H  H47  1  0.32634000  0.83617000  0.26078000  1.0
  H  H48  1  0.39462000  0.64564000  0.18711000  1.0
  H  H49  1  0.30775000  0.60373000  0.27320000  1.0
  H  H50  1  0.21506000  0.69507000  0.18484000  1.0
  H  H51  1  0.30249000  0.73553000  0.09817000  1.0
  H  H52  1  0.20082000  0.77638000  0.38350000  1.0
  H  H53  1  0.19264000  0.68101000  0.38821000  1.0
  H  H54  1  0.10138000  0.77296000  0.29892000  1.0
  H  H55  1  0.11038000  0.86842000  0.29309000  1.0
  H  H56  1  0.91410000  0.19725000  0.21475000  1.0
  H  H57  1  0.86274000  0.11555000  0.29418000  1.0
  H  H58  1  0.77156000  0.20416000  0.38617000  1.0
  H  H59  1  0.82284000  0.28595000  0.30716000  1.0
  H  H60  1  0.63133000  0.21105000  0.37745000  1.0
  H  H61  1  0.58701000  0.29749000  0.29271000  1.0
  H  H62  1  0.67829000  0.20911000  0.19998000  1.0
  H  H63  1  0.72192000  0.12263000  0.28513000  1.0
  H  H64  1  0.75931000  0.40912000  0.18515000  1.0
  H  H65  1  0.66216000  0.41398000  0.17891000  1.0
  H  H66  1  0.75303000  0.32543000  0.08709000  1.0
  H  H67  1  0.85030000  0.32050000  0.09320000  1.0
  H  H68  1  0.92411000  0.68761000  0.16749000  1.0
  H  H69  1  0.86844000  0.73854000  0.08936000  1.0
  H  H70  1  0.77973000  0.64662000  0.18106000  1.0
  H  H71  1  0.83468000  0.59579000  0.25986000  1.0
  H  H72  1  0.63911000  0.78512000  0.19096000  1.0
  H  H73  1  0.59705000  0.82789000  0.27727000  1.0
  H  H74  1  0.68660000  0.91939000  0.18730000  1.0
  H  H75  1  0.72707000  0.87783000  0.10051000  1.0
  H  H76  1  0.77550000  0.65781000  0.38230000  1.0
  H  H77  1  0.67780000  0.75374000  0.39011000  1.0
  H  H78  1  0.76740000  0.84460000  0.29895000  1.0
  H  H79  1  0.86509000  0.74873000  0.29078000  1.0
  C  C80  1  0.14233000  0.15339000  0.84658000  1.0
  C  C81  1  0.20337000  0.21053000  0.78709000  1.0
  C  C82  1  0.26765000  0.18599000  0.70133000  1.0
  C  C83  1  0.32715000  0.24643000  0.64029000  1.0
  C  C84  1  0.30452000  0.31196000  0.68452000  1.0
  C  C85  1  0.31879000  0.25903000  0.77582000  1.0
  C  C86  1  0.25849000  0.19962000  0.83670000  1.0
  C  C87  1  0.20379000  0.37022000  0.69944000  1.0
  C  C88  1  0.14372000  0.30992000  0.76004000  1.0
  C  C89  1  0.36176000  0.37298000  0.62483000  1.0
  C  C90  1  0.14785000  0.86904000  0.84694000  1.0
  C  C91  1  0.20345000  0.80922000  0.78865000  1.0
  C  C92  1  0.17787000  0.85298000  0.70370000  1.0
  C  C93  1  0.23724000  0.79288000  0.64390000  1.0
  C  C94  1  0.30365000  0.70783000  0.68775000  1.0
  C  C95  1  0.25060000  0.65689000  0.77986000  1.0
  C  C96  1  0.19133000  0.71689000  0.83974000  1.0
  C  C97  1  0.36360000  0.73593000  0.70050000  1.0
  C  C98  1  0.30409000  0.79614000  0.76045000  1.0
  C  C99  1  0.36520000  0.64964000  0.62804000  1.0
  C  C100  1  0.86370000  0.14739000  0.84963000  1.0
  C  C101  1  0.80454000  0.21114000  0.79077000  1.0
  C  C102  1  0.85165000  0.27524000  0.70673000  1.0
  C  C103  1  0.79277000  0.33706000  0.64556000  1.0
  C  C104  1  0.70484000  0.31607000  0.68797000  1.0
  C  C105  1  0.65362000  0.32838000  0.78032000  1.0
  C  C106  1  0.71257000  0.26598000  0.84129000  1.0
  C  C107  1  0.72950000  0.21708000  0.70034000  1.0
  C  C108  1  0.78912000  0.15485000  0.76094000  1.0
  C  C109  1  0.64665000  0.37342000  0.62787000  1.0
  C  C110  1  0.14690000  0.87700000  0.12640000  1.0
  C  C111  1  0.20866000  0.81767000  0.18300000  1.0
  C  C112  1  0.27426000  0.86188000  0.16094000  1.0
  C  C113  1  0.33451000  0.80141000  0.22086000  1.0
  C  C114  1  0.31071000  0.71542000  0.28378000  1.0
  C  C115  1  0.32327000  0.66567000  0.22815000  1.0
  C  C116  1  0.26236000  0.72587000  0.16916000  1.0
  C  C117  1  0.21021000  0.74198000  0.34245000  1.0
  C  C118  1  0.14963000  0.80316000  0.28258000  1.0
  C  C119  1  0.36739000  0.65553000  0.34540000  1.0
  C  C120  1  0.86224000  0.15307000  0.12864000  1.0
  C  C121  1  0.80220000  0.20897000  0.19089000  1.0
  C  C122  1  0.84864000  0.18690000  0.25442000  1.0
  C  C123  1  0.78824000  0.24568000  0.31545000  1.0
  C  C124  1  0.70021000  0.30840000  0.29390000  1.0
  C  C125  1  0.65024000  0.25255000  0.30691000  1.0
  C  C126  1  0.71057000  0.19385000  0.24571000  1.0
  C  C127  1  0.72464000  0.36808000  0.19472000  1.0
  C  C128  1  0.78524000  0.30903000  0.13352000  1.0
  C  C129  1  0.64156000  0.36953000  0.35090000  1.0
  C  C130  1  0.86986000  0.86824000  0.12581000  1.0
  C  C131  1  0.81161000  0.80836000  0.18289000  1.0
  C  C132  1  0.85725000  0.72154000  0.16003000  1.0
  C  C133  1  0.79816000  0.66067000  0.22096000  1.0
  C  C134  1  0.71154000  0.70599000  0.28530000  1.0
  C  C135  1  0.65945000  0.79673000  0.23116000  1.0
  C  C136  1  0.71834000  0.85754000  0.17116000  1.0
  C  C137  1  0.73897000  0.72250000  0.34287000  1.0
  C  C138  1  0.79862000  0.78312000  0.28203000  1.0
  C  C139  1  0.65247000  0.64692000  0.34756000  1.0
  O  O140  1  0.00605000  0.01196000  0.98717000  1.0
  O  O141  1  0.12044000  0.13197000  0.93067000  1.0
  O  O142  1  0.11686000  0.13249000  0.80741000  1.0
  O  O143  1  0.37944000  0.39879000  0.54078000  1.0
  O  O144  1  0.38688000  0.39457000  0.66363000  1.0
  O  O145  1  0.12778000  0.83060000  0.93117000  1.0
  O  O146  1  0.12705000  0.95326000  0.80703000  1.0
  O  O147  1  0.39148000  0.68998000  0.54422000  1.0
  O  O148  1  0.38728000  0.56528000  0.66634000  1.0
  O  O149  1  0.82445000  0.12690000  0.93387000  1.0
  O  O150  1  0.94813000  0.11802000  0.80983000  1.0
  O  O151  1  0.68740000  0.39516000  0.54382000  1.0
  O  O152  1  0.56155000  0.39325000  0.66624000  1.0
  O  O153  1  0.12464000  0.83715000  0.10316000  1.0
  O  O154  1  0.12098000  0.96137000  0.10780000  1.0
  O  O155  1  0.39261000  0.69374000  0.36766000  1.0
  O  O156  1  0.38370000  0.57168000  0.37146000  1.0
  O  O157  1  0.82325000  0.13032000  0.10475000  1.0
  O  O158  1  0.94717000  0.13424000  0.10406000  1.0
  O  O159  1  0.68268000  0.39227000  0.37238000  1.0
  O  O160  1  0.55640000  0.39468000  0.37102000  1.0
  O  O161  1  0.82918000  0.95228000  0.10941000  1.0
  O  O162  1  0.95494000  0.82968000  0.10020000  1.0
  O  O163  1  0.69203000  0.56252000  0.36887000  1.0
  O  O164  1  0.56771000  0.68656000  0.37497000  1.0
  O  O165  1  0.50651000  0.51110000  0.48645000  1.0
