# generated using pymatgen
data_Zr6H69C70ClO32
_symmetry_space_group_name_H-M   'P 1'
_cell_length_a   14.71110000
_cell_length_b   14.73040000
_cell_length_c   14.79028663
_cell_angle_alpha   60.28691995
_cell_angle_beta   89.58466575
_cell_angle_gamma   119.44890000
_symmetry_Int_Tables_number   1
_chemical_formula_structural   Zr6H69C70ClO32
_chemical_formula_sum   'Zr6 H69 C70 Cl1 O32'
_cell_volume   2286.67513934
_cell_formula_units_Z   1
loop_
 _symmetry_equiv_pos_site_id
 _symmetry_equiv_pos_as_xyz
  1  'x, y, z'
loop_
 _atom_site_type_symbol
 _atom_site_label
 _atom_site_symmetry_multiplicity
 _atom_site_fract_x
 _atom_site_fract_y
 _atom_site_fract_z
 _atom_site_occupancy
  Zr  Zr0  1  0.37978000  0.76579000  0.11512000  1.0
  Zr  Zr1  1  0.61699000  0.24174000  0.87647000  1.0
  Zr  Zr2  1  0.38027000  0.00906000  0.11212000  1.0
  Zr  Zr3  1  0.61773000  0.00204000  0.87628000  1.0
  Zr  Zr4  1  0.61761000  0.00333000  0.11494000  1.0
  Zr  Zr5  1  0.37877000  0.00186000  0.87608000  1.0
  H  H6  1  0.40506000  0.81932000  0.27574000  1.0
  H  H7  1  0.78085000  0.19388000  0.89936000  1.0
  H  H8  1  0.40618000  0.19510000  0.90165000  1.0
  H  H9  1  0.40621000  0.80951000  0.90722000  1.0
  H  H10  1  0.11032000  0.72802000  0.44187000  1.0
  H  H11  1  0.97814000  0.43386000  0.29509000  1.0
  H  H12  1  0.05724000  0.38463000  0.37046000  1.0
  H  H13  1  0.88803000  0.21353000  0.54057000  1.0
  H  H14  1  0.80949000  0.26448000  0.46525000  1.0
  H  H15  1  0.71819000  0.59424000  0.60180000  1.0
  H  H16  1  0.71741000  0.49179000  0.57316000  1.0
  H  H17  1  0.77465000  0.65210000  0.46373000  1.0
  H  H18  1  0.22406000  0.35069000  0.52713000  1.0
  H  H19  1  0.27914000  0.51173000  0.42183000  1.0
  H  H20  1  0.27898000  0.41396000  0.38677000  1.0
  H  H21  1  0.73875000  0.82112000  0.31522000  1.0
  H  H22  1  0.64675000  0.82030000  0.39202000  1.0
  H  H23  1  0.72944000  0.76842000  0.45424000  1.0
  H  H24  1  0.26988000  0.23645000  0.53325000  1.0
  H  H25  1  0.35270000  0.18478000  0.59537000  1.0
  H  H26  1  0.26009000  0.18317000  0.67228000  1.0
  H  H27  1  0.80850000  0.58393000  0.93541000  1.0
  H  H28  1  0.72554000  0.41638000  0.01471000  1.0
  H  H29  1  0.77148000  0.49681000  0.08008000  1.0
  H  H30  1  0.26477000  0.58427000  0.94045000  1.0
  H  H31  1  0.21236000  0.48751000  0.08553000  1.0
  H  H32  1  0.18284000  0.41704000  0.01196000  1.0
  H  H33  1  0.06665000  0.76953000  0.99483000  1.0
  H  H34  1  0.97807000  0.75448000  0.91604000  1.0
  H  H35  1  0.92071000  0.65968000  0.06065000  1.0
  H  H36  1  0.98627000  0.22575000  0.09058000  1.0
  H  H37  1  0.92858000  0.24826000  0.98463000  1.0
  H  H38  1  0.07390000  0.33813000  0.95125000  1.0
  H  H39  1  0.27096000  0.20659000  0.82280000  1.0
  H  H40  1  0.20432000  0.27439000  0.74593000  1.0
  H  H41  1  0.24140000  0.29542000  0.85067000  1.0
  H  H42  1  0.78541000  0.72453000  0.24753000  1.0
  H  H43  1  0.71803000  0.78668000  0.16438000  1.0
  H  H44  1  0.75398000  0.69785000  0.14444000  1.0
  H  H45  1  0.03585000  0.23910000  0.73737000  1.0
  H  H46  1  0.93300000  0.21389000  0.82598000  1.0
  H  H47  1  0.07433000  0.30943000  0.81079000  1.0
  H  H48  1  0.91058000  0.68593000  0.19613000  1.0
  H  H49  1  0.05663000  0.77820000  0.16018000  1.0
  H  H50  1  0.97486000  0.77279000  0.25286000  1.0
  H  H51  1  0.72435000  0.04363000  0.35252000  1.0
  H  H52  1  0.70839000  0.16559000  0.26535000  1.0
  H  H53  1  0.76843000  0.16970000  0.36765000  1.0
  H  H54  1  0.27937000  0.85237000  0.73590000  1.0
  H  H55  1  0.25840000  0.94957000  0.61998000  1.0
  H  H56  1  0.21304000  0.79664000  0.65777000  1.0
  H  H57  1  0.71567000  0.06680000  0.60867000  1.0
  H  H58  1  0.63871000  0.90790000  0.65364000  1.0
  H  H59  1  0.73908000  0.02524000  0.52054000  1.0
  H  H60  1  0.24518000  0.93256000  0.44726000  1.0
  H  H61  1  0.28829000  0.87211000  0.39281000  1.0
  H  H62  1  0.22169000  0.78254000  0.53692000  1.0
  H  H63  1  0.34995000  0.20422000  0.26100000  1.0
  H  H64  1  0.46027000  0.20386000  0.21516000  1.0
  H  H65  1  0.47558000  0.27818000  0.28377000  1.0
  H  H66  1  0.66755000  0.82855000  0.77614000  1.0
  H  H67  1  0.73830000  0.82722000  0.87082000  1.0
  H  H68  1  0.75505000  0.77538000  0.78993000  1.0
  H  H69  1  0.44463000  0.52822000  0.22621000  1.0
  H  H70  1  0.34133000  0.37459000  0.26199000  1.0
  H  H71  1  0.46517000  0.40442000  0.29069000  1.0
  H  H72  1  0.71088000  0.58927000  0.79014000  1.0
  H  H73  1  0.57522000  0.50400000  0.79128000  1.0
  H  H74  1  0.64250000  0.66656000  0.73912000  1.0
  C  C75  1  0.49741000  0.70043000  0.30258000  1.0
  C  C76  1  0.80034000  0.30516000  0.00119000  1.0
  C  C77  1  0.50184000  0.30473000  0.68566000  1.0
  C  C78  1  0.19068000  0.69715000  0.99988000  1.0
  C  C79  1  0.19085000  0.70971000  0.29032000  1.0
  C  C80  1  0.51634000  0.69999000  0.01261000  1.0
  C  C81  1  0.79475000  0.30659000  0.68512000  1.0
  C  C82  1  0.50824000  0.31069000  0.00407000  1.0
  C  C83  1  0.49815000  0.00727000  0.29788000  1.0
  C  C84  1  0.19131000  0.99847000  0.99895000  1.0
  C  C85  1  0.49501000  0.98984000  0.69727000  1.0
  C  C86  1  0.80109000  0.99913000  0.99451000  1.0
  C  C87  1  0.50438000  0.40504000  0.58047000  1.0
  C  C88  1  0.49471000  0.59993000  0.40738000  1.0
  C  C89  1  0.59687000  0.53360000  0.52358000  1.0
  C  C90  1  0.40180000  0.47134000  0.46501000  1.0
  C  C91  1  0.58982000  0.63191000  0.44113000  1.0
  C  C92  1  0.40925000  0.37296000  0.54677000  1.0
  C  C93  1  0.90069000  0.40440000  0.00446000  1.0
  C  C94  1  0.08852000  0.59423000  0.00223000  1.0
  C  C95  1  0.89855000  0.49963000  0.00281000  1.0
  C  C96  1  0.08951000  0.49583000  0.00819000  1.0
  C  C97  1  0.99452000  0.59764000  0.99881000  1.0
  C  C98  1  0.99514000  0.40108000  0.00732000  1.0
  C  C99  1  0.08940000  0.99807000  0.99864000  1.0
  C  C100  1  0.90207000  0.99779000  0.99459000  1.0
  C  C101  1  0.09851000  0.10730000  0.91290000  1.0
  C  C102  1  0.89293000  0.88834000  0.08010000  1.0
  C  C103  1  0.00283000  0.10699000  0.91007000  1.0
  C  C104  1  0.98889000  0.88921000  0.08327000  1.0
  C  C105  1  0.49292000  0.99624000  0.40444000  1.0
  C  C106  1  0.48825000  0.97477000  0.60388000  1.0
  C  C107  1  0.59127000  0.03498000  0.43172000  1.0
  C  C108  1  0.38943000  0.93480000  0.57746000  1.0
  C  C109  1  0.58493000  0.00906000  0.53765000  1.0
  C  C110  1  0.39074000  0.93873000  0.47994000  1.0
  C  C111  1  0.08711000  0.61041000  0.38636000  1.0
  C  C112  1  0.89467000  0.41215000  0.58418000  1.0
  C  C113  1  0.01667000  0.48840000  0.41238000  1.0
  C  C114  1  0.96700000  0.53774000  0.55644000  1.0
  C  C115  1  0.92365000  0.39396000  0.50731000  1.0
  C  C116  1  0.05837000  0.63357000  0.45959000  1.0
  C  C117  1  0.99445000  0.40379000  0.37389000  1.0
  C  C118  1  0.88867000  0.29684000  0.48085000  1.0
  C  C119  1  0.52416000  0.41454000  0.01256000  1.0
  C  C120  1  0.53623000  0.60546000  0.02174000  1.0
  C  C121  1  0.48286000  0.38711000  0.11615000  1.0
  C  C122  1  0.60263000  0.63923000  0.92563000  1.0
  C  C123  1  0.48278000  0.48120000  0.11946000  1.0
  C  C124  1  0.58549000  0.54139000  0.91686000  1.0
  C  C125  1  0.70711000  0.56941000  0.54191000  1.0
  C  C126  1  0.29054000  0.43536000  0.44890000  1.0
  C  C127  1  0.68143000  0.76740000  0.39814000  1.0
  C  C128  1  0.31782000  0.23744000  0.58942000  1.0
  C  C129  1  0.79559000  0.49807000  0.00860000  1.0
  C  C130  1  0.19190000  0.49525000  0.01198000  1.0
  C  C131  1  0.99091000  0.70070000  0.99288000  1.0
  C  C132  1  0.99607000  0.29875000  0.00802000  1.0
  C  C133  1  0.20932000  0.22634000  0.82893000  1.0
  C  C134  1  0.78196000  0.76900000  0.16342000  1.0
  C  C135  1  0.01144000  0.22290000  0.81729000  1.0
  C  C136  1  0.98272000  0.77589000  0.17711000  1.0
  C  C137  1  0.70363000  0.10678000  0.35036000  1.0
  C  C138  1  0.28017000  0.88022000  0.65241000  1.0
  C  C139  1  0.67615000  0.00521000  0.58075000  1.0
  C  C140  1  0.28161000  0.87858000  0.46241000  1.0
  C  C141  1  0.44050000  0.26197000  0.22369000  1.0
  C  C142  1  0.69521000  0.77455000  0.83554000  1.0
  C  C143  1  0.43127000  0.44688000  0.22956000  1.0
  C  C144  1  0.63095000  0.57731000  0.80359000  1.0
  Cl  Cl145  1  0.95289000  0.58052000  0.64317000  1.0
  O  O146  1  0.42313000  0.66466000  0.25982000  1.0
  O  O147  1  0.76647000  0.34356000  0.91979000  1.0
  O  O148  1  0.57083000  0.34175000  0.73231000  1.0
  O  O149  1  0.23016000  0.66251000  0.07745000  1.0
  O  O150  1  0.23359000  0.82547000  0.25493000  1.0
  O  O151  1  0.58405000  0.81640000  0.93189000  1.0
  O  O152  1  0.75965000  0.19239000  0.72115000  1.0
  O  O153  1  0.42142000  0.19776000  0.06999000  1.0
  O  O154  1  0.57028000  0.99810000  0.26180000  1.0
  O  O155  1  0.23011000  0.99546000  0.92348000  1.0
  O  O156  1  0.42696000  0.00676000  0.72874000  1.0
  O  O157  1  0.76106000  0.99853000  0.07200000  1.0
  O  O158  1  0.23214000  0.00304000  0.07341000  1.0
  O  O159  1  0.57117000  0.98994000  0.73911000  1.0
  O  O160  1  0.76379000  0.00305000  0.91600000  1.0
  O  O161  1  0.43017000  0.02261000  0.24931000  1.0
  O  O162  1  0.22976000  0.66963000  0.25318000  1.0
  O  O163  1  0.58334000  0.34138000  0.92930000  1.0
  O  O164  1  0.75139000  0.33899000  0.72780000  1.0
  O  O165  1  0.42873000  0.66013000  0.07960000  1.0
  O  O166  1  0.23243000  0.81276000  0.92015000  1.0
  O  O167  1  0.57642000  0.81716000  0.25660000  1.0
  O  O168  1  0.75615000  0.18828000  0.07986000  1.0
  O  O169  1  0.42668000  0.18750000  0.72812000  1.0
  O  O170  1  0.43066000  0.86555000  0.93133000  1.0
  O  O171  1  0.43071000  0.13901000  0.92800000  1.0
  O  O172  1  0.70070000  0.13843000  0.92646000  1.0
  O  O173  1  0.43002000  0.87144000  0.19580000  1.0
  O  O174  1  0.54875000  0.10411000  0.04468000  1.0
  O  O175  1  0.54871000  0.90482000  0.04526000  1.0
  O  O176  1  0.54688000  0.10042000  0.84794000  1.0
  O  O177  1  0.34968000  0.90622000  0.04444000  1.0
