# generated using pymatgen
data_K2H16C14S2O11
_symmetry_space_group_name_H-M   'P 1'
_cell_length_a   6.19927000
_cell_length_b   10.40270000
_cell_length_c   16.04990000
_cell_angle_alpha   82.80870000
_cell_angle_beta   89.98390000
_cell_angle_gamma   72.69300000
_symmetry_Int_Tables_number   1
_chemical_formula_structural   K2H16C14S2O11
_chemical_formula_sum   'K4 H32 C28 S4 O22'
_cell_volume   979.66220967
_cell_formula_units_Z   2
loop_
 _symmetry_equiv_pos_site_id
 _symmetry_equiv_pos_as_xyz
  1  'x, y, z'
loop_
 _atom_site_type_symbol
 _atom_site_label
 _atom_site_symmetry_multiplicity
 _atom_site_fract_x
 _atom_site_fract_y
 _atom_site_fract_z
 _atom_site_occupancy
  K  K0  1  0.24921000  0.97247000  0.89362000  1.0
  K  K1  1  0.22162000  0.02773000  0.60657000  1.0
  K  K2  1  0.75078000  0.02752000  0.10638000  1.0
  K  K3  1  0.77838000  0.97226000  0.39343000  1.0
  H  H4  1  0.60382000  0.78561000  0.75950000  1.0
  H  H5  1  0.38964000  0.21492000  0.74051000  1.0
  H  H6  1  0.39618000  0.21439000  0.24050000  1.0
  H  H7  1  0.61037000  0.78508000  0.25949000  1.0
  H  H8  1  0.27222000  0.42818000  0.94441000  1.0
  H  H9  1  0.70072000  0.57180000  0.55561000  1.0
  H  H10  1  0.72778000  0.57182000  0.05559000  1.0
  H  H11  1  0.29929000  0.42820000  0.44439000  1.0
  H  H12  1  0.85251000  0.56076000  0.76868000  1.0
  H  H13  1  0.41250000  0.44004000  0.73150000  1.0
  H  H14  1  0.14750000  0.43924000  0.23132000  1.0
  H  H15  1  0.58750000  0.55996000  0.26849000  1.0
  H  H16  1  0.89137000  0.31654000  0.81162000  1.0
  H  H17  1  0.20700000  0.68421000  0.68858000  1.0
  H  H18  1  0.10863000  0.68346000  0.18838000  1.0
  H  H19  1  0.79300000  0.31579000  0.31142000  1.0
  H  H20  1  0.94733000  0.60908000  0.91766000  1.0
  H  H21  1  0.55699000  0.39094000  0.58241000  1.0
  H  H22  1  0.05267000  0.39092000  0.08234000  1.0
  H  H23  1  0.44302000  0.60906000  0.41759000  1.0
  H  H24  1  0.09165000  0.61844000  0.01329000  1.0
  H  H25  1  0.71062000  0.38189000  0.48676000  1.0
  H  H26  1  0.90835000  0.38157000  0.98671000  1.0
  H  H27  1  0.28938000  0.61811000  0.51324000  1.0
  H  H28  1  0.90200000  0.76862000  0.95715000  1.0
  H  H29  1  0.67101000  0.23158000  0.54277000  1.0
  H  H30  1  0.09800000  0.23138000  0.04285000  1.0
  H  H31  1  0.32899000  0.76841000  0.45723000  1.0
  H  H32  1  0.83418000  0.06358000  0.77179000  1.0
  H  H33  1  0.89729000  0.93656000  0.72816000  1.0
  H  H34  1  0.16582000  0.93641000  0.22821000  1.0
  H  H35  1  0.10270000  0.06344000  0.27184000  1.0
  C  C36  1  0.58195000  0.35950000  0.88006000  1.0
  C  C37  1  0.94108000  0.64088000  0.62004000  1.0
  C  C38  1  0.41806000  0.64050000  0.11994000  1.0
  C  C39  1  0.05892000  0.35913000  0.37996000  1.0
  C  C40  1  0.39745000  0.45910000  0.90617000  1.0
  C  C41  1  0.85659000  0.54108000  0.59393000  1.0
  C  C42  1  0.60255000  0.54090000  0.09383000  1.0
  C  C43  1  0.14342000  0.45892000  0.40607000  1.0
  C  C44  1  0.74726000  0.39459000  0.83118000  1.0
  C  C45  1  0.14132000  0.60605000  0.66891000  1.0
  C  C46  1  0.25274000  0.60541000  0.16882000  1.0
  C  C47  1  0.85867000  0.39395000  0.33108000  1.0
  C  C48  1  0.72522000  0.53155000  0.80685000  1.0
  C  C49  1  0.25632000  0.46913000  0.69323000  1.0
  C  C50  1  0.27477000  0.46845000  0.19315000  1.0
  C  C51  1  0.74367000  0.53088000  0.30677000  1.0
  C  C52  1  0.37603000  0.59611000  0.88179000  1.0
  C  C53  1  0.97230000  0.40411000  0.61827000  1.0
  C  C54  1  0.62397000  0.40389000  0.11820000  1.0
  C  C55  1  0.02770000  0.59589000  0.38173000  1.0
  C  C56  1  0.53985000  0.63294000  0.83034000  1.0
  C  C57  1  0.17278000  0.36750000  0.66974000  1.0
  C  C58  1  0.46015000  0.36706000  0.16966000  1.0
  C  C59  1  0.82721000  0.63249000  0.33026000  1.0
  C  C60  1  0.02618000  0.67127000  0.95055000  1.0
  C  C61  1  0.69792000  0.32891000  0.54944000  1.0
  C  C62  1  0.97383000  0.32873000  0.04945000  1.0
  C  C63  1  0.30209000  0.67108000  0.45056000  1.0
  S  S64  1  0.60228000  0.18532000  0.90328000  1.0
  S  S65  1  0.78690000  0.81493000  0.59666000  1.0
  S  S66  1  0.39772000  0.81468000  0.09672000  1.0
  S  S67  1  0.21309000  0.18507000  0.40333000  1.0
  O  O68  1  0.42618000  0.17285000  0.96184000  1.0
  O  O69  1  0.59871000  0.82707000  0.53806000  1.0
  O  O70  1  0.57382000  0.82716000  0.03817000  1.0
  O  O71  1  0.40129000  0.17292000  0.46193000  1.0
  O  O72  1  0.83284000  0.11470000  0.93678000  1.0
  O  O73  1  0.94678000  0.88574000  0.56319000  1.0
  O  O74  1  0.16716000  0.88530000  0.06323000  1.0
  O  O75  1  0.05322000  0.11426000  0.43681000  1.0
  O  O76  1  0.56428000  0.14123000  0.82054000  1.0
  O  O77  1  0.70440000  0.85909000  0.67937000  1.0
  O  O78  1  0.43572000  0.85876000  0.17947000  1.0
  O  O79  1  0.29557000  0.14091000  0.32063000  1.0
  O  O80  1  0.50698000  0.76742000  0.80703000  1.0
  O  O81  1  0.27463000  0.23305000  0.69302000  1.0
  O  O82  1  0.49303000  0.23258000  0.19297000  1.0
  O  O83  1  0.72537000  0.76695000  0.30698000  1.0
  O  O84  1  0.20374000  0.70212000  0.90239000  1.0
  O  O85  1  0.90626000  0.29801000  0.59761000  1.0
  O  O86  1  0.79626000  0.29788000  0.09761000  1.0
  O  O87  1  0.09375000  0.70199000  0.40239000  1.0
  O  O88  1  0.96691000  0.99996000  0.74999000  1.0
  O  O89  1  0.03308000  0.00003000  0.25001000  1.0
