# generated using pymatgen
data_Hg2H10C12I4N4O
_symmetry_space_group_name_H-M   'P 1'
_cell_length_a   8.01454000
_cell_length_b   9.37570000
_cell_length_c   14.32700000
_cell_angle_alpha   89.99970000
_cell_angle_beta   88.90400000
_cell_angle_gamma   89.99980000
_symmetry_Int_Tables_number   1
_chemical_formula_structural   Hg2H10C12I4N4O
_chemical_formula_sum   'Hg4 H20 C24 I8 N8 O2'
_cell_volume   1076.36136975
_cell_formula_units_Z   2
loop_
 _symmetry_equiv_pos_site_id
 _symmetry_equiv_pos_as_xyz
  1  'x, y, z'
loop_
 _atom_site_type_symbol
 _atom_site_label
 _atom_site_symmetry_multiplicity
 _atom_site_fract_x
 _atom_site_fract_y
 _atom_site_fract_z
 _atom_site_occupancy
  Hg  Hg0  1  0.43581000  0.74415000  0.15387000  1.0
  Hg  Hg1  1  0.43581000  0.25585000  0.65388000  1.0
  Hg  Hg2  1  0.55546000  0.90275000  0.84345000  1.0
  Hg  Hg3  1  0.55546000  0.09725000  0.34345000  1.0
  H  H4  1  0.20955000  0.41112000  0.98471000  1.0
  H  H5  1  0.20955000  0.58887000  0.48471000  1.0
  H  H6  1  0.84391000  0.69775000  0.20830000  1.0
  H  H7  1  0.84390000  0.30225000  0.70830000  1.0
  H  H8  1  0.04966000  0.50234000  0.23341000  1.0
  H  H9  1  0.04965000  0.49766000  0.73341000  1.0
  H  H10  1  0.96481000  0.24852000  0.19598000  1.0
  H  H11  1  0.96480000  0.75149000  0.69598000  1.0
  H  H12  1  0.68289000  0.20674000  0.12910000  1.0
  H  H13  1  0.68288000  0.79326000  0.62910000  1.0
  H  H14  1  0.42742000  0.30047000  0.06433000  1.0
  H  H15  1  0.42741000  0.69953000  0.56433000  1.0
  H  H16  1  0.95965000  0.34453000  0.96788000  1.0
  H  H17  1  0.95965000  0.65546000  0.46788000  1.0
  H  H18  1  0.68395000  0.32261000  0.89353000  1.0
  H  H19  1  0.68395000  0.67739000  0.39353000  1.0
  H  H20  1  0.52187000  0.54482000  0.85813000  1.0
  H  H21  1  0.52186000  0.45518000  0.35813000  1.0
  H  H22  1  0.89713000  0.80338000  0.95983000  1.0
  H  H23  1  0.89714000  0.19661000  0.45982000  1.0
  C  C24  1  0.81296000  0.58741000  0.19142000  1.0
  C  C25  1  0.81295000  0.41260000  0.69142000  1.0
  C  C26  1  0.92743000  0.47724000  0.20548000  1.0
  C  C27  1  0.92742000  0.52277000  0.70548000  1.0
  C  C28  1  0.88084000  0.33805000  0.18425000  1.0
  C  C29  1  0.88083000  0.66196000  0.68425000  1.0
  C  C30  1  0.72355000  0.31403000  0.14767000  1.0
  C  C31  1  0.72354000  0.68598000  0.64766000  1.0
  C  C32  1  0.61691000  0.43001000  0.13376000  1.0
  C  C33  1  0.61691000  0.56999000  0.63376000  1.0
  C  C34  1  0.45711000  0.40816000  0.08897000  1.0
  C  C35  1  0.45711000  0.59185000  0.58897000  1.0
  C  C36  1  0.10426000  0.60808000  0.02410000  1.0
  C  C37  1  0.10425000  0.39192000  0.52410000  1.0
  C  C38  1  0.95022000  0.57753000  0.97127000  1.0
  C  C39  1  0.95021000  0.42246000  0.47127000  1.0
  C  C40  1  0.89037000  0.44080000  0.95068000  1.0
  C  C41  1  0.89037000  0.55919000  0.45068000  1.0
  C  C42  1  0.73501000  0.42732000  0.90956000  1.0
  C  C43  1  0.73501000  0.57268000  0.40956000  1.0
  C  C44  1  0.64518000  0.55016000  0.88941000  1.0
  C  C45  1  0.64518000  0.44984000  0.38941000  1.0
  C  C46  1  0.85264000  0.69531000  0.94652000  1.0
  C  C47  1  0.85263000  0.30468000  0.44652000  1.0
  I  I48  1  0.29306000  0.74534000  0.33096000  1.0
  I  I49  1  0.29307000  0.25466000  0.83096000  1.0
  I  I50  1  0.48067000  0.98353000  0.04950000  1.0
  I  I51  1  0.48066000  0.01648000  0.54949000  1.0
  I  I52  1  0.27686000  0.76779000  0.79176000  1.0
  I  I53  1  0.27686000  0.23221000  0.29176000  1.0
  I  I54  1  0.84033000  0.04692000  0.81076000  1.0
  I  I55  1  0.84032000  0.95307000  0.31076000  1.0
  N  N56  1  0.66128000  0.56448000  0.15702000  1.0
  N  N57  1  0.66127000  0.43553000  0.65702000  1.0
  N  N58  1  0.35875000  0.51519000  0.07684000  1.0
  N  N59  1  0.35875000  0.48480000  0.57684000  1.0
  N  N60  1  0.21710000  0.49677000  0.02931000  1.0
  N  N61  1  0.21710000  0.50323000  0.52931000  1.0
  N  N62  1  0.70461000  0.68134000  0.90633000  1.0
  N  N63  1  0.70462000  0.31865000  0.40633000  1.0
  O  O64  1  0.12591000  0.72257000  0.06476000  1.0
  O  O65  1  0.12591000  0.27743000  0.56476000  1.0
