# generated using pymatgen
data_ZnH11C10N4ClO4
_symmetry_space_group_name_H-M   'P 1'
_cell_length_a   8.10368000
_cell_length_b   8.10365000
_cell_length_c   10.95460000
_cell_angle_alpha   73.06720000
_cell_angle_beta   73.06700000
_cell_angle_gamma   75.98390000
_symmetry_Int_Tables_number   1
_chemical_formula_structural   ZnH11C10N4ClO4
_chemical_formula_sum   'Zn2 H22 C20 N8 Cl2 O8'
_cell_volume   648.55231726
_cell_formula_units_Z   2
loop_
 _symmetry_equiv_pos_site_id
 _symmetry_equiv_pos_as_xyz
  1  'x, y, z'
loop_
 _atom_site_type_symbol
 _atom_site_label
 _atom_site_symmetry_multiplicity
 _atom_site_fract_x
 _atom_site_fract_y
 _atom_site_fract_z
 _atom_site_occupancy
  Zn  Zn0  1  0.51769000  0.17762000  0.00107000  1.0
  Zn  Zn1  1  0.17762000  0.51770000  0.50107000  1.0
  H  H2  1  0.33594000  0.96368000  0.89686000  1.0
  H  H3  1  0.96367000  0.33594000  0.39686000  1.0
  H  H4  1  0.68642000  0.67994000  0.26419000  1.0
  H  H5  1  0.67994000  0.68642000  0.76419000  1.0
  H  H6  1  0.46870000  0.63882000  0.31355000  1.0
  H  H7  1  0.63882000  0.46870000  0.81356000  1.0
  H  H8  1  0.91128000  0.52538000  0.09877000  1.0
  H  H9  1  0.52538000  0.91128000  0.59877000  1.0
  H  H10  1  0.88944000  0.29251000  0.96129000  1.0
  H  H11  1  0.29252000  0.88944000  0.46128000  1.0
  H  H12  1  0.38257000  0.46512000  0.17705000  1.0
  H  H13  1  0.46512000  0.38257000  0.67705000  1.0
  H  H14  1  0.91640000  0.89442000  0.64232000  1.0
  H  H15  1  0.89442000  0.91640000  0.14232000  1.0
  H  H16  1  0.95654000  0.11160000  0.60927000  1.0
  H  H17  1  0.11160000  0.95654000  0.10926000  1.0
  H  H18  1  0.03504000  0.65845000  0.82301000  1.0
  H  H19  1  0.65845000  0.03503000  0.32301000  1.0
  H  H20  1  0.28352000  0.65089000  0.95726000  1.0
  H  H21  1  0.65089000  0.28351000  0.45726000  1.0
  H  H22  1  0.14129000  0.17220000  0.74617000  1.0
  H  H23  1  0.17220000  0.14129000  0.24617000  1.0
  C  C24  1  0.51656000  0.84076000  0.13572000  1.0
  C  C25  1  0.84076000  0.51656000  0.63573000  1.0
  C  C26  1  0.57778000  0.66869000  0.22823000  1.0
  C  C27  1  0.66869000  0.57778000  0.72823000  1.0
  C  C28  1  0.80086000  0.47864000  0.09104000  1.0
  C  C29  1  0.47864000  0.80086000  0.59104000  1.0
  C  C30  1  0.78782000  0.36370000  0.02530000  1.0
  C  C31  1  0.36371000  0.78783000  0.52530000  1.0
  C  C32  1  0.52289000  0.44819000  0.13524000  1.0
  C  C33  1  0.44819000  0.52289000  0.63524000  1.0
  C  C34  1  0.73329000  0.05573000  0.76901000  1.0
  C  C35  1  0.05573000  0.73329000  0.26900000  1.0
  C  C36  1  0.91808000  0.99787000  0.68763000  1.0
  C  C37  1  0.99787000  0.91808000  0.18762000  1.0
  C  C38  1  0.09224000  0.76180000  0.83069000  1.0
  C  C39  1  0.76180000  0.09224000  0.33069000  1.0
  C  C40  1  0.21583000  0.75789000  0.89449000  1.0
  C  C41  1  0.75789000  0.21583000  0.39449000  1.0
  C  C42  1  0.14519000  0.03279000  0.78601000  1.0
  C  C43  1  0.03279000  0.14518000  0.28601000  1.0
  N  N44  1  0.61374000  0.34640000  0.05357000  1.0
  N  N45  1  0.34640000  0.61374000  0.55357000  1.0
  N  N46  1  0.63257000  0.52827000  0.16110000  1.0
  N  N47  1  0.52827000  0.63257000  0.66110000  1.0
  N  N48  1  0.05068000  0.93413000  0.76370000  1.0
  N  N49  1  0.93412000  0.05067000  0.26370000  1.0
  N  N50  1  0.24591000  0.92703000  0.86486000  1.0
  N  N51  1  0.92703000  0.24591000  0.36487000  1.0
  Cl  Cl52  1  0.25533000  0.28961000  0.95850000  1.0
  Cl  Cl53  1  0.28961000  0.25533000  0.45850000  1.0
  O  O54  1  0.45969000  0.83664000  0.04233000  1.0
  O  O55  1  0.83664000  0.45970000  0.54233000  1.0
  O  O56  1  0.53056000  0.98038000  0.16299000  1.0
  O  O57  1  0.98038000  0.53056000  0.66299000  1.0
  O  O58  1  0.73217000  0.10865000  0.86950000  1.0
  O  O59  1  0.10865000  0.73217000  0.36949000  1.0
  O  O60  1  0.60512000  0.05248000  0.72950000  1.0
  O  O61  1  0.05248000  0.60512000  0.22950000  1.0
