# generated using pymatgen
data_Cu5H18C24(N6O5)2
_symmetry_space_group_name_H-M   'P 1'
_cell_length_a   10.51300000
_cell_length_b   10.83240000
_cell_length_c   15.20570000
_cell_angle_alpha   77.04200000
_cell_angle_beta   80.90840000
_cell_angle_gamma   79.35760000
_symmetry_Int_Tables_number   1
_chemical_formula_structural   Cu5H18C24(N6O5)2
_chemical_formula_sum   'Cu10 H36 C48 N24 O20'
_cell_volume   1646.17985359
_cell_formula_units_Z   2
loop_
 _symmetry_equiv_pos_site_id
 _symmetry_equiv_pos_as_xyz
  1  'x, y, z'
loop_
 _atom_site_type_symbol
 _atom_site_label
 _atom_site_symmetry_multiplicity
 _atom_site_fract_x
 _atom_site_fract_y
 _atom_site_fract_z
 _atom_site_occupancy
  Cu  Cu0  1  0.15809000  0.51054000  0.15985000  1.0
  Cu  Cu1  1  0.92303000  0.76825000  0.09210000  1.0
  Cu  Cu2  1  0.31970000  0.49129000  0.34322000  1.0
  Cu  Cu3  1  0.62129000  0.60680000  0.28108000  1.0
  Cu  Cu4  1  0.84191000  0.48947000  0.84015000  1.0
  Cu  Cu5  1  0.07697000  0.23176000  0.90790000  1.0
  Cu  Cu6  1  0.68030000  0.50871000  0.65678000  1.0
  Cu  Cu7  1  0.37871000  0.39319000  0.71892000  1.0
  Cu  Cu8  1  0.00000000  0.50000000  0.00000000  1.0
  Cu  Cu9  1  0.50000000  0.50000000  0.50000000  1.0
  H  H10  1  0.91138000  0.49895000  0.16785000  1.0
  H  H11  1  0.39649000  0.67547000  0.38532000  1.0
  H  H12  1  0.15688000  0.83150000  0.35201000  1.0
  H  H13  1  0.97987000  0.95008000  0.22580000  1.0
  H  H14  1  0.61428000  0.65846000  0.06208000  1.0
  H  H15  1  0.39243000  0.60317000  0.00343000  1.0
  H  H16  1  0.30591000  0.07860000  0.04767000  1.0
  H  H17  1  0.34544000  0.21733000  0.17421000  1.0
  H  H18  1  0.92941000  0.62172000  0.51611000  1.0
  H  H19  1  0.89423000  0.68145000  0.33028000  1.0
  H  H20  1  0.97699000  0.40178000  0.30881000  1.0
  H  H21  1  0.75333000  0.09211000  0.39568000  1.0
  H  H22  1  0.95812000  0.93816000  0.42007000  1.0
  H  H23  1  0.17356000  0.01951000  0.39212000  1.0
  H  H24  1  0.17800000  0.00995000  0.92202000  1.0
  H  H25  1  0.49247000  0.98580000  0.70245000  1.0
  H  H26  1  0.48806000  0.75437000  0.72257000  1.0
  H  H27  1  0.32998000  0.64861000  0.84604000  1.0
  H  H28  1  0.08862000  0.50105000  0.83215000  1.0
  H  H29  1  0.60351000  0.32453000  0.61468000  1.0
  H  H30  1  0.84312000  0.16850000  0.64799000  1.0
  H  H31  1  0.02013000  0.04992000  0.77420000  1.0
  H  H32  1  0.38572000  0.34154000  0.93791000  1.0
  H  H33  1  0.60757000  0.39683000  0.99657000  1.0
  H  H34  1  0.69409000  0.92140000  0.95233000  1.0
  H  H35  1  0.65456000  0.78267000  0.82579000  1.0
  H  H36  1  0.07059000  0.37828000  0.48389000  1.0
  H  H37  1  0.10577000  0.31855000  0.66971000  1.0
  H  H38  1  0.02300000  0.59822000  0.69119000  1.0
  H  H39  1  0.24667000  0.90789000  0.60433000  1.0
  H  H40  1  0.04188000  0.06184000  0.57994000  1.0
  H  H41  1  0.82644000  0.98049000  0.60789000  1.0
  H  H42  1  0.82200000  0.99005000  0.07798000  1.0
  H  H43  1  0.50753000  0.01420000  0.29755000  1.0
  H  H44  1  0.51194000  0.24563000  0.27743000  1.0
  H  H45  1  0.67002000  0.35139000  0.15395000  1.0
  C  C46  1  0.12297000  0.79528000  0.30049000  1.0
  C  C47  1  0.03564000  0.85451000  0.23806000  1.0
  C  C48  1  0.53088000  0.61650000  0.09924000  1.0
  C  C49  1  0.42257000  0.58870000  0.07027000  1.0
  C  C50  1  0.26098000  0.17280000  0.05950000  1.0
  C  C51  1  0.28012000  0.24105000  0.12235000  1.0
  C  C52  1  0.84907000  0.61478000  0.48170000  1.0
  C  C53  1  0.83156000  0.64496000  0.39028000  1.0
  C  C54  1  0.08847000  0.21488000  0.34743000  1.0
  C  C55  1  0.97332000  0.29972000  0.33150000  1.0
  C  C56  1  0.85318000  0.25602000  0.34863000  1.0
  C  C57  1  0.84771000  0.12523000  0.38090000  1.0
  C  C58  1  0.96293000  0.03971000  0.39444000  1.0
  C  C59  1  0.08291000  0.08388000  0.37841000  1.0
  C  C60  1  0.21509000  0.26507000  0.33782000  1.0
  C  C61  1  0.73234000  0.35307000  0.33786000  1.0
  C  C62  1  0.24704000  0.82346000  0.89143000  1.0
  C  C63  1  0.24781000  0.95536000  0.87827000  1.0
  C  C64  1  0.33662000  0.01427000  0.81070000  1.0
  C  C65  1  0.42390000  0.94002000  0.75555000  1.0
  C  C66  1  0.42179000  0.80898000  0.76771000  1.0
  C  C67  1  0.33435000  0.75053000  0.83607000  1.0
  C  C68  1  0.15233000  0.75863000  0.96338000  1.0
  C  C69  1  0.33941000  0.15463000  0.79348000  1.0
  C  C70  1  0.87703000  0.20472000  0.69951000  1.0
  C  C71  1  0.96436000  0.14550000  0.76194000  1.0
  C  C72  1  0.46911000  0.38350000  0.90076000  1.0
  C  C73  1  0.57743000  0.41130000  0.92973000  1.0
  C  C74  1  0.73902000  0.82720000  0.94050000  1.0
  C  C75  1  0.71988000  0.75896000  0.87765000  1.0
  C  C76  1  0.15093000  0.38523000  0.51830000  1.0
  C  C77  1  0.16844000  0.35504000  0.60972000  1.0
  C  C78  1  0.91153000  0.78512000  0.65257000  1.0
  C  C79  1  0.02668000  0.70028000  0.66850000  1.0
  C  C80  1  0.14682000  0.74398000  0.65138000  1.0
  C  C81  1  0.15229000  0.87477000  0.61911000  1.0
  C  C82  1  0.03707000  0.96029000  0.60557000  1.0
  C  C83  1  0.91710000  0.91612000  0.62160000  1.0
  C  C84  1  0.78491000  0.73493000  0.66218000  1.0
  C  C85  1  0.26765000  0.64693000  0.66214000  1.0
  C  C86  1  0.75296000  0.17654000  0.10857000  1.0
  C  C87  1  0.75220000  0.04464000  0.12173000  1.0
  C  C88  1  0.66338000  0.98573000  0.18930000  1.0
  C  C89  1  0.57610000  0.05998000  0.24445000  1.0
  C  C90  1  0.57821000  0.19102000  0.23229000  1.0
  C  C91  1  0.66565000  0.24947000  0.16393000  1.0
  C  C92  1  0.84767000  0.24137000  0.03662000  1.0
  C  C93  1  0.66059000  0.84537000  0.20652000  1.0
  N  N94  1  0.02723000  0.76635000  0.18980000  1.0
  N  N95  1  0.10656000  0.65871000  0.22119000  1.0
  N  N96  1  0.16507000  0.67408000  0.28819000  1.0
  N  N97  1  0.34860000  0.53575000  0.14543000  1.0
  N  N98  1  0.40816000  0.53073000  0.21734000  1.0
  N  N99  1  0.51795000  0.58044000  0.19082000  1.0
  N  N100  1  0.19766000  0.35346000  0.10853000  1.0
  N  N101  1  0.13178000  0.35473000  0.04050000  1.0
  N  N102  1  0.16864000  0.24686000  0.00953000  1.0
  N  N103  1  0.71236000  0.61940000  0.38451000  1.0
  N  N104  1  0.65906000  0.57512000  0.46807000  1.0
  N  N105  1  0.74000000  0.57105000  0.52797000  1.0
  N  N106  1  0.97277000  0.23365000  0.81020000  1.0
  N  N107  1  0.89344000  0.34129000  0.77881000  1.0
  N  N108  1  0.83493000  0.32592000  0.71181000  1.0
  N  N109  1  0.65140000  0.46424000  0.85457000  1.0
  N  N110  1  0.59184000  0.46927000  0.78266000  1.0
  N  N111  1  0.48205000  0.41956000  0.80918000  1.0
  N  N112  1  0.80233000  0.64654000  0.89147000  1.0
  N  N113  1  0.86822000  0.64526000  0.95949000  1.0
  N  N114  1  0.83136000  0.75314000  0.99047000  1.0
  N  N115  1  0.28764000  0.38060000  0.61549000  1.0
  N  N116  1  0.34094000  0.42487000  0.53192000  1.0
  N  N117  1  0.26000000  0.42895000  0.47203000  1.0
  O  O118  1  0.20580000  0.38981000  0.30662000  1.0
  O  O119  1  0.31563000  0.19313000  0.36067000  1.0
  O  O120  1  0.74724000  0.45001000  0.27043000  1.0
  O  O121  1  0.63124000  0.34045000  0.39226000  1.0
  O  O122  1  0.16633000  0.63796000  0.98224000  1.0
  O  O123  1  0.06193000  0.83543000  0.00062000  1.0
  O  O124  1  0.24579000  0.23383000  0.82488000  1.0
  O  O125  1  0.43756000  0.19723000  0.74349000  1.0
  O  O126  1  0.97618000  0.54356000  0.12438000  1.0
  O  O127  1  0.43936000  0.58858000  0.38133000  1.0
  O  O128  1  0.79420000  0.61019000  0.69338000  1.0
  O  O129  1  0.68437000  0.80688000  0.63933000  1.0
  O  O130  1  0.25276000  0.54998000  0.72957000  1.0
  O  O131  1  0.36876000  0.65954000  0.60774000  1.0
  O  O132  1  0.83367000  0.36205000  0.01775000  1.0
  O  O133  1  0.93807000  0.16457000  0.99938000  1.0
  O  O134  1  0.75422000  0.76617000  0.17512000  1.0
  O  O135  1  0.56244000  0.80277000  0.25651000  1.0
  O  O136  1  0.02382000  0.45644000  0.87562000  1.0
  O  O137  1  0.56065000  0.41142000  0.61867000  1.0
