# generated using pymatgen
data_NdH5C10O9
_symmetry_space_group_name_H-M   'P 1'
_cell_length_a   6.31618000
_cell_length_b   9.38796000
_cell_length_c   9.67409000
_cell_angle_alpha   87.79530000
_cell_angle_beta   73.93250000
_cell_angle_gamma   76.84140000
_symmetry_Int_Tables_number   1
_chemical_formula_structural   NdH5C10O9
_chemical_formula_sum   'Nd2 H10 C20 O18'
_cell_volume   536.56918658
_cell_formula_units_Z   2
loop_
 _symmetry_equiv_pos_site_id
 _symmetry_equiv_pos_as_xyz
  1  'x, y, z'
loop_
 _atom_site_type_symbol
 _atom_site_label
 _atom_site_symmetry_multiplicity
 _atom_site_fract_x
 _atom_site_fract_y
 _atom_site_fract_z
 _atom_site_occupancy
  Nd  Nd0  1  0.84723000  0.44117000  0.22109000  1.0
  Nd  Nd1  1  0.15277000  0.55883000  0.77890000  1.0
  H  H2  1  0.01478000  0.92178000  0.76280000  1.0
  H  H3  1  0.98522000  0.07822000  0.23720000  1.0
  H  H4  1  0.29716000  0.55222000  0.13602000  1.0
  H  H5  1  0.70284000  0.44779000  0.86397000  1.0
  H  H6  1  0.17827000  0.59586000  0.29845000  1.0
  H  H7  1  0.82173000  0.40414000  0.70155000  1.0
  H  H8  1  0.32282000  0.84273000  0.38964000  1.0
  H  H9  1  0.67718000  0.15726000  0.61037000  1.0
  H  H10  1  0.79069000  0.93481000  0.13288000  1.0
  H  H11  1  0.20932000  0.06520000  0.86711000  1.0
  C  C12  1  0.83122000  0.87437000  0.65053000  1.0
  C  C13  1  0.16878000  0.12561000  0.34948000  1.0
  C  C14  1  0.66156000  0.93646000  0.57173000  1.0
  C  C15  1  0.33844000  0.06354000  0.42827000  1.0
  C  C16  1  0.39979000  0.91110000  0.44006000  1.0
  C  C17  1  0.60020000  0.08890000  0.55994000  1.0
  C  C18  1  0.56026000  0.84494000  0.51094000  1.0
  C  C19  1  0.43974000  0.15505000  0.48906000  1.0
  C  C20  1  0.60879000  0.67900000  0.51851000  1.0
  C  C21  1  0.39121000  0.32099000  0.48149000  1.0
  C  C22  1  0.69088000  0.22299000  0.08741000  1.0
  C  C23  1  0.30911000  0.77701000  0.91259000  1.0
  C  C24  1  0.59246000  0.10938000  0.04060000  1.0
  C  C25  1  0.40754000  0.89062000  0.95939000  1.0
  C  C26  1  0.42738000  0.14595000  0.96539000  1.0
  C  C27  1  0.57262000  0.85405000  0.03461000  1.0
  C  C28  1  0.34555000  0.29693000  0.91788000  1.0
  C  C29  1  0.65445000  0.70307000  0.08212000  1.0
  C  C30  1  0.66358000  0.96320000  0.07392000  1.0
  C  C31  1  0.33641000  0.03680000  0.92609000  1.0
  O  O32  1  0.77816000  0.60559000  0.42630000  1.0
  O  O33  1  0.22184000  0.39440000  0.57369000  1.0
  O  O34  1  0.46628000  0.62595000  0.61238000  1.0
  O  O35  1  0.53373000  0.37405000  0.38761000  1.0
  O  O36  1  0.89410000  0.74008000  0.66431000  1.0
  O  O37  1  0.10589000  0.25993000  0.33569000  1.0
  O  O38  1  0.90797000  0.97315000  0.70488000  1.0
  O  O39  1  0.09202000  0.02685000  0.29512000  1.0
  O  O40  1  0.84978000  0.18305000  0.14922000  1.0
  O  O41  1  0.15022000  0.81694000  0.85077000  1.0
  O  O42  1  0.61748000  0.35758000  0.06786000  1.0
  O  O43  1  0.38252000  0.64242000  0.93214000  1.0
  O  O44  1  0.45409000  0.33922000  0.79899000  1.0
  O  O45  1  0.54591000  0.66078000  0.20101000  1.0
  O  O46  1  0.15540000  0.37478000  0.98999000  1.0
  O  O47  1  0.84460000  0.62523000  0.01001000  1.0
  O  O48  1  0.15449000  0.56184000  0.21150000  1.0
  O  O49  1  0.84550000  0.43815000  0.78850000  1.0
