# generated using pymatgen
data_AlH6C27N7(OF)6
_symmetry_space_group_name_H-M   'P 1'
_cell_length_a   3.94755000
_cell_length_b   18.06840000
_cell_length_c   18.17830000
_cell_angle_alpha   119.68900000
_cell_angle_beta   92.21560000
_cell_angle_gamma   91.11860000
_symmetry_Int_Tables_number   1
_chemical_formula_structural   AlH6C27N7(OF)6
_chemical_formula_sum   'Al1 H6 C27 N7 O6 F6'
_cell_volume   1124.41752968
_cell_formula_units_Z   1
loop_
 _symmetry_equiv_pos_site_id
 _symmetry_equiv_pos_as_xyz
  1  'x, y, z'
loop_
 _atom_site_type_symbol
 _atom_site_label
 _atom_site_symmetry_multiplicity
 _atom_site_fract_x
 _atom_site_fract_y
 _atom_site_fract_z
 _atom_site_occupancy
  Al  Al0  1  0.00315000  0.00049000  0.50029000  1.0
  H  H1  1  0.49385000  0.31471000  0.41571000  1.0
  H  H2  1  0.55127000  0.08054000  0.89504000  1.0
  H  H3  1  0.50669000  0.60805000  0.18367000  1.0
  H  H4  1  0.53811000  0.31897000  0.89305000  1.0
  H  H5  1  0.47985000  0.60132000  0.41800000  1.0
  H  H6  1  0.53404000  0.07541000  0.18102000  1.0
  C  C7  1  0.49854000  0.06492000  0.43343000  1.0
  C  C8  1  0.52957000  0.06661000  0.63066000  1.0
  C  C9  1  0.48160000  0.86935000  0.43563000  1.0
  C  C10  1  0.50125000  0.24548000  0.38211000  1.0
  C  C11  1  0.51526000  0.19992000  0.29348000  1.0
  C  C12  1  0.55026000  0.11523000  0.86032000  1.0
  C  C13  1  0.54570000  0.20457000  0.90378000  1.0
  C  C14  1  0.49494000  0.59491000  0.29590000  1.0
  C  C15  1  0.49867000  0.64091000  0.25240000  1.0
  C  C16  1  0.53941000  0.24964000  0.85928000  1.0
  C  C17  1  0.53427000  0.20392000  0.77157000  1.0
  C  C18  1  0.54107000  0.11462000  0.72541000  1.0
  C  C19  1  0.55076000  0.07249000  0.77270000  1.0
  C  C20  1  0.49188000  0.72891000  0.29885000  1.0
  C  C21  1  0.47598000  0.77407000  0.38747000  1.0
  C  C22  1  0.46751000  0.72522000  0.42802000  1.0
  C  C23  1  0.48002000  0.63720000  0.38447000  1.0
  C  C24  1  0.52174000  0.11059000  0.24966000  1.0
  C  C25  1  0.51178000  0.06846000  0.29581000  1.0
  C  C26  1  0.50111000  0.11135000  0.38437000  1.0
  C  C27  1  0.49718000  0.20051000  0.42541000  1.0
  C  C28  1  0.51100000  0.37682000  0.25290000  1.0
  C  C29  1  0.54005000  0.24354000  0.11925000  1.0
  C  C30  1  0.52163000  0.24716000  0.24672000  1.0
  C  C31  1  0.50577000  0.50118000  0.24837000  1.0
  C  C32  1  0.52736000  0.37910000  0.11992000  1.0
  C  C33  1  0.54422000  0.25103000  0.99712000  1.0
  N  N34  1  0.52625000  0.33315000  0.16398000  1.0
  N  N35  1  0.54093000  0.20119000  0.16198000  1.0
  N  N36  1  0.50626000  0.33249000  0.29347000  1.0
  N  N37  1  0.49973000  0.46151000  0.29442000  1.0
  N  N38  1  0.51923000  0.46388000  0.16354000  1.0
  N  N39  1  0.55098000  0.20324000  0.03512000  1.0
  N  N40  1  0.53506000  0.33660000  0.03564000  1.0
  O  O41  1  0.25542000  0.90542000  0.48844000  1.0
  O  O42  1  0.25223000  0.01202000  0.41755000  1.0
  O  O43  1  0.28964000  0.08256000  0.59263000  1.0
  O  O44  1  0.71674000  0.90746000  0.41960000  1.0
  O  O45  1  0.75698000  0.01343000  0.59498000  1.0
  O  O46  1  0.74409000  0.08227000  0.48749000  1.0
  F  F47  1  0.52043000  0.98234000  0.25430000  1.0
  F  F48  1  0.48134000  0.24399000  0.51084000  1.0
  F  F49  1  0.45707000  0.76605000  0.51349000  1.0
  F  F50  1  0.49265000  0.77332000  0.25693000  1.0
  F  F51  1  0.53010000  0.24716000  0.72845000  1.0
  F  F52  1  0.55038000  0.98630000  0.73071000  1.0
