# generated using pymatgen
data_BaH4C6N2O5
_symmetry_space_group_name_H-M   'P 1'
_cell_length_a   7.13236000
_cell_length_b   9.49309000
_cell_length_c   12.34130000
_cell_angle_alpha   89.99910000
_cell_angle_beta   78.41000000
_cell_angle_gamma   89.99900000
_symmetry_Int_Tables_number   1
_chemical_formula_structural   BaH4C6N2O5
_chemical_formula_sum   'Ba4 H16 C24 N8 O20'
_cell_volume   818.56867165
_cell_formula_units_Z   4
loop_
 _symmetry_equiv_pos_site_id
 _symmetry_equiv_pos_as_xyz
  1  'x, y, z'
loop_
 _atom_site_type_symbol
 _atom_site_label
 _atom_site_symmetry_multiplicity
 _atom_site_fract_x
 _atom_site_fract_y
 _atom_site_fract_z
 _atom_site_occupancy
  Ba  Ba0  1  0.47595000  0.90572000  0.36365000  1.0
  Ba  Ba1  1  0.02406000  0.40571000  0.63635000  1.0
  Ba  Ba2  1  0.52405000  0.09428000  0.63635000  1.0
  Ba  Ba3  1  0.97594000  0.59429000  0.36365000  1.0
  H  H4  1  0.34295000  0.92771000  0.11946000  1.0
  H  H5  1  0.15705000  0.42771000  0.88053000  1.0
  H  H6  1  0.65705000  0.07229000  0.88054000  1.0
  H  H7  1  0.84295000  0.57230000  0.11947000  1.0
  H  H8  1  0.39007000  0.77445000  0.15890000  1.0
  H  H9  1  0.10993000  0.27444000  0.84110000  1.0
  H  H10  1  0.60993000  0.22555000  0.84110000  1.0
  H  H11  1  0.89007000  0.72556000  0.15890000  1.0
  H  H12  1  0.18973000  0.43171000  0.09515000  1.0
  H  H13  1  0.31028000  0.93170000  0.90484000  1.0
  H  H14  1  0.81027000  0.56829000  0.90485000  1.0
  H  H15  1  0.68972000  0.06830000  0.09516000  1.0
  H  H16  1  0.31411000  0.20065000  0.00164000  1.0
  H  H17  1  0.18588000  0.70065000  0.99835000  1.0
  H  H18  1  0.68588000  0.79935000  0.99836000  1.0
  H  H19  1  0.81412000  0.29935000  0.00165000  1.0
  C  C20  1  0.85428000  0.20895000  0.39782000  1.0
  C  C21  1  0.64572000  0.70894000  0.60218000  1.0
  C  C22  1  0.14571000  0.79105000  0.60218000  1.0
  C  C23  1  0.35428000  0.29106000  0.39782000  1.0
  C  C24  1  0.99063000  0.93605000  0.27702000  1.0
  C  C25  1  0.50939000  0.43604000  0.72298000  1.0
  C  C26  1  0.00938000  0.06395000  0.72298000  1.0
  C  C27  1  0.49061000  0.56395000  0.27701000  1.0
  C  C28  1  0.98224000  0.20739000  0.28341000  1.0
  C  C29  1  0.51778000  0.70738000  0.71659000  1.0
  C  C30  1  0.01777000  0.79261000  0.71659000  1.0
  C  C31  1  0.48222000  0.29262000  0.28341000  1.0
  C  C32  1  0.04460000  0.08025000  0.22939000  1.0
  C  C33  1  0.45542000  0.58024000  0.77061000  1.0
  C  C34  1  0.95541000  0.91975000  0.77061000  1.0
  C  C35  1  0.54458000  0.41976000  0.22939000  1.0
  C  C36  1  0.14970000  0.32986000  0.13386000  1.0
  C  C37  1  0.35031000  0.82985000  0.86614000  1.0
  C  C38  1  0.85030000  0.67015000  0.86614000  1.0
  C  C39  1  0.64969000  0.17015000  0.13387000  1.0
  C  C40  1  0.21514000  0.20358000  0.08168000  1.0
  C  C41  1  0.28487000  0.70358000  0.91832000  1.0
  C  C42  1  0.78486000  0.79642000  0.91832000  1.0
  C  C43  1  0.71513000  0.29642000  0.08168000  1.0
  N  N44  1  0.03777000  0.33131000  0.23507000  1.0
  N  N45  1  0.46224000  0.83131000  0.76493000  1.0
  N  N46  1  0.96223000  0.66869000  0.76493000  1.0
  N  N47  1  0.53776000  0.16869000  0.23507000  1.0
  N  N48  1  0.16477000  0.07904000  0.13015000  1.0
  N  N49  1  0.33524000  0.57903000  0.86984000  1.0
  N  N50  1  0.83524000  0.92097000  0.86985000  1.0
  N  N51  1  0.66476000  0.42097000  0.13016000  1.0
  O  O52  1  0.76160000  0.09666000  0.42677000  1.0
  O  O53  1  0.73841000  0.59664000  0.57323000  1.0
  O  O54  1  0.23840000  0.90334000  0.57323000  1.0
  O  O55  1  0.26159000  0.40336000  0.42677000  1.0
  O  O56  1  0.44831000  0.86575000  0.13232000  1.0
  O  O57  1  0.05168000  0.36575000  0.86768000  1.0
  O  O58  1  0.55169000  0.13425000  0.86768000  1.0
  O  O59  1  0.94831000  0.63425000  0.13232000  1.0
  O  O60  1  0.84874000  0.87612000  0.24795000  1.0
  O  O61  1  0.65129000  0.37612000  0.75205000  1.0
  O  O62  1  0.15127000  0.12388000  0.75205000  1.0
  O  O63  1  0.34872000  0.62388000  0.24794000  1.0
  O  O64  1  0.09911000  0.88089000  0.33426000  1.0
  O  O65  1  0.40091000  0.38089000  0.66574000  1.0
  O  O66  1  0.90090000  0.11910000  0.66573000  1.0
  O  O67  1  0.59909000  0.61911000  0.33426000  1.0
  O  O68  1  0.84848000  0.32062000  0.45487000  1.0
  O  O69  1  0.65152000  0.82061000  0.54513000  1.0
  O  O70  1  0.15151000  0.67938000  0.54513000  1.0
  O  O71  1  0.34848000  0.17940000  0.45487000  1.0
