# generated using pymatgen
data_AlH11C16N2O5
_symmetry_space_group_name_H-M   'P 1'
_cell_length_a   6.66282000
_cell_length_b   23.79510000
_cell_length_c   25.43270000
_cell_angle_alpha   90.14890000
_cell_angle_beta   89.83800000
_cell_angle_gamma   89.86780000
_symmetry_Int_Tables_number   1
_chemical_formula_structural   AlH11C16N2O5
_chemical_formula_sum   'Al4 H44 C64 N8 O20'
_cell_volume   4032.12249554
_cell_formula_units_Z   4
loop_
 _symmetry_equiv_pos_site_id
 _symmetry_equiv_pos_as_xyz
  1  'x, y, z'
loop_
 _atom_site_type_symbol
 _atom_site_label
 _atom_site_symmetry_multiplicity
 _atom_site_fract_x
 _atom_site_fract_y
 _atom_site_fract_z
 _atom_site_occupancy
  Al  Al0  1  0.99435000  0.00362000  0.49551000  1.0
  Al  Al1  1  0.49358000  0.00526000  0.49397000  1.0
  Al  Al2  1  0.98993000  0.50440000  0.99457000  1.0
  Al  Al3  1  0.49062000  0.50308000  0.99526000  1.0
  H  H4  1  0.24066000  0.07478000  0.51399000  1.0
  H  H5  1  0.73807000  0.93561000  0.51742000  1.0
  H  H6  1  0.23735000  0.43256000  0.01198000  1.0
  H  H7  1  0.73581000  0.57225000  0.01829000  1.0
  H  H8  1  0.44129000  0.41649000  0.13816000  1.0
  H  H9  1  0.45876000  0.35285000  0.21615000  1.0
  H  H10  1  0.05754000  0.37875000  0.10188000  1.0
  H  H11  1  0.45284000  0.10926000  0.36308000  1.0
  H  H12  1  0.07635000  0.13387000  0.39960000  1.0
  H  H13  1  0.08826000  0.21568000  0.33766000  1.0
  H  H14  1  0.92785000  0.58902000  0.85968000  1.0
  H  H15  1  0.91727000  0.65358000  0.78192000  1.0
  H  H16  1  0.55042000  0.62895000  0.88286000  1.0
  H  H17  1  0.93286000  0.90590000  0.62888000  1.0
  H  H18  1  0.54686000  0.86633000  0.59151000  1.0
  H  H19  1  0.53871000  0.78714000  0.65573000  1.0
  H  H20  1  0.54943000  0.58401000  0.13575000  1.0
  H  H21  1  0.55543000  0.64509000  0.21602000  1.0
  H  H22  1  0.92898000  0.62661000  0.11156000  1.0
  H  H23  1  0.55684000  0.89710000  0.36736000  1.0
  H  H24  1  0.94095000  0.86369000  0.40672000  1.0
  H  H25  1  0.94085000  0.78165000  0.34479000  1.0
  H  H26  1  0.44541000  0.36244000  0.90301000  1.0
  H  H27  1  0.46160000  0.27986000  0.84187000  1.0
  H  H28  1  0.06136000  0.40084000  0.86793000  1.0
  H  H29  1  0.44006000  0.13144000  0.61206000  1.0
  H  H30  1  0.06123000  0.08623000  0.63015000  1.0
  H  H31  1  0.08097000  0.14597000  0.71123000  1.0
  H  H32  1  0.10574000  0.27575000  0.20777000  1.0
  H  H33  1  0.22598000  0.30668000  0.15506000  1.0
  H  H34  1  0.45530000  0.21581000  0.25928000  1.0
  H  H35  1  0.31958000  0.16246000  0.28749000  1.0
  H  H36  1  0.55317000  0.73627000  0.77981000  1.0
  H  H37  1  0.68847000  0.70666000  0.83027000  1.0
  H  H38  1  0.90036000  0.79992000  0.73249000  1.0
  H  H39  1  0.77717000  0.85446000  0.70201000  1.0
  H  H40  1  0.91681000  0.72736000  0.22053000  1.0
  H  H41  1  0.78358000  0.69991000  0.16839000  1.0
  H  H42  1  0.57512000  0.78824000  0.26540000  1.0
  H  H43  1  0.70354000  0.84279000  0.29427000  1.0
  H  H44  1  0.10384000  0.29086000  0.76754000  1.0
  H  H45  1  0.22326000  0.34667000  0.79693000  1.0
  H  H46  1  0.45085000  0.23142000  0.72149000  1.0
  H  H47  1  0.31108000  0.20657000  0.66978000  1.0
  C  C48  1  0.74028000  0.07172000  0.56733000  1.0
  C  C49  1  0.75386000  0.07149000  0.42427000  1.0
  C  C50  1  0.25131000  0.93261000  0.42805000  1.0
  C  C51  1  0.23858000  0.93563000  0.56609000  1.0
  C  C52  1  0.74813000  0.43368000  0.92655000  1.0
  C  C53  1  0.73918000  0.43675000  0.06763000  1.0
  C  C54  1  0.23570000  0.56867000  0.06940000  1.0
  C  C55  1  0.24527000  0.56876000  0.92264000  1.0
  C  C56  1  0.74808000  0.39990000  0.11494000  1.0
  C  C57  1  0.57784000  0.39324000  0.14716000  1.0
  C  C58  1  0.58825000  0.35789000  0.19034000  1.0
  C  C59  1  0.76476000  0.32748000  0.20174000  1.0
  C  C60  1  0.93903000  0.33546000  0.16987000  1.0
  C  C61  1  0.92679000  0.37210000  0.12693000  1.0
  C  C62  1  0.77079000  0.28769000  0.24272000  1.0
  C  C63  1  0.78520000  0.25095000  0.27621000  1.0
  C  C64  1  0.78056000  0.20672000  0.31306000  1.0
  C  C65  1  0.59793000  0.17612000  0.31957000  1.0
  C  C66  1  0.59192000  0.13233000  0.35634000  1.0
  C  C67  1  0.76335000  0.11734000  0.38445000  1.0
  C  C68  1  0.94489000  0.14643000  0.37710000  1.0
  C  C69  1  0.95106000  0.19133000  0.34251000  1.0
  C  C70  1  0.23970000  0.60643000  0.87587000  1.0
  C  C71  1  0.05959000  0.61286000  0.84771000  1.0
  C  C72  1  0.05407000  0.64892000  0.80498000  1.0
  C  C73  1  0.22392000  0.68074000  0.79054000  1.0
  C  C74  1  0.40714000  0.67353000  0.81880000  1.0
  C  C75  1  0.41204000  0.63547000  0.86082000  1.0
  C  C76  1  0.21712000  0.72112000  0.75002000  1.0
  C  C77  1  0.22875000  0.75835000  0.71691000  1.0
  C  C78  1  0.23270000  0.80224000  0.67972000  1.0
  C  C79  1  0.05803000  0.83621000  0.67251000  1.0
  C  C80  1  0.06498000  0.87977000  0.63553000  1.0
  C  C81  1  0.23952000  0.89057000  0.60677000  1.0
  C  C82  1  0.41241000  0.85770000  0.61449000  1.0
  C  C83  1  0.40723000  0.81377000  0.65017000  1.0
  C  C84  1  0.23958000  0.60340000  0.11832000  1.0
  C  C85  1  0.41729000  0.60786000  0.14777000  1.0
  C  C86  1  0.42017000  0.64185000  0.19216000  1.0
  C  C87  1  0.24987000  0.67338000  0.20729000  1.0
  C  C88  1  0.06780000  0.66739000  0.17831000  1.0
  C  C89  1  0.06622000  0.63174000  0.13434000  1.0
  C  C90  1  0.25583000  0.71262000  0.24898000  1.0
  C  C91  1  0.24582000  0.74957000  0.28260000  1.0
  C  C92  1  0.24691000  0.79400000  0.31951000  1.0
  C  C93  1  0.42442000  0.82687000  0.32554000  1.0
  C  C94  1  0.42260000  0.87169000  0.36145000  1.0
  C  C95  1  0.24927000  0.88488000  0.38990000  1.0
  C  C96  1  0.07371000  0.85283000  0.38377000  1.0
  C  C97  1  0.07445000  0.80757000  0.34936000  1.0
  C  C98  1  0.75306000  0.38611000  0.88832000  1.0
  C  C99  1  0.58186000  0.35256000  0.88116000  1.0
  C  C100  1  0.59173000  0.30696000  0.84722000  1.0
  C  C101  1  0.76869000  0.29466000  0.81877000  1.0
  C  C102  1  0.94186000  0.32902000  0.82588000  1.0
  C  C103  1  0.93081000  0.37418000  0.86128000  1.0
  C  C104  1  0.77434000  0.25032000  0.78185000  1.0
  C  C105  1  0.78632000  0.21364000  0.74802000  1.0
  C  C106  1  0.77523000  0.17519000  0.70577000  1.0
  C  C107  1  0.58956000  0.17059000  0.67809000  1.0
  C  C108  1  0.58031000  0.13554000  0.63376000  1.0
  C  C109  1  0.75005000  0.10661000  0.61609000  1.0
  C  C110  1  0.93182000  0.11017000  0.64392000  1.0
  C  C111  1  0.94227000  0.14342000  0.68870000  1.0
  N  N112  1  0.11467000  0.30826000  0.18219000  1.0
  N  N113  1  0.43041000  0.19123000  0.29117000  1.0
  N  N114  1  0.57569000  0.70292000  0.80389000  1.0
  N  N115  1  0.88544000  0.82458000  0.70026000  1.0
  N  N116  1  0.89794000  0.69571000  0.19422000  1.0
  N  N117  1  0.59476000  0.81330000  0.29732000  1.0
  N  N118  1  0.11683000  0.31642000  0.79934000  1.0
  N  N119  1  0.42339000  0.19970000  0.69574000  1.0
  O  O120  1  0.90786000  0.06022000  0.54535000  1.0
  O  O121  1  0.58221000  0.05846000  0.44273000  1.0
  O  O122  1  0.41903000  0.95594000  0.43778000  1.0
  O  O123  1  0.06823000  0.95678000  0.55440000  1.0
  O  O124  1  0.08399000  0.94606000  0.44902000  1.0
  O  O125  1  0.40644000  0.94878000  0.54521000  1.0
  O  O126  1  0.56784000  0.05630000  0.55107000  1.0
  O  O127  1  0.92039000  0.04965000  0.43778000  1.0
  O  O128  1  0.24334000  0.03912000  0.49553000  1.0
  O  O129  1  0.74247000  0.97015000  0.49735000  1.0
  O  O130  1  0.91483000  0.45681000  0.93761000  1.0
  O  O131  1  0.56639000  0.45389000  0.05316000  1.0
  O  O132  1  0.40466000  0.55716000  0.04815000  1.0
  O  O133  1  0.07683000  0.55739000  0.94381000  1.0
  O  O134  1  0.06422000  0.55373000  0.05207000  1.0
  O  O135  1  0.41560000  0.55136000  0.93845000  1.0
  O  O136  1  0.57867000  0.44715000  0.94630000  1.0
  O  O137  1  0.90534000  0.44790000  0.04478000  1.0
  O  O138  1  0.23994000  0.46943000  0.99598000  1.0
  O  O139  1  0.73880000  0.53848000  0.99689000  1.0
