# generated using pymatgen
data_CdH24C19N6O5
_symmetry_space_group_name_H-M   'P 1'
_cell_length_a   10.32060000
_cell_length_b   11.22840000
_cell_length_c   11.86390000
_cell_angle_alpha   70.21270000
_cell_angle_beta   65.24210000
_cell_angle_gamma   68.00820000
_symmetry_Int_Tables_number   1
_chemical_formula_structural   CdH24C19N6O5
_chemical_formula_sum   'Cd2 H48 C38 N12 O10'
_cell_volume   1130.34895901
_cell_formula_units_Z   2
loop_
 _symmetry_equiv_pos_site_id
 _symmetry_equiv_pos_as_xyz
  1  'x, y, z'
loop_
 _atom_site_type_symbol
 _atom_site_label
 _atom_site_symmetry_multiplicity
 _atom_site_fract_x
 _atom_site_fract_y
 _atom_site_fract_z
 _atom_site_occupancy
  Cd  Cd0  1  0.56731000  0.18622000  0.07821000  1.0
  Cd  Cd1  1  0.43269000  0.81378000  0.92179000  1.0
  H  H2  1  0.82657000  0.99391000  0.98773000  1.0
  H  H3  1  0.17343000  0.00609000  0.01226000  1.0
  H  H4  1  0.71786000  0.92779000  0.97535000  1.0
  H  H5  1  0.28214000  0.07221000  0.02464000  1.0
  H  H6  1  0.06391000  0.18000000  0.08555000  1.0
  H  H7  1  0.93609000  0.82000000  0.91444000  1.0
  H  H8  1  0.67778000  0.49871000  0.18004000  1.0
  H  H9  1  0.32222000  0.50128000  0.81997000  1.0
  H  H10  1  0.09196000  0.50284000  0.18378000  1.0
  H  H11  1  0.90804000  0.49715000  0.81622000  1.0
  H  H12  1  0.87579000  0.67865000  0.24645000  1.0
  H  H13  1  0.12421000  0.32135000  0.75355000  1.0
  H  H14  1  0.69897000  0.64660000  0.30641000  1.0
  H  H15  1  0.30103000  0.35340000  0.69360000  1.0
  H  H16  1  0.77007000  0.72360000  0.14548000  1.0
  H  H17  1  0.22992000  0.27640000  0.85453000  1.0
  H  H18  1  0.59741000  0.16410000  0.77918000  1.0
  H  H19  1  0.40258000  0.83590000  0.22082000  1.0
  H  H20  1  0.62133000  0.48597000  0.86921000  1.0
  H  H21  1  0.37867000  0.51404000  0.13079000  1.0
  H  H22  1  0.55285000  0.65749000  0.64981000  1.0
  H  H23  1  0.44715000  0.34251000  0.35019000  1.0
  H  H24  1  0.62001000  0.57327000  0.52524000  1.0
  H  H25  1  0.37999000  0.42673000  0.47476000  1.0
  H  H26  1  0.79644000  0.68962000  0.49255000  1.0
  H  H27  1  0.20356000  0.31038000  0.50745000  1.0
  H  H28  1  0.80106000  0.61891000  0.64940000  1.0
  H  H29  1  0.19894000  0.38109000  0.35060000  1.0
  H  H30  1  0.91661000  0.46350000  0.44062000  1.0
  H  H31  1  0.08339000  0.53650000  0.55938000  1.0
  H  H32  1  0.92185000  0.39583000  0.59661000  1.0
  H  H33  1  0.07815000  0.60417000  0.40339000  1.0
  H  H34  1  0.27380000  0.14794000  0.36970000  1.0
  H  H35  1  0.72620000  0.85206000  0.63030000  1.0
  H  H36  1  0.69859000  0.88833000  0.26820000  1.0
  H  H37  1  0.30141000  0.11167000  0.73180000  1.0
  H  H38  1  0.30169000  0.85022000  0.64614000  1.0
  H  H39  1  0.69831000  0.14978000  0.35386000  1.0
  H  H40  1  0.18162000  0.00798000  0.61154000  1.0
  H  H41  1  0.81838000  0.99202000  0.38846000  1.0
  H  H42  1  0.08889000  0.81334000  0.64324000  1.0
  H  H43  1  0.91111000  0.18666000  0.35675000  1.0
  H  H44  1  0.23726000  0.77071000  0.50633000  1.0
  H  H45  1  0.76274000  0.22929000  0.49367000  1.0
  H  H46  1  0.13344000  0.99414000  0.37578000  1.0
  H  H47  1  0.86656000  0.00585000  0.62422000  1.0
  H  H48  1  0.02242000  0.88544000  0.44384000  1.0
  H  H49  1  0.97759000  0.11456000  0.55616000  1.0
  C  C50  1  0.25716000  0.27281000  0.11537000  1.0
  C  C51  1  0.74284000  0.72719000  0.88463000  1.0
  C  C52  1  0.09560000  0.33402000  0.13452000  1.0
  C  C53  1  0.90440000  0.66598000  0.86548000  1.0
  C  C54  1  0.01340000  0.27360000  0.11452000  1.0
  C  C55  1  0.98660000  0.72640000  0.88548000  1.0
  C  C56  1  0.86317000  0.33313000  0.13105000  1.0
  C  C57  1  0.13683000  0.66686000  0.86895000  1.0
  C  C58  1  0.79491000  0.45351000  0.16859000  1.0
  C  C59  1  0.20509000  0.54648000  0.83141000  1.0
  C  C60  1  0.87524000  0.51642000  0.18869000  1.0
  C  C61  1  0.12476000  0.48357000  0.81132000  1.0
  C  C62  1  0.02557000  0.45537000  0.17125000  1.0
  C  C63  1  0.97443000  0.54462000  0.82875000  1.0
  C  C64  1  0.77663000  0.26722000  0.10831000  1.0
  C  C65  1  0.22336000  0.73278000  0.89169000  1.0
  C  C66  1  0.80143000  0.64794000  0.22426000  1.0
  C  C67  1  0.19857000  0.35206000  0.77575000  1.0
  C  C68  1  0.60702000  0.25989000  0.77112000  1.0
  C  C69  1  0.39298000  0.74011000  0.22888000  1.0
  C  C70  1  0.61860000  0.42077000  0.82073000  1.0
  C  C71  1  0.38140000  0.57924000  0.17926000  1.0
  C  C72  1  0.64127000  0.57784000  0.60656000  1.0
  C  C73  1  0.35873000  0.42216000  0.39344000  1.0
  C  C74  1  0.79356000  0.59916000  0.56779000  1.0
  C  C75  1  0.20644000  0.40084000  0.43221000  1.0
  C  C76  1  0.92548000  0.48571000  0.52044000  1.0
  C  C77  1  0.07452000  0.51428000  0.47956000  1.0
  C  C78  1  0.36915000  0.06301000  0.36936000  1.0
  C  C79  1  0.63085000  0.93699000  0.63064000  1.0
  C  C80  1  0.58396000  0.92925000  0.32150000  1.0
  C  C81  1  0.41605000  0.07075000  0.67850000  1.0
  C  C82  1  0.25043000  0.91809000  0.57549000  1.0
  C  C83  1  0.74957000  0.08191000  0.42451000  1.0
  C  C84  1  0.16043000  0.85457000  0.54992000  1.0
  C  C85  1  0.83957000  0.14543000  0.45008000  1.0
  C  C86  1  0.06477000  0.94693000  0.46803000  1.0
  C  C87  1  0.93524000  0.05307000  0.53196000  1.0
  N  N88  1  0.60669000  0.29738000  0.86926000  1.0
  N  N89  1  0.39330000  0.70263000  0.13074000  1.0
  N  N90  1  0.62632000  0.45409000  0.69849000  1.0
  N  N91  1  0.37368000  0.54591000  0.30151000  1.0
  N  N92  1  0.61911000  0.35253000  0.66486000  1.0
  N  N93  1  0.38089000  0.64747000  0.33514000  1.0
  N  N94  1  0.50226000  0.05074000  0.27888000  1.0
  N  N95  1  0.49773000  0.94926000  0.72112000  1.0
  N  N96  1  0.50891000  0.86615000  0.43278000  1.0
  N  N97  1  0.49109000  0.13385000  0.56722000  1.0
  N  N98  1  0.37181000  0.95325000  0.46190000  1.0
  N  N99  1  0.62818000  0.04675000  0.53810000  1.0
  O  O100  1  0.32328000  0.32856000  0.14373000  1.0
  O  O101  1  0.67672000  0.67144000  0.85627000  1.0
  O  O102  1  0.32541000  0.16714000  0.07251000  1.0
  O  O103  1  0.67459000  0.83286000  0.92749000  1.0
  O  O104  1  0.84074000  0.15946000  0.07197000  1.0
  O  O105  1  0.15925000  0.84055000  0.92802000  1.0
  O  O106  1  0.63761000  0.32575000  0.12912000  1.0
  O  O107  1  0.36238000  0.67424000  0.87089000  1.0
  O  O108  1  0.72532000  0.98807000  0.01769000  1.0
  O  O109  1  0.27468000  0.01194000  0.98230000  1.0
