# generated using pymatgen
data_ZnH8C14SO10
_symmetry_space_group_name_H-M   'P 1'
_cell_length_a   8.16696000
_cell_length_b   13.12410000
_cell_length_c   35.17940000
_cell_angle_alpha   90.90160000
_cell_angle_beta   89.75050000
_cell_angle_gamma   89.56320000
_symmetry_Int_Tables_number   1
_chemical_formula_structural   ZnH8C14SO10
_chemical_formula_sum   'Zn4 H32 C56 S4 O40'
_cell_volume   3770.05465352
_cell_formula_units_Z   4
loop_
 _symmetry_equiv_pos_site_id
 _symmetry_equiv_pos_as_xyz
  1  'x, y, z'
loop_
 _atom_site_type_symbol
 _atom_site_label
 _atom_site_symmetry_multiplicity
 _atom_site_fract_x
 _atom_site_fract_y
 _atom_site_fract_z
 _atom_site_occupancy
  Zn  Zn0  1  0.33136000  0.98897000  0.50068000  1.0
  Zn  Zn1  1  0.65060000  0.01087000  0.49981000  1.0
  Zn  Zn2  1  0.76249000  0.98401000  0.99914000  1.0
  Zn  Zn3  1  0.44106000  0.00797000  0.00028000  1.0
  H  H4  1  0.31848000  0.01000000  0.12223000  1.0
  H  H5  1  0.32005000  0.00360000  0.19138000  1.0
  H  H6  1  0.84898000  0.98421000  0.18860000  1.0
  H  H7  1  0.23005000  0.98472000  0.31089000  1.0
  H  H8  1  0.75861000  0.00384000  0.30844000  1.0
  H  H9  1  0.75968000  0.01121000  0.37764000  1.0
  H  H10  1  0.72779000  0.99295000  0.24749000  1.0
  H  H11  1  0.35135000  0.99213000  0.25212000  1.0
  H  H12  1  0.33607000  0.99658000  0.87923000  1.0
  H  H13  1  0.33050000  0.00810000  0.81033000  1.0
  H  H14  1  0.86043000  0.01132000  0.80883000  1.0
  H  H15  1  0.22704000  0.01395000  0.69176000  1.0
  H  H16  1  0.75705000  0.00946000  0.68977000  1.0
  H  H17  1  0.75052000  0.99997000  0.62070000  1.0
  H  H18  1  0.73246000  0.01254000  0.75094000  1.0
  H  H19  1  0.35568000  0.01260000  0.74946000  1.0
  H  H20  1  0.85986000  0.08199000  0.07268000  1.0
  H  H21  1  0.21733000  0.08463000  0.42782000  1.0
  H  H22  1  0.87007000  0.89855000  0.92175000  1.0
  H  H23  1  0.21819000  0.90387000  0.57708000  1.0
  H  H24  1  0.06821000  0.32046000  0.47419000  1.0
  H  H25  1  0.09180000  0.54545000  0.47478000  1.0
  H  H26  1  0.20304000  0.73433000  0.48447000  1.0
  H  H27  1  0.86811000  0.67565000  0.51597000  1.0
  H  H28  1  0.84405000  0.45345000  0.51537000  1.0
  H  H29  1  0.72925000  0.26522000  0.50607000  1.0
  H  H30  1  0.03688000  0.31883000  0.02654000  1.0
  H  H31  1  0.00878000  0.54345000  0.02524000  1.0
  H  H32  1  0.89422000  0.73133000  0.01504000  1.0
  H  H33  1  0.22948000  0.67066000  0.98422000  1.0
  H  H34  1  0.25766000  0.44855000  0.98547000  1.0
  H  H35  1  0.37719000  0.26091000  0.99470000  1.0
  C  C36  1  0.45348000  0.80447000  0.49412000  1.0
  C  C37  1  0.51504000  0.01224000  0.42664000  1.0
  C  C38  1  0.47332000  0.19548000  0.50415000  1.0
  C  C39  1  0.49990000  0.98747000  0.57390000  1.0
  C  C40  1  0.64203000  0.80102000  0.00513000  1.0
  C  C41  1  0.56352000  0.01034000  0.07320000  1.0
  C  C42  1  0.63428000  0.19075000  0.99721000  1.0
  C  C43  1  0.58639000  0.98261000  0.92605000  1.0
  C  C44  1  0.57963000  0.00164000  0.11513000  1.0
  C  C45  1  0.43502000  0.00439000  0.13692000  1.0
  C  C46  1  0.43680000  0.00073000  0.17629000  1.0
  C  C47  1  0.58621000  0.99453000  0.19595000  1.0
  C  C48  1  0.73145000  0.99018000  0.17426000  1.0
  C  C49  1  0.73046000  0.99319000  0.13482000  1.0
  C  C50  1  0.60180000  0.99340000  0.23710000  1.0
  C  C51  1  0.47726000  0.99319000  0.26255000  1.0
  C  C52  1  0.34735000  0.99087000  0.32534000  1.0
  C  C53  1  0.49262000  0.99482000  0.30371000  1.0
  C  C54  1  0.64182000  0.00125000  0.32347000  1.0
  C  C55  1  0.64332000  0.00549000  0.36287000  1.0
  C  C56  1  0.49868000  0.00319000  0.38461000  1.0
  C  C57  1  0.34817000  0.99453000  0.36482000  1.0
  C  C58  1  0.59827000  0.99527000  0.88419000  1.0
  C  C59  1  0.45125000  0.99970000  0.86367000  1.0
  C  C60  1  0.44902000  0.00621000  0.82438000  1.0
  C  C61  1  0.59652000  0.00917000  0.80356000  1.0
  C  C62  1  0.74421000  0.00744000  0.82403000  1.0
  C  C63  1  0.74706000  0.00054000  0.86335000  1.0
  C  C64  1  0.60774000  0.01223000  0.76236000  1.0
  C  C65  1  0.48030000  0.01272000  0.73798000  1.0
  C  C66  1  0.34304000  0.01037000  0.67639000  1.0
  C  C67  1  0.49105000  0.01109000  0.69675000  1.0
  C  C68  1  0.63833000  0.00834000  0.67578000  1.0
  C  C69  1  0.63552000  0.00295000  0.63639000  1.0
  C  C70  1  0.48819000  0.99936000  0.61594000  1.0
  C  C71  1  0.33966000  0.00444000  0.63697000  1.0
  C  C72  1  0.35741000  0.62481000  0.49081000  1.0
  C  C73  1  0.64611000  0.65708000  0.50398000  1.0
  C  C74  1  0.67381000  0.55300000  0.50700000  1.0
  C  C75  1  0.54720000  0.48125000  0.50069000  1.0
  C  C76  1  0.57429000  0.37439000  0.50237000  1.0
  C  C77  1  0.28609000  0.34222000  0.48933000  1.0
  C  C78  1  0.25898000  0.44594000  0.48525000  1.0
  C  C79  1  0.38492000  0.51795000  0.49220000  1.0
  C  C80  1  0.48570000  0.69506000  0.49601000  1.0
  C  C81  1  0.44450000  0.30467000  0.49876000  1.0
  C  C82  1  0.74157000  0.62156000  0.00907000  1.0
  C  C83  1  0.45219000  0.65290000  0.99593000  1.0
  C  C84  1  0.42637000  0.54855000  0.99332000  1.0
  C  C85  1  0.55449000  0.47721000  0.99975000  1.0
  C  C86  1  0.52962000  0.37021000  0.99838000  1.0
  C  C87  1  0.81839000  0.33905000  0.01149000  1.0
  C  C88  1  0.84338000  0.44318000  0.01521000  1.0
  C  C89  1  0.71606000  0.51464000  0.00808000  1.0
  C  C90  1  0.61201000  0.69148000  0.00361000  1.0
  C  C91  1  0.66079000  0.30058000  0.00226000  1.0
  S  S92  1  0.93178000  0.98012000  0.11396000  1.0
  S  S93  1  0.14740000  0.98188000  0.38564000  1.0
  S  S94  1  0.94957000  0.00445000  0.88322000  1.0
  S  S95  1  0.13673000  0.00860000  0.61733000  1.0
  O  O96  1  0.30227000  0.83779000  0.49123000  1.0
  O  O97  1  0.57181000  0.86665000  0.49557000  1.0
  O  O98  1  0.65613000  0.00486000  0.44165000  1.0
  O  O99  1  0.38309000  0.02931000  0.44622000  1.0
  O  O100  1  0.62449000  0.16303000  0.50078000  1.0
  O  O101  1  0.35471000  0.13730000  0.51228000  1.0
  O  O102  1  0.37311000  0.95384000  0.55599000  1.0
  O  O103  1  0.63417000  0.00920000  0.55742000  1.0
  O  O104  1  0.79301000  0.83434000  0.00759000  1.0
  O  O105  1  0.52258000  0.86322000  0.00389000  1.0
  O  O106  1  0.42257000  0.00364000  0.05789000  1.0
  O  O107  1  0.69507000  0.02637000  0.05382000  1.0
  O  O108  1  0.48373000  0.15908000  0.00001000  1.0
  O  O109  1  0.75540000  0.13175000  0.98988000  1.0
  O  O110  1  0.71312000  0.94788000  0.94351000  1.0
  O  O111  1  0.45177000  0.00509000  0.94286000  1.0
  O  O112  1  0.95244000  0.08355000  0.09148000  1.0
  O  O113  1  0.04964000  0.98551000  0.14424000  1.0
  O  O114  1  0.93406000  0.89377000  0.08819000  1.0
  O  O115  1  0.12458000  0.08584000  0.40906000  1.0
  O  O116  1  0.02926000  0.98674000  0.35544000  1.0
  O  O117  1  0.14740000  0.89611000  0.41066000  1.0
  O  O118  1  0.96436000  0.89655000  0.90288000  1.0
  O  O119  1  0.06573000  0.00183000  0.85230000  1.0
  O  O120  1  0.95678000  0.08526000  0.91131000  1.0
  O  O121  1  0.12466000  0.90113000  0.59611000  1.0
  O  O122  1  0.02111000  0.00511000  0.64829000  1.0
  O  O123  1  0.12678000  0.08996000  0.59042000  1.0
  O  O124  1  0.16027000  0.27708000  0.48189000  1.0
  O  O125  1  0.10462000  0.47071000  0.47336000  1.0
  O  O126  1  0.20106000  0.65746000  0.48430000  1.0
  O  O127  1  0.77512000  0.72054000  0.51006000  1.0
  O  O128  1  0.83059000  0.52809000  0.51708000  1.0
  O  O129  1  0.73140000  0.34176000  0.50816000  1.0
  O  O130  1  0.94577000  0.27469000  0.01901000  1.0
  O  O131  1  0.99744000  0.46890000  0.02690000  1.0
  O  O132  1  0.89735000  0.65454000  0.01547000  1.0
  O  O133  1  0.32185000  0.71597000  0.98978000  1.0
  O  O134  1  0.26974000  0.52296000  0.98356000  1.0
  O  O135  1  0.37319000  0.33730000  0.99264000  1.0
