# generated using pymatgen
data_AlH6C13ClO5F
_symmetry_space_group_name_H-M   'P 1'
_cell_length_a   6.63936000
_cell_length_b   11.07447262
_cell_length_c   15.11320000
_cell_angle_alpha   92.23269687
_cell_angle_beta   98.74310000
_cell_angle_gamma   106.24288714
_symmetry_Int_Tables_number   1
_chemical_formula_structural   AlH6C13ClO5F
_chemical_formula_sum   'Al2 H12 C26 Cl2 O10 F2'
_cell_volume   1050.58775809
_cell_formula_units_Z   2
loop_
 _symmetry_equiv_pos_site_id
 _symmetry_equiv_pos_as_xyz
  1  'x, y, z'
loop_
 _atom_site_type_symbol
 _atom_site_label
 _atom_site_symmetry_multiplicity
 _atom_site_fract_x
 _atom_site_fract_y
 _atom_site_fract_z
 _atom_site_occupancy
  Al  Al0  1  0.00200000  0.50003000  0.50271000  1.0
  Al  Al1  1  0.50292000  0.50123000  0.50329000  1.0
  H  H2  1  0.34342000  0.64960000  0.56538000  1.0
  H  H3  1  0.65845000  0.34560000  0.45725000  1.0
  H  H4  1  0.64483000  0.38680000  0.94778000  1.0
  H  H5  1  0.37360000  0.57569000  0.05308000  1.0
  H  H6  1  0.82413000  0.43114000  0.24261000  1.0
  H  H7  1  0.71214000  0.43083000  0.08030000  1.0
  H  H8  1  0.17413000  0.60189000  0.76551000  1.0
  H  H9  1  0.28251000  0.61162000  0.92901000  1.0
  H  H10  1  0.54381000  0.76157000  0.38317000  1.0
  H  H11  1  0.33240000  0.87401000  0.28933000  1.0
  H  H12  1  0.80735000  0.22817000  0.37854000  1.0
  H  H13  1  0.46722000  0.10847000  0.28550000  1.0
  C  C14  1  0.86199000  0.72489000  0.49285000  1.0
  C  C15  1  0.80298000  0.50319000  0.66436000  1.0
  C  C16  1  0.14019000  0.27449000  0.50439000  1.0
  C  C17  1  0.20309000  0.49839000  0.34103000  1.0
  C  C18  1  0.84931000  0.49777000  0.76370000  1.0
  C  C19  1  0.15745000  0.50409000  0.24160000  1.0
  C  C20  1  0.70099000  0.43824000  0.81751000  1.0
  C  C21  1  0.76368000  0.43826000  0.91000000  1.0
  C  C22  1  0.30993000  0.54726000  0.18559000  1.0
  C  C23  1  0.24826000  0.54350000  0.09281000  1.0
  C  C24  1  0.94304000  0.46181000  0.19961000  1.0
  C  C25  1  0.88141000  0.46088000  0.10777000  1.0
  C  C26  1  0.05878000  0.55734000  0.80714000  1.0
  C  C27  1  0.11930000  0.56071000  0.89924000  1.0
  C  C28  1  0.97234000  0.50009000  0.95309000  1.0
  C  C29  1  0.03373000  0.50077000  0.05156000  1.0
  C  C30  1  0.92789000  0.86521000  0.48996000  1.0
  C  C31  1  0.79720000  0.92985000  0.43857000  1.0
  C  C32  1  0.12191000  0.93430000  0.53865000  1.0
  C  C33  1  0.60039000  0.86369000  0.38386000  1.0
  C  C34  1  0.48258000  0.92701000  0.33106000  1.0
  C  C35  1  0.06797000  0.13328000  0.49491000  1.0
  C  C36  1  0.19078000  0.06722000  0.54182000  1.0
  C  C37  1  0.87049000  0.06505000  0.43944000  1.0
  C  C38  1  0.74771000  0.12664000  0.38216000  1.0
  C  C39  1  0.55797000  0.05921000  0.32932000  1.0
  Cl  Cl40  1  0.43873000  0.35811000  0.77455000  1.0
  Cl  Cl41  1  0.57920000  0.61046000  0.22552000  1.0
  O  O42  1  0.99771000  0.66829000  0.47909000  1.0
  O  O43  1  0.61212000  0.48892000  0.62694000  1.0
  O  O44  1  0.32923000  0.32840000  0.49323000  1.0
  O  O45  1  0.04112000  0.47191000  0.38060000  1.0
  O  O46  1  0.00491000  0.32960000  0.52174000  1.0
  O  O47  1  0.39457000  0.51653000  0.37931000  1.0
  O  O48  1  0.67725000  0.67331000  0.51011000  1.0
  O  O49  1  0.96439000  0.52596000  0.62451000  1.0
  O  O50  1  0.29386000  0.56206000  0.54111000  1.0
  O  O51  1  0.70893000  0.43724000  0.46440000  1.0
  F  F52  1  0.37703000  0.12676000  0.59569000  1.0
  F  F53  1  0.25008000  0.87818000  0.58956000  1.0
