# generated using pymatgen
data_ZnH19C28N3O4
_symmetry_space_group_name_H-M   'P 1'
_cell_length_a   15.71280000
_cell_length_b   18.23880000
_cell_length_c   19.39110000
_cell_angle_alpha   89.40330000
_cell_angle_beta   89.74930000
_cell_angle_gamma   67.00670000
_symmetry_Int_Tables_number   1
_chemical_formula_structural   ZnH19C28N3O4
_chemical_formula_sum   'Zn2 H38 C56 N6 O8'
_cell_volume   5115.36172511
_cell_formula_units_Z   2
loop_
 _symmetry_equiv_pos_site_id
 _symmetry_equiv_pos_as_xyz
  1  'x, y, z'
loop_
 _atom_site_type_symbol
 _atom_site_label
 _atom_site_symmetry_multiplicity
 _atom_site_fract_x
 _atom_site_fract_y
 _atom_site_fract_z
 _atom_site_occupancy
  Zn  Zn0  1  0.48926000  0.57972000  0.50055000  1.0
  Zn  Zn1  1  0.49612000  0.42517000  0.49758000  1.0
  H  H2  1  0.87921000  0.71600000  0.44530000  1.0
  H  H3  1  0.10614000  0.28675000  0.44378000  1.0
  H  H4  1  0.57924000  0.59053000  0.93017000  1.0
  H  H5  1  0.58946000  0.35852000  0.06750000  1.0
  H  H6  1  0.60300000  0.65714000  0.43347000  1.0
  H  H7  1  0.37636000  0.34740000  0.55821000  1.0
  H  H8  1  0.61011000  0.79262000  0.42968000  1.0
  H  H9  1  0.37600000  0.20982000  0.56382000  1.0
  H  H10  1  0.38815000  0.86828000  0.57857000  1.0
  H  H11  1  0.61146000  0.13444000  0.42677000  1.0
  H  H12  1  0.39177000  0.72953000  0.57678000  1.0
  H  H13  1  0.60365000  0.27439000  0.42916000  1.0
  H  H14  1  0.35607000  0.11736000  0.46847000  1.0
  H  H15  1  0.63861000  0.88436000  0.53106000  1.0
  H  H16  1  0.76258000  0.53437000  0.48077000  1.0
  H  H17  1  0.22362000  0.46696000  0.47644000  1.0
  H  H18  1  0.80161000  0.28956000  0.47243000  1.0
  H  H19  1  0.18461000  0.71208000  0.47121000  1.0
  H  H20  1  0.01439000  0.75230000  0.45440000  1.0
  H  H21  1  0.97164000  0.25002000  0.45394000  1.0
  H  H22  1  0.81244000  0.61487000  0.44894000  1.0
  H  H23  1  0.17309000  0.38766000  0.44667000  1.0
  H  H24  1  0.44005000  0.43859000  0.26944000  1.0
  H  H25  1  0.42112000  0.60743000  0.73123000  1.0
  H  H26  1  0.47026000  0.43109000  0.14269000  1.0
  H  H27  1  0.45349000  0.59343000  0.85773000  1.0
  H  H28  1  0.68009000  0.52444000  0.17324000  1.0
  H  H29  1  0.67575000  0.36643000  0.82324000  1.0
  H  H30  1  0.63914000  0.54253000  0.29772000  1.0
  H  H31  1  0.63380000  0.37636000  0.69873000  1.0
  H  H32  1  0.60019000  0.65018000  0.03407000  1.0
  H  H33  1  0.59313000  0.61322000  0.11324000  1.0
  H  H34  1  0.58934000  0.33163000  0.88402000  1.0
  H  H35  1  0.60292000  0.28760000  0.96264000  1.0
  H  H36  1  0.32983000  0.92841000  0.47117000  1.0
  H  H37  1  0.27493000  0.02874000  0.46484000  1.0
  H  H38  1  0.71954000  0.97271000  0.53621000  1.0
  H  H39  1  0.66509000  0.07320000  0.52949000  1.0
  C  C40  1  0.50255000  0.49779000  0.63217000  1.0
  C  C41  1  0.51145000  0.50311000  0.36570000  1.0
  C  C42  1  0.88718000  0.59625000  0.45190000  1.0
  C  C43  1  0.09845000  0.40621000  0.45069000  1.0
  C  C44  1  0.92419000  0.65293000  0.44986000  1.0
  C  C45  1  0.06133000  0.34965000  0.44899000  1.0
  C  C46  1  0.49093000  0.45894000  0.24722000  1.0
  C  C47  1  0.47551000  0.55409000  0.75229000  1.0
  C  C48  1  0.50917000  0.45367000  0.17686000  1.0
  C  C49  1  0.49472000  0.54660000  0.82259000  1.0
  C  C50  1  0.57519000  0.47951000  0.14787000  1.0
  C  C51  1  0.56545000  0.47832000  0.85022000  1.0
  C  C52  1  0.62381000  0.50925000  0.19304000  1.0
  C  C53  1  0.61681000  0.41791000  0.80414000  1.0
  C  C54  1  0.60281000  0.51781000  0.26318000  1.0
  C  C55  1  0.59519000  0.42381000  0.73417000  1.0
  C  C56  1  0.53551000  0.49337000  0.29079000  1.0
  C  C57  1  0.52422000  0.49192000  0.70758000  1.0
  C  C58  1  0.58551000  0.54329000  0.03269000  1.0
  C  C59  1  0.58542000  0.40506000  0.96497000  1.0
  C  C60  1  0.58284000  0.53875000  0.96073000  1.0
  C  C61  1  0.58866000  0.40940000  0.03687000  1.0
  C  C62  1  0.31392000  0.56037000  0.48972000  1.0
  C  C63  1  0.67281000  0.43995000  0.49237000  1.0
  C  C64  1  0.58118000  0.47252000  0.92569000  1.0
  C  C65  1  0.58713000  0.47669000  0.07203000  1.0
  C  C66  1  0.55748000  0.70605000  0.46499000  1.0
  C  C67  1  0.42738000  0.29777000  0.53047000  1.0
  C  C68  1  0.56072000  0.78116000  0.46316000  1.0
  C  C69  1  0.42736000  0.22158000  0.53284000  1.0
  C  C70  1  0.49798000  0.84266000  0.50284000  1.0
  C  C71  1  0.49533000  0.15957000  0.49688000  1.0
  C  C72  1  0.43618000  0.82362000  0.54481000  1.0
  C  C73  1  0.55949000  0.17917000  0.45815000  1.0
  C  C74  1  0.43786000  0.74694000  0.54446000  1.0
  C  C75  1  0.55511000  0.25669000  0.45826000  1.0
  C  C76  1  0.41428000  0.99017000  0.48336000  1.0
  C  C77  1  0.58032000  0.01170000  0.51641000  1.0
  C  C78  1  0.41763000  0.06577000  0.48362000  1.0
  C  C79  1  0.57703000  0.93599000  0.51601000  1.0
  C  C80  1  0.49820000  0.07776000  0.49893000  1.0
  C  C81  1  0.49641000  0.92415000  0.50077000  1.0
  C  C82  1  0.21251000  0.58640000  0.47566000  1.0
  C  C83  1  0.77394000  0.41499000  0.47798000  1.0
  C  C84  1  0.06048000  0.68947000  0.45866000  1.0
  C  C85  1  0.92554000  0.31264000  0.45896000  1.0
  C  C86  1  0.15421000  0.66777000  0.46824000  1.0
  C  C87  1  0.83204000  0.33392000  0.46938000  1.0
  C  C88  1  0.17589000  0.52872000  0.47019000  1.0
  C  C89  1  0.81018000  0.47301000  0.47275000  1.0
  C  C90  1  0.08077000  0.54876000  0.45934000  1.0
  C  C91  1  0.90497000  0.45345000  0.46049000  1.0
  C  C92  1  0.02141000  0.63141000  0.45540000  1.0
  C  C93  1  0.96427000  0.37097000  0.45561000  1.0
  C  C94  1  0.04153000  0.48910000  0.45539000  1.0
  C  C95  1  0.94416000  0.51321000  0.45601000  1.0
  N  N96  1  0.49656000  0.68943000  0.50442000  1.0
  N  N97  1  0.49083000  0.31483000  0.49446000  1.0
  N  N98  1  0.57630000  0.61542000  0.06272000  1.0
  N  N99  1  0.57605000  0.33912000  0.93516000  1.0
  N  N100  1  0.33533000  0.98082000  0.46024000  1.0
  N  N101  1  0.65921000  0.02084000  0.53977000  1.0
  O  O102  1  0.46962000  0.56715000  0.60466000  1.0
  O  O103  1  0.48105000  0.45419000  0.39302000  1.0
  O  O104  1  0.51987000  0.43243000  0.60080000  1.0
  O  O105  1  0.52332000  0.55961000  0.39700000  1.0
  O  O106  1  0.35000000  0.61149000  0.48133000  1.0
  O  O107  1  0.63730000  0.38924000  0.48048000  1.0
  O  O108  1  0.35655000  0.48809000  0.50885000  1.0
  O  O109  1  0.62977000  0.51035000  0.51453000  1.0
