# generated using pymatgen
data_ZnH13C17S3(NO)5
_symmetry_space_group_name_H-M   'P 1'
_cell_length_a   9.46539000
_cell_length_b   10.42730000
_cell_length_c   11.09300000
_cell_angle_alpha   102.90400000
_cell_angle_beta   96.16230000
_cell_angle_gamma   105.86400000
_symmetry_Int_Tables_number   1
_chemical_formula_structural   ZnH13C17S3(NO)5
_chemical_formula_sum   'Zn2 H26 C34 S6 N10 O10'
_cell_volume   1009.87435806
_cell_formula_units_Z   2
loop_
 _symmetry_equiv_pos_site_id
 _symmetry_equiv_pos_as_xyz
  1  'x, y, z'
loop_
 _atom_site_type_symbol
 _atom_site_label
 _atom_site_symmetry_multiplicity
 _atom_site_fract_x
 _atom_site_fract_y
 _atom_site_fract_z
 _atom_site_occupancy
  Zn  Zn0  1  0.41534000  0.09592000  0.14085000  1.0
  Zn  Zn1  1  0.58466000  0.90408000  0.85915000  1.0
  H  H2  1  0.38817000  0.22093000  0.91356000  1.0
  H  H3  1  0.61183000  0.77907000  0.08644000  1.0
  H  H4  1  0.54188000  0.40564000  0.83101000  1.0
  H  H5  1  0.45812000  0.59435000  0.16899000  1.0
  H  H6  1  0.92245000  0.69672000  0.13718000  1.0
  H  H7  1  0.07755000  0.30328000  0.86281000  1.0
  H  H8  1  0.79579000  0.54927000  0.95221000  1.0
  H  H9  1  0.20421000  0.45073000  0.04778000  1.0
  H  H10  1  0.70831000  0.32403000  0.23399000  1.0
  H  H11  1  0.29169000  0.67597000  0.76601000  1.0
  H  H12  1  0.17670000  0.63080000  0.37528000  1.0
  H  H13  1  0.82330000  0.36920000  0.62471000  1.0
  H  H14  1  0.43437000  0.79379000  0.45977000  1.0
  H  H15  1  0.56563000  0.20621000  0.54023000  1.0
  H  H16  1  0.52966000  0.98870000  0.35814000  1.0
  H  H17  1  0.47034000  0.01130000  0.64187000  1.0
  H  H18  1  0.13027000  0.87142000  0.11113000  1.0
  H  H19  1  0.86973000  0.12858000  0.88886000  1.0
  H  H20  1  0.03147000  0.91779000  0.81498000  1.0
  H  H21  1  0.96853000  0.08221000  0.18502000  1.0
  H  H22  1  0.07731000  0.76046000  0.78949000  1.0
  H  H23  1  0.92269000  0.23954000  0.21051000  1.0
  H  H24  1  0.16279000  0.33607000  0.37386000  1.0
  H  H25  1  0.83720000  0.66393000  0.62615000  1.0
  H  H26  1  0.32358000  0.47482000  0.37979000  1.0
  H  H27  1  0.67642000  0.52518000  0.62021000  1.0
  C  C28  1  0.49724000  0.28769000  0.96611000  1.0
  C  C29  1  0.50277000  0.71231000  0.03389000  1.0
  C  C30  1  0.58442000  0.39063000  0.92028000  1.0
  C  C31  1  0.41559000  0.60937000  0.07972000  1.0
  C  C32  1  0.72481000  0.47103000  0.98912000  1.0
  C  C33  1  0.27519000  0.52897000  0.01088000  1.0
  C  C34  1  0.77313000  0.44710000  0.10366000  1.0
  C  C35  1  0.22687000  0.55290000  0.89635000  1.0
  C  C36  1  0.67708000  0.34367000  0.14400000  1.0
  C  C37  1  0.32292000  0.65633000  0.85600000  1.0
  C  C38  1  0.92519000  0.51817000  0.18199000  1.0
  C  C39  1  0.07481000  0.48183000  0.81801000  1.0
  C  C40  1  0.13402000  0.73673000  0.23516000  1.0
  C  C41  1  0.86598000  0.26327000  0.76484000  1.0
  C  C42  1  0.22130000  0.71617000  0.33526000  1.0
  C  C43  1  0.77871000  0.28383000  0.66474000  1.0
  C  C44  1  0.36502000  0.80763000  0.38142000  1.0
  C  C45  1  0.63498000  0.19238000  0.61858000  1.0
  C  C46  1  0.41770000  0.91572000  0.32727000  1.0
  C  C47  1  0.58229000  0.08428000  0.67273000  1.0
  C  C48  1  0.19397000  0.85043000  0.18842000  1.0
  C  C49  1  0.80603000  0.14957000  0.81158000  1.0
  C  C50  1  0.26625000  0.94197000  0.87188000  1.0
  C  C51  1  0.73375000  0.05804000  0.12812000  1.0
  C  C52  1  0.11524000  0.86895000  0.78488000  1.0
  C  C53  1  0.88476000  0.13105000  0.21513000  1.0
  C  C54  1  0.17734000  0.03087000  0.63046000  1.0
  C  C55  1  0.82266000  0.96913000  0.36954000  1.0
  C  C56  1  0.26571000  0.25955000  0.60309000  1.0
  C  C57  1  0.73429000  0.74044000  0.39691000  1.0
  C  C58  1  0.28459000  0.37422000  0.40121000  1.0
  C  C59  1  0.71540000  0.62578000  0.59879000  1.0
  C  C60  1  0.35600000  0.27635000  0.32395000  1.0
  C  C61  1  0.64399000  0.72365000  0.67605000  1.0
  S  S62  1  0.33774000  0.41714000  0.56984000  1.0
  S  S63  1  0.66226000  0.58286000  0.43016000  1.0
  S  S64  1  0.22150000  0.09367000  0.50214000  1.0
  S  S65  1  0.77850000  0.90633000  0.49786000  1.0
  S  S66  1  0.12123000  0.85560000  0.62086000  1.0
  S  S67  1  0.87877000  0.14440000  0.37914000  1.0
  N  N68  1  0.33252000  0.93654000  0.23250000  1.0
  N  N69  1  0.66748000  0.06346000  0.76750000  1.0
  N  N70  1  0.54319000  0.26465000  0.07623000  1.0
  N  N71  1  0.45681000  0.73535000  0.92377000  1.0
  N  N72  1  0.99005000  0.65069000  0.17694000  1.0
  N  N73  1  0.00995000  0.34931000  0.82306000  1.0
  N  N74  1  0.19729000  0.12887000  0.73505000  1.0
  N  N75  1  0.80271000  0.87113000  0.26495000  1.0
  N  N76  1  0.24786000  0.25843000  0.71894000  1.0
  N  N77  1  0.75214000  0.74156000  0.28106000  1.0
  O  O78  1  0.25693000  0.98728000  0.98608000  1.0
  O  O79  1  0.74307000  0.01272000  0.01393000  1.0
  O  O80  1  0.38480000  0.94917000  0.82773000  1.0
  O  O81  1  0.61520000  0.05083000  0.17227000  1.0
  O  O82  1  0.47762000  0.26274000  0.36786000  1.0
  O  O83  1  0.52238000  0.73727000  0.63214000  1.0
  O  O84  1  0.28210000  0.21380000  0.21259000  1.0
  O  O85  1  0.71790000  0.78620000  0.78741000  1.0
  O  O86  1  0.98803000  0.45688000  0.24345000  1.0
  O  O87  1  0.01197000  0.54311000  0.75655000  1.0
