# generated using pymatgen
data_Na2CdH8(C8O5)2
_symmetry_space_group_name_H-M   'P 1'
_cell_length_a   6.53817000
_cell_length_b   11.45670000
_cell_length_c   11.56080000
_cell_angle_alpha   77.84100000
_cell_angle_beta   76.92200000
_cell_angle_gamma   77.21840000
_symmetry_Int_Tables_number   1
_chemical_formula_structural   Na2CdH8(C8O5)2
_chemical_formula_sum   'Na4 Cd2 H16 C32 O20'
_cell_volume   810.77257303
_cell_formula_units_Z   2
loop_
 _symmetry_equiv_pos_site_id
 _symmetry_equiv_pos_as_xyz
  1  'x, y, z'
loop_
 _atom_site_type_symbol
 _atom_site_label
 _atom_site_symmetry_multiplicity
 _atom_site_fract_x
 _atom_site_fract_y
 _atom_site_fract_z
 _atom_site_occupancy
  Na  Na0  1  0.42690000  0.84726000  0.02827000  1.0
  Na  Na1  1  0.57310000  0.15274000  0.97173000  1.0
  Na  Na2  1  0.87602000  0.36291000  0.03826000  1.0
  Na  Na3  1  0.12398000  0.63709000  0.96175000  1.0
  Cd  Cd4  1  0.85895000  0.84422000  0.16268000  1.0
  Cd  Cd5  1  0.14105000  0.15578000  0.83732000  1.0
  H  H6  1  0.60286000  0.63654000  0.94037000  1.0
  H  H7  1  0.39714000  0.36346000  0.05964000  1.0
  H  H8  1  0.59405000  0.69699000  0.80741000  1.0
  H  H9  1  0.40595000  0.30301000  0.19259000  1.0
  H  H10  1  0.38818000  0.05846000  0.46955000  1.0
  H  H11  1  0.61182000  0.94155000  0.53044000  1.0
  H  H12  1  0.04950000  0.17141000  0.57081000  1.0
  H  H13  1  0.95050000  0.82859000  0.42919000  1.0
  H  H14  1  0.76516000  0.18729000  0.26569000  1.0
  H  H15  1  0.23484000  0.81271000  0.73431000  1.0
  H  H16  1  0.06796000  0.47670000  0.42201000  1.0
  H  H17  1  0.93204000  0.52329000  0.57799000  1.0
  H  H18  1  0.29388000  0.30551000  0.53480000  1.0
  H  H19  1  0.70612000  0.69449000  0.46520000  1.0
  H  H20  1  0.85554000  0.41019000  0.29520000  1.0
  H  H21  1  0.14446000  0.58981000  0.70480000  1.0
  C  C22  1  0.48239000  0.99399000  0.24965000  1.0
  C  C23  1  0.51761000  0.00601000  0.75034000  1.0
  C  C24  1  0.27308000  0.05921000  0.30854000  1.0
  C  C25  1  0.72692000  0.94079000  0.69146000  1.0
  C  C26  1  0.25233000  0.08567000  0.42424000  1.0
  C  C27  1  0.74767000  0.91433000  0.57576000  1.0
  C  C28  1  0.06381000  0.14913000  0.48208000  1.0
  C  C29  1  0.93619000  0.85087000  0.51792000  1.0
  C  C30  1  0.89090000  0.18807000  0.42314000  1.0
  C  C31  1  0.10910000  0.81193000  0.57686000  1.0
  C  C32  1  0.90423000  0.16090000  0.30893000  1.0
  C  C33  1  0.09577000  0.83910000  0.69107000  1.0
  C  C34  1  0.09446000  0.09736000  0.25128000  1.0
  C  C35  1  0.90554000  0.90263000  0.74872000  1.0
  C  C36  1  0.09779000  0.07249000  0.12798000  1.0
  C  C37  1  0.90220000  0.92751000  0.87202000  1.0
  C  C38  1  0.18841000  0.64287000  0.23390000  1.0
  C  C39  1  0.81159000  0.35713000  0.76610000  1.0
  C  C40  1  0.33185000  0.54162000  0.29766000  1.0
  C  C41  1  0.66815000  0.45838000  0.70234000  1.0
  C  C42  1  0.24108000  0.46224000  0.39554000  1.0
  C  C43  1  0.75892000  0.53776000  0.60446000  1.0
  C  C44  1  0.36551000  0.36521000  0.45742000  1.0
  C  C45  1  0.63449000  0.63479000  0.54258000  1.0
  C  C46  1  0.58671000  0.34568000  0.41898000  1.0
  C  C47  1  0.41329000  0.65432000  0.58102000  1.0
  C  C48  1  0.68196000  0.42393000  0.32161000  1.0
  C  C49  1  0.31804000  0.57607000  0.67839000  1.0
  C  C50  1  0.55568000  0.52140000  0.26061000  1.0
  C  C51  1  0.44432000  0.47860000  0.73939000  1.0
  C  C52  1  0.66522000  0.60625000  0.15993000  1.0
  C  C53  1  0.33478000  0.39375000  0.84007000  1.0
  O  O54  1  0.61828000  0.93696000  0.31461000  1.0
  O  O55  1  0.38172000  0.06304000  0.68539000  1.0
  O  O56  1  0.52190000  0.99742000  0.13491000  1.0
  O  O57  1  0.47810000  0.00258000  0.86509000  1.0
  O  O58  1  0.11280000  0.96426000  0.11277000  1.0
  O  O59  1  0.88721000  0.03574000  0.88723000  1.0
  O  O60  1  0.08021000  0.16577000  0.04554000  1.0
  O  O61  1  0.91979000  0.83423000  0.95446000  1.0
  O  O62  1  0.70553000  0.25010000  0.48363000  1.0
  O  O63  1  0.29447000  0.74990000  0.51636000  1.0
  O  O64  1  0.01739000  0.69251000  0.29691000  1.0
  O  O65  1  0.98261000  0.30749000  0.70309000  1.0
  O  O66  1  0.23893000  0.67395000  0.12004000  1.0
  O  O67  1  0.76107000  0.32605000  0.87996000  1.0
  O  O68  1  0.62401000  0.71750000  0.17065000  1.0
  O  O69  1  0.37599000  0.28250000  0.82935000  1.0
  O  O70  1  0.79236000  0.56155000  0.07217000  1.0
  O  O71  1  0.20763000  0.43846000  0.92783000  1.0
  O  O72  1  0.50926000  0.69184000  0.88870000  1.0
  O  O73  1  0.49075000  0.30815000  0.11131000  1.0
