# generated using pymatgen
data_Ag2H9(C3N)3
_symmetry_space_group_name_H-M   'P 1'
_cell_length_a   6.41881000
_cell_length_b   11.38850000
_cell_length_c   14.94060000
_cell_angle_alpha   90.00000000
_cell_angle_beta   90.00000000
_cell_angle_gamma   89.99980000
_symmetry_Int_Tables_number   1
_chemical_formula_structural   Ag2H9(C3N)3
_chemical_formula_sum   'Ag8 H36 C36 N12'
_cell_volume   1092.16708858
_cell_formula_units_Z   4
loop_
 _symmetry_equiv_pos_site_id
 _symmetry_equiv_pos_as_xyz
  1  'x, y, z'
loop_
 _atom_site_type_symbol
 _atom_site_label
 _atom_site_symmetry_multiplicity
 _atom_site_fract_x
 _atom_site_fract_y
 _atom_site_fract_z
 _atom_site_occupancy
  Ag  Ag0  1  0.74999000  0.54746000  0.25326000  1.0
  Ag  Ag1  1  0.24999000  0.45253000  0.74674000  1.0
  Ag  Ag2  1  0.75000000  0.45253000  0.75326000  1.0
  Ag  Ag3  1  0.24999000  0.54748000  0.24674000  1.0
  Ag  Ag4  1  0.75000000  0.81569000  0.97359000  1.0
  Ag  Ag5  1  0.25000000  0.18431000  0.02641000  1.0
  Ag  Ag6  1  0.75000000  0.18431000  0.47359000  1.0
  Ag  Ag7  1  0.25000000  0.81569000  0.52641000  1.0
  H  H8  1  0.75000000  0.26271000  0.87821000  1.0
  H  H9  1  0.25001000  0.73729000  0.12179000  1.0
  H  H10  1  0.74999000  0.73729000  0.37821000  1.0
  H  H11  1  0.25000000  0.26271000  0.62179000  1.0
  H  H12  1  0.75001000  0.20449000  0.16337000  1.0
  H  H13  1  0.25000000  0.79551000  0.83663000  1.0
  H  H14  1  0.75000000  0.79551000  0.66336000  1.0
  H  H15  1  0.25000000  0.20449000  0.33663000  1.0
  H  H16  1  0.75001000  0.98817000  0.13036000  1.0
  H  H17  1  0.25001000  0.01183000  0.86964000  1.0
  H  H18  1  0.75000000  0.01183000  0.63036000  1.0
  H  H19  1  0.25000000  0.98817000  0.36965000  1.0
  H  H20  1  0.75001000  0.93891000  0.83042000  1.0
  H  H21  1  0.25000000  0.06108000  0.16958000  1.0
  H  H22  1  0.75000000  0.06108000  0.33042000  1.0
  H  H23  1  0.25000000  0.93892000  0.66958000  1.0
  H  H24  1  0.88694000  0.06731000  0.79359000  1.0
  H  H25  1  0.38693000  0.93269000  0.20641000  1.0
  H  H26  1  0.61306000  0.93270000  0.29359000  1.0
  H  H27  1  0.11306000  0.06731000  0.70641000  1.0
  H  H28  1  0.11306000  0.93269000  0.20641000  1.0
  H  H29  1  0.61307000  0.06731000  0.79359000  1.0
  H  H30  1  0.38693000  0.06731000  0.70641000  1.0
  H  H31  1  0.88695000  0.93269000  0.29359000  1.0
  H  H32  1  0.75000000  0.40682000  0.10680000  1.0
  H  H33  1  0.25000000  0.59318000  0.89320000  1.0
  H  H34  1  0.74999000  0.59318000  0.60680000  1.0
  H  H35  1  0.25000000  0.40682000  0.39320000  1.0
  H  H36  1  0.88764000  0.42229000  0.00394000  1.0
  H  H37  1  0.38764000  0.57771000  0.99606000  1.0
  H  H38  1  0.61235000  0.57771000  0.50394000  1.0
  H  H39  1  0.11236000  0.42229000  0.49606000  1.0
  H  H40  1  0.11236000  0.57771000  0.99606000  1.0
  H  H41  1  0.61235000  0.42229000  0.00394000  1.0
  H  H42  1  0.38765000  0.42229000  0.49606000  1.0
  H  H43  1  0.88764000  0.57771000  0.50394000  1.0
  C  C44  1  0.75000000  0.40487000  0.33448000  1.0
  C  C45  1  0.24998000  0.59513000  0.66553000  1.0
  C  C46  1  0.75001000  0.59513000  0.83447000  1.0
  C  C47  1  0.25000000  0.40487000  0.16553000  1.0
  C  C48  1  0.74999000  0.69057000  0.17247000  1.0
  C  C49  1  0.25001000  0.30942000  0.82754000  1.0
  C  C50  1  0.74999000  0.30942000  0.67247000  1.0
  C  C51  1  0.24999000  0.69057000  0.32753000  1.0
  C  C52  1  0.75002000  0.08366000  0.92316000  1.0
  C  C53  1  0.25001000  0.91633000  0.07684000  1.0
  C  C54  1  0.74999000  0.91634000  0.42316000  1.0
  C  C55  1  0.24999000  0.08366000  0.57684000  1.0
  C  C56  1  0.75001000  0.20497000  0.93649000  1.0
  C  C57  1  0.25000000  0.79503000  0.06351000  1.0
  C  C58  1  0.74999000  0.79503000  0.43649000  1.0
  C  C59  1  0.25000000  0.20497000  0.56351000  1.0
  C  C60  1  0.75000000  0.25271000  0.02261000  1.0
  C  C61  1  0.25000000  0.74729000  0.97740000  1.0
  C  C62  1  0.75000000  0.74729000  0.52260000  1.0
  C  C63  1  0.25000000  0.25271000  0.47739000  1.0
  C  C64  1  0.75000000  0.17304000  0.09445000  1.0
  C  C65  1  0.25000000  0.82696000  0.90555000  1.0
  C  C66  1  0.74999000  0.82696000  0.59444000  1.0
  C  C67  1  0.25001000  0.17304000  0.40555000  1.0
  C  C68  1  0.75000000  0.05330000  0.07686000  1.0
  C  C69  1  0.25000000  0.94669000  0.92314000  1.0
  C  C70  1  0.75000000  0.94669000  0.57686000  1.0
  C  C71  1  0.25000000  0.05331000  0.42314000  1.0
  C  C72  1  0.75000000  0.03533000  0.83021000  1.0
  C  C73  1  0.25000000  0.96467000  0.16979000  1.0
  C  C74  1  0.75000000  0.96467000  0.33021000  1.0
  C  C75  1  0.25000000  0.03533000  0.66979000  1.0
  C  C76  1  0.75000000  0.38294000  0.03570000  1.0
  C  C77  1  0.25001000  0.61706000  0.96430000  1.0
  C  C78  1  0.74999000  0.61706000  0.53570000  1.0
  C  C79  1  0.25000000  0.38294000  0.46430000  1.0
  N  N80  1  0.75001000  0.32378000  0.38259000  1.0
  N  N81  1  0.24999000  0.67622000  0.61741000  1.0
  N  N82  1  0.75001000  0.67622000  0.88260000  1.0
  N  N83  1  0.25000000  0.32380000  0.11740000  1.0
  N  N84  1  0.74999000  0.77228000  0.12462000  1.0
  N  N85  1  0.25001000  0.22772000  0.87538000  1.0
  N  N86  1  0.74999000  0.22772000  0.62462000  1.0
  N  N87  1  0.25000000  0.77228000  0.37539000  1.0
  N  N88  1  0.75000000  0.00872000  0.99332000  1.0
  N  N89  1  0.25000000  0.99128000  0.00668000  1.0
  N  N90  1  0.74999000  0.99128000  0.49332000  1.0
  N  N91  1  0.25000000  0.00872000  0.50668000  1.0
