# generated using pymatgen
data_MnH8C10(N4O)2
_symmetry_space_group_name_H-M   'P 1'
_cell_length_a   7.20172000
_cell_length_b   7.48420000
_cell_length_c   12.77460000
_cell_angle_alpha   93.44810000
_cell_angle_beta   95.23990000
_cell_angle_gamma   100.36200000
_symmetry_Int_Tables_number   1
_chemical_formula_structural   MnH8C10(N4O)2
_chemical_formula_sum   'Mn2 H16 C20 N16 O4'
_cell_volume   672.41602589
_cell_formula_units_Z   2
loop_
 _symmetry_equiv_pos_site_id
 _symmetry_equiv_pos_as_xyz
  1  'x, y, z'
loop_
 _atom_site_type_symbol
 _atom_site_label
 _atom_site_symmetry_multiplicity
 _atom_site_fract_x
 _atom_site_fract_y
 _atom_site_fract_z
 _atom_site_occupancy
  Mn  Mn0  1  0.50000000  0.99999000  0.50000000  1.0
  Mn  Mn1  1  0.00001000  0.50000000  0.00000000  1.0
  H  H2  1  0.48693000  0.74404000  0.70335000  1.0
  H  H3  1  0.25740000  0.52138000  0.79817000  1.0
  H  H4  1  0.51306000  0.25596000  0.29665000  1.0
  H  H5  1  0.74259000  0.47862000  0.20183000  1.0
  H  H6  1  0.22593000  0.24500000  0.67446000  1.0
  H  H7  1  0.75206000  0.78656000  0.83736000  1.0
  H  H8  1  0.77406000  0.75500000  0.32554000  1.0
  H  H9  1  0.24794000  0.21344000  0.16264000  1.0
  H  H10  1  0.03288000  0.22624000  0.75590000  1.0
  H  H11  1  0.76678000  0.97152000  0.75290000  1.0
  H  H12  1  0.96712000  0.77376000  0.24410000  1.0
  H  H13  1  0.23322000  0.02848000  0.24710000  1.0
  H  H14  1  0.99368000  0.13167000  0.62341000  1.0
  H  H15  1  0.87377000  0.00904000  0.88488000  1.0
  H  H16  1  0.00631000  0.86833000  0.37659000  1.0
  H  H17  1  0.12623000  0.99095000  0.11512000  1.0
  C  C18  1  0.35386000  0.77214000  0.72734000  1.0
  C  C19  1  0.23170000  0.65369000  0.77715000  1.0
  C  C20  1  0.64613000  0.22786000  0.27265000  1.0
  C  C21  1  0.76829000  0.34631000  0.22285000  1.0
  C  C22  1  0.14287000  0.98238000  0.72755000  1.0
  C  C23  1  0.02075000  0.86354000  0.78121000  1.0
  C  C24  1  0.85713000  0.01762000  0.27245000  1.0
  C  C25  1  0.97925000  0.13647000  0.21879000  1.0
  C  C26  1  0.09707000  0.15762000  0.69418000  1.0
  C  C27  1  0.84202000  0.90965000  0.81550000  1.0
  C  C28  1  0.90292000  0.84238000  0.30581000  1.0
  C  C29  1  0.15799000  0.09035000  0.18451000  1.0
  C  C30  1  0.76464000  0.69959000  0.55968000  1.0
  C  C31  1  0.29264000  0.26046000  0.94794000  1.0
  C  C32  1  0.23537000  0.30041000  0.44032000  1.0
  C  C33  1  0.70737000  0.73954000  0.05206000  1.0
  C  C34  1  0.77242000  0.39481000  0.54447000  1.0
  C  C35  1  0.60532000  0.25317000  0.95605000  1.0
  C  C36  1  0.22758000  0.60518000  0.45553000  1.0
  C  C37  1  0.39468000  0.74684000  0.04395000  1.0
  N  N38  1  0.31248000  0.93740000  0.70352000  1.0
  N  N39  1  0.06573000  0.69777000  0.80420000  1.0
  N  N40  1  0.68751000  0.06260000  0.29648000  1.0
  N  N41  1  0.93428000  0.30223000  0.19580000  1.0
  N  N42  1  0.70117000  0.83391000  0.55391000  1.0
  N  N43  1  0.15931000  0.33085000  0.95388000  1.0
  N  N44  1  0.29884000  0.16609000  0.44609000  1.0
  N  N45  1  0.84070000  0.66915000  0.04612000  1.0
  N  N46  1  0.84845000  0.56256000  0.57155000  1.0
  N  N47  1  0.42903000  0.17142000  0.93691000  1.0
  N  N48  1  0.15155000  0.43743000  0.42844000  1.0
  N  N49  1  0.57098000  0.82858000  0.06309000  1.0
  N  N50  1  0.71717000  0.23772000  0.52221000  1.0
  N  N51  1  0.76775000  0.31847000  0.97312000  1.0
  N  N52  1  0.28283000  0.76228000  0.47780000  1.0
  N  N53  1  0.23226000  0.68154000  0.02689000  1.0
  O  O54  1  0.43561000  0.05091000  0.65854000  1.0
  O  O55  1  0.94560000  0.57724000  0.84795000  1.0
  O  O56  1  0.56439000  0.94909000  0.34145000  1.0
  O  O57  1  0.05440000  0.42277000  0.15205000  1.0
