# generated using pymatgen
data_HgH18C22(N2Cl)2
_symmetry_space_group_name_H-M   'P 1'
_cell_length_a   11.19520000
_cell_length_b   11.19530000
_cell_length_c   14.55830000
_cell_angle_alpha   105.36700000
_cell_angle_beta   105.36600000
_cell_angle_gamma   100.15600000
_symmetry_Int_Tables_number   1
_chemical_formula_structural   HgH18C22(N2Cl)2
_chemical_formula_sum   'Hg2 H36 C44 N8 Cl4'
_cell_volume   1635.78358349
_cell_formula_units_Z   2
loop_
 _symmetry_equiv_pos_site_id
 _symmetry_equiv_pos_as_xyz
  1  'x, y, z'
loop_
 _atom_site_type_symbol
 _atom_site_label
 _atom_site_symmetry_multiplicity
 _atom_site_fract_x
 _atom_site_fract_y
 _atom_site_fract_z
 _atom_site_occupancy
  Hg  Hg0  1  0.62546000  0.37454000  0.25000000  1.0
  Hg  Hg1  1  0.37454000  0.62546000  0.75000000  1.0
  H  H2  1  0.68197000  0.69290000  0.25510000  1.0
  H  H3  1  0.30710000  0.31804000  0.24490000  1.0
  H  H4  1  0.31803000  0.30710000  0.74490000  1.0
  H  H5  1  0.69290000  0.68196000  0.75510000  1.0
  H  H6  1  0.65540000  0.89817000  0.22280000  1.0
  H  H7  1  0.10183000  0.34460000  0.27720000  1.0
  H  H8  1  0.34460000  0.10182000  0.77720000  1.0
  H  H9  1  0.89818000  0.65540000  0.72281000  1.0
  H  H10  1  0.46865000  0.89959000  0.08876000  1.0
  H  H11  1  0.10041000  0.53135000  0.41124000  1.0
  H  H12  1  0.53135000  0.10040000  0.91124000  1.0
  H  H13  1  0.89960000  0.46865000  0.58876000  1.0
  H  H14  1  0.29705000  0.69758000  0.98118000  1.0
  H  H15  1  0.30242000  0.70295000  0.51882000  1.0
  H  H16  1  0.70295000  0.30241000  0.01882000  1.0
  H  H17  1  0.69758000  0.29705000  0.48117000  1.0
  H  H18  1  0.35187000  0.28055000  0.03753000  1.0
  H  H19  1  0.71945000  0.64813000  0.46247000  1.0
  H  H20  1  0.64812000  0.71944000  0.96247000  1.0
  H  H21  1  0.28055000  0.35187000  0.53753000  1.0
  H  H22  1  0.17852000  0.30525000  0.90385000  1.0
  H  H23  1  0.69474000  0.82148000  0.59615000  1.0
  H  H24  1  0.82147000  0.69474000  0.09615000  1.0
  H  H25  1  0.30526000  0.17852000  0.40384000  1.0
  H  H26  1  0.21145000  0.44410000  0.86877000  1.0
  H  H27  1  0.55590000  0.78855000  0.63123000  1.0
  H  H28  1  0.78855000  0.55590000  0.13123000  1.0
  H  H29  1  0.44410000  0.21145000  0.36877000  1.0
  H  H30  1  0.03596000  0.53306000  0.84600000  1.0
  H  H31  1  0.46693000  0.96405000  0.65400000  1.0
  H  H32  1  0.96404000  0.46694000  0.15400000  1.0
  H  H33  1  0.53307000  0.03596000  0.34600000  1.0
  H  H34  1  0.13501000  0.39069000  0.09595000  1.0
  H  H35  1  0.60931000  0.86499000  0.40405000  1.0
  H  H36  1  0.86499000  0.60930000  0.90405000  1.0
  H  H37  1  0.39069000  0.13501000  0.59595000  1.0
  C  C38  1  0.50315000  0.58124000  0.13610000  1.0
  C  C39  1  0.41876000  0.49685000  0.36390000  1.0
  C  C40  1  0.49685000  0.41875000  0.86390000  1.0
  C  C41  1  0.58124000  0.50315000  0.63610000  1.0
  C  C42  1  0.59845000  0.69474000  0.19680000  1.0
  C  C43  1  0.30526000  0.40155000  0.30321000  1.0
  C  C44  1  0.40154000  0.30526000  0.80321000  1.0
  C  C45  1  0.69474000  0.59845000  0.69679000  1.0
  C  C46  1  0.58299000  0.80764000  0.17773000  1.0
  C  C47  1  0.19236000  0.41701000  0.32227000  1.0
  C  C48  1  0.41701000  0.19235000  0.82227000  1.0
  C  C49  1  0.80764000  0.58299000  0.67773000  1.0
  C  C50  1  0.47565000  0.80874000  0.10091000  1.0
  C  C51  1  0.19126000  0.52436000  0.39909000  1.0
  C  C52  1  0.52435000  0.19125000  0.89909000  1.0
  C  C53  1  0.80874000  0.47565000  0.60091000  1.0
  C  C54  1  0.37947000  0.69677000  0.04075000  1.0
  C  C55  1  0.30322000  0.62053000  0.45925000  1.0
  C  C56  1  0.62053000  0.30322000  0.95925000  1.0
  C  C57  1  0.69678000  0.37947000  0.54075000  1.0
  C  C58  1  0.39540000  0.58362000  0.05970000  1.0
  C  C59  1  0.41638000  0.60461000  0.44030000  1.0
  C  C60  1  0.60460000  0.41637000  0.94030000  1.0
  C  C61  1  0.58362000  0.39540000  0.55970000  1.0
  C  C62  1  0.38637000  0.38439000  0.06000000  1.0
  C  C63  1  0.61561000  0.61363000  0.44000000  1.0
  C  C64  1  0.61362000  0.61561000  0.94000000  1.0
  C  C65  1  0.38439000  0.38637000  0.56000000  1.0
  C  C66  1  0.20062000  0.41068000  0.93139000  1.0
  C  C67  1  0.58932000  0.79938000  0.56861000  1.0
  C  C68  1  0.79937000  0.58932000  0.06861000  1.0
  C  C69  1  0.41068000  0.20062000  0.43138000  1.0
  C  C70  1  0.09600000  0.45611000  0.96663000  1.0
  C  C71  1  0.54390000  0.90400000  0.53338000  1.0
  C  C72  1  0.90400000  0.54390000  0.03338000  1.0
  C  C73  1  0.45611000  0.09600000  0.46662000  1.0
  C  C74  1  0.02009000  0.51872000  0.91361000  1.0
  C  C75  1  0.48128000  0.97992000  0.58639000  1.0
  C  C76  1  0.97992000  0.48128000  0.08639000  1.0
  C  C77  1  0.51872000  0.02009000  0.41361000  1.0
  C  C78  1  0.07534000  0.43796000  0.05322000  1.0
  C  C79  1  0.56205000  0.92466000  0.44678000  1.0
  C  C80  1  0.92466000  0.56204000  0.94679000  1.0
  C  C81  1  0.43796000  0.07534000  0.55321000  1.0
  N  N82  1  0.32350000  0.45645000  0.01285000  1.0
  N  N83  1  0.54355000  0.67651000  0.48715000  1.0
  N  N84  1  0.67650000  0.54355000  0.98715000  1.0
  N  N85  1  0.45645000  0.32350000  0.51284000  1.0
  N  N86  1  0.49410000  0.45494000  0.13344000  1.0
  N  N87  1  0.54506000  0.50590000  0.36656000  1.0
  N  N88  1  0.50590000  0.54506000  0.86656000  1.0
  N  N89  1  0.45494000  0.49410000  0.63344000  1.0
  Cl  Cl90  1  0.49457000  0.15566000  0.19180000  1.0
  Cl  Cl91  1  0.84433000  0.50544000  0.30819000  1.0
  Cl  Cl92  1  0.50544000  0.84434000  0.80820000  1.0
  Cl  Cl93  1  0.15566000  0.49458000  0.69181000  1.0
