# generated using pymatgen
data_ZnH13C22O5
_symmetry_space_group_name_H-M   'P 1'
_cell_length_a   11.63730000
_cell_length_b   13.20870000
_cell_length_c   15.82010000
_cell_angle_alpha   90.11080000
_cell_angle_beta   90.06080000
_cell_angle_gamma   78.17190000
_symmetry_Int_Tables_number   1
_chemical_formula_structural   ZnH13C22O5
_chemical_formula_sum   'Zn4 H52 C88 O20'
_cell_volume   2380.12588536
_cell_formula_units_Z   4
loop_
 _symmetry_equiv_pos_site_id
 _symmetry_equiv_pos_as_xyz
  1  'x, y, z'
loop_
 _atom_site_type_symbol
 _atom_site_label
 _atom_site_symmetry_multiplicity
 _atom_site_fract_x
 _atom_site_fract_y
 _atom_site_fract_z
 _atom_site_occupancy
  Zn  Zn0  1  0.92261000  0.17989000  0.49775000  1.0
  Zn  Zn1  1  0.07835000  0.31700000  0.49851000  1.0
  Zn  Zn2  1  0.91929000  0.68123000  0.50281000  1.0
  Zn  Zn3  1  0.07881000  0.81471000  0.50151000  1.0
  H  H4  1  0.74920000  0.08984000  0.46857000  1.0
  H  H5  1  0.73866000  0.27937000  0.73439000  1.0
  H  H6  1  0.65172000  0.36831000  0.86531000  1.0
  H  H7  1  0.76784000  0.43909000  0.99898000  1.0
  H  H8  1  0.86705000  0.00334000  0.46827000  1.0
  H  H9  1  0.72106000  0.28972000  0.27107000  1.0
  H  H10  1  0.63715000  0.37665000  0.13852000  1.0
  H  H11  1  0.27855000  0.21021000  0.72744000  1.0
  H  H12  1  0.36597000  0.12101000  0.85808000  1.0
  H  H13  1  0.23434000  0.06044000  0.99815000  1.0
  H  H14  1  0.27465000  0.21073000  0.27069000  1.0
  H  H15  1  0.35768000  0.12539000  0.13714000  1.0
  H  H16  1  0.25187000  0.40583000  0.46902000  1.0
  H  H17  1  0.13490000  0.49355000  0.46858000  1.0
  H  H18  1  0.80923000  0.12908000  0.81029000  1.0
  H  H19  1  0.89710000  0.04124000  0.67943000  1.0
  H  H20  1  0.57679000  0.16671000  0.78507000  1.0
  H  H21  1  0.19951000  0.36211000  0.80578000  1.0
  H  H22  1  0.10754000  0.45147000  0.67709000  1.0
  H  H23  1  0.43136000  0.33011000  0.78484000  1.0
  H  H24  1  0.19937000  0.36526000  0.19494000  1.0
  H  H25  1  0.10823000  0.45590000  0.32260000  1.0
  H  H26  1  0.42936000  0.32998000  0.21556000  1.0
  H  H27  1  0.81106000  0.12703000  0.19223000  1.0
  H  H28  1  0.90206000  0.03622000  0.31992000  1.0
  H  H29  1  0.57442000  0.16660000  0.21583000  1.0
  H  H30  1  0.80741000  0.55005000  0.44051000  1.0
  H  H31  1  0.72310000  0.78938000  0.72580000  1.0
  H  H32  1  0.64011000  0.87431000  0.85990000  1.0
  H  H33  1  0.76864000  0.93703000  0.00014000  1.0
  H  H34  1  0.86586000  0.50410000  0.52704000  1.0
  H  H35  1  0.72916000  0.78352000  0.26827000  1.0
  H  H36  1  0.64206000  0.87305000  0.13766000  1.0
  H  H37  1  0.26701000  0.71076000  0.73113000  1.0
  H  H38  1  0.35219000  0.62487000  0.86372000  1.0
  H  H39  1  0.23273000  0.55707000  0.99959000  1.0
  H  H40  1  0.26508000  0.71623000  0.26475000  1.0
  H  H41  1  0.35179000  0.62683000  0.13377000  1.0
  H  H42  1  0.24545000  0.89684000  0.55084000  1.0
  H  H43  1  0.13667000  0.98897000  0.53536000  1.0
  H  H44  1  0.79968000  0.63208000  0.80309000  1.0
  H  H45  1  0.89181000  0.54167000  0.67569000  1.0
  H  H46  1  0.56973000  0.66512000  0.78289000  1.0
  H  H47  1  0.18691000  0.87208000  0.80934000  1.0
  H  H48  1  0.09610000  0.96237000  0.68140000  1.0
  H  H49  1  0.42548000  0.82883000  0.78286000  1.0
  H  H50  1  0.19492000  0.86772000  0.18992000  1.0
  H  H51  1  0.10651000  0.95572000  0.32034000  1.0
  H  H52  1  0.42664000  0.83135000  0.21371000  1.0
  H  H53  1  0.80965000  0.62922000  0.18933000  1.0
  H  H54  1  0.90346000  0.53729000  0.31612000  1.0
  H  H55  1  0.57146000  0.66754000  0.21388000  1.0
  C  C56  1  0.87501000  0.35012000  0.61943000  1.0
  C  C57  1  0.81948000  0.40488000  0.69604000  1.0
  C  C58  1  0.75236000  0.35633000  0.75036000  1.0
  C  C59  1  0.70389000  0.40623000  0.82339000  1.0
  C  C60  1  0.87661000  0.35137000  0.37728000  1.0
  C  C61  1  0.81682000  0.40801000  0.30229000  1.0
  C  C62  1  0.74090000  0.36361000  0.25223000  1.0
  C  C63  1  0.69394000  0.41251000  0.17838000  1.0
  C  C64  1  0.12557000  0.14757000  0.62000000  1.0
  C  C65  1  0.18248000  0.09210000  0.69587000  1.0
  C  C66  1  0.25837000  0.13646000  0.74625000  1.0
  C  C67  1  0.30705000  0.08644000  0.81910000  1.0
  C  C68  1  0.12510000  0.14485000  0.37871000  1.0
  C  C69  1  0.18456000  0.08921000  0.30332000  1.0
  C  C70  1  0.25672000  0.13597000  0.25207000  1.0
  C  C71  1  0.30324000  0.08801000  0.17761000  1.0
  C  C72  1  0.71894000  0.00720000  0.84384000  1.0
  C  C73  1  0.79053000  0.05444000  0.79196000  1.0
  C  C74  1  0.84015000  0.00539000  0.71896000  1.0
  C  C75  1  0.66934000  0.05763000  0.92312000  1.0
  C  C76  1  0.70555000  0.01060000  0.00037000  1.0
  C  C77  1  0.58780000  0.15330000  0.92201000  1.0
  C  C78  1  0.54478000  0.20059000  0.00044000  1.0
  C  C79  1  0.54414000  0.20296000  0.84470000  1.0
  C  C80  1  0.28250000  0.48750000  0.84350000  1.0
  C  C81  1  0.21432000  0.43869000  0.78965000  1.0
  C  C82  1  0.16253000  0.48854000  0.71756000  1.0
  C  C83  1  0.33346000  0.43718000  0.92251000  1.0
  C  C84  1  0.29695000  0.48417000  0.99985000  1.0
  C  C85  1  0.41635000  0.34220000  0.92167000  1.0
  C  C86  1  0.45889000  0.29509000  0.00027000  1.0
  C  C87  1  0.46225000  0.29329000  0.84456000  1.0
  C  C88  1  0.28299000  0.48946000  0.15598000  1.0
  C  C89  1  0.21516000  0.44171000  0.21059000  1.0
  C  C90  1  0.16425000  0.49254000  0.28265000  1.0
  C  C91  1  0.33352000  0.43781000  0.07735000  1.0
  C  C92  1  0.41573000  0.34241000  0.07871000  1.0
  C  C93  1  0.46084000  0.29324000  0.15588000  1.0
  C  C94  1  0.71961000  0.00644000  0.15655000  1.0
  C  C95  1  0.79193000  0.05219000  0.20928000  1.0
  C  C96  1  0.84278000  0.00131000  0.28128000  1.0
  C  C97  1  0.66938000  0.05772000  0.07775000  1.0
  C  C98  1  0.58757000  0.15329000  0.07892000  1.0
  C  C99  1  0.54284000  0.20291000  0.15605000  1.0
  C  C100  1  0.87615000  0.85373000  0.62010000  1.0
  C  C101  1  0.81640000  0.90941000  0.69528000  1.0
  C  C102  1  0.74237000  0.86331000  0.74543000  1.0
  C  C103  1  0.69613000  0.91092000  0.82009000  1.0
  C  C104  1  0.87631000  0.84818000  0.37874000  1.0
  C  C105  1  0.82015000  0.90404000  0.30277000  1.0
  C  C106  1  0.74704000  0.85855000  0.25076000  1.0
  C  C107  1  0.69858000  0.90874000  0.17794000  1.0
  C  C108  1  0.12203000  0.64258000  0.62101000  1.0
  C  C109  1  0.18157000  0.58684000  0.69626000  1.0
  C  C110  1  0.25168000  0.63482000  0.74853000  1.0
  C  C111  1  0.29927000  0.58658000  0.82250000  1.0
  C  C112  1  0.12626000  0.64741000  0.37885000  1.0
  C  C113  1  0.18228000  0.59186000  0.30252000  1.0
  C  C114  1  0.25059000  0.63960000  0.24851000  1.0
  C  C115  1  0.29899000  0.58938000  0.17557000  1.0
  C  C116  1  0.71844000  0.50668000  0.84262000  1.0
  C  C117  1  0.78531000  0.55506000  0.78779000  1.0
  C  C118  1  0.83658000  0.50447000  0.71578000  1.0
  C  C119  1  0.66743000  0.55836000  0.92115000  1.0
  C  C120  1  0.70392000  0.51217000  0.99876000  1.0
  C  C121  1  0.58497000  0.65364000  0.91985000  1.0
  C  C122  1  0.54225000  0.70137000  0.99833000  1.0
  C  C123  1  0.53921000  0.70228000  0.84264000  1.0
  C  C124  1  0.28319000  0.99031000  0.84213000  1.0
  C  C125  1  0.20825000  0.94561000  0.79095000  1.0
  C  C126  1  0.15744000  0.99623000  0.71889000  1.0
  C  C127  1  0.33315000  0.93916000  0.92104000  1.0
  C  C128  1  0.29711000  0.98667000  0.99829000  1.0
  C  C129  1  0.41395000  0.84310000  0.91983000  1.0
  C  C130  1  0.45659000  0.79603000  0.99835000  1.0
  C  C131  1  0.45760000  0.79285000  0.84264000  1.0
  C  C132  1  0.28272000  0.99060000  0.15488000  1.0
  C  C133  1  0.21241000  0.94299000  0.20761000  1.0
  C  C134  1  0.16242000  0.99231000  0.28046000  1.0
  C  C135  1  0.33272000  0.93974000  0.07573000  1.0
  C  C136  1  0.41400000  0.84382000  0.07681000  1.0
  C  C137  1  0.45839000  0.79453000  0.15410000  1.0
  C  C138  1  0.71693000  0.50887000  0.15526000  1.0
  C  C139  1  0.79012000  0.55477000  0.20706000  1.0
  C  C140  1  0.84163000  0.50378000  0.27883000  1.0
  C  C141  1  0.66715000  0.55931000  0.07598000  1.0
  C  C142  1  0.58493000  0.65455000  0.07696000  1.0
  C  C143  1  0.54001000  0.70400000  0.15414000  1.0
  O  O144  1  0.86224000  0.25823000  0.60529000  1.0
  O  O145  1  0.82419000  0.06877000  0.49722000  1.0
  O  O146  1  0.93529000  0.39853000  0.57145000  1.0
  O  O147  1  0.82724000  0.28642000  0.41488000  1.0
  O  O148  1  0.97497000  0.37338000  0.39741000  1.0
  O  O149  1  0.13811000  0.23954000  0.60662000  1.0
  O  O150  1  0.06494000  0.09912000  0.57226000  1.0
  O  O151  1  0.17370000  0.21046000  0.41665000  1.0
  O  O152  1  0.02645000  0.12318000  0.39823000  1.0
  O  O153  1  0.17701000  0.42785000  0.49761000  1.0
  O  O154  1  0.82568000  0.79031000  0.58111000  1.0
  O  O155  1  0.82303000  0.56933000  0.49823000  1.0
  O  O156  1  0.97642000  0.87292000  0.60185000  1.0
  O  O157  1  0.86368000  0.75617000  0.39189000  1.0
  O  O158  1  0.93661000  0.89636000  0.42709000  1.0
  O  O159  1  0.17248000  0.70619000  0.58237000  1.0
  O  O160  1  0.02208000  0.62301000  0.60209000  1.0
  O  O161  1  0.13898000  0.73944000  0.39212000  1.0
  O  O162  1  0.06619000  0.59938000  0.42714000  1.0
  O  O163  1  0.18258000  0.92199000  0.51074000  1.0
