# generated using pymatgen
data_CdH24C12(NO2)2
_symmetry_space_group_name_H-M   'P 1'
_cell_length_a   4.98826000
_cell_length_b   9.87406000
_cell_length_c   14.64720000
_cell_angle_alpha   76.92800000
_cell_angle_beta   89.99960000
_cell_angle_gamma   89.99950000
_symmetry_Int_Tables_number   1
_chemical_formula_structural   CdH24C12(NO2)2
_chemical_formula_sum   'Cd2 H48 C24 N4 O8'
_cell_volume   702.74381266
_cell_formula_units_Z   2
loop_
 _symmetry_equiv_pos_site_id
 _symmetry_equiv_pos_as_xyz
  1  'x, y, z'
loop_
 _atom_site_type_symbol
 _atom_site_label
 _atom_site_symmetry_multiplicity
 _atom_site_fract_x
 _atom_site_fract_y
 _atom_site_fract_z
 _atom_site_occupancy
  Cd  Cd0  1  0.59153000  0.25304000  0.49644000  1.0
  Cd  Cd1  1  0.09155000  0.74695000  0.50356000  1.0
  H  H2  1  0.25047000  0.34000000  0.34019000  1.0
  H  H3  1  0.75047000  0.65999000  0.65981000  1.0
  H  H4  1  0.18500000  0.42891000  0.41928000  1.0
  H  H5  1  0.68500000  0.57108000  0.58072000  1.0
  H  H6  1  0.46751000  0.44005000  0.20422000  1.0
  H  H7  1  0.96752000  0.55996000  0.79577000  1.0
  H  H8  1  0.74844000  0.37519000  0.27420000  1.0
  H  H9  1  0.24845000  0.62481000  0.72579000  1.0
  H  H10  1  0.96692000  0.60961000  0.22566000  1.0
  H  H11  1  0.46692000  0.39039000  0.77434000  1.0
  H  H12  1  0.07481000  0.58911000  0.06421000  1.0
  H  H13  1  0.57480000  0.41090000  0.93579000  1.0
  H  H14  1  0.78147000  0.48905000  0.06027000  1.0
  H  H15  1  0.28146000  0.51096000  0.93973000  1.0
  H  H16  1  0.04565000  0.42032000  0.13827000  1.0
  H  H17  1  0.54564000  0.57969000  0.86173000  1.0
  H  H18  1  0.36843000  0.60375000  0.30668000  1.0
  H  H19  1  0.86842000  0.39623000  0.69333000  1.0
  H  H20  1  0.47354000  0.68375000  0.09905000  1.0
  H  H21  1  0.97355000  0.31626000  0.90095000  1.0
  H  H22  1  0.77049000  0.78500000  0.08964000  1.0
  H  H23  1  0.27049000  0.21501000  0.91037000  1.0
  H  H24  1  0.57138000  0.76194000  0.19208000  1.0
  H  H25  1  0.07138000  0.23807000  0.80793000  1.0
  H  H26  1  0.62223000  0.81462000  0.76774000  1.0
  H  H27  1  0.12219000  0.18538000  0.23227000  1.0
  H  H28  1  0.93105000  0.84707000  0.70696000  1.0
  H  H29  1  0.43102000  0.15292000  0.29303000  1.0
  H  H30  1  0.85981000  0.73490000  0.91875000  1.0
  H  H31  1  0.35973000  0.26510000  0.08125000  1.0
  H  H32  1  0.10859000  0.83964000  0.95514000  1.0
  H  H33  1  0.60852000  0.16039000  0.04486000  1.0
  H  H34  1  0.17081000  0.76277000  0.85834000  1.0
  H  H35  1  0.67073000  0.23725000  0.14165000  1.0
  H  H36  1  0.78268000  0.03260000  0.94246000  1.0
  H  H37  1  0.28263000  0.96740000  0.05754000  1.0
  H  H38  1  0.51792000  0.94377000  0.89954000  1.0
  H  H39  1  0.01787000  0.05622000  0.10047000  1.0
  H  H40  1  0.62166000  0.11049000  0.83585000  1.0
  H  H41  1  0.12165000  0.88951000  0.16415000  1.0
  H  H42  1  0.06201000  0.01391000  0.80189000  1.0
  H  H43  1  0.56198000  0.98610000  0.19810000  1.0
  H  H44  1  0.96991000  0.06748000  0.58285000  1.0
  H  H45  1  0.46990000  0.93253000  0.41715000  1.0
  H  H46  1  0.92838000  0.16969000  0.65570000  1.0
  H  H47  1  0.42837000  0.83030000  0.34429000  1.0
  H  H48  1  0.50361000  0.06972000  0.70666000  1.0
  H  H49  1  0.00358000  0.93028000  0.29335000  1.0
  C  C50  1  0.71883000  0.55567000  0.39297000  1.0
  C  C51  1  0.21883000  0.44433000  0.60703000  1.0
  C  C52  1  0.63015000  0.46991000  0.24684000  1.0
  C  C53  1  0.13014000  0.53010000  0.75316000  1.0
  C  C54  1  0.80546000  0.57915000  0.18284000  1.0
  C  C55  1  0.30547000  0.42086000  0.81716000  1.0
  C  C56  1  0.93448000  0.51585000  0.10733000  1.0
  C  C57  1  0.43448000  0.48416000  0.89267000  1.0
  C  C58  1  0.49858000  0.51263000  0.33106000  1.0
  C  C59  1  0.99858000  0.48737000  0.66894000  1.0
  C  C60  1  0.64649000  0.70987000  0.13853000  1.0
  C  C61  1  0.14649000  0.29014000  0.86147000  1.0
  C  C62  1  0.44615000  0.95726000  0.60298000  1.0
  C  C63  1  0.94614000  0.04272000  0.39702000  1.0
  C  C64  1  0.77400000  0.89529000  0.74200000  1.0
  C  C65  1  0.27396000  0.10471000  0.25799000  1.0
  C  C66  1  0.01721000  0.81243000  0.89335000  1.0
  C  C67  1  0.51713000  0.18758000  0.10664000  1.0
  C  C68  1  0.69363000  0.01102000  0.87857000  1.0
  C  C69  1  0.19360000  0.98899000  0.12142000  1.0
  C  C70  1  0.89744000  0.93986000  0.82674000  1.0
  C  C71  1  0.39742000  0.06015000  0.17325000  1.0
  C  C72  1  0.63882000  0.01104000  0.67011000  1.0
  C  C73  1  0.13881000  0.98895000  0.32989000  1.0
  N  N74  1  0.33956000  0.39465000  0.38354000  1.0
  N  N75  1  0.83958000  0.60535000  0.61646000  1.0
  N  N76  1  0.82597000  0.11426000  0.61570000  1.0
  N  N77  1  0.32596000  0.88573000  0.38430000  1.0
  O  O78  1  0.83449000  0.46014000  0.45359000  1.0
  O  O79  1  0.33448000  0.53983000  0.54641000  1.0
  O  O80  1  0.78364000  0.68282000  0.37662000  1.0
  O  O81  1  0.28364000  0.31716000  0.62339000  1.0
  O  O82  1  0.38531000  0.82946000  0.62086000  1.0
  O  O83  1  0.88530000  0.17054000  0.37915000  1.0
  O  O84  1  0.34417000  0.04843000  0.53621000  1.0
  O  O85  1  0.84416000  0.95157000  0.46380000  1.0
