# generated using pymatgen
data_U2H12C16N2O11
_symmetry_space_group_name_H-M   'P 1'
_cell_length_a   8.57628000
_cell_length_b   9.88791000
_cell_length_c   11.82480000
_cell_angle_alpha   78.40630000
_cell_angle_beta   80.70460000
_cell_angle_gamma   83.51260000
_symmetry_Int_Tables_number   1
_chemical_formula_structural   U2H12C16N2O11
_chemical_formula_sum   'U4 H24 C32 N4 O22'
_cell_volume   966.03406424
_cell_formula_units_Z   2
loop_
 _symmetry_equiv_pos_site_id
 _symmetry_equiv_pos_as_xyz
  1  'x, y, z'
loop_
 _atom_site_type_symbol
 _atom_site_label
 _atom_site_symmetry_multiplicity
 _atom_site_fract_x
 _atom_site_fract_y
 _atom_site_fract_z
 _atom_site_occupancy
  U  U0  1  0.18627000  0.58252000  0.03581000  1.0
  U  U1  1  0.81373000  0.41748000  0.96419000  1.0
  U  U2  1  0.70539000  0.69427000  0.51408000  1.0
  U  U3  1  0.29461000  0.30574000  0.48592000  1.0
  H  H4  1  0.78295000  0.38012000  0.23292000  1.0
  H  H5  1  0.21705000  0.61988000  0.76709000  1.0
  H  H6  1  0.86708000  0.44714000  0.33480000  1.0
  H  H7  1  0.13292000  0.55286000  0.66520000  1.0
  H  H8  1  0.60728000  0.74748000  0.21502000  1.0
  H  H9  1  0.39272000  0.25253000  0.78498000  1.0
  H  H10  1  0.70776000  0.77376000  0.06999000  1.0
  H  H11  1  0.29224000  0.22624000  0.93001000  1.0
  H  H12  1  0.45167000  0.76705000  0.75292000  1.0
  H  H13  1  0.54833000  0.23295000  0.24708000  1.0
  H  H14  1  0.39575000  0.92599000  0.89403000  1.0
  H  H15  1  0.60425000  0.07401000  0.10597000  1.0
  H  H16  1  0.61468000  0.07397000  0.90942000  1.0
  H  H17  1  0.38532000  0.92603000  0.09058000  1.0
  H  H18  1  0.87612000  0.04107000  0.79179000  1.0
  H  H19  1  0.12388000  0.95893000  0.20821000  1.0
  H  H20  1  0.09750000  0.95765000  0.72846000  1.0
  H  H21  1  0.90250000  0.04235000  0.27154000  1.0
  H  H22  1  0.34653000  0.91927000  0.59364000  1.0
  H  H23  1  0.65347000  0.08072000  0.40636000  1.0
  H  H24  1  0.33912000  0.79621000  0.42910000  1.0
  H  H25  1  0.66088000  0.20379000  0.57090000  1.0
  H  H26  1  0.08292000  0.71902000  0.40481000  1.0
  H  H27  1  0.91708000  0.28098000  0.59519000  1.0
  C  C28  1  0.91395000  0.68729000  0.23365000  1.0
  C  C29  1  0.08605000  0.31271000  0.76634000  1.0
  C  C30  1  0.81478000  0.60042000  0.18146000  1.0
  C  C31  1  0.18522000  0.39958000  0.81854000  1.0
  C  C32  1  0.77581000  0.46870000  0.27637000  1.0
  C  C33  1  0.22419000  0.53130000  0.72363000  1.0
  C  C34  1  0.61700000  0.47942000  0.35176000  1.0
  C  C35  1  0.38300000  0.52058000  0.64824000  1.0
  C  C36  1  0.66685000  0.69403000  0.14511000  1.0
  C  C37  1  0.33315000  0.30597000  0.85489000  1.0
  C  C38  1  0.54766000  0.61653000  0.10668000  1.0
  C  C39  1  0.45234000  0.38347000  0.89332000  1.0
  C  C40  1  0.54247000  0.83041000  0.76285000  1.0
  C  C41  1  0.45753000  0.16959000  0.23715000  1.0
  C  C42  1  0.51292000  0.91930000  0.84282000  1.0
  C  C43  1  0.48708000  0.08070000  0.15719000  1.0
  C  C44  1  0.63382000  0.99740000  0.85284000  1.0
  C  C45  1  0.36618000  0.00260000  0.14716000  1.0
  C  C46  1  0.78112000  0.97959000  0.78587000  1.0
  C  C47  1  0.21888000  0.02041000  0.21413000  1.0
  C  C48  1  0.80270000  0.88747000  0.70769000  1.0
  C  C49  1  0.19730000  0.11253000  0.29231000  1.0
  C  C50  1  0.95544000  0.86449000  0.63410000  1.0
  C  C51  1  0.04456000  0.13551000  0.36590000  1.0
  C  C52  1  0.09667000  0.90728000  0.65486000  1.0
  C  C53  1  0.90333000  0.09272000  0.34514000  1.0
  C  C54  1  0.23634000  0.88392000  0.58093000  1.0
  C  C55  1  0.76366000  0.11607000  0.41907000  1.0
  C  C56  1  0.23265000  0.81656000  0.48883000  1.0
  C  C57  1  0.76735000  0.18343000  0.51117000  1.0
  C  C58  1  0.08962000  0.77397000  0.47449000  1.0
  C  C59  1  0.91038000  0.22603000  0.52551000  1.0
  N  N60  1  0.68242000  0.81668000  0.69444000  1.0
  N  N61  1  0.31758000  0.18332000  0.30556000  1.0
  N  N62  1  0.95327000  0.79821000  0.54448000  1.0
  N  N63  1  0.04673000  0.20178000  0.45552000  1.0
  O  O64  1  0.21225000  0.42887000  0.14530000  1.0
  O  O65  1  0.78775000  0.57113000  0.85470000  1.0
  O  O66  1  0.16980000  0.74049000  0.92708000  1.0
  O  O67  1  0.83020000  0.25951000  0.07292000  1.0
  O  O68  1  0.81739000  0.53384000  0.56442000  1.0
  O  O69  1  0.18260000  0.46616000  0.43558000  1.0
  O  O70  1  0.59416000  0.85437000  0.46054000  1.0
  O  O71  1  0.40584000  0.14563000  0.53946000  1.0
  O  O72  1  0.05167000  0.71104000  0.18139000  1.0
  O  O73  1  0.94833000  0.28896000  0.81861000  1.0
  O  O74  1  0.85437000  0.73024000  0.32711000  1.0
  O  O75  1  0.14563000  0.26976000  0.67289000  1.0
  O  O76  1  0.58014000  0.58303000  0.40293000  1.0
  O  O77  1  0.41986000  0.41698000  0.59707000  1.0
  O  O78  1  0.52431000  0.38499000  0.36141000  1.0
  O  O79  1  0.47569000  0.61501000  0.63859000  1.0
  O  O80  1  0.40872000  0.67269000  0.09824000  1.0
  O  O81  1  0.59128000  0.32731000  0.90176000  1.0
  O  O82  1  0.59554000  0.49603000  0.08486000  1.0
  O  O83  1  0.40446000  0.50397000  0.91514000  1.0
  O  O84  1  0.90735000  0.55869000  0.08245000  1.0
  O  O85  1  0.09265000  0.44130000  0.91755000  1.0
