# generated using pymatgen
data_CdPH10C6NO7
_symmetry_space_group_name_H-M   'P 1'
_cell_length_a   6.90411000
_cell_length_b   7.38395000
_cell_length_c   10.61480000
_cell_angle_alpha   84.30230000
_cell_angle_beta   75.59280000
_cell_angle_gamma   68.46840000
_symmetry_Int_Tables_number   1
_chemical_formula_structural   CdPH10C6NO7
_chemical_formula_sum   'Cd2 P2 H20 C12 N2 O14'
_cell_volume   487.52588307
_cell_formula_units_Z   2
loop_
 _symmetry_equiv_pos_site_id
 _symmetry_equiv_pos_as_xyz
  1  'x, y, z'
loop_
 _atom_site_type_symbol
 _atom_site_label
 _atom_site_symmetry_multiplicity
 _atom_site_fract_x
 _atom_site_fract_y
 _atom_site_fract_z
 _atom_site_occupancy
  Cd  Cd0  1  0.25457000  0.81586000  0.95402000  1.0
  Cd  Cd1  1  0.74543000  0.18414000  0.04598000  1.0
  P  P2  1  0.19685000  0.21829000  0.12464000  1.0
  P  P3  1  0.80315000  0.78171000  0.87536000  1.0
  H  H4  1  0.21259000  0.53471000  0.82898000  1.0
  H  H5  1  0.78740000  0.46529000  0.17102000  1.0
  H  H6  1  0.35509000  0.41279000  0.92819000  1.0
  H  H7  1  0.64491000  0.58721000  0.07181000  1.0
  H  H8  1  0.13425000  0.57786000  0.17332000  1.0
  H  H9  1  0.86575000  0.42213000  0.82668000  1.0
  H  H10  1  0.35653000  0.59441000  0.17886000  1.0
  H  H11  1  0.64347000  0.40559000  0.82114000  1.0
  H  H12  1  0.10732000  0.88807000  0.27044000  1.0
  H  H13  1  0.89267000  0.11194000  0.72957000  1.0
  H  H14  1  0.02075000  0.25952000  0.47447000  1.0
  H  H15  1  0.97925000  0.74049000  0.52552000  1.0
  H  H16  1  0.12949000  0.40505000  0.63787000  1.0
  H  H17  1  0.87051000  0.59496000  0.36213000  1.0
  H  H18  1  0.51869000  0.35372000  0.60648000  1.0
  H  H19  1  0.48132000  0.64627000  0.39351000  1.0
  H  H20  1  0.78137000  0.16880000  0.40679000  1.0
  H  H21  1  0.21864000  0.83119000  0.59320000  1.0
  H  H22  1  0.42832000  0.92841000  0.21566000  1.0
  H  H23  1  0.57168000  0.07159000  0.78434000  1.0
  C  C24  1  0.33562000  0.14726000  0.35576000  1.0
  C  C25  1  0.66438000  0.85274000  0.64424000  1.0
  C  C26  1  0.18544000  0.24921000  0.46250000  1.0
  C  C27  1  0.81457000  0.75080000  0.53751000  1.0
  C  C28  1  0.24637000  0.32704000  0.55364000  1.0
  C  C29  1  0.75363000  0.67296000  0.44635000  1.0
  C  C30  1  0.46238000  0.30018000  0.53600000  1.0
  C  C31  1  0.53762000  0.69982000  0.46400000  1.0
  C  C32  1  0.60935000  0.20134000  0.42854000  1.0
  C  C33  1  0.39065000  0.79865000  0.57145000  1.0
  C  C34  1  0.28194000  0.04877000  0.25998000  1.0
  C  C35  1  0.71806000  0.95123000  0.74002000  1.0
  N  N36  1  0.54544000  0.12807000  0.33979000  1.0
  N  N37  1  0.45458000  0.87193000  0.66021000  1.0
  O  O38  1  0.09912000  0.11501000  0.05166000  1.0
  O  O39  1  0.90088000  0.88499000  0.94835000  1.0
  O  O40  1  0.35083000  0.51370000  0.85568000  1.0
  O  O41  1  0.64917000  0.48629000  0.14432000  1.0
  O  O42  1  0.39824000  0.24793000  0.03779000  1.0
  O  O43  1  0.60176000  0.75207000  0.96221000  1.0
  O  O44  1  0.21163000  0.67323000  0.16639000  1.0
  O  O45  1  0.78837000  0.32677000  0.83361000  1.0
  O  O46  1  0.02920000  0.41073000  0.18471000  1.0
  O  O47  1  0.97080000  0.58927000  0.81530000  1.0
  O  O48  1  0.11337000  0.98342000  0.32737000  1.0
  O  O49  1  0.88663000  0.01657000  0.67263000  1.0
  O  O50  1  0.69171000  0.02754000  0.24071000  1.0
  O  O51  1  0.30828000  0.97246000  0.75929000  1.0
