# generated using pymatgen
data_CuH12(C9N5)2
_symmetry_space_group_name_H-M   'P 1'
_cell_length_a   7.12980000
_cell_length_b   8.01568000
_cell_length_c   9.17135000
_cell_angle_alpha   99.36850000
_cell_angle_beta   108.76500000
_cell_angle_gamma   109.81500000
_symmetry_Int_Tables_number   1
_chemical_formula_structural   CuH12(C9N5)2
_chemical_formula_sum   'Cu1 H12 C18 N10'
_cell_volume   444.62971319
_cell_formula_units_Z   1
loop_
 _symmetry_equiv_pos_site_id
 _symmetry_equiv_pos_as_xyz
  1  'x, y, z'
loop_
 _atom_site_type_symbol
 _atom_site_label
 _atom_site_symmetry_multiplicity
 _atom_site_fract_x
 _atom_site_fract_y
 _atom_site_fract_z
 _atom_site_occupancy
  Cu  Cu0  1  0.00001000  0.00001000  0.00000000  1.0
  H  H1  1  0.24609000  0.84447000  0.11595000  1.0
  H  H2  1  0.75391000  0.15553000  0.88405000  1.0
  H  H3  1  0.04786000  0.79988000  0.18688000  1.0
  H  H4  1  0.95213000  0.20013000  0.81311000  1.0
  H  H5  1  0.06628000  0.02478000  0.40678000  1.0
  H  H6  1  0.93371000  0.97521000  0.59322000  1.0
  H  H7  1  0.30847000  0.29848000  0.65301000  1.0
  H  H8  1  0.69152000  0.70151000  0.34699000  1.0
  H  H9  1  0.84142000  0.37792000  0.50413000  1.0
  H  H10  1  0.15857000  0.62206000  0.49588000  1.0
  H  H11  1  0.59915000  0.10529000  0.25969000  1.0
  H  H12  1  0.40085000  0.89471000  0.74030000  1.0
  C  C13  1  0.31636000  0.04843000  0.31791000  1.0
  C  C14  1  0.68364000  0.95157000  0.68208000  1.0
  C  C15  1  0.23710000  0.10213000  0.43099000  1.0
  C  C16  1  0.76289000  0.89786000  0.56901000  1.0
  C  C17  1  0.37190000  0.25463000  0.56749000  1.0
  C  C18  1  0.62810000  0.74535000  0.43252000  1.0
  C  C19  1  0.59039000  0.35650000  0.59313000  1.0
  C  C20  1  0.40961000  0.64349000  0.40687000  1.0
  C  C21  1  0.67147000  0.30089000  0.48172000  1.0
  C  C22  1  0.32853000  0.69910000  0.51829000  1.0
  C  C23  1  0.53553000  0.14785000  0.34548000  1.0
  C  C24  1  0.46446000  0.85214000  0.65452000  1.0
  C  C25  1  0.72651000  0.51923000  0.72796000  1.0
  C  C26  1  0.27349000  0.48075000  0.27205000  1.0
  C  C27  1  0.41640000  0.17931000  0.96553000  1.0
  C  C28  1  0.58361000  0.82071000  0.03446000  1.0
  C  C29  1  0.73236000  0.44582000  0.10479000  1.0
  C  C30  1  0.26764000  0.55419000  0.89520000  1.0
  N  N31  1  0.17168000  0.90343000  0.17430000  1.0
  N  N32  1  0.82832000  0.09658000  0.82570000  1.0
  N  N33  1  0.83769000  0.65505000  0.83712000  1.0
  N  N34  1  0.16230000  0.34493000  0.16288000  1.0
  N  N35  1  0.23876000  0.06568000  0.92989000  1.0
  N  N36  1  0.76125000  0.93434000  0.07011000  1.0
  N  N37  1  0.61129000  0.28781000  0.98982000  1.0
  N  N38  1  0.38872000  0.71220000  0.01018000  1.0
  N  N39  1  0.85385000  0.58912000  0.20562000  1.0
  N  N40  1  0.14616000  0.41089000  0.79438000  1.0
