# generated using pymatgen
data_MnH14C14S2(N2O)2
_symmetry_space_group_name_H-M   'P 1'
_cell_length_a   7.87424000
_cell_length_b   9.15856000
_cell_length_c   11.38310000
_cell_angle_alpha   82.77310000
_cell_angle_beta   86.51610000
_cell_angle_gamma   78.20920000
_symmetry_Int_Tables_number   1
_chemical_formula_structural   MnH14C14S2(N2O)2
_chemical_formula_sum   'Mn2 H28 C28 S4 N8 O4'
_cell_volume   796.68683854
_cell_formula_units_Z   2
loop_
 _symmetry_equiv_pos_site_id
 _symmetry_equiv_pos_as_xyz
  1  'x, y, z'
loop_
 _atom_site_type_symbol
 _atom_site_label
 _atom_site_symmetry_multiplicity
 _atom_site_fract_x
 _atom_site_fract_y
 _atom_site_fract_z
 _atom_site_occupancy
  Mn  Mn0  1  0.19024000  0.92023000  0.08025000  1.0
  Mn  Mn1  1  0.82246000  0.07443000  0.91446000  1.0
  H  H2  1  0.82881000  0.86480000  0.20899000  1.0
  H  H3  1  0.17057000  0.13915000  0.78522000  1.0
  H  H4  1  0.57471000  0.49413000  0.17432000  1.0
  H  H5  1  0.41999000  0.51241000  0.82104000  1.0
  H  H6  1  0.70714000  0.48882000  0.96929000  1.0
  H  H7  1  0.27298000  0.52614000  0.02132000  1.0
  H  H8  1  0.89191000  0.67887000  0.89291000  1.0
  H  H9  1  0.08548000  0.33608000  0.09573000  1.0
  H  H10  1  0.71147000  0.65383000  0.40069000  1.0
  H  H11  1  0.29693000  0.34557000  0.59430000  1.0
  H  H12  1  0.51376000  0.61963000  0.35362000  1.0
  H  H13  1  0.49202000  0.37973000  0.64574000  1.0
  H  H14  1  0.54747000  0.80671000  0.34393000  1.0
  H  H15  1  0.45642000  0.19287000  0.65761000  1.0
  H  H16  1  0.05013000  0.76970000  0.39415000  1.0
  H  H17  1  0.95142000  0.22746000  0.60965000  1.0
  H  H18  1  0.34937000  0.93697000  0.63456000  1.0
  H  H19  1  0.65330000  0.04956000  0.37533000  1.0
  H  H20  1  0.35564000  0.15913000  0.47887000  1.0
  H  H21  1  0.64916000  0.83146000  0.53451000  1.0
  H  H22  1  0.20160000  0.17541000  0.29012000  1.0
  H  H23  1  0.80205000  0.82245000  0.72224000  1.0
  H  H24  1  0.11604000  0.62652000  0.58721000  1.0
  H  H25  1  0.88334000  0.36562000  0.41505000  1.0
  H  H26  1  0.15389000  0.73219000  0.70165000  1.0
  H  H27  1  0.84675000  0.25611000  0.30279000  1.0
  H  H28  1  0.33154000  0.63138000  0.62433000  1.0
  H  H29  1  0.66824000  0.35828000  0.37921000  1.0
  C  C30  1  0.51776000  0.92909000  0.88099000  1.0
  C  C31  1  0.50669000  0.08699000  0.10629000  1.0
  C  C32  1  0.23068000  0.59859000  0.23801000  1.0
  C  C33  1  0.76270000  0.38364000  0.76823000  1.0
  C  C34  1  0.79326000  0.77860000  0.16300000  1.0
  C  C35  1  0.20057000  0.22853000  0.83004000  1.0
  C  C36  1  0.68856000  0.67903000  0.21083000  1.0
  C  C37  1  0.30800000  0.32660000  0.78410000  1.0
  C  C38  1  0.65670000  0.57346000  0.14007000  1.0
  C  C39  1  0.33541000  0.43461000  0.85388000  1.0
  C  C40  1  0.72943000  0.57032000  0.02542000  1.0
  C  C41  1  0.25475000  0.44217000  0.96606000  1.0
  C  C42  1  0.83084000  0.67289000  0.98097000  1.0
  C  C43  1  0.15061000  0.34122000  0.00890000  1.0
  C  C44  1  0.61126000  0.69015000  0.33403000  1.0
  C  C45  1  0.39310000  0.31045000  0.66370000  1.0
  C  C46  1  0.12018000  0.85067000  0.41958000  1.0
  C  C47  1  0.88217000  0.14493000  0.58604000  1.0
  C  C48  1  0.20259000  0.83359000  0.52630000  1.0
  C  C49  1  0.79947000  0.15854000  0.47971000  1.0
  C  C50  1  0.28814000  0.94656000  0.54974000  1.0
  C  C51  1  0.71532000  0.04335000  0.45936000  1.0
  C  C52  1  0.29003000  0.06964000  0.46472000  1.0
  C  C53  1  0.71371000  0.92239000  0.54663000  1.0
  C  C54  1  0.20678000  0.08200000  0.35939000  1.0
  C  C55  1  0.79637000  0.91437000  0.65175000  1.0
  C  C56  1  0.19921000  0.69800000  0.61410000  1.0
  C  C57  1  0.80101000  0.29247000  0.38969000  1.0
  S  S58  1  0.35293000  0.84499000  0.88469000  1.0
  S  S59  1  0.67954000  0.16220000  0.08871000  1.0
  S  S60  1  0.23313000  0.45432000  0.33564000  1.0
  S  S61  1  0.75834000  0.53904000  0.68190000  1.0
  N  N62  1  0.63497000  0.99285000  0.88185000  1.0
  N  N63  1  0.38385000  0.02987000  0.12127000  1.0
  N  N64  1  0.23134000  0.70472000  0.16609000  1.0
  N  N65  1  0.76419000  0.26886000  0.83055000  1.0
  N  N66  1  0.85867000  0.77467000  0.05052000  1.0
  N  N67  1  0.12744000  0.23626000  0.94041000  1.0
  N  N68  1  0.12105000  0.97374000  0.33856000  1.0
  N  N69  1  0.88083000  0.02452000  0.66929000  1.0
  O  O70  1  0.94952000  0.88107000  0.00409000  1.0
  O  O71  1  0.03815000  0.13121000  0.98829000  1.0
  O  O72  1  0.03618000  0.98965000  0.23972000  1.0
  O  O73  1  0.96976000  0.01350000  0.76780000  1.0
