# generated using pymatgen
data_SrH30C20(NO4)4
_symmetry_space_group_name_H-M   'P 1'
_cell_length_a   5.94505000
_cell_length_b   10.34070000
_cell_length_c   22.00941400
_cell_angle_alpha   98.34994428
_cell_angle_beta   97.77469552
_cell_angle_gamma   89.99690000
_symmetry_Int_Tables_number   1
_chemical_formula_structural   SrH30C20(NO4)4
_chemical_formula_sum   'Sr2 H60 C40 N8 O32'
_cell_volume   1326.13664408
_cell_formula_units_Z   2
loop_
 _symmetry_equiv_pos_site_id
 _symmetry_equiv_pos_as_xyz
  1  'x, y, z'
loop_
 _atom_site_type_symbol
 _atom_site_label
 _atom_site_symmetry_multiplicity
 _atom_site_fract_x
 _atom_site_fract_y
 _atom_site_fract_z
 _atom_site_occupancy
  Sr  Sr0  1  0.94136000  0.75001000  0.99999000  1.0
  Sr  Sr1  1  0.05864000  0.24999000  0.00001000  1.0
  H  H2  1  0.31311000  0.63892000  0.91424000  1.0
  H  H3  1  0.60091000  0.13897000  0.91426000  1.0
  H  H4  1  0.68689000  0.36108000  0.08576000  1.0
  H  H5  1  0.39909000  0.86103000  0.08574000  1.0
  H  H6  1  0.29018000  0.51514000  0.94809000  1.0
  H  H7  1  0.65776000  0.01514000  0.94807000  1.0
  H  H8  1  0.70982000  0.48486000  0.05191000  1.0
  H  H9  1  0.34224000  0.98486000  0.05193000  1.0
  H  H10  1  0.57263000  0.68078000  0.08573000  1.0
  H  H11  1  0.51320000  0.18087000  0.08574000  1.0
  H  H12  1  0.42738000  0.31922000  0.91427000  1.0
  H  H13  1  0.48680000  0.81913000  0.91426000  1.0
  H  H14  1  0.48144000  0.63384000  0.01447000  1.0
  H  H15  1  0.53302000  0.13383000  0.01450000  1.0
  H  H16  1  0.51856000  0.36616000  0.98553000  1.0
  H  H17  1  0.46698000  0.86617000  0.98550000  1.0
  H  H18  1  0.29432000  0.69175000  0.72071000  1.0
  H  H19  1  0.42655000  0.19178000  0.72069000  1.0
  H  H20  1  0.70568000  0.30825000  0.27929000  1.0
  H  H21  1  0.57345000  0.80822000  0.27931000  1.0
  H  H22  1  0.25543000  0.10081000  0.81505000  1.0
  H  H23  1  0.55977000  0.60072000  0.81504000  1.0
  H  H24  1  0.74456000  0.89919000  0.18495000  1.0
  H  H25  1  0.44023000  0.39928000  0.18496000  1.0
  H  H26  1  0.73360000  0.97665000  0.80603000  1.0
  H  H27  1  0.07279000  0.47650000  0.80613000  1.0
  H  H28  1  0.26640000  0.02335000  0.19397000  1.0
  H  H29  1  0.92721000  0.52350000  0.19387000  1.0
  H  H30  1  0.76962000  0.80937000  0.81377000  1.0
  H  H31  1  0.04437000  0.30923000  0.81385000  1.0
  H  H32  1  0.23037000  0.19063000  0.18623000  1.0
  H  H33  1  0.95564000  0.69077000  0.18615000  1.0
  H  H34  1  0.72037000  0.92870000  0.69744000  1.0
  H  H35  1  0.97756000  0.42860000  0.69753000  1.0
  H  H36  1  0.27963000  0.07130000  0.30256000  1.0
  H  H37  1  0.02244000  0.57140000  0.30247000  1.0
  H  H38  1  0.73357000  0.76089000  0.70402000  1.0
  H  H39  1  0.97085000  0.26080000  0.70409000  1.0
  H  H40  1  0.26643000  0.23911000  0.29598000  1.0
  H  H41  1  0.02916000  0.73921000  0.29591000  1.0
  H  H42  1  0.21976000  0.79841000  0.53161000  1.0
  H  H43  1  0.31149000  0.29822000  0.53169000  1.0
  H  H44  1  0.78024000  0.20159000  0.46839000  1.0
  H  H45  1  0.68851000  0.70178000  0.46831000  1.0
  H  H46  1  0.50059000  0.75734000  0.56274000  1.0
  H  H47  1  0.06199000  0.25720000  0.56289000  1.0
  H  H48  1  0.49941000  0.24266000  0.43726000  1.0
  H  H49  1  0.93801000  0.74280000  0.43711000  1.0
  H  H50  1  0.29315000  0.56234000  0.49593000  1.0
  H  H51  1  0.20222000  0.06228000  0.49591000  1.0
  H  H52  1  0.70685000  0.43766000  0.50407000  1.0
  H  H53  1  0.79779000  0.93772000  0.50409000  1.0
  H  H54  1  0.07616000  0.57601000  0.54464000  1.0
  H  H55  1  0.46805000  0.07574000  0.54460000  1.0
  H  H56  1  0.92384000  0.42399000  0.45536000  1.0
  H  H57  1  0.53195000  0.92426000  0.45540000  1.0
  H  H58  1  0.35653000  0.53562000  0.57507000  1.0
  H  H59  1  0.21817000  0.03534000  0.57503000  1.0
  H  H60  1  0.64347000  0.46438000  0.42493000  1.0
  H  H61  1  0.78183000  0.96466000  0.42497000  1.0
  C  C62  1  0.08380000  0.92009000  0.82100000  1.0
  C  C63  1  0.73744000  0.42003000  0.82103000  1.0
  C  C64  1  0.91620000  0.07991000  0.17900000  1.0
  C  C65  1  0.26256000  0.57996000  0.17897000  1.0
  C  C66  1  0.21932000  0.79625000  0.80336000  1.0
  C  C67  1  0.58410000  0.29629000  0.80335000  1.0
  C  C68  1  0.78068000  0.20375000  0.19664000  1.0
  C  C69  1  0.41590000  0.70371000  0.19665000  1.0
  C  C70  1  0.06112000  0.85295000  0.70487000  1.0
  C  C71  1  0.64407000  0.35290000  0.70488000  1.0
  C  C72  1  0.93888000  0.14705000  0.29513000  1.0
  C  C73  1  0.35593000  0.64710000  0.29512000  1.0
  C  C74  1  0.16696000  0.99155000  0.72748000  1.0
  C  C75  1  0.56082000  0.49152000  0.72747000  1.0
  C  C76  1  0.83304000  0.00846000  0.27252000  1.0
  C  C77  1  0.43918000  0.50848000  0.27253000  1.0
  C  C78  1  0.83191000  0.88964000  0.79266000  1.0
  C  C79  1  0.96104000  0.38952000  0.79274000  1.0
  C  C80  1  0.16809000  0.11036000  0.20734000  1.0
  C  C81  1  0.03896000  0.61048000  0.20726000  1.0
  C  C82  1  0.81670000  0.85629000  0.72155000  1.0
  C  C83  1  0.90526000  0.35620000  0.72161000  1.0
  C  C84  1  0.18329000  0.14371000  0.27845000  1.0
  C  C85  1  0.09474000  0.64380000  0.27839000  1.0
  C  C86  1  0.10305000  0.96767000  0.89120000  1.0
  C  C87  1  0.78803000  0.46764000  0.89122000  1.0
  C  C88  1  0.89695000  0.03233000  0.10880000  1.0
  C  C89  1  0.21197000  0.53236000  0.10878000  1.0
  C  C90  1  0.07053000  0.81552000  0.63556000  1.0
  C  C91  1  0.56514000  0.31542000  0.63558000  1.0
  C  C92  1  0.92947000  0.18448000  0.36444000  1.0
  C  C93  1  0.43486000  0.68458000  0.36442000  1.0
  C  C94  1  0.31906000  0.73724000  0.56165000  1.0
  C  C95  1  0.24236000  0.23701000  0.56173000  1.0
  C  C96  1  0.68094000  0.26276000  0.43835000  1.0
  C  C97  1  0.75764000  0.76299000  0.43827000  1.0
  C  C98  1  0.25743000  0.59359000  0.54345000  1.0
  C  C99  1  0.28561000  0.09338000  0.54344000  1.0
  C  C100  1  0.74258000  0.40641000  0.45656000  1.0
  C  C101  1  0.71439000  0.90662000  0.45656000  1.0
  N  N102  1  0.19443000  0.76399000  0.74149000  1.0
  N  N103  1  0.54730000  0.26397000  0.74149000  1.0
  N  N104  1  0.80557000  0.23601000  0.25851000  1.0
  N  N105  1  0.45270000  0.73603000  0.25851000  1.0
  N  N106  1  0.17019000  0.02018000  0.78892000  1.0
  N  N107  1  0.61907000  0.52016000  0.78891000  1.0
  N  N108  1  0.82981000  0.97982000  0.21108000  1.0
  N  N109  1  0.38093000  0.47984000  0.21109000  1.0
  O  O110  1  0.26521000  0.61175000  0.95135000  1.0
  O  O111  1  0.68598000  0.11176000  0.95136000  1.0
  O  O112  1  0.73479000  0.38825000  0.04865000  1.0
  O  O113  1  0.31402000  0.88824000  0.04864000  1.0
  O  O114  1  0.61886000  0.63810000  0.04637000  1.0
  O  O115  1  0.42758000  0.13808000  0.04640000  1.0
  O  O116  1  0.38114000  0.36190000  0.95363000  1.0
  O  O117  1  0.57242000  0.86192000  0.95360000  1.0
  O  O118  1  0.34211000  0.73528000  0.84023000  1.0
  O  O119  1  0.49796000  0.23543000  0.84022000  1.0
  O  O120  1  0.65790000  0.26472000  0.15977000  1.0
  O  O121  1  0.50204000  0.76457000  0.15978000  1.0
  O  O122  1  0.23565000  0.06311000  0.69266000  1.0
  O  O123  1  0.45721000  0.56306000  0.69264000  1.0
  O  O124  1  0.76434000  0.93689000  0.30734000  1.0
  O  O125  1  0.54279000  0.43694000  0.30736000  1.0
  O  O126  1  0.04129000  0.88522000  0.92263000  1.0
  O  O127  1  0.88134000  0.38525000  0.92268000  1.0
  O  O128  1  0.95871000  0.11478000  0.07737000  1.0
  O  O129  1  0.11867000  0.61475000  0.07732000  1.0
  O  O130  1  0.17258000  0.08405000  0.90954000  1.0
  O  O131  1  0.73661000  0.58398000  0.90955000  1.0
  O  O132  1  0.82742000  0.91595000  0.09046000  1.0
  O  O133  1  0.26339000  0.41602000  0.09045000  1.0
  O  O134  1  0.90716000  0.82035000  0.59583000  1.0
  O  O135  1  0.68853000  0.32035000  0.59582000  1.0
  O  O136  1  0.09284000  0.17965000  0.40417000  1.0
  O  O137  1  0.31147000  0.67965000  0.40418000  1.0
  O  O138  1  0.28063000  0.78119000  0.62582000  1.0
  O  O139  1  0.34536000  0.28091000  0.62588000  1.0
  O  O140  1  0.71937000  0.21881000  0.37418000  1.0
  O  O141  1  0.65463000  0.71910000  0.37412000  1.0
