# generated using pymatgen
data_CdH22C24(N4O3)2
_symmetry_space_group_name_H-M   'P 1'
_cell_length_a   7.61286000
_cell_length_b   12.92940000
_cell_length_c   14.93380000
_cell_angle_alpha   89.99990000
_cell_angle_beta   89.99990000
_cell_angle_gamma   97.97850000
_symmetry_Int_Tables_number   1
_chemical_formula_structural   CdH22C24(N4O3)2
_chemical_formula_sum   'Cd2 H44 C48 N16 O12'
_cell_volume   1455.70104346
_cell_formula_units_Z   2
loop_
 _symmetry_equiv_pos_site_id
 _symmetry_equiv_pos_as_xyz
  1  'x, y, z'
loop_
 _atom_site_type_symbol
 _atom_site_label
 _atom_site_symmetry_multiplicity
 _atom_site_fract_x
 _atom_site_fract_y
 _atom_site_fract_z
 _atom_site_occupancy
  Cd  Cd0  1  0.24080000  0.73279000  0.26085000  1.0
  Cd  Cd1  1  0.75918000  0.26721000  0.76086000  1.0
  H  H2  1  0.83378000  0.91889000  0.01895000  1.0
  H  H3  1  0.16624000  0.08111000  0.51894000  1.0
  H  H4  1  0.60191000  0.46593000  0.07687000  1.0
  H  H5  1  0.39809000  0.53406000  0.57687000  1.0
  H  H6  1  0.09334000  0.04984000  0.17682000  1.0
  H  H7  1  0.90665000  0.95016000  0.67683000  1.0
  H  H8  1  0.41501000  0.10943000  0.14852000  1.0
  H  H9  1  0.58499000  0.89057000  0.64852000  1.0
  H  H10  1  0.51215000  0.19104000  0.00332000  1.0
  H  H11  1  0.48785000  0.80896000  0.50333000  1.0
  H  H12  1  0.28630000  0.21723000  0.88723000  1.0
  H  H13  1  0.71371000  0.78278000  0.38723000  1.0
  H  H14  1  0.41638000  0.67626000  0.01203000  1.0
  H  H15  1  0.58359000  0.32373000  0.51203000  1.0
  H  H16  1  0.10787000  0.65971000  0.95435000  1.0
  H  H17  1  0.89213000  0.34029000  0.45436000  1.0
  H  H18  1  0.99683000  0.51502000  0.85050000  1.0
  H  H19  1  0.00317000  0.48499000  0.35051000  1.0
  H  H20  1  0.19960000  0.38889000  0.80280000  1.0
  H  H21  1  0.80039000  0.61110000  0.30280000  1.0
  H  H22  1  0.92082000  0.78655000  0.16379000  1.0
  H  H23  1  0.07915000  0.21344000  0.66379000  1.0
  H  H24  1  0.71104000  0.70639000  0.17321000  1.0
  H  H25  1  0.28895000  0.29360000  0.67321000  1.0
  H  H26  1  0.80112000  0.74136000  0.06431000  1.0
  H  H27  1  0.19885000  0.25864000  0.56431000  1.0
  H  H28  1  0.09214000  0.33209000  0.07102000  1.0
  H  H29  1  0.90788000  0.66792000  0.57102000  1.0
  H  H30  1  0.91949000  0.36038000  0.99715000  1.0
  H  H31  1  0.08052000  0.63962000  0.49715000  1.0
  H  H32  1  0.86657000  0.30697000  0.10497000  1.0
  H  H33  1  0.13345000  0.69303000  0.60497000  1.0
  H  H34  1  0.55905000  0.89846000  0.30279000  1.0
  H  H35  1  0.44096000  0.10154000  0.80279000  1.0
  H  H36  1  0.68712000  0.00676000  0.24736000  1.0
  H  H37  1  0.31288000  0.99324000  0.74736000  1.0
  H  H38  1  0.75762000  0.88081000  0.24624000  1.0
  H  H39  1  0.24238000  0.11918000  0.74625000  1.0
  H  H40  1  0.32091000  0.89034000  0.89530000  1.0
  H  H41  1  0.67913000  0.10967000  0.39530000  1.0
  H  H42  1  0.52763000  0.84142000  0.89166000  1.0
  H  H43  1  0.47240000  0.15859000  0.39166000  1.0
  H  H44  1  0.52491000  0.97853000  0.90340000  1.0
  H  H45  1  0.47512000  0.02147000  0.40340000  1.0
  C  C46  1  0.06554000  0.14439000  0.96432000  1.0
  C  C47  1  0.93447000  0.85561000  0.46432000  1.0
  C  C48  1  0.01114000  0.09865000  0.04696000  1.0
  C  C49  1  0.98885000  0.90136000  0.54696000  1.0
  C  C50  1  0.13682000  0.08600000  0.11307000  1.0
  C  C51  1  0.86318000  0.91399000  0.61308000  1.0
  C  C52  1  0.31640000  0.11939000  0.09755000  1.0
  C  C53  1  0.68360000  0.88061000  0.59756000  1.0
  C  C54  1  0.37157000  0.16575000  0.01586000  1.0
  C  C55  1  0.62843000  0.83425000  0.51586000  1.0
  C  C56  1  0.24633000  0.17859000  0.95021000  1.0
  C  C57  1  0.75368000  0.82142000  0.45021000  1.0
  C  C58  1  0.93279000  0.16367000  0.89406000  1.0
  C  C59  1  0.06722000  0.83633000  0.39406000  1.0
  C  C60  1  0.81999000  0.06807000  0.07178000  1.0
  C  C61  1  0.18000000  0.93194000  0.57178000  1.0
  C  C62  1  0.42367000  0.46464000  0.87583000  1.0
  C  C63  1  0.57632000  0.53536000  0.37583000  1.0
  C  C64  1  0.48431000  0.54577000  0.93568000  1.0
  C  C65  1  0.51569000  0.45423000  0.43568000  1.0
  C  C66  1  0.36984000  0.61490000  0.96414000  1.0
  C  C67  1  0.63015000  0.38509000  0.46414000  1.0
  C  C68  1  0.19617000  0.60524000  0.93239000  1.0
  C  C69  1  0.80382000  0.39475000  0.43239000  1.0
  C  C70  1  0.13396000  0.52413000  0.87371000  1.0
  C  C71  1  0.86603000  0.47586000  0.37371000  1.0
  C  C72  1  0.24718000  0.45414000  0.84643000  1.0
  C  C73  1  0.75281000  0.54586000  0.34643000  1.0
  C  C74  1  0.54594000  0.39239000  0.84212000  1.0
  C  C75  1  0.45404000  0.60761000  0.34211000  1.0
  C  C76  1  0.67193000  0.56734000  0.96877000  1.0
  C  C77  1  0.32808000  0.43266000  0.46878000  1.0
  C  C78  1  0.92517000  0.62841000  0.13205000  1.0
  C  C79  1  0.07481000  0.37160000  0.63205000  1.0
  C  C80  1  0.83366000  0.72167000  0.13335000  1.0
  C  C81  1  0.16632000  0.27832000  0.63335000  1.0
  C  C82  1  0.98402000  0.46825000  0.10326000  1.0
  C  C83  1  0.01599000  0.53176000  0.60327000  1.0
  C  C84  1  0.96387000  0.36099000  0.06717000  1.0
  C  C85  1  0.03615000  0.63902000  0.56718000  1.0
  C  C86  1  0.53412000  0.89806000  0.16273000  1.0
  C  C87  1  0.46588000  0.10194000  0.66273000  1.0
  C  C88  1  0.64132000  0.92243000  0.24429000  1.0
  C  C89  1  0.35869000  0.07757000  0.74429000  1.0
  C  C90  1  0.44785000  0.89010000  0.02042000  1.0
  C  C91  1  0.55216000  0.10991000  0.52042000  1.0
  C  C92  1  0.45621000  0.90116000  0.92194000  1.0
  C  C93  1  0.54382000  0.09885000  0.42195000  1.0
  N  N94  1  0.75776000  0.96502000  0.05217000  1.0
  N  N95  1  0.24225000  0.03498000  0.55217000  1.0
  N  N96  1  0.59042000  0.92053000  0.07669000  1.0
  N  N97  1  0.40959000  0.07947000  0.57669000  1.0
  N  N98  1  0.36675000  0.85445000  0.15798000  1.0
  N  N99  1  0.63326000  0.14555000  0.65798000  1.0
  N  N100  1  0.31205000  0.84865000  0.06918000  1.0
  N  N101  1  0.68796000  0.15135000  0.56919000  1.0
  N  N102  1  0.69928000  0.51701000  0.04824000  1.0
  N  N103  1  0.30072000  0.48299000  0.54824000  1.0
  N  N104  1  0.85865000  0.53557000  0.09257000  1.0
  N  N105  1  0.14134000  0.46443000  0.59257000  1.0
  N  N106  1  0.08118000  0.61685000  0.16622000  1.0
  N  N107  1  0.91882000  0.38315000  0.66622000  1.0
  N  N108  1  0.11861000  0.51671000  0.14916000  1.0
  N  N109  1  0.88139000  0.48330000  0.64917000  1.0
  O  O110  1  0.76914000  0.13803000  0.90833000  1.0
  O  O111  1  0.23086000  0.86198000  0.40834000  1.0
  O  O112  1  0.99658000  0.21011000  0.82224000  1.0
  O  O113  1  0.00342000  0.78990000  0.32223000  1.0
  O  O114  1  0.73308000  0.12327000  0.11591000  1.0
  O  O115  1  0.26691000  0.87673000  0.61591000  1.0
  O  O116  1  0.70363000  0.40098000  0.87176000  1.0
  O  O117  1  0.29635000  0.59900000  0.37175000  1.0
  O  O118  1  0.48760000  0.32402000  0.78269000  1.0
  O  O119  1  0.51240000  0.67598000  0.28269000  1.0
  O  O120  1  0.78455000  0.63389000  0.93573000  1.0
  O  O121  1  0.21546000  0.36611000  0.43574000  1.0
