# generated using pymatgen
data_ZnH15C20NO4
_symmetry_space_group_name_H-M   'P 1'
_cell_length_a   9.30397000
_cell_length_b   10.11520000
_cell_length_c   11.13340000
_cell_angle_alpha   83.08180000
_cell_angle_beta   75.66970000
_cell_angle_gamma   66.15170000
_symmetry_Int_Tables_number   1
_chemical_formula_structural   ZnH15C20NO4
_chemical_formula_sum   'Zn2 H30 C40 N2 O8'
_cell_volume   928.25699110
_cell_formula_units_Z   2
loop_
 _symmetry_equiv_pos_site_id
 _symmetry_equiv_pos_as_xyz
  1  'x, y, z'
loop_
 _atom_site_type_symbol
 _atom_site_label
 _atom_site_symmetry_multiplicity
 _atom_site_fract_x
 _atom_site_fract_y
 _atom_site_fract_z
 _atom_site_occupancy
  Zn  Zn0  1  0.55272000  0.61716000  0.50229000  1.0
  Zn  Zn1  1  0.44727000  0.38284000  0.49771000  1.0
  H  H2  1  0.87925000  0.07397000  0.25727000  1.0
  H  H3  1  0.12075000  0.92603000  0.74274000  1.0
  H  H4  1  0.12992000  0.95580000  0.09753000  1.0
  H  H5  1  0.87007000  0.04421000  0.90247000  1.0
  H  H6  1  0.31443000  0.08264000  0.01369000  1.0
  H  H7  1  0.68555000  0.91737000  0.98629000  1.0
  H  H8  1  0.24883000  0.32738000  0.08789000  1.0
  H  H9  1  0.75115000  0.67263000  0.91207000  1.0
  H  H10  1  0.99720000  0.44429000  0.24678000  1.0
  H  H11  1  0.00278000  0.55573000  0.75319000  1.0
  H  H12  1  0.51519000  0.79841000  0.12902000  1.0
  H  H13  1  0.48480000  0.20159000  0.87100000  1.0
  H  H14  1  0.48734000  0.84860000  0.90755000  1.0
  H  H15  1  0.51263000  0.15143000  0.09248000  1.0
  H  H16  1  0.34055000  0.73772000  0.82351000  1.0
  H  H17  1  0.65945000  0.26230000  0.17650000  1.0
  H  H18  1  0.21039000  0.58516000  0.96012000  1.0
  H  H19  1  0.78967000  0.41481000  0.03987000  1.0
  H  H20  1  0.24592000  0.53073000  0.17934000  1.0
  H  H21  1  0.75415000  0.46922000  0.82065000  1.0
  H  H22  1  0.87527000  0.61152000  0.39792000  1.0
  H  H23  1  0.12474000  0.38846000  0.60210000  1.0
  H  H24  1  0.03781000  0.75379000  0.40170000  1.0
  H  H25  1  0.96219000  0.24621000  0.59830000  1.0
  H  H26  1  0.62035000  0.05056000  0.64540000  1.0
  H  H27  1  0.37966000  0.94942000  0.35461000  1.0
  H  H28  1  0.47739000  0.88919000  0.63454000  1.0
  H  H29  1  0.52260000  0.11081000  0.36546000  1.0
  H  H30  1  0.85089000  0.10532000  0.58716000  1.0
  H  H31  1  0.14911000  0.89467000  0.41284000  1.0
  C  C32  1  0.77042000  0.33954000  0.35437000  1.0
  C  C33  1  0.22958000  0.66046000  0.64563000  1.0
  C  C34  1  0.92332000  0.26605000  0.26169000  1.0
  C  C35  1  0.07666000  0.73397000  0.73831000  1.0
  C  C36  1  0.96122000  0.12836000  0.21941000  1.0
  C  C37  1  0.03878000  0.87165000  0.78060000  1.0
  C  C38  1  0.10122000  0.06265000  0.13037000  1.0
  C  C39  1  0.89878000  0.93736000  0.86961000  1.0
  C  C40  1  0.20470000  0.13442000  0.08318000  1.0
  C  C41  1  0.79528000  0.86559000  0.91679000  1.0
  C  C42  1  0.16789000  0.27174000  0.12475000  1.0
  C  C43  1  0.83209000  0.72828000  0.87522000  1.0
  C  C44  1  0.02794000  0.33708000  0.21379000  1.0
  C  C45  1  0.97205000  0.66295000  0.78619000  1.0
  C  C46  1  0.41188000  0.61990000  0.29435000  1.0
  C  C47  1  0.58811000  0.38008000  0.70567000  1.0
  C  C48  1  0.38184000  0.66203000  0.16642000  1.0
  C  C49  1  0.61817000  0.33794000  0.83359000  1.0
  C  C50  1  0.44857000  0.75293000  0.09057000  1.0
  C  C51  1  0.55143000  0.24707000  0.90944000  1.0
  C  C52  1  0.43251000  0.78041000  0.96777000  1.0
  C  C53  1  0.56750000  0.21960000  0.03225000  1.0
  C  C54  1  0.34854000  0.71911000  0.92041000  1.0
  C  C55  1  0.65146000  0.28092000  0.07960000  1.0
  C  C56  1  0.27738000  0.63183000  0.99690000  1.0
  C  C57  1  0.72265000  0.36817000  0.00309000  1.0
  C  C58  1  0.29528000  0.60244000  0.11900000  1.0
  C  C59  1  0.70475000  0.39753000  0.88099000  1.0
  C  C60  1  0.82475000  0.70976000  0.45120000  1.0
  C  C61  1  0.17525000  0.29023000  0.54882000  1.0
  C  C62  1  0.91340000  0.79063000  0.45392000  1.0
  C  C63  1  0.08660000  0.20937000  0.54608000  1.0
  C  C64  1  0.84172000  0.91713000  0.52398000  1.0
  C  C65  1  0.15828000  0.08286000  0.47603000  1.0
  C  C66  1  0.68172000  0.95264000  0.59095000  1.0
  C  C67  1  0.31827000  0.04736000  0.40905000  1.0
  C  C68  1  0.60154000  0.86493000  0.58433000  1.0
  C  C69  1  0.39847000  0.13507000  0.41568000  1.0
  C  C70  1  0.92369000  0.01078000  0.52992000  1.0
  C  C71  1  0.07631000  0.98923000  0.47008000  1.0
  N  N72  1  0.67048000  0.74615000  0.51438000  1.0
  N  N73  1  0.32952000  0.25385000  0.48563000  1.0
  O  O74  1  0.74760000  0.46225000  0.39087000  1.0
  O  O75  1  0.25238000  0.53778000  0.60911000  1.0
  O  O76  1  0.67278000  0.27545000  0.38860000  1.0
  O  O77  1  0.32724000  0.72454000  0.61143000  1.0
  O  O78  1  0.46563000  0.69393000  0.34279000  1.0
  O  O79  1  0.53432000  0.30607000  0.65723000  1.0
  O  O80  1  0.61598000  0.48961000  0.65553000  1.0
  O  O81  1  0.38405000  0.51035000  0.34446000  1.0
