# generated using pymatgen
data_AgH3C7(NO3)2
_symmetry_space_group_name_H-M   'P 1'
_cell_length_a   5.18452000
_cell_length_b   9.92299000
_cell_length_c   16.43180000
_cell_angle_alpha   89.99980000
_cell_angle_beta   85.72710000
_cell_angle_gamma   89.99840000
_symmetry_Int_Tables_number   1
_chemical_formula_structural   AgH3C7(NO3)2
_chemical_formula_sum   'Ag4 H12 C28 N8 O24'
_cell_volume   842.99973774
_cell_formula_units_Z   4
loop_
 _symmetry_equiv_pos_site_id
 _symmetry_equiv_pos_as_xyz
  1  'x, y, z'
loop_
 _atom_site_type_symbol
 _atom_site_label
 _atom_site_symmetry_multiplicity
 _atom_site_fract_x
 _atom_site_fract_y
 _atom_site_fract_z
 _atom_site_occupancy
  Ag  Ag0  1  0.18406000  0.09228000  0.52350000  1.0
  Ag  Ag1  1  0.81591000  0.59227000  0.97650000  1.0
  Ag  Ag2  1  0.81592000  0.90774000  0.47651000  1.0
  Ag  Ag3  1  0.18410000  0.40773000  0.02349000  1.0
  H  H4  1  0.24417000  0.92322000  0.70002000  1.0
  H  H5  1  0.75584000  0.42322000  0.80000000  1.0
  H  H6  1  0.75583000  0.07677000  0.30000000  1.0
  H  H7  1  0.24417000  0.57680000  0.19999000  1.0
  H  H8  1  0.25167000  0.05965000  0.94972000  1.0
  H  H9  1  0.74834000  0.55964000  0.55030000  1.0
  H  H10  1  0.74830000  0.94035000  0.05029000  1.0
  H  H11  1  0.25169000  0.44037000  0.44969000  1.0
  H  H12  1  0.84326000  0.19204000  0.76834000  1.0
  H  H13  1  0.15674000  0.69204000  0.73166000  1.0
  H  H14  1  0.15672000  0.80796000  0.23166000  1.0
  H  H15  1  0.84328000  0.30796000  0.26834000  1.0
  C  C16  1  0.55757000  0.05734000  0.72497000  1.0
  C  C17  1  0.44246000  0.55733000  0.77504000  1.0
  C  C18  1  0.44244000  0.94266000  0.27505000  1.0
  C  C19  1  0.55754000  0.44267000  0.22495000  1.0
  C  C20  1  0.33333333  0.98302000  0.74573000  1.0
  C  C21  1  0.66666667  0.48304000  0.75428000  1.0
  C  C22  1  0.66666667  0.01697000  0.25429000  1.0
  C  C23  1  0.33328000  0.51698000  0.24571000  1.0
  C  C24  1  0.22933000  0.98457000  0.82650000  1.0
  C  C25  1  0.77070000  0.48460000  0.67351000  1.0
  C  C26  1  0.77067000  0.01541000  0.17351000  1.0
  C  C27  1  0.22931000  0.51542000  0.32648000  1.0
  C  C28  1  0.33422000  0.06072000  0.88704000  1.0
  C  C29  1  0.66579000  0.56072000  0.61296000  1.0
  C  C30  1  0.66574000  0.93928000  0.11297000  1.0
  C  C31  1  0.33424000  0.43929000  0.38702000  1.0
  C  C32  1  0.55183000  0.13730000  0.86353000  1.0
  C  C33  1  0.44819000  0.63728000  0.63647000  1.0
  C  C34  1  0.44816000  0.86270000  0.13648000  1.0
  C  C35  1  0.55185000  0.36273000  0.36352000  1.0
  C  C36  1  0.66586000  0.13628000  0.78404000  1.0
  C  C37  1  0.33418000  0.63628000  0.71597000  1.0
  C  C38  1  0.33413000  0.86371000  0.21598000  1.0
  C  C39  1  0.66586000  0.36371000  0.28401000  1.0
  C  C40  1  0.70017000  0.04190000  0.64218000  1.0
  C  C41  1  0.29984000  0.54190000  0.85783000  1.0
  C  C42  1  0.29983000  0.95810000  0.35784000  1.0
  C  C43  1  0.70016000  0.45809000  0.14216000  1.0
  N  N44  1  0.00077000  0.90128000  0.84954000  1.0
  N  N45  1  0.99927000  0.40129000  0.65047000  1.0
  N  N46  1  0.99922000  0.09870000  0.15047000  1.0
  N  N47  1  0.00074000  0.59873000  0.34951000  1.0
  N  N48  1  0.67587000  0.21454000  0.92618000  1.0
  N  N49  1  0.32410000  0.71455000  0.57383000  1.0
  N  N50  1  0.32410000  0.78546000  0.07383000  1.0
  N  N51  1  0.67590000  0.28546000  0.42616000  1.0
  O  O52  1  0.91678000  0.10119000  0.63251000  1.0
  O  O53  1  0.08323000  0.60120000  0.86748000  1.0
  O  O54  1  0.08322000  0.89881000  0.36749000  1.0
  O  O55  1  0.91679000  0.39880000  0.13250000  1.0
  O  O56  1  0.59414000  0.96703000  0.59111000  1.0
  O  O57  1  0.40587000  0.46704000  0.90889000  1.0
  O  O58  1  0.40586000  0.03297000  0.40891000  1.0
  O  O59  1  0.59413000  0.53295000  0.09109000  1.0
  O  O60  1  0.89094000  0.84522000  0.79428000  1.0
  O  O61  1  0.10909000  0.34521000  0.70573000  1.0
  O  O62  1  0.10904000  0.15476000  0.20572000  1.0
  O  O63  1  0.89092000  0.65480000  0.29427000  1.0
  O  O64  1  0.92880000  0.89333000  0.92311000  1.0
  O  O65  1  0.07119000  0.39333000  0.57689000  1.0
  O  O66  1  0.07115000  0.10664000  0.07689000  1.0
  O  O67  1  0.92883000  0.60667000  0.42310000  1.0
  O  O68  1  0.56444000  0.22070000  0.99557000  1.0
  O  O69  1  0.43556000  0.72070000  0.50445000  1.0
  O  O70  1  0.43553000  0.77933000  0.00444000  1.0
  O  O71  1  0.56446000  0.27931000  0.49555000  1.0
  O  O72  1  0.88899000  0.26744000  0.90601000  1.0
  O  O73  1  0.11097000  0.76746000  0.59400000  1.0
  O  O74  1  0.11098000  0.73255000  0.09400000  1.0
  O  O75  1  0.88902000  0.23255000  0.40599000  1.0
