# generated using pymatgen
data_CdH18C33N5(O2F3)3
_symmetry_space_group_name_H-M   'P 1'
_cell_length_a   10.79730000
_cell_length_b   12.35450000
_cell_length_c   13.71360000
_cell_angle_alpha   110.17600000
_cell_angle_beta   96.41880000
_cell_angle_gamma   99.72550000
_symmetry_Int_Tables_number   1
_chemical_formula_structural   CdH18C33N5(O2F3)3
_chemical_formula_sum   'Cd2 H36 C66 N10 O12 F18'
_cell_volume   1663.56167345
_cell_formula_units_Z   2
loop_
 _symmetry_equiv_pos_site_id
 _symmetry_equiv_pos_as_xyz
  1  'x, y, z'
loop_
 _atom_site_type_symbol
 _atom_site_label
 _atom_site_symmetry_multiplicity
 _atom_site_fract_x
 _atom_site_fract_y
 _atom_site_fract_z
 _atom_site_occupancy
  Cd  Cd0  1  0.99668000  0.28343000  0.21647000  1.0
  Cd  Cd1  1  0.00332000  0.71657000  0.78352000  1.0
  H  H2  1  0.73216000  0.28422000  0.10087000  1.0
  H  H3  1  0.26784000  0.71578000  0.89912000  1.0
  H  H4  1  0.88976000  0.44408000  0.42050000  1.0
  H  H5  1  0.11024000  0.55591000  0.57950000  1.0
  H  H6  1  0.53318000  0.35482000  0.12937000  1.0
  H  H7  1  0.46682000  0.64518000  0.87062000  1.0
  H  H8  1  0.69780000  0.52070000  0.46253000  1.0
  H  H9  1  0.30219000  0.47929000  0.53747000  1.0
  H  H10  1  0.39322000  0.41899000  0.27576000  1.0
  H  H11  1  0.60678000  0.58101000  0.72423000  1.0
  H  H12  1  0.47289000  0.52334000  0.40196000  1.0
  H  H13  1  0.52710000  0.47665000  0.59804000  1.0
  H  H14  1  0.55547000  0.05959000  0.10640000  1.0
  H  H15  1  0.44454000  0.94042000  0.89360000  1.0
  H  H16  1  0.61573000  0.16106000  0.23690000  1.0
  H  H17  1  0.38427000  0.83895000  0.76310000  1.0
  H  H18  1  0.42597000  0.18830000  0.35955000  1.0
  H  H19  1  0.57403000  0.81171000  0.64046000  1.0
  H  H20  1  0.36551000  0.09358000  0.02047000  1.0
  H  H21  1  0.63450000  0.90642000  0.97953000  1.0
  H  H22  1  0.22234000  0.25635000  0.35804000  1.0
  H  H23  1  0.77766000  0.74365000  0.64196000  1.0
  H  H24  1  0.16860000  0.17080000  0.03359000  1.0
  H  H25  1  0.83141000  0.82921000  0.96642000  1.0
  H  H26  1  0.95888000  0.43451000  0.06716000  1.0
  H  H27  1  0.04112000  0.56549000  0.93284000  1.0
  H  H28  1  0.92067000  0.07495000  0.99319000  1.0
  H  H29  1  0.07934000  0.92505000  0.00680000  1.0
  H  H30  1  0.88224000  0.40380000  0.87684000  1.0
  H  H31  1  0.11775000  0.59620000  0.12316000  1.0
  H  H32  1  0.84960000  0.03024000  0.80148000  1.0
  H  H33  1  0.15040000  0.96976000  0.19852000  1.0
  H  H34  1  0.79626000  0.27475000  0.70105000  1.0
  H  H35  1  0.20374000  0.72525000  0.29895000  1.0
  H  H36  1  0.71618000  0.13038000  0.68472000  1.0
  H  H37  1  0.28382000  0.86962000  0.31527000  1.0
  C  C38  1  0.72117000  0.33786000  0.17976000  1.0
  C  C39  1  0.27884000  0.66214000  0.82024000  1.0
  C  C40  1  0.80890000  0.42606000  0.35775000  1.0
  C  C41  1  0.19109000  0.57394000  0.64225000  1.0
  C  C42  1  0.60984000  0.37746000  0.19631000  1.0
  C  C43  1  0.39016000  0.62254000  0.80369000  1.0
  C  C44  1  0.69984000  0.46898000  0.38063000  1.0
  C  C45  1  0.30016000  0.53102000  0.61936000  1.0
  C  C46  1  0.59746000  0.44511000  0.29882000  1.0
  C  C47  1  0.40254000  0.55488000  0.70117000  1.0
  C  C48  1  0.47726000  0.49110000  0.31758000  1.0
  C  C49  1  0.52274000  0.50890000  0.68241000  1.0
  C  C50  1  0.47232000  0.58996000  0.27746000  1.0
  C  C51  1  0.52768000  0.41004000  0.72253000  1.0
  C  C52  1  0.42369000  0.56743000  0.17091000  1.0
  C  C53  1  0.57630000  0.43257000  0.82909000  1.0
  C  C54  1  0.51855000  0.70698000  0.34245000  1.0
  C  C55  1  0.48145000  0.29302000  0.65755000  1.0
  C  C56  1  0.42577000  0.65597000  0.13137000  1.0
  C  C57  1  0.57422000  0.34403000  0.86863000  1.0
  C  C58  1  0.52219000  0.80270000  0.30745000  1.0
  C  C59  1  0.47781000  0.19730000  0.69255000  1.0
  C  C60  1  0.47554000  0.77612000  0.19698000  1.0
  C  C61  1  0.52446000  0.22388000  0.80302000  1.0
  C  C62  1  0.56907000  0.92290000  0.37386000  1.0
  C  C63  1  0.43092000  0.07711000  0.62614000  1.0
  C  C64  1  0.48077000  0.87223000  0.16248000  1.0
  C  C65  1  0.51923000  0.12778000  0.83752000  1.0
  C  C66  1  0.57378000  0.01171000  0.33453000  1.0
  C  C67  1  0.42621000  0.98830000  0.66548000  1.0
  C  C68  1  0.52954000  0.98898000  0.22718000  1.0
  C  C69  1  0.47047000  0.01102000  0.77282000  1.0
  C  C70  1  0.53540000  0.08861000  0.18690000  1.0
  C  C71  1  0.46460000  0.91140000  0.81310000  1.0
  C  C72  1  0.41384000  0.13426000  0.18952000  1.0
  C  C73  1  0.58616000  0.86575000  0.81049000  1.0
  C  C74  1  0.37209000  0.18229000  0.28512000  1.0
  C  C75  1  0.62792000  0.81771000  0.71488000  1.0
  C  C76  1  0.33903000  0.13004000  0.09758000  1.0
  C  C77  1  0.66097000  0.86997000  0.90242000  1.0
  C  C78  1  0.25868000  0.22123000  0.28519000  1.0
  C  C79  1  0.74132000  0.77877000  0.71481000  1.0
  C  C80  1  0.22765000  0.17266000  0.10430000  1.0
  C  C81  1  0.77235000  0.82734000  0.89570000  1.0
  C  C82  1  0.93411000  0.34645000  0.00523000  1.0
  C  C83  1  0.06589000  0.65354000  0.99477000  1.0
  C  C84  1  0.91376000  0.14560000  0.96378000  1.0
  C  C85  1  0.08625000  0.85439000  0.03621000  1.0
  C  C86  1  0.89203000  0.32928000  0.90017000  1.0
  C  C87  1  0.10797000  0.67072000  0.09983000  1.0
  C  C88  1  0.87276000  0.12135000  0.85737000  1.0
  C  C89  1  0.12724000  0.87864000  0.14263000  1.0
  C  C90  1  0.85969000  0.21450000  0.82370000  1.0
  C  C91  1  0.14031000  0.78550000  0.17629000  1.0
  C  C92  1  0.80994000  0.19225000  0.70963000  1.0
  C  C93  1  0.19006000  0.80775000  0.29037000  1.0
  C  C94  1  0.89557000  0.13863000  0.63595000  1.0
  C  C95  1  0.10443000  0.86137000  0.36405000  1.0
  C  C96  1  0.88052000  0.01794000  0.58832000  1.0
  C  C97  1  0.11948000  0.98205000  0.41168000  1.0
  C  C98  1  0.95120000  0.96236000  0.51274000  1.0
  C  C99  1  0.04880000  0.03765000  0.48726000  1.0
  C  C100  1  0.93163000  0.83842000  0.46032000  1.0
  C  C101  1  0.06837000  0.16158000  0.53968000  1.0
  C  C102  1  0.99417000  0.20946000  0.61127000  1.0
  C  C103  1  0.00583000  0.79054000  0.38873000  1.0
  N  N104  1  0.81991000  0.36170000  0.25883000  1.0
  N  N105  1  0.18009000  0.63830000  0.74117000  1.0
  N  N106  1  0.18694000  0.21662000  0.19624000  1.0
  N  N107  1  0.81306000  0.78338000  0.80376000  1.0
  N  N108  1  0.94427000  0.25630000  0.03714000  1.0
  N  N109  1  0.05574000  0.74369000  0.96286000  1.0
  N  N110  1  0.16648000  0.51157000  0.34039000  1.0
  N  N111  1  0.83352000  0.48843000  0.65961000  1.0
  N  N112  1  0.88196000  0.06559000  0.24039000  1.0
  N  N113  1  0.11804000  0.93441000  0.75961000  1.0
  O  O114  1  0.85480000  0.07248000  0.14916000  1.0
  O  O115  1  0.14521000  0.92752000  0.85084000  1.0
  O  O116  1  0.95721000  0.15593000  0.31414000  1.0
  O  O117  1  0.04279000  0.84407000  0.68586000  1.0
  O  O118  1  0.83736000  0.97545000  0.25703000  1.0
  O  O119  1  0.16264000  0.02455000  0.74298000  1.0
  O  O120  1  0.13566000  0.48499000  0.24068000  1.0
  O  O121  1  0.86434000  0.51501000  0.75932000  1.0
  O  O122  1  0.11878000  0.43591000  0.37936000  1.0
  O  O123  1  0.88122000  0.56409000  0.62064000  1.0
  O  O124  1  0.24094000  0.60626000  0.39864000  1.0
  O  O125  1  0.75906000  0.39374000  0.60136000  1.0
  F  F126  1  0.37259000  0.45428000  0.10388000  1.0
  F  F127  1  0.62741000  0.54573000  0.89612000  1.0
  F  F128  1  0.56267000  0.73068000  0.44600000  1.0
  F  F129  1  0.43734000  0.26933000  0.55400000  1.0
  F  F130  1  0.37818000  0.62456000  0.02726000  1.0
  F  F131  1  0.62182000  0.37544000  0.97274000  1.0
  F  F132  1  0.61115000  0.95365000  0.47817000  1.0
  F  F133  1  0.38884000  0.04636000  0.52184000  1.0
  F  F134  1  0.43605000  0.84916000  0.05835000  1.0
  F  F135  1  0.56394000  0.15084000  0.94166000  1.0
  F  F136  1  0.62327000  0.12482000  0.40143000  1.0
  F  F137  1  0.37672000  0.87519000  0.59858000  1.0
  F  F138  1  0.79108000  0.94875000  0.61695000  1.0
  F  F139  1  0.20891000  0.05125000  0.38305000  1.0
  F  F140  1  0.83820000  0.76323000  0.47818000  1.0
  F  F141  1  0.16181000  0.23677000  0.52182000  1.0
  F  F142  1  0.01757000  0.32878000  0.66042000  1.0
  F  F143  1  0.98243000  0.67122000  0.33959000  1.0
