# generated using pymatgen
data_CuH5C10N3O4
_symmetry_space_group_name_H-M   'P 1'
_cell_length_a   10.86160000
_cell_length_b   12.22810000
_cell_length_c   14.47080000
_cell_angle_alpha   90.00000000
_cell_angle_beta   110.29000000
_cell_angle_gamma   89.99980000
_symmetry_Int_Tables_number   1
_chemical_formula_structural   CuH5C10N3O4
_chemical_formula_sum   'Cu4 H20 C40 N12 O16'
_cell_volume   1802.70544767
_cell_formula_units_Z   4
loop_
 _symmetry_equiv_pos_site_id
 _symmetry_equiv_pos_as_xyz
  1  'x, y, z'
loop_
 _atom_site_type_symbol
 _atom_site_label
 _atom_site_symmetry_multiplicity
 _atom_site_fract_x
 _atom_site_fract_y
 _atom_site_fract_z
 _atom_site_occupancy
  Cu  Cu0  1  0.90438000  0.57104000  0.47521000  1.0
  Cu  Cu1  1  0.09563000  0.07105000  0.02480000  1.0
  Cu  Cu2  1  0.09563000  0.42895000  0.52479000  1.0
  Cu  Cu3  1  0.90437000  0.92895000  0.97520000  1.0
  H  H4  1  0.97981000  0.24805000  0.74301000  1.0
  H  H5  1  0.02018000  0.74805000  0.75699000  1.0
  H  H6  1  0.02018000  0.75195000  0.25699000  1.0
  H  H7  1  0.97981000  0.25195000  0.24301000  1.0
  H  H8  1  0.61475000  0.37689000  0.54534000  1.0
  H  H9  1  0.38525000  0.87690000  0.95465000  1.0
  H  H10  1  0.38525000  0.62310000  0.45465000  1.0
  H  H11  1  0.61475000  0.12310000  0.04535000  1.0
  H  H12  1  0.61440000  0.12548000  0.75557000  1.0
  H  H13  1  0.38560000  0.62548000  0.74443000  1.0
  H  H14  1  0.38559000  0.87452000  0.24443000  1.0
  H  H15  1  0.61440000  0.37452000  0.25557000  1.0
  H  H16  1  0.41464000  0.42711000  0.60289000  1.0
  H  H17  1  0.58536000  0.92711000  0.89711000  1.0
  H  H18  1  0.58535000  0.57290000  0.39711000  1.0
  H  H19  1  0.41464000  0.07290000  0.10289000  1.0
  H  H20  1  0.40665000  0.08148000  0.59800000  1.0
  H  H21  1  0.59335000  0.58149000  0.90200000  1.0
  H  H22  1  0.59335000  0.91852000  0.40200000  1.0
  H  H23  1  0.40665000  0.41852000  0.09799000  1.0
  C  C24  1  0.87637000  0.38952000  0.59011000  1.0
  C  C25  1  0.12365000  0.88953000  0.90989000  1.0
  C  C26  1  0.12364000  0.61048000  0.40989000  1.0
  C  C27  1  0.87637000  0.11049000  0.09012000  1.0
  C  C28  1  0.80418000  0.31878000  0.63900000  1.0
  C  C29  1  0.19583000  0.81878000  0.86100000  1.0
  C  C30  1  0.19582000  0.68121000  0.36100000  1.0
  C  C31  1  0.80417000  0.18121000  0.13900000  1.0
  C  C32  1  0.87297000  0.24869000  0.71582000  1.0
  C  C33  1  0.12703000  0.74869000  0.78418000  1.0
  C  C34  1  0.12702000  0.75131000  0.28417000  1.0
  C  C35  1  0.87297000  0.25131000  0.21582000  1.0
  C  C36  1  0.66696000  0.32151000  0.60502000  1.0
  C  C37  1  0.33305000  0.82150000  0.89498000  1.0
  C  C38  1  0.33304000  0.67850000  0.39498000  1.0
  C  C39  1  0.66696000  0.17849000  0.10502000  1.0
  C  C40  1  0.80411000  0.17970000  0.75774000  1.0
  C  C41  1  0.19589000  0.67970000  0.74226000  1.0
  C  C42  1  0.19588000  0.82030000  0.24226000  1.0
  C  C43  1  0.80411000  0.32030000  0.25774000  1.0
  C  C44  1  0.59933000  0.25127000  0.64662000  1.0
  C  C45  1  0.40068000  0.75127000  0.85338000  1.0
  C  C46  1  0.40067000  0.74873000  0.35338000  1.0
  C  C47  1  0.59932000  0.24873000  0.14662000  1.0
  C  C48  1  0.66685000  0.17961000  0.72222000  1.0
  C  C49  1  0.33315000  0.67961000  0.77778000  1.0
  C  C50  1  0.33315000  0.82039000  0.27778000  1.0
  C  C51  1  0.66685000  0.32039000  0.22222000  1.0
  C  C52  1  0.87630000  0.10849000  0.84392000  1.0
  C  C53  1  0.12371000  0.60848000  0.65608000  1.0
  C  C54  1  0.12371000  0.89152000  0.15609000  1.0
  C  C55  1  0.87629000  0.39152000  0.34391000  1.0
  C  C56  1  0.37983000  0.34337000  0.59328000  1.0
  C  C57  1  0.62017000  0.84337000  0.90672000  1.0
  C  C58  1  0.62017000  0.65663000  0.40672000  1.0
  C  C59  1  0.37984000  0.15663000  0.09328000  1.0
  C  C60  1  0.37420000  0.16592000  0.59201000  1.0
  C  C61  1  0.62580000  0.66592000  0.90798000  1.0
  C  C62  1  0.62579000  0.83409000  0.40799000  1.0
  C  C63  1  0.37420000  0.33409000  0.09201000  1.0
  N  N64  1  0.25604000  0.31235000  0.56425000  1.0
  N  N65  1  0.74396000  0.81235000  0.93575000  1.0
  N  N66  1  0.74396000  0.68765000  0.43575000  1.0
  N  N67  1  0.25604000  0.18765000  0.06424000  1.0
  N  N68  1  0.45947000  0.25335000  0.61216000  1.0
  N  N69  1  0.54053000  0.75335000  0.88784000  1.0
  N  N70  1  0.54052000  0.74665000  0.38784000  1.0
  N  N71  1  0.45948000  0.24666000  0.11216000  1.0
  N  N72  1  0.25161000  0.19968000  0.56280000  1.0
  N  N73  1  0.74839000  0.69968000  0.93720000  1.0
  N  N74  1  0.74839000  0.80032000  0.43720000  1.0
  N  N75  1  0.25161000  0.30033000  0.06280000  1.0
  O  O76  1  0.81641000  0.47474000  0.54615000  1.0
  O  O77  1  0.18360000  0.97474000  0.95384000  1.0
  O  O78  1  0.18359000  0.52525000  0.45385000  1.0
  O  O79  1  0.81640000  0.02525000  0.04616000  1.0
  O  O80  1  0.98975000  0.35681000  0.59561000  1.0
  O  O81  1  0.01025000  0.85680000  0.90439000  1.0
  O  O82  1  0.01025000  0.64319000  0.40439000  1.0
  O  O83  1  0.98975000  0.14320000  0.09562000  1.0
  O  O84  1  0.81639000  0.02328000  0.85670000  1.0
  O  O85  1  0.18360000  0.52328000  0.64329000  1.0
  O  O86  1  0.18361000  0.97672000  0.14330000  1.0
  O  O87  1  0.81640000  0.47672000  0.35670000  1.0
  O  O88  1  0.98970000  0.14124000  0.89743000  1.0
  O  O89  1  0.01030000  0.64123000  0.60257000  1.0
  O  O90  1  0.01030000  0.85876000  0.10257000  1.0
  O  O91  1  0.98970000  0.35877000  0.39744000  1.0
