# generated using pymatgen
data_CuH6C6BrN7
_symmetry_space_group_name_H-M   'P 1'
_cell_length_a   5.69194000
_cell_length_b   8.69094000
_cell_length_c   10.75620000
_cell_angle_alpha   101.16200000
_cell_angle_beta   96.10910000
_cell_angle_gamma   94.33800000
_symmetry_Int_Tables_number   1
_chemical_formula_structural   CuH6C6BrN7
_chemical_formula_sum   'Cu2 H12 C12 Br2 N14'
_cell_volume   516.52903871
_cell_formula_units_Z   2
loop_
 _symmetry_equiv_pos_site_id
 _symmetry_equiv_pos_as_xyz
  1  'x, y, z'
loop_
 _atom_site_type_symbol
 _atom_site_label
 _atom_site_symmetry_multiplicity
 _atom_site_fract_x
 _atom_site_fract_y
 _atom_site_fract_z
 _atom_site_occupancy
  Cu  Cu0  1  0.24832000  0.47388000  0.56186000  1.0
  Cu  Cu1  1  0.75168000  0.52613000  0.43814000  1.0
  H  H2  1  0.44656000  0.29247000  0.97212000  1.0
  H  H3  1  0.55345000  0.70752000  0.02788000  1.0
  H  H4  1  0.77024000  0.04904000  0.65382000  1.0
  H  H5  1  0.22975000  0.95095000  0.34616000  1.0
  H  H6  1  0.52207000  0.18899000  0.51323000  1.0
  H  H7  1  0.47791000  0.81101000  0.48676000  1.0
  H  H8  1  0.77196000  0.96242000  0.88890000  1.0
  H  H9  1  0.22806000  0.03758000  0.11110000  1.0
  H  H10  1  0.75692000  0.12773000  0.01483000  1.0
  H  H11  1  0.24309000  0.87227000  0.98517000  1.0
  H  H12  1  0.97952000  0.12971000  0.91082000  1.0
  H  H13  1  0.02049000  0.87029000  0.08918000  1.0
  C  C14  1  0.34481000  0.33905000  0.78553000  1.0
  C  C15  1  0.65520000  0.66095000  0.21448000  1.0
  C  C16  1  0.47170000  0.26614000  0.87145000  1.0
  C  C17  1  0.52831000  0.73385000  0.12855000  1.0
  C  C18  1  0.63486000  0.16258000  0.82626000  1.0
  C  C19  1  0.36514000  0.83741000  0.17374000  1.0
  C  C20  1  0.64875000  0.13046000  0.69433000  1.0
  C  C21  1  0.35124000  0.86953000  0.30567000  1.0
  C  C22  1  0.51430000  0.20760000  0.61556000  1.0
  C  C23  1  0.48569000  0.79239000  0.38444000  1.0
  C  C24  1  0.79244000  0.09185000  0.91571000  1.0
  C  C25  1  0.20757000  0.90815000  0.08428000  1.0
  Br  Br26  1  0.12542000  0.48414000  0.84102000  1.0
  Br  Br27  1  0.87460000  0.51587000  0.15899000  1.0
  N  N28  1  0.93731000  0.35141000  0.48424000  1.0
  N  N29  1  0.06269000  0.64859000  0.51577000  1.0
  N  N30  1  0.91571000  0.21618000  0.42521000  1.0
  N  N31  1  0.08428000  0.78383000  0.57479000  1.0
  N  N32  1  0.89049000  0.08538000  0.37155000  1.0
  N  N33  1  0.10950000  0.91463000  0.62844000  1.0
  N  N34  1  0.54468000  0.61941000  0.61896000  1.0
  N  N35  1  0.45533000  0.38059000  0.38105000  1.0
  N  N36  1  0.63095000  0.65254000  0.72939000  1.0
  N  N37  1  0.36904000  0.34746000  0.27060000  1.0
  N  N38  1  0.71955000  0.68733000  0.83525000  1.0
  N  N39  1  0.28045000  0.31267000  0.16476000  1.0
  N  N40  1  0.36842000  0.31487000  0.66085000  1.0
  N  N41  1  0.63158000  0.68514000  0.33916000  1.0
