# generated using pymatgen
data_AlH5C12Cl2O5
_symmetry_space_group_name_H-M   'P 1'
_cell_length_a   6.60586000
_cell_length_b   14.32770000
_cell_length_c   15.48720000
_cell_angle_alpha   90.07350000
_cell_angle_beta   90.77040000
_cell_angle_gamma   91.05960000
_symmetry_Int_Tables_number   1
_chemical_formula_structural   AlH5C12Cl2O5
_chemical_formula_sum   'Al4 H20 C48 Cl8 O20'
_cell_volume   1465.42876111
_cell_formula_units_Z   4
loop_
 _symmetry_equiv_pos_site_id
 _symmetry_equiv_pos_as_xyz
  1  'x, y, z'
loop_
 _atom_site_type_symbol
 _atom_site_label
 _atom_site_symmetry_multiplicity
 _atom_site_fract_x
 _atom_site_fract_y
 _atom_site_fract_z
 _atom_site_occupancy
  Al  Al0  1  0.98508000  0.50727000  0.99983000  1.0
  Al  Al1  1  0.48733000  0.49936000  0.00960000  1.0
  Al  Al2  1  0.97640000  0.00517000  0.50770000  1.0
  Al  Al3  1  0.47762000  0.99520000  0.49939000  1.0
  H  H4  1  0.72418000  0.43392000  0.91162000  1.0
  H  H5  1  0.22057000  0.48213000  0.11199000  1.0
  H  H6  1  0.72068000  0.94295000  0.60404000  1.0
  H  H7  1  0.21914000  0.05367000  0.40247000  1.0
  H  H8  1  0.97429000  0.72899000  0.52580000  1.0
  H  H9  1  0.76534000  0.58507000  0.51973000  1.0
  H  H10  1  0.00153000  0.50017000  0.76690000  1.0
  H  H11  1  0.78182000  0.46975000  0.64060000  1.0
  H  H12  1  0.45341000  0.25068000  0.47214000  1.0
  H  H13  1  0.22408000  0.38339000  0.47577000  1.0
  H  H14  1  0.48362000  0.49239000  0.24262000  1.0
  H  H15  1  0.24158000  0.50626000  0.36087000  1.0
  H  H16  1  0.05185000  0.82515000  0.40781000  1.0
  H  H17  1  0.34582000  0.72668000  0.39177000  1.0
  H  H18  1  0.12093000  0.63209000  0.14481000  1.0
  H  H19  1  0.38619000  0.63350000  0.25574000  1.0
  H  H20  1  0.00614000  0.99983000  0.74182000  1.0
  H  H21  1  0.78842000  0.97112000  0.86667000  1.0
  H  H22  1  0.97739000  0.23350000  0.97895000  1.0
  H  H23  1  0.77020000  0.08928000  0.98510000  1.0
  C  C24  1  0.23177000  0.35711000  0.92231000  1.0
  C  C25  1  0.24659000  0.59189000  0.87236000  1.0
  C  C26  1  0.75194000  0.65043000  0.08081000  1.0
  C  C27  1  0.74095000  0.41599000  0.14149000  1.0
  C  C28  1  0.24340000  0.09052000  0.63679000  1.0
  C  C29  1  0.22529000  0.85499000  0.58514000  1.0
  C  C30  1  0.72406000  0.91045000  0.37018000  1.0
  C  C31  1  0.73749000  0.14362000  0.42161000  1.0
  C  C32  1  0.23690000  0.78122000  0.65395000  1.0
  C  C33  1  0.11146000  0.69891000  0.65072000  1.0
  C  C34  1  0.37435000  0.79373000  0.72181000  1.0
  C  C35  1  0.98100000  0.67953000  0.57892000  1.0
  C  C36  1  0.86391000  0.59895000  0.57557000  1.0
  C  C37  1  0.25686000  0.65062000  0.79219000  1.0
  C  C38  1  0.39180000  0.72639000  0.78907000  1.0
  C  C39  1  0.11930000  0.63349000  0.72103000  1.0
  C  C40  1  0.99650000  0.55105000  0.71496000  1.0
  C  C41  1  0.87282000  0.53402000  0.64393000  1.0
  C  C42  1  0.74588000  0.21898000  0.35411000  1.0
  C  C43  1  0.60582000  0.29400000  0.35514000  1.0
  C  C44  1  0.88948000  0.21518000  0.28948000  1.0
  C  C45  1  0.46158000  0.30322000  0.42178000  1.0
  C  C46  1  0.33228000  0.37758000  0.42352000  1.0
  C  C47  1  0.75515000  0.35439000  0.21968000  1.0
  C  C48  1  0.89782000  0.28429000  0.22331000  1.0
  C  C49  1  0.61153000  0.36269000  0.28769000  1.0
  C  C50  1  0.47723000  0.43888000  0.29226000  1.0
  C  C51  1  0.34143000  0.44653000  0.35864000  1.0
  C  C52  1  0.74421000  0.85024000  0.29128000  1.0
  C  C53  1  0.90895000  0.78679000  0.28565000  1.0
  C  C54  1  0.60697000  0.85713000  0.22277000  1.0
  C  C55  1  0.06150000  0.78128000  0.35114000  1.0
  C  C56  1  0.22814000  0.72613000  0.34170000  1.0
  C  C57  1  0.76453000  0.72763000  0.14692000  1.0
  C  C58  1  0.61392000  0.79405000  0.15160000  1.0
  C  C59  1  0.92435000  0.72766000  0.21089000  1.0
  C  C60  1  0.09940000  0.67211000  0.20322000  1.0
  C  C61  1  0.24900000  0.67285000  0.26606000  1.0
  C  C62  1  0.25499000  0.15157000  0.71582000  1.0
  C  C63  1  0.12163000  0.13456000  0.78673000  1.0
  C  C64  1  0.38611000  0.22867000  0.71804000  1.0
  C  C65  1  0.00068000  0.05170000  0.79298000  1.0
  C  C66  1  0.87792000  0.03571000  0.86300000  1.0
  C  C67  1  0.24020000  0.28336000  0.85324000  1.0
  C  C68  1  0.37363000  0.29590000  0.78548000  1.0
  C  C69  1  0.11461000  0.20113000  0.85614000  1.0
  C  C70  1  0.98456000  0.18288000  0.92678000  1.0
  C  C71  1  0.86830000  0.10217000  0.93010000  1.0
  Cl  Cl72  1  0.57751000  0.74537000  0.86594000  1.0
  Cl  Cl73  1  0.51706000  0.89545000  0.73281000  1.0
  Cl  Cl74  1  0.08338000  0.27435000  0.14698000  1.0
  Cl  Cl75  1  0.05045000  0.12227000  0.28012000  1.0
  Cl  Cl76  1  0.43504000  0.80407000  0.07086000  1.0
  Cl  Cl77  1  0.42875000  0.94330000  0.21973000  1.0
  Cl  Cl78  1  0.51717000  0.39735000  0.77566000  1.0
  Cl  Cl79  1  0.56180000  0.24924000  0.63891000  1.0
  O  O80  1  0.05969000  0.39050000  0.94006000  1.0
  O  O81  1  0.41024000  0.56763000  0.90872000  1.0
  O  O82  1  0.58175000  0.60782000  0.07250000  1.0
  O  O83  1  0.90251000  0.45288000  0.11231000  1.0
  O  O84  1  0.91182000  0.62812000  0.04170000  1.0
  O  O85  1  0.56441000  0.42538000  0.10907000  1.0
  O  O86  1  0.40013000  0.38195000  0.95631000  1.0
  O  O87  1  0.06983000  0.57201000  0.89931000  1.0
  O  O88  1  0.73214000  0.48111000  0.95675000  1.0
  O  O89  1  0.23411000  0.51423000  0.05696000  1.0
  O  O90  1  0.06523000  0.07109000  0.60888000  1.0
  O  O91  1  0.39202000  0.88027000  0.55223000  1.0
  O  O92  1  0.54942000  0.91816000  0.40235000  1.0
  O  O93  1  0.90181000  0.12450000  0.46036000  1.0
  O  O94  1  0.88572000  0.94898000  0.39972000  1.0
  O  O95  1  0.56701000  0.10329000  0.43404000  1.0
  O  O96  1  0.40688000  0.06408000  0.60358000  1.0
  O  O97  1  0.05299000  0.88847000  0.56608000  1.0
  O  O98  1  0.72595000  0.98220000  0.55299000  1.0
  O  O99  1  0.22429000  0.01645000  0.45487000  1.0
