# generated using pymatgen
data_LaH8C10N2Cl3
_symmetry_space_group_name_H-M   'P 1'
_cell_length_a   7.08763000
_cell_length_b   7.42686000
_cell_length_c   23.86180000
_cell_angle_alpha   90.00000000
_cell_angle_beta   90.00000000
_cell_angle_gamma   90.00000000
_symmetry_Int_Tables_number   1
_chemical_formula_structural   LaH8C10N2Cl3
_chemical_formula_sum   'La4 H32 C40 N8 Cl12'
_cell_volume   1256.05737070
_cell_formula_units_Z   4
loop_
 _symmetry_equiv_pos_site_id
 _symmetry_equiv_pos_as_xyz
  1  'x, y, z'
loop_
 _atom_site_type_symbol
 _atom_site_label
 _atom_site_symmetry_multiplicity
 _atom_site_fract_x
 _atom_site_fract_y
 _atom_site_fract_z
 _atom_site_occupancy
  La  La0  1  0.75000000  0.29818000  0.50000000  1.0
  La  La1  1  0.75000000  0.70182000  0.00000000  1.0
  La  La2  1  0.25000000  0.70182000  0.50000000  1.0
  La  La3  1  0.25000000  0.29818000  0.00000000  1.0
  H  H4  1  0.76312000  0.42448000  0.35495000  1.0
  H  H5  1  0.76312000  0.57552000  0.14505000  1.0
  H  H6  1  0.73688000  0.57552000  0.85495000  1.0
  H  H7  1  0.73688000  0.42448000  0.64505000  1.0
  H  H8  1  0.23688000  0.57552000  0.64505000  1.0
  H  H9  1  0.23688000  0.42448000  0.85495000  1.0
  H  H10  1  0.26312000  0.42448000  0.14505000  1.0
  H  H11  1  0.26312000  0.57552000  0.35495000  1.0
  H  H12  1  0.77062000  0.31860000  0.25676000  1.0
  H  H13  1  0.77062000  0.68140000  0.24325000  1.0
  H  H14  1  0.72938000  0.68140000  0.75675000  1.0
  H  H15  1  0.72938000  0.31860000  0.74325000  1.0
  H  H16  1  0.22938000  0.68140000  0.74325000  1.0
  H  H17  1  0.22938000  0.31860000  0.75675000  1.0
  H  H18  1  0.27062000  0.31860000  0.24325000  1.0
  H  H19  1  0.27062000  0.68140000  0.25675000  1.0
  H  H20  1  0.71996000  0.90404000  0.41575000  1.0
  H  H21  1  0.71996000  0.09595000  0.08425000  1.0
  H  H22  1  0.78004000  0.09595000  0.91575000  1.0
  H  H23  1  0.78004000  0.90405000  0.58425000  1.0
  H  H24  1  0.28004000  0.09595000  0.58425000  1.0
  H  H25  1  0.28004000  0.90405000  0.91575000  1.0
  H  H26  1  0.21996000  0.90404000  0.08425000  1.0
  H  H27  1  0.21996000  0.09595000  0.41575000  1.0
  H  H28  1  0.71878000  0.77569000  0.32150000  1.0
  H  H29  1  0.71878000  0.22431000  0.17850000  1.0
  H  H30  1  0.78122000  0.22431000  0.82150000  1.0
  H  H31  1  0.78122000  0.77569000  0.67850000  1.0
  H  H32  1  0.28123000  0.22431000  0.67850000  1.0
  H  H33  1  0.28122000  0.77569000  0.82150000  1.0
  H  H34  1  0.21878000  0.77569000  0.17850000  1.0
  H  H35  1  0.21878000  0.22431000  0.32150000  1.0
  C  C36  1  0.75399000  0.28119000  0.34541000  1.0
  C  C37  1  0.75399000  0.71881000  0.15459000  1.0
  C  C38  1  0.74601000  0.71881000  0.84541000  1.0
  C  C39  1  0.74601000  0.28119000  0.65459000  1.0
  C  C40  1  0.24601000  0.71881000  0.65459000  1.0
  C  C41  1  0.24601000  0.28119000  0.84541000  1.0
  C  C42  1  0.25399000  0.28119000  0.15459000  1.0
  C  C43  1  0.25399000  0.71880000  0.34540000  1.0
  C  C44  1  0.75699000  0.22037000  0.29038000  1.0
  C  C45  1  0.75699000  0.77963000  0.20962000  1.0
  C  C46  1  0.74301000  0.77963000  0.79038000  1.0
  C  C47  1  0.74301000  0.22037000  0.70962000  1.0
  C  C48  1  0.24301000  0.77963000  0.70962000  1.0
  C  C49  1  0.24301000  0.22037000  0.79038000  1.0
  C  C50  1  0.25699000  0.22037000  0.20962000  1.0
  C  C51  1  0.25699000  0.77963000  0.29038000  1.0
  C  C52  1  0.74461000  0.03506000  0.27899000  1.0
  C  C53  1  0.74461000  0.96494000  0.22101000  1.0
  C  C54  1  0.75539000  0.96495000  0.77899000  1.0
  C  C55  1  0.75539000  0.03506000  0.72101000  1.0
  C  C56  1  0.25539000  0.96495000  0.72101000  1.0
  C  C57  1  0.25539000  0.03506000  0.77899000  1.0
  C  C58  1  0.24461000  0.03506000  0.22101000  1.0
  C  C59  1  0.24462000  0.96494000  0.27899000  1.0
  C  C60  1  0.73063000  0.99264000  0.37952000  1.0
  C  C61  1  0.73063000  0.00736000  0.12048000  1.0
  C  C62  1  0.76937000  0.00736000  0.87952000  1.0
  C  C63  1  0.76937000  0.99264000  0.62048000  1.0
  C  C64  1  0.26937000  0.00736000  0.62048000  1.0
  C  C65  1  0.26937000  0.99264000  0.87952000  1.0
  C  C66  1  0.23063000  0.99264000  0.12048000  1.0
  C  C67  1  0.23063000  0.00736000  0.37952000  1.0
  C  C68  1  0.73147000  0.92103000  0.32566000  1.0
  C  C69  1  0.73147000  0.07897000  0.17434000  1.0
  C  C70  1  0.76853000  0.07897000  0.82566000  1.0
  C  C71  1  0.76853000  0.92103000  0.67434000  1.0
  C  C72  1  0.26853000  0.07897000  0.67434000  1.0
  C  C73  1  0.26853000  0.92103000  0.82566000  1.0
  C  C74  1  0.23147000  0.92103000  0.17434000  1.0
  C  C75  1  0.23147000  0.07896000  0.32566000  1.0
  N  N76  1  0.74009000  0.17050000  0.38991000  1.0
  N  N77  1  0.74009000  0.82950000  0.11009000  1.0
  N  N78  1  0.75991000  0.82950000  0.88991000  1.0
  N  N79  1  0.75991000  0.17050000  0.61009000  1.0
  N  N80  1  0.25991000  0.82950000  0.61009000  1.0
  N  N81  1  0.25991000  0.17050000  0.88991000  1.0
  N  N82  1  0.24009000  0.17050000  0.11009000  1.0
  N  N83  1  0.24009000  0.82949000  0.38991000  1.0
  Cl  Cl84  1  0.00000000  0.00000000  0.50000000  1.0
  Cl  Cl85  1  0.00000000  0.00000000  0.00000000  1.0
  Cl  Cl86  1  0.50000000  0.00000000  0.00000000  1.0
  Cl  Cl87  1  0.50000000  0.00000000  0.50000000  1.0
  Cl  Cl88  1  0.92799000  0.57020000  0.56413000  1.0
  Cl  Cl89  1  0.92799000  0.42980000  0.93587000  1.0
  Cl  Cl90  1  0.57201000  0.42980000  0.06413000  1.0
  Cl  Cl91  1  0.57201000  0.57020000  0.43587000  1.0
  Cl  Cl92  1  0.07201000  0.42980000  0.43587000  1.0
  Cl  Cl93  1  0.07201000  0.57020000  0.06413000  1.0
  Cl  Cl94  1  0.42799000  0.57020000  0.93587000  1.0
  Cl  Cl95  1  0.42799000  0.42980000  0.56413000  1.0
