# generated using pymatgen
data_CoH14C18(N2O)4
_symmetry_space_group_name_H-M   'P 1'
_cell_length_a   7.97061000
_cell_length_b   8.02717000
_cell_length_c   9.26157000
_cell_angle_alpha   69.25910000
_cell_angle_beta   81.86340000
_cell_angle_gamma   64.80820000
_symmetry_Int_Tables_number   1
_chemical_formula_structural   CoH14C18(N2O)4
_chemical_formula_sum   'Co1 H14 C18 N8 O4'
_cell_volume   501.42765549
_cell_formula_units_Z   1
loop_
 _symmetry_equiv_pos_site_id
 _symmetry_equiv_pos_as_xyz
  1  'x, y, z'
loop_
 _atom_site_type_symbol
 _atom_site_label
 _atom_site_symmetry_multiplicity
 _atom_site_fract_x
 _atom_site_fract_y
 _atom_site_fract_z
 _atom_site_occupancy
  Co  Co0  1  0.00000000  0.00000000  0.00000000  1.0
  H  H1  1  0.06085000  0.82618000  0.78397000  1.0
  H  H2  1  0.93914000  0.17382000  0.21604000  1.0
  H  H3  1  0.97933000  0.05356000  0.69286000  1.0
  H  H4  1  0.02066000  0.94644000  0.30714000  1.0
  H  H5  1  0.34299000  0.12314000  0.69571000  1.0
  H  H6  1  0.65702000  0.87686000  0.30429000  1.0
  H  H7  1  0.52464000  0.08847000  0.81260000  1.0
  H  H8  1  0.47536000  0.91153000  0.18740000  1.0
  H  H9  1  0.42493000  0.40754000  0.59912000  1.0
  H  H10  1  0.57508000  0.59246000  0.40087000  1.0
  H  H11  1  0.66193000  0.25652000  0.57827000  1.0
  H  H12  1  0.33807000  0.74348000  0.42172000  1.0
  H  H13  1  0.48622000  0.28630000  0.45985000  1.0
  H  H14  1  0.51377000  0.71370000  0.54014000  1.0
  C  C15  1  0.91138000  0.42069000  0.81255000  1.0
  C  C16  1  0.08862000  0.57930000  0.18745000  1.0
  C  C17  1  0.92677000  0.68806000  0.58995000  1.0
  C  C18  1  0.07323000  0.31194000  0.41004000  1.0
  C  C19  1  0.40949000  0.82127000  0.94653000  1.0
  C  C20  1  0.59051000  0.17872000  0.05348000  1.0
  C  C21  1  0.69260000  0.56020000  0.05262000  1.0
  C  C22  1  0.30739000  0.43980000  0.94737000  1.0
  C  C23  1  0.84091000  0.61953000  0.72857000  1.0
  C  C24  1  0.15909000  0.38047000  0.27143000  1.0
  C  C25  1  0.59671000  0.71640000  0.92253000  1.0
  C  C26  1  0.40329000  0.28360000  0.07746000  1.0
  C  C27  1  0.67944000  0.75642000  0.77432000  1.0
  C  C28  1  0.32056000  0.24358000  0.22568000  1.0
  C  C29  1  0.48699000  0.10580000  0.69704000  1.0
  C  C30  1  0.51301000  0.89420000  0.30295000  1.0
  C  C31  1  0.51847000  0.27294000  0.57573000  1.0
  C  C32  1  0.48154000  0.72706000  0.42426000  1.0
  N  N33  1  0.96598000  0.25547000  0.88617000  1.0
  N  N34  1  0.03402000  0.74454000  0.11383000  1.0
  N  N35  1  0.99351000  0.75094000  0.47440000  1.0
  N  N36  1  0.00650000  0.24905000  0.52561000  1.0
  N  N37  1  0.25372000  0.90649000  0.97055000  1.0
  N  N38  1  0.74629000  0.09350000  0.02945000  1.0
  N  N39  1  0.76575000  0.43372000  0.16500000  1.0
  N  N40  1  0.23425000  0.56627000  0.83501000  1.0
  O  O41  1  0.96079000  0.95230000  0.78466000  1.0
  O  O42  1  0.03920000  0.04771000  0.21535000  1.0
  O  O43  1  0.60656000  0.92698000  0.66259000  1.0
  O  O44  1  0.39344000  0.07301000  0.33741000  1.0
