# generated using pymatgen
data_Cu2H21C18N9Cl4
_symmetry_space_group_name_H-M   'P 1'
_cell_length_a   13.53750000
_cell_length_b   15.26040000
_cell_length_c   15.26270000
_cell_angle_alpha   72.67540000
_cell_angle_beta   73.78740000
_cell_angle_gamma   73.81440000
_symmetry_Int_Tables_number   1
_chemical_formula_structural   Cu2H21C18N9Cl4
_chemical_formula_sum   'Cu8 H84 C72 N36 Cl16'
_cell_volume   2823.76481337
_cell_formula_units_Z   4
loop_
 _symmetry_equiv_pos_site_id
 _symmetry_equiv_pos_as_xyz
  1  'x, y, z'
loop_
 _atom_site_type_symbol
 _atom_site_label
 _atom_site_symmetry_multiplicity
 _atom_site_fract_x
 _atom_site_fract_y
 _atom_site_fract_z
 _atom_site_occupancy
  Cu  Cu0  1  0.35063000  0.80602000  0.74020000  1.0
  Cu  Cu1  1  0.14977000  0.25990000  0.19397000  1.0
  Cu  Cu2  1  0.64973000  0.19400000  0.25988000  1.0
  Cu  Cu3  1  0.84957000  0.74005000  0.80606000  1.0
  Cu  Cu4  1  0.11245000  0.77380000  0.76780000  1.0
  Cu  Cu5  1  0.38735000  0.23187000  0.22624000  1.0
  Cu  Cu6  1  0.88738000  0.22625000  0.23185000  1.0
  Cu  Cu7  1  0.61385000  0.76832000  0.77348000  1.0
  H  H8  1  0.32485000  0.75835000  0.01763000  1.0
  H  H9  1  0.17526000  0.98243000  0.24169000  1.0
  H  H10  1  0.67525000  0.24169000  0.98243000  1.0
  H  H11  1  0.82471000  0.01741000  0.75829000  1.0
  H  H12  1  0.22241000  0.69464000  0.06585000  1.0
  H  H13  1  0.27770000  0.93420000  0.30534000  1.0
  H  H14  1  0.77772000  0.30536000  0.93417000  1.0
  H  H15  1  0.72230000  0.06586000  0.69463000  1.0
  H  H16  1  0.21691000  0.78846000  0.96216000  1.0
  H  H17  1  0.28328000  0.03789000  0.21151000  1.0
  H  H18  1  0.78324000  0.21154000  0.03785000  1.0
  H  H19  1  0.71653000  0.96218000  0.78846000  1.0
  H  H20  1  0.34701000  0.51883000  0.04334000  1.0
  H  H21  1  0.15299000  0.95671000  0.48116000  1.0
  H  H22  1  0.65301000  0.48117000  0.95668000  1.0
  H  H23  1  0.84719000  0.04330000  0.51886000  1.0
  H  H24  1  0.45511000  0.38350000  0.95385000  1.0
  H  H25  1  0.04483000  0.04619000  0.61647000  1.0
  H  H26  1  0.54486000  0.61649000  0.04619000  1.0
  H  H27  1  0.95531000  0.95375000  0.38353000  1.0
  H  H28  1  0.55117000  0.42726000  0.85494000  1.0
  H  H29  1  0.94889000  0.14512000  0.57267000  1.0
  H  H30  1  0.44889000  0.57261000  0.14512000  1.0
  H  H31  1  0.05112000  0.85481000  0.42753000  1.0
  H  H32  1  0.43652000  0.40951000  0.83607000  1.0
  H  H33  1  0.06352000  0.16396000  0.59052000  1.0
  H  H34  1  0.56347000  0.59054000  0.16397000  1.0
  H  H35  1  0.93662000  0.83598000  0.40943000  1.0
  H  H36  1  0.80726000  0.24887000  0.58501000  1.0
  H  H37  1  0.69267000  0.41496000  0.75114000  1.0
  H  H38  1  0.19278000  0.75113000  0.41494000  1.0
  H  H39  1  0.30728000  0.58506000  0.24886000  1.0
  H  H40  1  0.71296000  0.21220000  0.55189000  1.0
  H  H41  1  0.78696000  0.44812000  0.78779000  1.0
  H  H42  1  0.28710000  0.78780000  0.44802000  1.0
  H  H43  1  0.21300000  0.55187000  0.21223000  1.0
  H  H44  1  0.68402000  0.23927000  0.66487000  1.0
  H  H45  1  0.81587000  0.33511000  0.76075000  1.0
  H  H46  1  0.31602000  0.76069000  0.33505000  1.0
  H  H47  1  0.18405000  0.66487000  0.23929000  1.0
  H  H48  1  0.74787000  0.38599000  0.39291000  1.0
  H  H49  1  0.75211000  0.60705000  0.61400000  1.0
  H  H50  1  0.25211000  0.61402000  0.60705000  1.0
  H  H51  1  0.24792000  0.39292000  0.38603000  1.0
  H  H52  1  0.69200000  0.56242000  0.30962000  1.0
  H  H53  1  0.80806000  0.69036000  0.43760000  1.0
  H  H54  1  0.30800000  0.43761000  0.69038000  1.0
  H  H55  1  0.19196000  0.30962000  0.56248000  1.0
  H  H56  1  0.66088000  0.64415000  0.38175000  1.0
  H  H57  1  0.83915000  0.61822000  0.35588000  1.0
  H  H58  1  0.33913000  0.35587000  0.61825000  1.0
  H  H59  1  0.16082000  0.38181000  0.64416000  1.0
  H  H60  1  0.55849000  0.60873000  0.35908000  1.0
  H  H61  1  0.94157000  0.64093000  0.39122000  1.0
  H  H62  1  0.44152000  0.39129000  0.64093000  1.0
  H  H63  1  0.05844000  0.35903000  0.60882000  1.0
  H  H64  1  0.52135000  0.89188000  0.30501000  1.0
  H  H65  1  0.97861000  0.69503000  0.10818000  1.0
  H  H66  1  0.47855000  0.10812000  0.69502000  1.0
  H  H67  1  0.02137000  0.30502000  0.89188000  1.0
  H  H68  1  0.48633000  0.78024000  0.36046000  1.0
  H  H69  1  0.01365000  0.63956000  0.21977000  1.0
  H  H70  1  0.51364000  0.21974000  0.63958000  1.0
  H  H71  1  0.98633000  0.36044000  0.78027000  1.0
  H  H72  1  0.60056000  0.80160000  0.37709000  1.0
  H  H73  1  0.89942000  0.62287000  0.19847000  1.0
  H  H74  1  0.39940000  0.19843000  0.62292000  1.0
  H  H75  1  0.10054000  0.37717000  0.80156000  1.0
  H  H76  1  0.40926000  0.02702000  0.39734000  1.0
  H  H77  1  0.09065000  0.60272000  0.97293000  1.0
  H  H78  1  0.59055000  0.97295000  0.60270000  1.0
  H  H79  1  0.90951000  0.39734000  0.02710000  1.0
  H  H80  1  0.22590000  0.02773000  0.63916000  1.0
  H  H81  1  0.27408000  0.36097000  0.97214000  1.0
  H  H82  1  0.77405000  0.97227000  0.36086000  1.0
  H  H83  1  0.72589000  0.63899000  0.02799000  1.0
  H  H84  1  0.29010000  0.10824000  0.54216000  1.0
  H  H85  1  0.20992000  0.45800000  0.89168000  1.0
  H  H86  1  0.70988000  0.89174000  0.45787000  1.0
  H  H87  1  0.79019000  0.54199000  0.10836000  1.0
  H  H88  1  0.34521000  0.04944000  0.64392000  1.0
  H  H89  1  0.15475000  0.35623000  0.95046000  1.0
  H  H90  1  0.65473000  0.95053000  0.35615000  1.0
  H  H91  1  0.84525000  0.64380000  0.04956000  1.0
  C  C92  1  0.26878000  0.72949000  0.00008000  1.0
  C  C93  1  0.23138000  0.99996000  0.27051000  1.0
  C  C94  1  0.73137000  0.27052000  0.99994000  1.0
  C  C95  1  0.76850000  0.00002000  0.72945000  1.0
  C  C96  1  0.32647000  0.66095000  0.94177000  1.0
  C  C97  1  0.17372000  0.05828000  0.33905000  1.0
  C  C98  1  0.67373000  0.33907000  0.05826000  1.0
  C  C99  1  0.82604000  0.94168000  0.66092000  1.0
  C  C100  1  0.35998000  0.56193000  0.97195000  1.0
  C  C101  1  0.14012000  0.02810000  0.43806000  1.0
  C  C102  1  0.64012000  0.43808000  0.02808000  1.0
  C  C103  1  0.85986000  0.97188000  0.56192000  1.0
  C  C104  1  0.41283000  0.52849000  0.89319000  1.0
  C  C105  1  0.08732000  0.10688000  0.47150000  1.0
  C  C106  1  0.58734000  0.47151000  0.10687000  1.0
  C  C107  1  0.91253000  0.89309000  0.52848000  1.0
  C  C108  1  0.46652000  0.43160000  0.88405000  1.0
  C  C109  1  0.03353000  0.11600000  0.56838000  1.0
  C  C110  1  0.53353000  0.56838000  0.11599000  1.0
  C  C111  1  0.96651000  0.88395000  0.43165000  1.0
  C  C112  1  0.45025000  0.61767000  0.72350000  1.0
  C  C113  1  0.05000000  0.27654000  0.38232000  1.0
  C  C114  1  0.55000000  0.38234000  0.27654000  1.0
  C  C115  1  0.94963000  0.72340000  0.61762000  1.0
  C  C116  1  0.53714000  0.57325000  0.59032000  1.0
  C  C117  1  0.96300000  0.40969000  0.42675000  1.0
  C  C118  1  0.46299000  0.42675000  0.40970000  1.0
  C  C119  1  0.03688000  0.59028000  0.57324000  1.0
  C  C120  1  0.46586000  0.72578000  0.58287000  1.0
  C  C121  1  0.03426000  0.41717000  0.27420000  1.0
  C  C122  1  0.53424000  0.27422000  0.41716000  1.0
  C  C123  1  0.96547000  0.58282000  0.72575000  1.0
  C  C124  1  0.72235000  0.25857000  0.59045000  1.0
  C  C125  1  0.77758000  0.40953000  0.74144000  1.0
  C  C126  1  0.27768000  0.74143000  0.40950000  1.0
  C  C127  1  0.22238000  0.59045000  0.25858000  1.0
  C  C128  1  0.67940000  0.35878000  0.54953000  1.0
  C  C129  1  0.82059000  0.45044000  0.64123000  1.0
  C  C130  1  0.32063000  0.64122000  0.45044000  1.0
  C  C131  1  0.17939000  0.54952000  0.35879000  1.0
  C  C132  1  0.69980000  0.41151000  0.45408000  1.0
  C  C133  1  0.80019000  0.54588000  0.58849000  1.0
  C  C134  1  0.30020000  0.58850000  0.54588000  1.0
  C  C135  1  0.19981000  0.45408000  0.41154000  1.0
  C  C136  1  0.64591000  0.50239000  0.45365000  1.0
  C  C137  1  0.85413000  0.54632000  0.49760000  1.0
  C  C138  1  0.35412000  0.49762000  0.54633000  1.0
  C  C139  1  0.14585000  0.45364000  0.50242000  1.0
  C  C140  1  0.63888000  0.58454000  0.37175000  1.0
  C  C141  1  0.86117000  0.62823000  0.41546000  1.0
  C  C142  1  0.36113000  0.41548000  0.62825000  1.0
  C  C143  1  0.13883000  0.37175000  0.58459000  1.0
  C  C144  1  0.51942000  0.83456000  0.36870000  1.0
  C  C145  1  0.98056000  0.63132000  0.16546000  1.0
  C  C146  1  0.48053000  0.16543000  0.63133000  1.0
  C  C147  1  0.01941000  0.36871000  0.83457000  1.0
  C  C148  1  0.45680000  0.87371000  0.45047000  1.0
  C  C149  1  0.04320000  0.54958000  0.12627000  1.0
  C  C150  1  0.54316000  0.12628000  0.54956000  1.0
  C  C151  1  0.95676000  0.45046000  0.87373000  1.0
  C  C152  1  0.40909000  0.96512000  0.45541000  1.0
  C  C153  1  0.09085000  0.54468000  0.03482000  1.0
  C  C154  1  0.59080000  0.03485000  0.54463000  1.0
  C  C155  1  0.90921000  0.45539000  0.96518000  1.0
  C  C156  1  0.36171000  0.96387000  0.55156000  1.0
  C  C157  1  0.13830000  0.44855000  0.03607000  1.0
  C  C158  1  0.63825000  0.03611000  0.44849000  1.0
  C  C159  1  0.86168000  0.55150000  0.96395000  1.0
  C  C160  1  0.30180000  0.04263000  0.59610000  1.0
  C  C161  1  0.19820000  0.40403000  0.95728000  1.0
  C  C162  1  0.69816000  0.95736000  0.40394000  1.0
  C  C163  1  0.80183000  0.59598000  0.04276000  1.0
  N  N164  1  0.35662000  0.68761000  0.84858000  1.0
  N  N165  1  0.14368000  0.15149000  0.31239000  1.0
  N  N166  1  0.64368000  0.31241000  0.15147000  1.0
  N  N167  1  0.85584000  0.84844000  0.68755000  1.0
  N  N168  1  0.40926000  0.60654000  0.81868000  1.0
  N  N169  1  0.09102000  0.18139000  0.39346000  1.0
  N  N170  1  0.59103000  0.39348000  0.18138000  1.0
  N  N171  1  0.90855000  0.81855000  0.60649000  1.0
  N  N172  1  0.42999000  0.70736000  0.67605000  1.0
  N  N173  1  0.07019000  0.32400000  0.29261000  1.0
  N  N174  1  0.57019000  0.29264000  0.32399000  1.0
  N  N175  1  0.92931000  0.67592000  0.70729000  1.0
  N  N176  1  0.50293000  0.54714000  0.68438000  1.0
  N  N177  1  0.99733000  0.31566000  0.45285000  1.0
  N  N178  1  0.49733000  0.45286000  0.31566000  1.0
  N  N179  1  0.00250000  0.68430000  0.54710000  1.0
  N  N180  1  0.52078000  0.66145000  0.53538000  1.0
  N  N181  1  0.97931000  0.46464000  0.33853000  1.0
  N  N182  1  0.47929000  0.33854000  0.46464000  1.0
  N  N183  1  0.02059000  0.53534000  0.66145000  1.0
  N  N184  1  0.59510000  0.50118000  0.54765000  1.0
  N  N185  1  0.90496000  0.45234000  0.49882000  1.0
  N  N186  1  0.40496000  0.49882000  0.45235000  1.0
  N  N187  1  0.09499000  0.54763000  0.50119000  1.0
  N  N188  1  0.61606000  0.41235000  0.60557000  1.0
  N  N189  1  0.88398000  0.39442000  0.58765000  1.0
  N  N190  1  0.38400000  0.58764000  0.39441000  1.0
  N  N191  1  0.11598000  0.60553000  0.41236000  1.0
  N  N192  1  0.43701000  0.82027000  0.54184000  1.0
  N  N193  1  0.06308000  0.45822000  0.17970000  1.0
  N  N194  1  0.56304000  0.17972000  0.45821000  1.0
  N  N195  1  0.93674000  0.54180000  0.82028000  1.0
  N  N196  1  0.37904000  0.87617000  0.60302000  1.0
  N  N197  1  0.12108000  0.39708000  0.12377000  1.0
  N  N198  1  0.62103000  0.12382000  0.39704000  1.0
  N  N199  1  0.87874000  0.60295000  0.87622000  1.0
  Cl  Cl200  1  0.18290000  0.88453000  0.79414000  1.0
  Cl  Cl201  1  0.31714000  0.20595000  0.11510000  1.0
  Cl  Cl202  1  0.81710000  0.11517000  0.20587000  1.0
  Cl  Cl203  1  0.68265000  0.79452000  0.88552000  1.0
  Cl  Cl204  1  0.46614000  0.88369000  0.78218000  1.0
  Cl  Cl205  1  0.03411000  0.21797000  0.11601000  1.0
  Cl  Cl206  1  0.53407000  0.11607000  0.21790000  1.0
  Cl  Cl207  1  0.96527000  0.78229000  0.88320000  1.0
  Cl  Cl208  1  0.15457000  0.81368000  0.61218000  1.0
  Cl  Cl209  1  0.34528000  0.38751000  0.18645000  1.0
  Cl  Cl210  1  0.84532000  0.18646000  0.38749000  1.0
  Cl  Cl211  1  0.65534000  0.61268000  0.81360000  1.0
  Cl  Cl212  1  0.16327000  0.61798000  0.78300000  1.0
  Cl  Cl213  1  0.33667000  0.21688000  0.38203000  1.0
  Cl  Cl214  1  0.83668000  0.38204000  0.21687000  1.0
  Cl  Cl215  1  0.66358000  0.78309000  0.61771000  1.0
