# generated using pymatgen
data_La2H8C11N4O13
_symmetry_space_group_name_H-M   'P 1'
_cell_length_a   8.62362000
_cell_length_b   15.23520000
_cell_length_c   18.01830000
_cell_angle_alpha   89.99990000
_cell_angle_beta   90.00000000
_cell_angle_gamma   89.99990000
_symmetry_Int_Tables_number   1
_chemical_formula_structural   La2H8C11N4O13
_chemical_formula_sum   'La8 H32 C44 N16 O52'
_cell_volume   2367.29065876
_cell_formula_units_Z   4
loop_
 _symmetry_equiv_pos_site_id
 _symmetry_equiv_pos_as_xyz
  1  'x, y, z'
loop_
 _atom_site_type_symbol
 _atom_site_label
 _atom_site_symmetry_multiplicity
 _atom_site_fract_x
 _atom_site_fract_y
 _atom_site_fract_z
 _atom_site_occupancy
  La  La0  1  0.33996000  0.72414000  0.60775000  1.0
  La  La1  1  0.16004000  0.22414000  0.39225000  1.0
  La  La2  1  0.66004000  0.27586000  0.10775000  1.0
  La  La3  1  0.83996000  0.77586000  0.89225000  1.0
  La  La4  1  0.66004000  0.27586000  0.39225000  1.0
  La  La5  1  0.83996000  0.77586000  0.60775000  1.0
  La  La6  1  0.33996000  0.72414000  0.89225000  1.0
  La  La7  1  0.16004000  0.22414000  0.10775000  1.0
  H  H8  1  0.52191000  0.98865000  0.40100000  1.0
  H  H9  1  0.99146000  0.93919000  0.45308000  1.0
  H  H10  1  0.13483000  0.60543000  0.67494000  1.0
  H  H11  1  0.28240000  0.54191000  0.66560000  1.0
  H  H12  1  0.97809000  0.48865000  0.59900000  1.0
  H  H13  1  0.50854000  0.43919000  0.54692000  1.0
  H  H14  1  0.36517000  0.10543000  0.32506000  1.0
  H  H15  1  0.21760000  0.04191000  0.33440000  1.0
  H  H16  1  0.47809000  0.01135000  0.90100000  1.0
  H  H17  1  0.00854000  0.06081000  0.95308000  1.0
  H  H18  1  0.86517000  0.39457000  0.17494000  1.0
  H  H19  1  0.71760000  0.45809000  0.16560000  1.0
  H  H20  1  0.02190000  0.51135000  0.09900000  1.0
  H  H21  1  0.49146000  0.56081000  0.04692000  1.0
  H  H22  1  0.63483000  0.89457000  0.82506000  1.0
  H  H23  1  0.78240000  0.95809000  0.83440000  1.0
  H  H24  1  0.47809000  0.01135000  0.59900000  1.0
  H  H25  1  0.00854000  0.06081000  0.54692000  1.0
  H  H26  1  0.86517000  0.39456000  0.32506000  1.0
  H  H27  1  0.71760000  0.45809000  0.33440000  1.0
  H  H28  1  0.02191000  0.51135000  0.40100000  1.0
  H  H29  1  0.49146000  0.56081000  0.45308000  1.0
  H  H30  1  0.63483000  0.89456000  0.67494000  1.0
  H  H31  1  0.78240000  0.95809000  0.66560000  1.0
  H  H32  1  0.52191000  0.98865000  0.09900000  1.0
  H  H33  1  0.99146000  0.93919000  0.04692000  1.0
  H  H34  1  0.13483000  0.60543000  0.82506000  1.0
  H  H35  1  0.28240000  0.54191000  0.83440000  1.0
  H  H36  1  0.97809000  0.48865000  0.90100000  1.0
  H  H37  1  0.50854000  0.43919000  0.95308000  1.0
  H  H38  1  0.36517000  0.10543000  0.17494000  1.0
  H  H39  1  0.21760000  0.04191000  0.16560000  1.0
  C  C40  1  0.53118000  0.82340000  0.49717000  1.0
  C  C41  1  0.64690000  0.88247000  0.46287000  1.0
  C  C42  1  0.62901000  0.95937000  0.42057000  1.0
  C  C43  1  0.77886000  0.99180000  0.41206000  1.0
  C  C44  1  0.84027000  0.07508000  0.38115000  1.0
  C  C45  1  0.96883000  0.32341000  0.50283000  1.0
  C  C46  1  0.85311000  0.38247000  0.53713000  1.0
  C  C47  1  0.87100000  0.45937000  0.57943000  1.0
  C  C48  1  0.72114000  0.49180000  0.58794000  1.0
  C  C49  1  0.65974000  0.57508000  0.61886000  1.0
  C  C50  1  0.46883000  0.17660000  0.99717000  1.0
  C  C51  1  0.35310000  0.11753000  0.96287000  1.0
  C  C52  1  0.37099000  0.04063000  0.92057000  1.0
  C  C53  1  0.22114000  0.00820000  0.91206000  1.0
  C  C54  1  0.15974000  0.92492000  0.88115000  1.0
  C  C55  1  0.03117000  0.67660000  0.00282000  1.0
  C  C56  1  0.14689000  0.61753000  0.03713000  1.0
  C  C57  1  0.12900000  0.54063000  0.07943000  1.0
  C  C58  1  0.27885000  0.50820000  0.08794000  1.0
  C  C59  1  0.34026000  0.42492000  0.11885000  1.0
  C  C60  1  0.46883000  0.17660000  0.50283000  1.0
  C  C61  1  0.35310000  0.11753000  0.53713000  1.0
  C  C62  1  0.37099000  0.04063000  0.57944000  1.0
  C  C63  1  0.22114000  0.00820000  0.58794000  1.0
  C  C64  1  0.15973000  0.92492000  0.61885000  1.0
  C  C65  1  0.03117000  0.67659000  0.49718000  1.0
  C  C66  1  0.14689000  0.61752000  0.46287000  1.0
  C  C67  1  0.12900000  0.54063000  0.42057000  1.0
  C  C68  1  0.27885000  0.50820000  0.41206000  1.0
  C  C69  1  0.34026000  0.42492000  0.38114000  1.0
  C  C70  1  0.53117000  0.82340000  0.00282000  1.0
  C  C71  1  0.64690000  0.88247000  0.03713000  1.0
  C  C72  1  0.62901000  0.95937000  0.07943000  1.0
  C  C73  1  0.77886000  0.99180000  0.08794000  1.0
  C  C74  1  0.84027000  0.07508000  0.11885000  1.0
  C  C75  1  0.96883000  0.32341000  0.99718000  1.0
  C  C76  1  0.85311000  0.38247000  0.96287000  1.0
  C  C77  1  0.87099000  0.45937000  0.92056000  1.0
  C  C78  1  0.72115000  0.49180000  0.91205000  1.0
  C  C79  1  0.65974000  0.57508000  0.88114000  1.0
  C  C80  1  0.50806000  0.76213000  0.75000000  1.0
  C  C81  1  0.99193000  0.26213000  0.25000000  1.0
  C  C82  1  0.49194000  0.23787000  0.25000000  1.0
  C  C83  1  0.00806000  0.73787000  0.75000000  1.0
  N  N84  1  0.87431000  0.93441000  0.44826000  1.0
  N  N85  1  0.79792000  0.86828000  0.47963000  1.0
  N  N86  1  0.62570000  0.43441000  0.55175000  1.0
  N  N87  1  0.70209000  0.36828000  0.52037000  1.0
  N  N88  1  0.12570000  0.06559000  0.94826000  1.0
  N  N89  1  0.20209000  0.13172000  0.97963000  1.0
  N  N90  1  0.37430000  0.56559000  0.05175000  1.0
  N  N91  1  0.29791000  0.63172000  0.02037000  1.0
  N  N92  1  0.12570000  0.06559000  0.55174000  1.0
  N  N93  1  0.20208000  0.13172000  0.52037000  1.0
  N  N94  1  0.37430000  0.56559000  0.44825000  1.0
  N  N95  1  0.29791000  0.63171000  0.47963000  1.0
  N  N96  1  0.87430000  0.93441000  0.05174000  1.0
  N  N97  1  0.79792000  0.86828000  0.02037000  1.0
  N  N98  1  0.62570000  0.43441000  0.94825000  1.0
  N  N99  1  0.70209000  0.36828000  0.97963000  1.0
  O  O100  1  0.38808000  0.83542000  0.49116000  1.0
  O  O101  1  0.58812000  0.76015000  0.53784000  1.0
  O  O102  1  0.98656000  0.08650000  0.38572000  1.0
  O  O103  1  0.74253000  0.12911000  0.35538000  1.0
  O  O104  1  0.56184000  0.78938000  0.68712000  1.0
  O  O105  1  0.19869000  0.57124000  0.63914000  1.0
  O  O106  1  0.11193000  0.33542000  0.50884000  1.0
  O  O107  1  0.91189000  0.26015000  0.46215000  1.0
  O  O108  1  0.51344000  0.58650000  0.61428000  1.0
  O  O109  1  0.75748000  0.62911000  0.64462000  1.0
  O  O110  1  0.93816000  0.28939000  0.31288000  1.0
  O  O111  1  0.30131000  0.07124000  0.36086000  1.0
  O  O112  1  0.61192000  0.16459000  0.99116000  1.0
  O  O113  1  0.41188000  0.23986000  0.03784000  1.0
  O  O114  1  0.01345000  0.91350000  0.88572000  1.0
  O  O115  1  0.25748000  0.87089000  0.85538000  1.0
  O  O116  1  0.43816000  0.21062000  0.18712000  1.0
  O  O117  1  0.80131000  0.42876000  0.13914000  1.0
  O  O118  1  0.88807000  0.66458000  0.00884000  1.0
  O  O119  1  0.08811000  0.73986000  0.96215000  1.0
  O  O120  1  0.48655000  0.41350000  0.11428000  1.0
  O  O121  1  0.24251000  0.37089000  0.14462000  1.0
  O  O122  1  0.06184000  0.71062000  0.81288000  1.0
  O  O123  1  0.69869000  0.92876000  0.86086000  1.0
  O  O124  1  0.61192000  0.16458000  0.50885000  1.0
  O  O125  1  0.41189000  0.23985000  0.46216000  1.0
  O  O126  1  0.01344000  0.91350000  0.61428000  1.0
  O  O127  1  0.25747000  0.87088000  0.64462000  1.0
  O  O128  1  0.43816000  0.21061000  0.31288000  1.0
  O  O129  1  0.80131000  0.42876000  0.36086000  1.0
  O  O130  1  0.88807000  0.66458000  0.49116000  1.0
  O  O131  1  0.08811000  0.73985000  0.53785000  1.0
  O  O132  1  0.48655000  0.41350000  0.38572000  1.0
  O  O133  1  0.24252000  0.37089000  0.35538000  1.0
  O  O134  1  0.06184000  0.71061000  0.68712000  1.0
  O  O135  1  0.69869000  0.92876000  0.63914000  1.0
  O  O136  1  0.38808000  0.83542000  0.00884000  1.0
  O  O137  1  0.58812000  0.76014000  0.96216000  1.0
  O  O138  1  0.98656000  0.08650000  0.11428000  1.0
  O  O139  1  0.74252000  0.12911000  0.14462000  1.0
  O  O140  1  0.56184000  0.78938000  0.81288000  1.0
  O  O141  1  0.19869000  0.57124000  0.86086000  1.0
  O  O142  1  0.11193000  0.33543000  0.99116000  1.0
  O  O143  1  0.91189000  0.26015000  0.03785000  1.0
  O  O144  1  0.51345000  0.58650000  0.88572000  1.0
  O  O145  1  0.75748000  0.62911000  0.85538000  1.0
  O  O146  1  0.93816000  0.28939000  0.18712000  1.0
  O  O147  1  0.30131000  0.07124000  0.13914000  1.0
  O  O148  1  0.39130000  0.70800000  0.75000000  1.0
  O  O149  1  0.10869000  0.20800000  0.25000000  1.0
  O  O150  1  0.60870000  0.29200000  0.25000000  1.0
  O  O151  1  0.89130000  0.79200000  0.75000000  1.0
