# generated using pymatgen
data_AgH6C7SNO2
_symmetry_space_group_name_H-M   'P 1'
_cell_length_a   8.15762000
_cell_length_b   9.69076000
_cell_length_c   10.23370000
_cell_angle_alpha   90.00050000
_cell_angle_beta   90.00010000
_cell_angle_gamma   74.36300000
_symmetry_Int_Tables_number   1
_chemical_formula_structural   AgH6C7SNO2
_chemical_formula_sum   'Ag4 H24 C28 S4 N4 O8'
_cell_volume   779.06767302
_cell_formula_units_Z   4
loop_
 _symmetry_equiv_pos_site_id
 _symmetry_equiv_pos_as_xyz
  1  'x, y, z'
loop_
 _atom_site_type_symbol
 _atom_site_label
 _atom_site_symmetry_multiplicity
 _atom_site_fract_x
 _atom_site_fract_y
 _atom_site_fract_z
 _atom_site_occupancy
  Ag  Ag0  1  0.60763000  0.79481000  0.61221000  1.0
  Ag  Ag1  1  0.60763000  0.29481000  0.88779000  1.0
  Ag  Ag2  1  0.39238000  0.20520000  0.38779000  1.0
  Ag  Ag3  1  0.39237000  0.70519000  0.11221000  1.0
  H  H4  1  0.80528000  0.93808000  0.81684000  1.0
  H  H5  1  0.80528000  0.43808000  0.68316000  1.0
  H  H6  1  0.19472000  0.06192000  0.18316000  1.0
  H  H7  1  0.19471000  0.56191000  0.31683000  1.0
  H  H8  1  0.06339000  0.02220000  0.83102000  1.0
  H  H9  1  0.06339000  0.52221000  0.66898000  1.0
  H  H10  1  0.93661000  0.97779000  0.16898000  1.0
  H  H11  1  0.93661000  0.47779000  0.33102000  1.0
  H  H12  1  0.22828000  0.80633000  0.46299000  1.0
  H  H13  1  0.22829000  0.30632000  0.03701000  1.0
  H  H14  1  0.77172000  0.19367000  0.53701000  1.0
  H  H15  1  0.77171000  0.69368000  0.96299000  1.0
  H  H16  1  0.95700000  0.73273000  0.46348000  1.0
  H  H17  1  0.95700000  0.23274000  0.03652000  1.0
  H  H18  1  0.04300000  0.26727000  0.53652000  1.0
  H  H19  1  0.04299000  0.76727000  0.96348000  1.0
  H  H20  1  0.48479000  0.07927000  0.80293000  1.0
  H  H21  1  0.48478000  0.57928000  0.69708000  1.0
  H  H22  1  0.51521000  0.92073000  0.19708000  1.0
  H  H23  1  0.51521000  0.42073000  0.30292000  1.0
  H  H24  1  0.26519000  0.11791000  0.83940000  1.0
  H  H25  1  0.26518000  0.61790000  0.66061000  1.0
  H  H26  1  0.73481000  0.88210000  0.16060000  1.0
  H  H27  1  0.73482000  0.38209000  0.33939000  1.0
  C  C28  1  0.90081000  0.91111000  0.73941000  1.0
  C  C29  1  0.90081000  0.41111000  0.76059000  1.0
  C  C30  1  0.09919000  0.08889000  0.26059000  1.0
  C  C31  1  0.09919000  0.58889000  0.23941000  1.0
  C  C32  1  0.04672000  0.95894000  0.74683000  1.0
  C  C33  1  0.04672000  0.45894000  0.75318000  1.0
  C  C34  1  0.95328000  0.04105000  0.25318000  1.0
  C  C35  1  0.95327000  0.54105000  0.24682000  1.0
  C  C36  1  0.16627000  0.92501000  0.64523000  1.0
  C  C37  1  0.16627000  0.42500000  0.85477000  1.0
  C  C38  1  0.83373000  0.07499000  0.35477000  1.0
  C  C39  1  0.83373000  0.57499000  0.14522000  1.0
  C  C40  1  0.13535000  0.84035000  0.54149000  1.0
  C  C41  1  0.13535000  0.34035000  0.95851000  1.0
  C  C42  1  0.86465000  0.15965000  0.45851000  1.0
  C  C43  1  0.86464000  0.65964000  0.04149000  1.0
  C  C44  1  0.98595000  0.79764000  0.54283000  1.0
  C  C45  1  0.98594000  0.29764000  0.95718000  1.0
  C  C46  1  0.01406000  0.20236000  0.45718000  1.0
  C  C47  1  0.01405000  0.70236000  0.04282000  1.0
  C  C48  1  0.37480000  0.03402000  0.80470000  1.0
  C  C49  1  0.37481000  0.53402000  0.69531000  1.0
  C  C50  1  0.62520000  0.96598000  0.19530000  1.0
  C  C51  1  0.62520000  0.46598000  0.30469000  1.0
  C  C52  1  0.41260000  0.90216000  0.89437000  1.0
  C  C53  1  0.41260000  0.40216000  0.60563000  1.0
  C  C54  1  0.58740000  0.09785000  0.10563000  1.0
  C  C55  1  0.58741000  0.59784000  0.39436000  1.0
  S  S56  1  0.34639000  0.99175000  0.63645000  1.0
  S  S57  1  0.34639000  0.49175000  0.86355000  1.0
  S  S58  1  0.65361000  0.00825000  0.36355000  1.0
  S  S59  1  0.65361000  0.50825000  0.13644000  1.0
  N  N60  1  0.86876000  0.83238000  0.63897000  1.0
  N  N61  1  0.86876000  0.33239000  0.86104000  1.0
  N  N62  1  0.13124000  0.16762000  0.36104000  1.0
  N  N63  1  0.13123000  0.66761000  0.13896000  1.0
  O  O64  1  0.32956000  0.92095000  0.00183000  1.0
  O  O65  1  0.32956000  0.42094000  0.49818000  1.0
  O  O66  1  0.67042000  0.07907000  0.99817000  1.0
  O  O67  1  0.67045000  0.57906000  0.50182000  1.0
  O  O68  1  0.51871000  0.78808000  0.85825000  1.0
  O  O69  1  0.51871000  0.28808000  0.64175000  1.0
  O  O70  1  0.48130000  0.21193000  0.14176000  1.0
  O  O71  1  0.48130000  0.71192000  0.35824000  1.0
