# generated using pymatgen
data_Zn4H12C18N6O13
_symmetry_space_group_name_H-M   'P 1'
_cell_length_a   15.89850000
_cell_length_b   16.02990000
_cell_length_c   18.25330000
_cell_angle_alpha   68.94350000
_cell_angle_beta   65.72250000
_cell_angle_gamma   64.36130000
_symmetry_Int_Tables_number   1
_chemical_formula_structural   Zn4H12C18N6O13
_chemical_formula_sum   'Zn8 H24 C36 N12 O26'
_cell_volume   3728.69470964
_cell_formula_units_Z   2
loop_
 _symmetry_equiv_pos_site_id
 _symmetry_equiv_pos_as_xyz
  1  'x, y, z'
loop_
 _atom_site_type_symbol
 _atom_site_label
 _atom_site_symmetry_multiplicity
 _atom_site_fract_x
 _atom_site_fract_y
 _atom_site_fract_z
 _atom_site_occupancy
  Zn  Zn0  1  0.00624000  0.89683000  0.09187000  1.0
  Zn  Zn1  1  0.07160000  0.08583000  0.00461000  1.0
  Zn  Zn2  1  0.84844000  0.10217000  0.09579000  1.0
  Zn  Zn3  1  0.96096000  0.03168000  0.92390000  1.0
  Zn  Zn4  1  0.39632000  0.65044000  0.51535000  1.0
  Zn  Zn5  1  0.42163000  0.47420000  0.46233000  1.0
  Zn  Zn6  1  0.42230000  0.45133000  0.64372000  1.0
  Zn  Zn7  1  0.60636000  0.48787000  0.48913000  1.0
  H  H8  1  0.31136000  0.90688000  0.11140000  1.0
  H  H9  1  0.31490000  0.79737000  0.10313000  1.0
  H  H10  1  0.16214000  0.87012000  0.39711000  1.0
  H  H11  1  0.33809000  0.67663000  0.23197000  1.0
  H  H12  1  0.73490000  0.96385000  0.35163000  1.0
  H  H13  1  0.82946000  0.84948000  0.35164000  1.0
  H  H14  1  0.50075000  0.88886000  0.32115000  1.0
  H  H15  1  0.76358000  0.71813000  0.39474000  1.0
  H  H16  1  0.96493000  0.75816000  0.91122000  1.0
  H  H17  1  0.04037000  0.67812000  0.97642000  1.0
  H  H18  1  0.24184000  0.84129000  0.69657000  1.0
  H  H19  1  0.16795000  0.59144000  0.85711000  1.0
  H  H20  1  0.91553000  0.38430000  0.04588000  1.0
  H  H21  1  0.96461000  0.32784000  0.12990000  1.0
  H  H22  1  0.58303000  0.43371000  0.20300000  1.0
  H  H23  1  0.84440000  0.34705000  0.27162000  1.0
  H  H24  1  0.23763000  0.01547000  0.72262000  1.0
  H  H25  1  0.30443000  0.01600000  0.78146000  1.0
  H  H26  1  0.22467000  0.29919000  0.54090000  1.0
  H  H27  1  0.32448000  0.18151000  0.75696000  1.0
  H  H28  1  0.68515000  0.32965000  0.94064000  1.0
  H  H29  1  0.62586000  0.25249000  0.95192000  1.0
  H  H30  1  0.81841000  0.38304000  0.65131000  1.0
  H  H31  1  0.57575000  0.29166000  0.83034000  1.0
  C  C32  1  0.17807000  0.91004000  0.10467000  1.0
  C  C33  1  0.27012000  0.85838000  0.13229000  1.0
  C  C34  1  0.19990000  0.83669000  0.34474000  1.0
  C  C35  1  0.26046000  0.74091000  0.34357000  1.0
  C  C36  1  0.28990000  0.73552000  0.26181000  1.0
  C  C37  1  0.29879000  0.66633000  0.40835000  1.0
  C  C38  1  0.82754000  0.93857000  0.23126000  1.0
  C  C39  1  0.77486000  0.90341000  0.32171000  1.0
  C  C40  1  0.57102000  0.86175000  0.33218000  1.0
  C  C41  1  0.61743000  0.76922000  0.37325000  1.0
  C  C42  1  0.70518000  0.77186000  0.37025000  1.0
  C  C43  1  0.57688000  0.69179000  0.41693000  1.0
  C  C44  1  0.00447000  0.82746000  0.96719000  1.0
  C  C45  1  0.02739000  0.74510000  0.93054000  1.0
  C  C46  1  0.21023000  0.79079000  0.74612000  1.0
  C  C47  1  0.23817000  0.69220000  0.75260000  1.0
  C  C48  1  0.17469000  0.66119000  0.82725000  1.0
  C  C49  1  0.31099000  0.63693000  0.69093000  1.0
  C  C50  1  0.93380000  0.23672000  0.08892000  1.0
  C  C51  1  0.90954000  0.33300000  0.10544000  1.0
  C  C52  1  0.65747000  0.41004000  0.20469000  1.0
  C  C53  1  0.68813000  0.39518000  0.27259000  1.0
  C  C54  1  0.78977000  0.36653000  0.24193000  1.0
  C  C55  1  0.62621000  0.41258000  0.35504000  1.0
  C  C56  1  0.14849000  0.06827000  0.83365000  1.0
  C  C57  1  0.24053000  0.05526000  0.75871000  1.0
  C  C58  1  0.24201000  0.25680000  0.59766000  1.0
  C  C59  1  0.29054000  0.27307000  0.63866000  1.0
  C  C60  1  0.29395000  0.19868000  0.70795000  1.0
  C  C61  1  0.33465000  0.34708000  0.61035000  1.0
  C  C62  1  0.77464000  0.18477000  0.95091000  1.0
  C  C63  1  0.69419000  0.26890000  0.92002000  1.0
  C  C64  1  0.76753000  0.35544000  0.70621000  1.0
  C  C65  1  0.67801000  0.34882000  0.71357000  1.0
  C  C66  1  0.64255000  0.30873000  0.79650000  1.0
  C  C67  1  0.62395000  0.38551000  0.65373000  1.0
  N  N68  1  0.24857000  0.82334000  0.22047000  1.0
  N  N69  1  0.19252000  0.88670000  0.27010000  1.0
  N  N70  1  0.70610000  0.86106000  0.33060000  1.0
  N  N71  1  0.62489000  0.91735000  0.30607000  1.0
  N  N72  1  0.11520000  0.73854000  0.85954000  1.0
  N  N73  1  0.13570000  0.81888000  0.81095000  1.0
  N  N74  1  0.81334000  0.36603000  0.16180000  1.0
  N  N75  1  0.73330000  0.39313000  0.13734000  1.0
  N  N76  1  0.25089000  0.14419000  0.70428000  1.0
  N  N77  1  0.21743000  0.17902000  0.63763000  1.0
  N  N78  1  0.70829000  0.29438000  0.83260000  1.0
  N  N79  1  0.78520000  0.32364000  0.77855000  1.0
  O  O80  1  0.97347000  0.02865000  0.02840000  1.0
  O  O81  1  0.17156000  0.99229000  0.05871000  1.0
  O  O82  1  0.11979000  0.86444000  0.12798000  1.0
  O  O83  1  0.34641000  0.58318000  0.39377000  1.0
  O  O84  1  0.28526000  0.69045000  0.47324000  1.0
  O  O85  1  0.79561000  0.02726000  0.20281000  1.0
  O  O86  1  0.89885000  0.87639000  0.19388000  1.0
  O  O87  1  0.63389000  0.60979000  0.44191000  1.0
  O  O88  1  0.48540000  0.71448000  0.42763000  1.0
  O  O89  1  0.95020000  0.90780000  0.93813000  1.0
  O  O90  1  0.04100000  0.80734000  0.02433000  1.0
  O  O91  1  0.32867000  0.54723000  0.71068000  1.0
  O  O92  1  0.34948000  0.68463000  0.62122000  1.0
  O  O93  1  0.87081000  0.19545000  0.12682000  1.0
  O  O94  1  0.01733000  0.20797000  0.03676000  1.0
  O  O95  1  0.66683000  0.41929000  0.39955000  1.0
  O  O96  1  0.53654000  0.42045000  0.37459000  1.0
  O  O97  1  0.08204000  0.04279000  0.83601000  1.0
  O  O98  1  0.14904000  0.10151000  0.88712000  1.0
  O  O99  1  0.36234000  0.35843000  0.66179000  1.0
  O  O100  1  0.34256000  0.39343000  0.53560000  1.0
  O  O101  1  0.84298000  0.13402000  0.90190000  1.0
  O  O102  1  0.76171000  0.17497000  0.02678000  1.0
  O  O103  1  0.53800000  0.37940000  0.68224000  1.0
  O  O104  1  0.66515000  0.42205000  0.57952000  1.0
  O  O105  1  0.46444000  0.51331000  0.52765000  1.0
