# generated using pymatgen
data_NiH29C32N8O5
_symmetry_space_group_name_H-M   'P 1'
_cell_length_a   8.71206000
_cell_length_b   15.15920000
_cell_length_c   15.66725656
_cell_angle_alpha   118.93666673
_cell_angle_beta   104.00040734
_cell_angle_gamma   89.99580000
_symmetry_Int_Tables_number   1
_chemical_formula_structural   NiH29C32N8O5
_chemical_formula_sum   'Ni2 H58 C64 N16 O10'
_cell_volume   1740.27433280
_cell_formula_units_Z   2
loop_
 _symmetry_equiv_pos_site_id
 _symmetry_equiv_pos_as_xyz
  1  'x, y, z'
loop_
 _atom_site_type_symbol
 _atom_site_label
 _atom_site_symmetry_multiplicity
 _atom_site_fract_x
 _atom_site_fract_y
 _atom_site_fract_z
 _atom_site_occupancy
  Ni  Ni0  1  0.50363000  0.75629000  0.42309000  1.0
  Ni  Ni1  1  0.49619000  0.33294000  0.57685000  1.0
  H  H2  1  0.35159000  0.95897000  0.52286000  1.0
  H  H3  1  0.40802000  0.08049000  0.72906000  1.0
  H  H4  1  0.68290000  0.83452000  0.66353000  1.0
  H  H5  1  0.22739000  0.77478000  0.54364000  1.0
  H  H6  1  0.02201000  0.60025000  0.48042000  1.0
  H  H7  1  0.36534000  0.52561000  0.31264000  1.0
  H  H8  1  0.55700000  0.92109000  0.35628000  1.0
  H  H9  1  0.02142000  0.83778000  0.34408000  1.0
  H  H10  1  0.87602000  0.73717000  0.41718000  1.0
  H  H11  1  0.69382000  0.86295000  0.82036000  1.0
  H  H12  1  0.82767000  0.93296000  0.00202000  1.0
  H  H13  1  0.71432000  0.23037000  0.06079000  1.0
  H  H14  1  0.58768000  0.16177000  0.87857000  1.0
  H  H15  1  0.58906000  0.03861000  0.13797000  1.0
  H  H16  1  0.55886000  0.93839000  0.22054000  1.0
  H  H17  1  0.07030000  0.99134000  0.35071000  1.0
  H  H18  1  0.09768000  0.08834000  0.26475000  1.0
  H  H19  1  0.88240000  0.25710000  0.34410000  1.0
  H  H20  1  0.01949000  0.43288000  0.44579000  1.0
  H  H21  1  0.16226000  0.40009000  0.18780000  1.0
  H  H22  1  0.03284000  0.22178000  0.08800000  1.0
  H  H23  1  0.07162000  0.66334000  0.16188000  1.0
  H  H24  1  0.12259000  0.79053000  0.19310000  1.0
  H  H25  1  0.12104000  0.66095000  0.01224000  1.0
  H  H26  1  0.27180000  0.60629000  0.06114000  1.0
  H  H27  1  0.30808000  0.82673000  0.10561000  1.0
  H  H28  1  0.45529000  0.76759000  0.15073000  1.0
  H  H29  1  0.35816000  0.75023000  0.94634000  1.0
  H  H30  1  0.36132000  0.63116000  0.93932000  1.0
  H  H31  1  0.64833000  0.43600000  0.47712000  1.0
  H  H32  1  0.59207000  0.35125000  0.27095000  1.0
  H  H33  1  0.31731000  0.17074000  0.33643000  1.0
  H  H34  1  0.77216000  0.23096000  0.45630000  1.0
  H  H35  1  0.97794000  0.11978000  0.51944000  1.0
  H  H36  1  0.63500000  0.21281000  0.68752000  1.0
  H  H37  1  0.44257000  0.56444000  0.64343000  1.0
  H  H38  1  0.97854000  0.49344000  0.65621000  1.0
  H  H39  1  0.12396000  0.31976000  0.58315000  1.0
  H  H40  1  0.30584000  0.04240000  0.17961000  1.0
  H  H41  1  0.17207000  0.93077000  0.99791000  1.0
  H  H42  1  0.28633000  0.16927000  0.93916000  1.0
  H  H43  1  0.41299000  0.28285000  0.12138000  1.0
  H  H44  1  0.41098000  0.90031000  0.86172000  1.0
  H  H45  1  0.44102000  0.71748000  0.77917000  1.0
  H  H46  1  0.92951000  0.64042000  0.64952000  1.0
  H  H47  1  0.90224000  0.82342000  0.73548000  1.0
  H  H48  1  0.11758000  0.91275000  0.65583000  1.0
  H  H49  1  0.98059000  0.98691000  0.55417000  1.0
  H  H50  1  0.83866000  0.21249000  0.81237000  1.0
  H  H51  1  0.96785000  0.13389000  0.91211000  1.0
  H  H52  1  0.92816000  0.50134000  0.83819000  1.0
  H  H53  1  0.87709000  0.59725000  0.80688000  1.0
  H  H54  1  0.87884000  0.64877000  0.98780000  1.0
  H  H55  1  0.72823000  0.54516000  0.93909000  1.0
  H  H56  1  0.69135000  0.72099000  0.89445000  1.0
  H  H57  1  0.54446000  0.61661000  0.84934000  1.0
  H  H58  1  0.64217000  0.80351000  0.05409000  1.0
  H  H59  1  0.63764000  0.69109000  0.06040000  1.0
  C  C60  1  0.43036000  0.95154000  0.58344000  1.0
  C  C61  1  0.45804000  0.01264000  0.68628000  1.0
  C  C62  1  0.60015000  0.88409000  0.65350000  1.0
  C  C63  1  0.22598000  0.69654000  0.48665000  1.0
  C  C64  1  0.12498000  0.61140000  0.45750000  1.0
  C  C65  1  0.29953000  0.57004000  0.36616000  1.0
  C  C66  1  0.66164000  0.88356000  0.36189000  1.0
  C  C67  1  0.90428000  0.83987000  0.35701000  1.0
  C  C68  1  0.83078000  0.79055000  0.39334000  1.0
  C  C69  1  0.30206000  0.73183000  0.26426000  1.0
  C  C70  1  0.63433000  0.00781000  0.83607000  1.0
  C  C71  1  0.70048000  0.94405000  0.87241000  1.0
  C  C72  1  0.77532000  0.98334000  0.97510000  1.0
  C  C73  1  0.78370000  0.08738000  0.04469000  1.0
  C  C74  1  0.71138000  0.14991000  0.00799000  1.0
  C  C75  1  0.63899000  0.11099000  0.90520000  1.0
  C  C76  1  0.84579000  0.06933000  0.19540000  1.0
  C  C77  1  0.69401000  0.02774000  0.18435000  1.0
  C  C78  1  0.67722000  0.97196000  0.23127000  1.0
  C  C79  1  0.81240000  0.95714000  0.29004000  1.0
  C  C80  1  0.96458000  0.99887000  0.30202000  1.0
  C  C81  1  0.98008000  0.05449000  0.25471000  1.0
  C  C82  1  0.94497000  0.22731000  0.20793000  1.0
  C  C83  1  0.94470000  0.28780000  0.30974000  1.0
  C  C84  1  0.02223000  0.38721000  0.36728000  1.0
  C  C85  1  0.09951000  0.42847000  0.32356000  1.0
  C  C86  1  0.10247000  0.36848000  0.22256000  1.0
  C  C87  1  0.02786000  0.26849000  0.16595000  1.0
  C  C88  1  0.16935000  0.71770000  0.17354000  1.0
  C  C89  1  0.22401000  0.67826000  0.07728000  1.0
  C  C90  1  0.35271000  0.75301000  0.08623000  1.0
  C  C91  1  0.40893000  0.71261000  0.98968000  1.0
  C  C92  1  0.56961000  0.36797000  0.41656000  1.0
  C  C93  1  0.54205000  0.32619000  0.31372000  1.0
  C  C94  1  0.39997000  0.23037000  0.34645000  1.0
  C  C95  1  0.77382000  0.20974000  0.51333000  1.0
  C  C96  1  0.87501000  0.15383000  0.54247000  1.0
  C  C97  1  0.70061000  0.20375000  0.63392000  1.0
  C  C98  1  0.33805000  0.52133000  0.63797000  1.0
  C  C99  1  0.09561000  0.48259000  0.64316000  1.0
  C  C100  1  0.16911000  0.39693000  0.60681000  1.0
  C  C101  1  0.69762000  0.46738000  0.73579000  1.0
  C  C102  1  0.36594000  0.17147000  0.16390000  1.0
  C  C103  1  0.29954000  0.07142000  0.12756000  1.0
  C  C104  1  0.22470000  0.00803000  0.02486000  1.0
  C  C105  1  0.21657000  0.04247000  0.95529000  1.0
  C  C106  1  0.28915000  0.14164000  0.99197000  1.0
  C  C107  1  0.36153000  0.20549000  0.09477000  1.0
  C  C108  1  0.15423000  0.87371000  0.80452000  1.0
  C  C109  1  0.30597000  0.84307000  0.81542000  1.0
  C  C110  1  0.32267000  0.74037000  0.76851000  1.0
  C  C111  1  0.18741000  0.66682000  0.70990000  1.0
  C  C112  1  0.03525000  0.69663000  0.69809000  1.0
  C  C113  1  0.01985000  0.79958000  0.74538000  1.0
  C  C114  1  0.05535000  0.01928000  0.79208000  1.0
  C  C115  1  0.05539000  0.97786000  0.69021000  1.0
  C  C116  1  0.97802000  0.01982000  0.63272000  1.0
  C  C117  1  0.90095000  0.10491000  0.67649000  1.0
  C  C118  1  0.89821000  0.14601000  0.77754000  1.0
  C  C119  1  0.97276000  0.10260000  0.83413000  1.0
  C  C120  1  0.83039000  0.54401000  0.82649000  1.0
  C  C121  1  0.77587000  0.60092000  0.92281000  1.0
  C  C122  1  0.64697000  0.66662000  0.91384000  1.0
  C  C123  1  0.59073000  0.72266000  0.01038000  1.0
  N  N124  1  0.51980000  0.87219000  0.56443000  1.0
  N  N125  1  0.56612000  0.96918000  0.73085000  1.0
  N  N126  1  0.33358000  0.66965000  0.42921000  1.0
  N  N127  1  0.17283000  0.53124000  0.38051000  1.0
  N  N128  1  0.68010000  0.81839000  0.39601000  1.0
  N  N129  1  0.79484000  0.89853000  0.33618000  1.0
  N  N130  1  0.86243000  0.12720000  0.14823000  1.0
  N  N131  1  0.70517000  0.60006000  0.43740000  1.0
  N  N132  1  0.48018000  0.30759000  0.43553000  1.0
  N  N133  1  0.43407000  0.23810000  0.26912000  1.0
  N  N134  1  0.66630000  0.24026000  0.57083000  1.0
  N  N135  1  0.82743000  0.15069000  0.61954000  1.0
  N  N136  1  0.31967000  0.42206000  0.60397000  1.0
  N  N137  1  0.20493000  0.56205000  0.66380000  1.0
  N  N138  1  0.13776000  0.97879000  0.85173000  1.0
  N  N139  1  0.29470000  0.16246000  0.56240000  1.0
  O  O140  1  0.39381000  0.66457000  0.25451000  1.0
  O  O141  1  0.31797000  0.81215000  0.35094000  1.0
  O  O142  1  0.67812000  0.69289000  0.48998000  1.0
  O  O143  1  0.64701000  0.55148000  0.34316000  1.0
  O  O144  1  0.79244000  0.56234000  0.48486000  1.0
  O  O145  1  0.60590000  0.40991000  0.74559000  1.0
  O  O146  1  0.68177000  0.46096000  0.64908000  1.0
  O  O147  1  0.32183000  0.20252000  0.50970000  1.0
  O  O148  1  0.35279000  0.20827000  0.65665000  1.0
  O  O149  1  0.20742000  0.07729000  0.51507000  1.0
