# generated using pymatgen
data_VH7C7NCl3
_symmetry_space_group_name_H-M   'P 1'
_cell_length_a   5.80081000
_cell_length_b   9.83701000
_cell_length_c   10.07230000
_cell_angle_alpha   111.76100000
_cell_angle_beta   103.15300000
_cell_angle_gamma   104.87500000
_symmetry_Int_Tables_number   1
_chemical_formula_structural   VH7C7NCl3
_chemical_formula_sum   'V2 H14 C14 N2 Cl6'
_cell_volume   481.40788662
_cell_formula_units_Z   2
loop_
 _symmetry_equiv_pos_site_id
 _symmetry_equiv_pos_as_xyz
  1  'x, y, z'
loop_
 _atom_site_type_symbol
 _atom_site_label
 _atom_site_symmetry_multiplicity
 _atom_site_fract_x
 _atom_site_fract_y
 _atom_site_fract_z
 _atom_site_occupancy
  V  V0  1  0.81392000  0.63841000  0.52343000  1.0
  V  V1  1  0.18612000  0.36160000  0.47658000  1.0
  H  H2  1  0.41655000  0.88163000  0.54767000  1.0
  H  H3  1  0.58348000  0.11837000  0.45232000  1.0
  H  H4  1  0.36233000  0.12859000  0.69558000  1.0
  H  H5  1  0.63767000  0.87140000  0.30441000  1.0
  H  H6  1  0.07743000  0.28014000  0.05613000  1.0
  H  H7  1  0.92255000  0.71986000  0.94388000  1.0
  H  H8  1  0.13651000  0.03402000  0.90677000  1.0
  H  H9  1  0.86349000  0.96598000  0.09324000  1.0
  H  H10  1  0.49844000  0.34185000  0.99619000  1.0
  H  H11  1  0.50151000  0.65811000  0.00379000  1.0
  H  H12  1  0.66720000  0.43779000  0.91094000  1.0
  H  H13  1  0.33275000  0.56220000  0.08906000  1.0
  H  H14  1  0.83462000  0.44527000  0.08692000  1.0
  H  H15  1  0.16533000  0.55472000  0.91308000  1.0
  C  C16  1  0.78005000  0.94234000  0.71808000  1.0
  C  C17  1  0.21997000  0.05767000  0.28192000  1.0
  C  C18  1  0.56068000  0.96988000  0.65859000  1.0
  C  C19  1  0.43934000  0.03012000  0.34140000  1.0
  C  C20  1  0.53147000  0.10781000  0.74254000  1.0
  C  C21  1  0.46853000  0.89218000  0.25745000  1.0
  C  C22  1  0.71582000  0.22175000  0.88684000  1.0
  C  C23  1  0.28417000  0.77825000  0.11316000  1.0
  C  C24  1  0.93336000  0.19315000  0.94421000  1.0
  C  C25  1  0.06663000  0.80685000  0.05579000  1.0
  C  C26  1  0.96824000  0.05621000  0.86198000  1.0
  C  C27  1  0.03176000  0.94379000  0.13802000  1.0
  C  C28  1  0.67937000  0.36964000  0.97577000  1.0
  C  C29  1  0.32060000  0.63034000  0.02422000  1.0
  N  N30  1  0.80536000  0.80571000  0.63654000  1.0
  N  N31  1  0.19468000  0.19430000  0.36346000  1.0
  Cl  Cl32  1  0.37752000  0.51517000  0.35573000  1.0
  Cl  Cl33  1  0.62252000  0.48484000  0.64428000  1.0
  Cl  Cl34  1  0.92858000  0.71094000  0.35773000  1.0
  Cl  Cl35  1  0.07144000  0.28908000  0.64228000  1.0
  Cl  Cl36  1  0.19210000  0.65341000  0.66387000  1.0
  Cl  Cl37  1  0.80793000  0.34661000  0.33615000  1.0
