# generated using pymatgen
data_Cu4H40C65(N3O5)4
_symmetry_space_group_name_H-M   'P 1'
_cell_length_a   13.94300000
_cell_length_b   21.11480000
_cell_length_c   25.52651556
_cell_angle_alpha   114.24515338
_cell_angle_beta   89.99957167
_cell_angle_gamma   89.99870000
_symmetry_Int_Tables_number   1
_chemical_formula_structural   Cu4H40C65(N3O5)4
_chemical_formula_sum   'Cu8 H80 C130 N24 O40'
_cell_volume   6852.24355970
_cell_formula_units_Z   2
loop_
 _symmetry_equiv_pos_site_id
 _symmetry_equiv_pos_as_xyz
  1  'x, y, z'
loop_
 _atom_site_type_symbol
 _atom_site_label
 _atom_site_symmetry_multiplicity
 _atom_site_fract_x
 _atom_site_fract_y
 _atom_site_fract_z
 _atom_site_occupancy
  Cu  Cu0  1  0.99832000  0.80840000  0.61559000  1.0
  Cu  Cu1  1  0.99825000  0.19159000  0.38443000  1.0
  Cu  Cu2  1  0.99977000  0.86107000  0.72360000  1.0
  Cu  Cu3  1  0.99976000  0.13892000  0.27641000  1.0
  Cu  Cu4  1  0.49310000  0.93483000  0.48518000  1.0
  Cu  Cu5  1  0.49310000  0.06517000  0.51483000  1.0
  Cu  Cu6  1  0.50822000  0.55036000  0.48494000  1.0
  Cu  Cu7  1  0.50821000  0.44970000  0.51507000  1.0
  H  H8  1  0.98938000  0.71187000  0.50205000  1.0
  H  H9  1  0.99062000  0.28846000  0.49769000  1.0
  H  H10  1  0.04538000  0.77493000  0.50098000  1.0
  H  H11  1  0.04655000  0.22539000  0.49874000  1.0
  H  H12  1  0.03484000  0.95028000  0.83778000  1.0
  H  H13  1  0.03503000  0.04986000  0.16221000  1.0
  H  H14  1  0.93987000  0.91183000  0.83757000  1.0
  H  H15  1  0.94008000  0.08832000  0.16238000  1.0
  H  H16  1  0.24467000  0.92300000  0.58588000  1.0
  H  H17  1  0.24466000  0.07702000  0.41414000  1.0
  H  H18  1  0.75496000  0.66253000  0.58581000  1.0
  H  H19  1  0.75487000  0.33744000  0.41417000  1.0
  H  H20  1  0.15206000  0.04361000  0.75985000  1.0
  H  H21  1  0.15212000  0.95642000  0.24015000  1.0
  H  H22  1  0.84840000  0.71527000  0.75974000  1.0
  H  H23  1  0.84834000  0.28467000  0.24024000  1.0
  H  H24  1  0.74560000  0.91747000  0.58881000  1.0
  H  H25  1  0.74559000  0.08250000  0.41120000  1.0
  H  H26  1  0.25389000  0.66856000  0.58551000  1.0
  H  H27  1  0.25376000  0.33156000  0.41458000  1.0
  H  H28  1  0.85417000  0.05374000  0.75475000  1.0
  H  H29  1  0.85415000  0.94626000  0.24524000  1.0
  H  H30  1  0.14333000  0.70064000  0.75188000  1.0
  H  H31  1  0.14333000  0.29936000  0.24816000  1.0
  H  H32  1  0.35276000  0.13028000  0.67823000  1.0
  H  H33  1  0.35277000  0.86973000  0.32179000  1.0
  H  H34  1  0.64939000  0.54632000  0.67828000  1.0
  H  H35  1  0.64943000  0.45371000  0.32171000  1.0
  H  H36  1  0.64560000  0.12922000  0.66911000  1.0
  H  H37  1  0.64560000  0.87074000  0.33087000  1.0
  H  H38  1  0.35502000  0.54116000  0.66974000  1.0
  H  H39  1  0.35503000  0.45884000  0.33028000  1.0
  H  H40  1  0.39957000  0.19174000  0.77614000  1.0
  H  H41  1  0.39959000  0.80827000  0.22387000  1.0
  H  H42  1  0.60121000  0.58421000  0.77631000  1.0
  H  H43  1  0.60120000  0.41577000  0.22366000  1.0
  H  H44  1  0.89778000  0.17572000  0.79229000  1.0
  H  H45  1  0.89777000  0.82423000  0.20768000  1.0
  H  H46  1  0.10212000  0.61825000  0.79271000  1.0
  H  H47  1  0.10217000  0.38171000  0.20729000  1.0
  H  H48  1  0.52480000  0.79805000  0.41632000  1.0
  H  H49  1  0.52486000  0.20191000  0.58368000  1.0
  H  H50  1  0.47787000  0.61887000  0.41592000  1.0
  H  H51  1  0.47808000  0.38110000  0.58408000  1.0
  H  H52  1  0.55565000  0.80764000  0.47727000  1.0
  H  H53  1  0.55579000  0.19229000  0.52273000  1.0
  H  H54  1  0.44747000  0.67039000  0.47684000  1.0
  H  H55  1  0.44761000  0.32959000  0.52317000  1.0
  H  H56  1  0.23444000  0.34449000  0.95276000  1.0
  H  H57  1  0.23443000  0.65552000  0.04726000  1.0
  H  H58  1  0.76441000  0.60773000  0.95362000  1.0
  H  H59  1  0.76443000  0.39226000  0.04635000  1.0
  H  H60  1  0.47825000  0.29030000  0.83853000  1.0
  H  H61  1  0.47827000  0.70968000  0.16147000  1.0
  H  H62  1  0.52164000  0.54912000  0.83857000  1.0
  H  H63  1  0.52165000  0.45086000  0.16140000  1.0
  H  H64  1  0.96700000  0.26392000  0.87900000  1.0
  H  H65  1  0.96702000  0.73602000  0.12101000  1.0
  H  H66  1  0.03392000  0.61639000  0.87948000  1.0
  H  H67  1  0.03399000  0.38356000  0.12052000  1.0
  H  H68  1  0.73683000  0.39985000  0.87737000  1.0
  H  H69  1  0.73680000  0.60011000  0.12261000  1.0
  H  H70  1  0.26320000  0.47777000  0.87705000  1.0
  H  H71  1  0.26323000  0.52219000  0.12294000  1.0
  H  H72  1  0.31649000  0.45244000  0.01601000  1.0
  H  H73  1  0.31649000  0.54759000  0.98400000  1.0
  H  H74  1  0.68067000  0.56324000  0.01683000  1.0
  H  H75  1  0.68069000  0.43677000  0.98315000  1.0
  H  H76  1  0.55817000  0.39654000  0.90068000  1.0
  H  H77  1  0.55819000  0.60345000  0.09931000  1.0
  H  H78  1  0.43997000  0.50536000  0.90075000  1.0
  H  H79  1  0.43999000  0.49462000  0.09923000  1.0
  H  H80  1  0.05084000  0.36205000  0.95115000  1.0
  H  H81  1  0.05085000  0.63788000  0.04886000  1.0
  H  H82  1  0.94988000  0.58965000  0.95144000  1.0
  H  H83  1  0.94991000  0.41030000  0.04857000  1.0
  H  H84  1  0.82207000  0.49875000  0.95042000  1.0
  H  H85  1  0.82205000  0.50121000  0.04957000  1.0
  H  H86  1  0.17788000  0.45139000  0.95008000  1.0
  H  H87  1  0.17789000  0.54857000  0.04992000  1.0
  C  C88  1  0.12484000  0.92148000  0.67013000  1.0
  C  C89  1  0.12484000  0.07853000  0.32987000  1.0
  C  C90  1  0.87394000  0.74842000  0.67005000  1.0
  C  C91  1  0.87388000  0.25155000  0.32995000  1.0
  C  C92  1  0.87393000  0.92520000  0.67184000  1.0
  C  C93  1  0.87393000  0.07480000  0.32818000  1.0
  C  C94  1  0.12402000  0.74421000  0.66756000  1.0
  C  C95  1  0.12395000  0.25584000  0.33250000  1.0
  C  C96  1  0.19012000  0.97832000  0.67206000  1.0
  C  C97  1  0.19013000  0.02171000  0.32795000  1.0
  C  C98  1  0.80975000  0.69306000  0.67196000  1.0
  C  C99  1  0.80969000  0.30691000  0.32802000  1.0
  C  C100  1  0.80701000  0.98073000  0.67153000  1.0
  C  C101  1  0.80702000  0.01924000  0.32847000  1.0
  C  C102  1  0.19096000  0.68879000  0.66813000  1.0
  C  C103  1  0.19091000  0.31125000  0.33193000  1.0
  C  C104  1  0.24645000  0.97095000  0.62467000  1.0
  C  C105  1  0.24645000  0.02906000  0.37534000  1.0
  C  C106  1  0.75373000  0.65299000  0.62457000  1.0
  C  C107  1  0.75367000  0.34699000  0.37542000  1.0
  C  C108  1  0.19412000  0.03896000  0.72260000  1.0
  C  C109  1  0.19417000  0.96107000  0.27741000  1.0
  C  C110  1  0.80653000  0.68259000  0.72250000  1.0
  C  C111  1  0.80648000  0.31738000  0.27748000  1.0
  C  C112  1  0.74595000  0.96824000  0.62479000  1.0
  C  C113  1  0.74594000  0.03173000  0.37521000  1.0
  C  C114  1  0.25293000  0.65454000  0.62204000  1.0
  C  C115  1  0.25283000  0.34555000  0.37804000  1.0
  C  C116  1  0.80793000  0.04577000  0.71819000  1.0
  C  C117  1  0.80792000  0.95421000  0.28180000  1.0
  C  C118  1  0.19005000  0.67169000  0.71572000  1.0
  C  C119  1  0.19002000  0.32832000  0.28432000  1.0
  C  C120  1  0.30597000  0.02554000  0.62766000  1.0
  C  C121  1  0.30599000  0.97449000  0.37236000  1.0
  C  C122  1  0.69509000  0.60097000  0.62758000  1.0
  C  C123  1  0.69507000  0.39904000  0.37241000  1.0
  C  C124  1  0.25282000  0.09349000  0.72486000  1.0
  C  C125  1  0.25285000  0.90653000  0.27516000  1.0
  C  C126  1  0.74857000  0.62999000  0.72474000  1.0
  C  C127  1  0.74855000  0.36999000  0.27524000  1.0
  C  C128  1  0.68684000  0.02164000  0.62450000  1.0
  C  C129  1  0.68683000  0.97833000  0.37549000  1.0
  C  C130  1  0.31286000  0.60198000  0.62319000  1.0
  C  C131  1  0.31280000  0.39807000  0.37686000  1.0
  C  C132  1  0.74985000  0.09895000  0.71680000  1.0
  C  C133  1  0.74985000  0.90103000  0.28319000  1.0
  C  C134  1  0.24909000  0.61830000  0.71577000  1.0
  C  C135  1  0.24909000  0.38170000  0.28426000  1.0
  C  C136  1  0.36988000  0.01709000  0.57807000  1.0
  C  C137  1  0.36988000  0.98292000  0.42194000  1.0
  C  C138  1  0.63124000  0.56003000  0.57810000  1.0
  C  C139  1  0.63122000  0.43998000  0.42189000  1.0
  C  C140  1  0.30802000  0.08759000  0.67735000  1.0
  C  C141  1  0.30804000  0.91244000  0.32267000  1.0
  C  C142  1  0.69361000  0.58832000  0.67729000  1.0
  C  C143  1  0.69361000  0.41169000  0.32270000  1.0
  C  C144  1  0.61974000  0.01107000  0.57578000  1.0
  C  C145  1  0.61974000  0.98890000  0.42421000  1.0
  C  C146  1  0.38098000  0.56407000  0.57523000  1.0
  C  C147  1  0.38093000  0.43598000  0.42482000  1.0
  C  C148  1  0.68967000  0.08729000  0.67009000  1.0
  C  C149  1  0.68967000  0.91269000  0.32990000  1.0
  C  C150  1  0.31010000  0.58312000  0.66957000  1.0
  C  C151  1  0.31008000  0.41690000  0.33046000  1.0
  C  C152  1  0.33092000  0.19943000  0.79769000  1.0
  C  C153  1  0.33094000  0.80057000  0.20233000  1.0
  C  C154  1  0.66986000  0.59761000  0.79788000  1.0
  C  C155  1  0.66986000  0.40237000  0.20209000  1.0
  C  C156  1  0.82780000  0.19950000  0.79623000  1.0
  C  C157  1  0.82779000  0.80046000  0.20376000  1.0
  C  C158  1  0.17210000  0.59813000  0.79630000  1.0
  C  C159  1  0.17214000  0.40184000  0.20371000  1.0
  C  C160  1  0.29785000  0.24923000  0.84947000  1.0
  C  C161  1  0.29786000  0.75076000  0.15055000  1.0
  C  C162  1  0.70251000  0.59969000  0.84986000  1.0
  C  C163  1  0.70251000  0.40028000  0.15011000  1.0
  C  C164  1  0.79373000  0.26543000  0.83014000  1.0
  C  C165  1  0.79372000  0.73452000  0.16985000  1.0
  C  C166  1  0.20651000  0.56587000  0.83015000  1.0
  C  C167  1  0.20656000  0.43409000  0.16985000  1.0
  C  C168  1  0.34764000  0.31073000  0.88968000  1.0
  C  C169  1  0.34765000  0.68927000  0.11034000  1.0
  C  C170  1  0.65178000  0.57899000  0.89020000  1.0
  C  C171  1  0.65179000  0.42099000  0.10977000  1.0
  C  C172  1  0.84386000  0.32418000  0.87362000  1.0
  C  C173  1  0.84386000  0.67578000  0.12638000  1.0
  C  C174  1  0.15665000  0.55030000  0.87371000  1.0
  C  C175  1  0.15669000  0.44965000  0.12628000  1.0
  C  C176  1  0.30502000  0.35669000  0.94099000  1.0
  C  C177  1  0.30503000  0.64332000  0.05903000  1.0
  C  C178  1  0.69369000  0.58413000  0.94172000  1.0
  C  C179  1  0.69371000  0.41584000  0.05824000  1.0
  C  C180  1  0.44060000  0.32587000  0.87674000  1.0
  C  C181  1  0.44061000  0.67412000  0.12326000  1.0
  C  C182  1  0.55862000  0.55152000  0.87699000  1.0
  C  C183  1  0.55863000  0.44845000  0.12298000  1.0
  C  C184  1  0.93348000  0.31508000  0.89478000  1.0
  C  C185  1  0.93349000  0.68485000  0.10522000  1.0
  C  C186  1  0.06724000  0.58066000  0.89509000  1.0
  C  C187  1  0.06730000  0.41929000  0.10491000  1.0
  C  C188  1  0.80503000  0.39138000  0.89440000  1.0
  C  C189  1  0.80501000  0.60858000  0.10559000  1.0
  C  C190  1  0.19519000  0.50337000  0.89422000  1.0
  C  C191  1  0.19522000  0.49658000  0.10577000  1.0
  C  C192  1  0.35159000  0.41787000  0.97649000  1.0
  C  C193  1  0.35159000  0.58214000  0.02352000  1.0
  C  C194  1  0.64618000  0.55862000  0.97716000  1.0
  C  C195  1  0.64619000  0.44138000  0.02281000  1.0
  C  C196  1  0.48629000  0.38662000  0.91220000  1.0
  C  C197  1  0.48630000  0.61338000  0.08780000  1.0
  C  C198  1  0.51195000  0.52646000  0.91243000  1.0
  C  C199  1  0.51196000  0.47352000  0.08754000  1.0
  C  C200  1  0.98118000  0.37104000  0.93613000  1.0
  C  C201  1  0.98118000  0.62890000  0.06388000  1.0
  C  C202  1  0.01945000  0.56564000  0.93634000  1.0
  C  C203  1  0.01948000  0.43433000  0.06368000  1.0
  C  C204  1  0.85345000  0.44717000  0.93587000  1.0
  C  C205  1  0.85344000  0.55278000  0.06412000  1.0
  C  C206  1  0.14674000  0.48873000  0.93568000  1.0
  C  C207  1  0.14675000  0.51123000  0.06432000  1.0
  C  C208  1  0.44136000  0.43516000  0.96172000  1.0
  C  C209  1  0.44137000  0.56485000  0.03828000  1.0
  C  C210  1  0.55625000  0.52701000  0.96205000  1.0
  C  C211  1  0.55626000  0.47298000  0.03793000  1.0
  C  C212  1  0.94129000  0.43805000  0.95837000  1.0
  C  C213  1  0.94129000  0.56190000  0.04164000  1.0
  C  C214  1  0.05914000  0.52048000  0.95837000  1.0
  C  C215  1  0.05916000  0.47948000  0.04164000  1.0
  C  C216  1  0.49861000  0.50000000  0.99999000  1.0
  C  C217  1  0.00019000  0.49997000  0.00000000  1.0
  N  N218  1  0.25661000  0.15451000  0.77639000  1.0
  N  N219  1  0.25664000  0.84550000  0.22363000  1.0
  N  N220  1  0.74477000  0.62045000  0.77635000  1.0
  N  N221  1  0.74475000  0.37953000  0.22363000  1.0
  N  N222  1  0.75262000  0.16624000  0.76200000  1.0
  N  N223  1  0.75262000  0.83374000  0.23799000  1.0
  N  N224  1  0.24687000  0.59712000  0.76171000  1.0
  N  N225  1  0.24690000  0.40286000  0.23831000  1.0
  N  N226  1  0.17978000  0.17510000  0.81320000  1.0
  N  N227  1  0.17979000  0.82490000  0.18683000  1.0
  N  N228  1  0.82152000  0.63631000  0.81317000  1.0
  N  N229  1  0.82152000  0.36367000  0.18681000  1.0
  N  N230  1  0.67448000  0.20932000  0.77402000  1.0
  N  N231  1  0.67448000  0.79065000  0.22598000  1.0
  N  N232  1  0.32516000  0.56587000  0.77355000  1.0
  N  N233  1  0.32519000  0.43410000  0.22647000  1.0
  N  N234  1  0.20503000  0.23195000  0.85675000  1.0
  N  N235  1  0.20504000  0.76804000  0.14328000  1.0
  N  N236  1  0.79564000  0.62350000  0.85703000  1.0
  N  N237  1  0.79565000  0.37647000  0.14295000  1.0
  N  N238  1  0.69956000  0.26851000  0.81495000  1.0
  N  N239  1  0.69956000  0.73146000  0.18506000  1.0
  N  N240  1  0.30051000  0.54752000  0.81464000  1.0
  N  N241  1  0.30056000  0.45244000  0.18537000  1.0
  O  O242  1  0.09454000  0.87956000  0.62087000  1.0
  O  O243  1  0.09455000  0.12046000  0.37913000  1.0
  O  O244  1  0.90430000  0.74138000  0.62080000  1.0
  O  O245  1  0.90415000  0.25858000  0.37921000  1.0
  O  O246  1  0.89342000  0.87632000  0.62328000  1.0
  O  O247  1  0.89342000  0.12364000  0.37673000  1.0
  O  O248  1  0.10425000  0.74502000  0.61898000  1.0
  O  O249  1  0.10413000  0.25506000  0.38108000  1.0
  O  O250  1  0.98943000  0.76234000  0.51741000  1.0
  O  O251  1  0.99022000  0.23800000  0.48264000  1.0
  O  O252  1  0.10358000  0.92076000  0.71853000  1.0
  O  O253  1  0.10358000  0.07924000  0.28146000  1.0
  O  O254  1  0.89447000  0.79753000  0.71841000  1.0
  O  O255  1  0.89447000  0.20246000  0.28159000  1.0
  O  O256  1  0.90735000  0.93226000  0.72054000  1.0
  O  O257  1  0.90732000  0.06775000  0.27946000  1.0
  O  O258  1  0.09111000  0.78551000  0.71626000  1.0
  O  O259  1  0.09108000  0.21453000  0.28380000  1.0
  O  O260  1  0.00462000  0.90472000  0.82202000  1.0
  O  O261  1  0.00477000  0.09539000  0.17802000  1.0
  O  O262  1  0.39059000  0.95498000  0.54390000  1.0
  O  O263  1  0.39059000  0.04504000  0.45612000  1.0
  O  O264  1  0.61032000  0.58815000  0.54390000  1.0
  O  O265  1  0.61028000  0.41187000  0.45609000  1.0
  O  O266  1  0.39956000  0.07281000  0.57527000  1.0
  O  O267  1  0.39955000  0.92720000  0.42476000  1.0
  O  O268  1  0.60176000  0.50152000  0.57537000  1.0
  O  O269  1  0.60174000  0.49850000  0.42462000  1.0
  O  O270  1  0.59128000  0.94929000  0.54567000  1.0
  O  O271  1  0.59129000  0.05067000  0.45432000  1.0
  O  O272  1  0.40950000  0.59562000  0.54486000  1.0
  O  O273  1  0.40945000  0.40444000  0.45519000  1.0
  O  O274  1  0.59528000  0.06589000  0.56959000  1.0
  O  O275  1  0.59528000  0.93408000  0.43041000  1.0
  O  O276  1  0.40596000  0.50352000  0.56981000  1.0
  O  O277  1  0.40595000  0.49652000  0.43023000  1.0
  O  O278  1  0.50254000  0.81567000  0.45593000  1.0
  O  O279  1  0.50263000  0.18433000  0.54407000  1.0
  O  O280  1  0.49979000  0.64018000  0.45560000  1.0
  O  O281  1  0.49991000  0.35982000  0.54437000  1.0
