# generated using pymatgen
data_ZnH9C15NO8
_symmetry_space_group_name_H-M   'P 1'
_cell_length_a   9.54729000
_cell_length_b   10.82990000
_cell_length_c   10.84710000
_cell_angle_alpha   88.43390000
_cell_angle_beta   85.95590000
_cell_angle_gamma   88.56530000
_symmetry_Int_Tables_number   1
_chemical_formula_structural   ZnH9C15NO8
_chemical_formula_sum   'Zn2 H18 C30 N2 O16'
_cell_volume   1118.03799369
_cell_formula_units_Z   2
loop_
 _symmetry_equiv_pos_site_id
 _symmetry_equiv_pos_as_xyz
  1  'x, y, z'
loop_
 _atom_site_type_symbol
 _atom_site_label
 _atom_site_symmetry_multiplicity
 _atom_site_fract_x
 _atom_site_fract_y
 _atom_site_fract_z
 _atom_site_occupancy
  Zn  Zn0  1  0.35319000  0.50755000  0.50805000  1.0
  Zn  Zn1  1  0.64681000  0.49244000  0.49194000  1.0
  H  H2  1  0.35634000  0.93088000  0.68405000  1.0
  H  H3  1  0.64366000  0.06912000  0.31598000  1.0
  H  H4  1  0.25246000  0.06188000  0.47741000  1.0
  H  H5  1  0.74753000  0.93811000  0.52262000  1.0
  H  H6  1  0.41831000  0.90080000  0.31910000  1.0
  H  H7  1  0.58169000  0.09919000  0.68093000  1.0
  H  H8  1  0.43319000  0.71249000  0.05504000  1.0
  H  H9  1  0.56682000  0.28750000  0.94496000  1.0
  H  H10  1  0.25865000  0.54321000  0.94141000  1.0
  H  H11  1  0.74136000  0.45678000  0.05859000  1.0
  H  H12  1  0.87364000  0.48744000  0.70120000  1.0
  H  H13  1  0.12636000  0.51258000  0.29878000  1.0
  H  H14  1  0.10500000  0.32522000  0.60652000  1.0
  H  H15  1  0.89500000  0.67480000  0.39346000  1.0
  H  H16  1  0.31452000  0.20500000  0.25192000  1.0
  H  H17  1  0.68546000  0.79500000  0.74807000  1.0
  H  H18  1  0.15825000  0.76529000  0.76065000  1.0
  H  H19  1  0.84177000  0.23471000  0.23934000  1.0
  C  C20  1  0.49177000  0.47500000  0.74074000  1.0
  C  C21  1  0.50824000  0.52499000  0.25926000  1.0
  C  C22  1  0.40902000  0.42049000  0.06075000  1.0
  C  C23  1  0.59098000  0.57950000  0.93924000  1.0
  C  C24  1  0.93589000  0.49165000  0.61297000  1.0
  C  C25  1  0.06411000  0.50837000  0.38701000  1.0
  C  C26  1  0.02406000  0.60248000  0.56032000  1.0
  C  C27  1  0.97595000  0.39754000  0.43966000  1.0
  C  C28  1  0.05189000  0.40198000  0.56037000  1.0
  C  C29  1  0.94811000  0.59804000  0.43961000  1.0
  C  C30  1  0.48518000  0.26157000  0.47861000  1.0
  C  C31  1  0.51481000  0.73842000  0.52140000  1.0
  C  C32  1  0.36226000  0.03415000  0.48722000  1.0
  C  C33  1  0.63773000  0.96585000  0.51281000  1.0
  C  C34  1  0.41949000  0.96302000  0.60179000  1.0
  C  C35  1  0.58050000  0.03697000  0.39824000  1.0
  C  C36  1  0.51218000  0.87549000  0.51411000  1.0
  C  C37  1  0.48781000  0.12450000  0.48591000  1.0
  C  C38  1  0.45422000  0.94737000  0.39903000  1.0
  C  C39  1  0.54578000  0.05262000  0.60099000  1.0
  C  C40  1  0.36544000  0.52510000  0.96853000  1.0
  C  C41  1  0.63457000  0.47489000  0.03147000  1.0
  C  C42  1  0.46160000  0.61772000  0.02927000  1.0
  C  C43  1  0.53840000  0.38227000  0.97072000  1.0
  C  C44  1  0.50841000  0.51325000  0.12253000  1.0
  C  C45  1  0.49160000  0.48675000  0.87746000  1.0
  C  C46  1  0.31254000  0.33989000  0.13721000  1.0
  C  C47  1  0.68746000  0.66011000  0.86278000  1.0
  C  C48  1  0.05673000  0.71591000  0.62795000  1.0
  C  C49  1  0.94328000  0.28411000  0.37204000  1.0
  N  N50  1  0.13990000  0.51137000  0.50790000  1.0
  N  N51  1  0.86010000  0.48865000  0.49208000  1.0
  O  O52  1  0.37371000  0.47232000  0.69421000  1.0
  O  O53  1  0.62630000  0.52766000  0.30578000  1.0
  O  O54  1  0.61265000  0.47039000  0.68298000  1.0
  O  O55  1  0.38736000  0.52961000  0.31701000  1.0
  O  O56  1  0.36655000  0.31837000  0.48254000  1.0
  O  O57  1  0.63344000  0.68162000  0.51745000  1.0
  O  O58  1  0.60526000  0.31144000  0.47243000  1.0
  O  O59  1  0.39473000  0.68856000  0.52758000  1.0
  O  O60  1  0.18522000  0.35629000  0.15323000  1.0
  O  O61  1  0.38275000  0.24485000  0.19262000  1.0
  O  O62  1  0.81478000  0.64371000  0.84676000  1.0
  O  O63  1  0.61725000  0.75514000  0.80738000  1.0
  O  O64  1  0.01101000  0.81886000  0.60209000  1.0
  O  O65  1  0.13875000  0.68783000  0.72121000  1.0
  O  O66  1  0.98900000  0.18116000  0.39791000  1.0
  O  O67  1  0.86126000  0.31217000  0.27878000  1.0
