# generated using pymatgen
data_ZnH8C4O7
_symmetry_space_group_name_H-M   'P 1'
_cell_length_a   7.47146000
_cell_length_b   9.55053000
_cell_length_c   10.79790000
_cell_angle_alpha   89.57930000
_cell_angle_beta   90.00120000
_cell_angle_gamma   89.99980000
_symmetry_Int_Tables_number   1
_chemical_formula_structural   ZnH8C4O7
_chemical_formula_sum   'Zn4 H32 C16 O28'
_cell_volume   770.47853225
_cell_formula_units_Z   4
loop_
 _symmetry_equiv_pos_site_id
 _symmetry_equiv_pos_as_xyz
  1  'x, y, z'
loop_
 _atom_site_type_symbol
 _atom_site_label
 _atom_site_symmetry_multiplicity
 _atom_site_fract_x
 _atom_site_fract_y
 _atom_site_fract_z
 _atom_site_occupancy
  Zn  Zn0  1  0.16477000  0.72105000  0.42638000  1.0
  Zn  Zn1  1  0.66476000  0.77894000  0.07361000  1.0
  Zn  Zn2  1  0.83523000  0.27895000  0.57362000  1.0
  Zn  Zn3  1  0.33525000  0.22105000  0.92639000  1.0
  H  H4  1  0.26474000  0.60123000  0.74634000  1.0
  H  H5  1  0.76475000  0.89877000  0.75367000  1.0
  H  H6  1  0.73526000  0.39876000  0.25367000  1.0
  H  H7  1  0.23526000  0.10123000  0.24632000  1.0
  H  H8  1  0.59384000  0.54585000  0.58474000  1.0
  H  H9  1  0.09384000  0.95416000  0.91529000  1.0
  H  H10  1  0.40615000  0.45416000  0.41526000  1.0
  H  H11  1  0.90616000  0.04584000  0.08472000  1.0
  H  H12  1  0.60612000  0.61097000  0.73758000  1.0
  H  H13  1  0.10613000  0.88904000  0.76244000  1.0
  H  H14  1  0.39387000  0.38903000  0.26242000  1.0
  H  H15  1  0.89388000  0.11097000  0.23756000  1.0
  H  H16  1  0.04505000  0.50277000  0.27258000  1.0
  H  H17  1  0.54506000  0.99722000  0.22742000  1.0
  H  H18  1  0.95494000  0.49723000  0.72742000  1.0
  H  H19  1  0.45494000  0.00278000  0.77258000  1.0
  H  H20  1  0.94744000  0.65841000  0.26294000  1.0
  H  H21  1  0.44745000  0.84158000  0.23706000  1.0
  H  H22  1  0.05255000  0.34158000  0.73707000  1.0
  H  H23  1  0.55256000  0.15842000  0.76294000  1.0
  H  H24  1  0.91859000  0.73216000  0.61806000  1.0
  H  H25  1  0.41857000  0.76785000  0.88193000  1.0
  H  H26  1  0.08142000  0.26784000  0.38194000  1.0
  H  H27  1  0.58144000  0.23216000  0.11806000  1.0
  H  H28  1  0.88059000  0.85896000  0.52588000  1.0
  H  H29  1  0.38058000  0.64105000  0.97410000  1.0
  H  H30  1  0.11940000  0.14105000  0.47412000  1.0
  H  H31  1  0.61941000  0.35897000  0.02590000  1.0
  H  H32  1  0.15062000  0.49685000  0.59469000  1.0
  H  H33  1  0.65062000  0.00314000  0.90531000  1.0
  H  H34  1  0.84937000  0.50314000  0.40531000  1.0
  H  H35  1  0.34939000  0.99685000  0.09469000  1.0
  C  C36  1  0.34156000  0.62009000  0.66085000  1.0
  C  C37  1  0.84156000  0.87990000  0.83917000  1.0
  C  C38  1  0.65844000  0.37990000  0.33916000  1.0
  C  C39  1  0.15845000  0.12009000  0.16083000  1.0
  C  C40  1  0.35978000  0.77902000  0.64788000  1.0
  C  C41  1  0.85978000  0.72097000  0.85211000  1.0
  C  C42  1  0.64022000  0.22098000  0.35212000  1.0
  C  C43  1  0.14023000  0.27903000  0.14788000  1.0
  C  C44  1  0.52395000  0.54937000  0.67372000  1.0
  C  C45  1  0.02394000  0.95063000  0.82630000  1.0
  C  C46  1  0.47605000  0.45063000  0.32628000  1.0
  C  C47  1  0.97606000  0.04937000  0.17370000  1.0
  C  C48  1  0.50878000  0.40512000  0.73182000  1.0
  C  C49  1  0.00878000  0.09489000  0.76819000  1.0
  C  C50  1  0.49122000  0.59488000  0.26817000  1.0
  C  C51  1  0.99122000  0.90512000  0.23181000  1.0
  O  O52  1  0.24263000  0.56318000  0.55885000  1.0
  O  O53  1  0.74263000  0.93681000  0.94115000  1.0
  O  O54  1  0.75735000  0.43682000  0.44115000  1.0
  O  O55  1  0.25737000  0.06318000  0.05884000  1.0
  O  O56  1  0.30139000  0.84163000  0.55275000  1.0
  O  O57  1  0.80136000  0.65835000  0.94724000  1.0
  O  O58  1  0.69862000  0.15836000  0.44725000  1.0
  O  O59  1  0.19866000  0.34164000  0.05276000  1.0
  O  O60  1  0.43165000  0.83964000  0.74027000  1.0
  O  O61  1  0.93169000  0.66037000  0.75973000  1.0
  O  O62  1  0.56833000  0.16036000  0.25974000  1.0
  O  O63  1  0.06832000  0.33963000  0.24026000  1.0
  O  O64  1  0.60476000  0.30389000  0.69200000  1.0
  O  O65  1  0.10476000  0.19611000  0.80802000  1.0
  O  O66  1  0.39524000  0.69611000  0.30800000  1.0
  O  O67  1  0.89524000  0.80389000  0.19199000  1.0
  O  O68  1  0.39998000  0.39383000  0.82180000  1.0
  O  O69  1  0.89998000  0.10617000  0.67821000  1.0
  O  O70  1  0.60003000  0.60616000  0.17820000  1.0
  O  O71  1  0.10002000  0.89383000  0.32180000  1.0
  O  O72  1  0.00083000  0.58601000  0.32148000  1.0
  O  O73  1  0.50084000  0.91398000  0.17852000  1.0
  O  O74  1  0.99916000  0.41398000  0.67852000  1.0
  O  O75  1  0.49917000  0.08602000  0.82148000  1.0
  O  O76  1  0.91135000  0.75980000  0.52835000  1.0
  O  O77  1  0.41134000  0.74020000  0.97165000  1.0
  O  O78  1  0.08866000  0.24021000  0.47165000  1.0
  O  O79  1  0.58868000  0.25981000  0.02835000  1.0
