# generated using pymatgen
data_NiH20C24(NO3)2
_symmetry_space_group_name_H-M   'P 1'
_cell_length_a   9.27261000
_cell_length_b   9.41182000
_cell_length_c   12.15860000
_cell_angle_alpha   89.99550000
_cell_angle_beta   78.79500000
_cell_angle_gamma   89.99880000
_symmetry_Int_Tables_number   1
_chemical_formula_structural   NiH20C24(NO3)2
_chemical_formula_sum   'Ni2 H40 C48 N4 O12'
_cell_volume   1040.88038481
_cell_formula_units_Z   2
loop_
 _symmetry_equiv_pos_site_id
 _symmetry_equiv_pos_as_xyz
  1  'x, y, z'
loop_
 _atom_site_type_symbol
 _atom_site_label
 _atom_site_symmetry_multiplicity
 _atom_site_fract_x
 _atom_site_fract_y
 _atom_site_fract_z
 _atom_site_occupancy
  Ni  Ni0  1  0.50000000  0.00000000  0.50000000  1.0
  Ni  Ni1  1  0.50000000  0.50000000  0.00000000  1.0
  H  H2  1  0.07823000  0.81804000  0.53067000  1.0
  H  H3  1  0.92173000  0.31805000  0.96936000  1.0
  H  H4  1  0.92177000  0.18195000  0.46933000  1.0
  H  H5  1  0.07828000  0.68194000  0.03063000  1.0
  H  H6  1  0.77310000  0.57764000  0.77169000  1.0
  H  H7  1  0.22697000  0.07782000  0.72831000  1.0
  H  H8  1  0.22691000  0.42236000  0.22831000  1.0
  H  H9  1  0.77305000  0.92216000  0.27168000  1.0
  H  H10  1  0.95393000  0.56940000  0.89715000  1.0
  H  H11  1  0.04613000  0.06950000  0.60283000  1.0
  H  H12  1  0.04608000  0.43061000  0.10283000  1.0
  H  H13  1  0.95388000  0.93051000  0.39717000  1.0
  H  H14  1  0.19749000  0.69178000  0.84035000  1.0
  H  H15  1  0.80251000  0.19178000  0.65969000  1.0
  H  H16  1  0.80252000  0.30822000  0.15964000  1.0
  H  H17  1  0.19750000  0.80822000  0.34032000  1.0
  H  H18  1  0.49762000  0.72357000  0.39608000  1.0
  H  H19  1  0.50233000  0.22357000  0.10395000  1.0
  H  H20  1  0.50237000  0.27643000  0.60391000  1.0
  H  H21  1  0.49765000  0.77643000  0.89606000  1.0
  H  H22  1  0.63939000  0.50004000  0.39430000  1.0
  H  H23  1  0.36061000  0.00004000  0.10573000  1.0
  H  H24  1  0.36062000  0.49996000  0.60570000  1.0
  H  H25  1  0.63937000  0.99998000  0.89430000  1.0
  H  H26  1  0.83153000  0.48251000  0.51626000  1.0
  H  H27  1  0.16851000  0.98251000  0.98372000  1.0
  H  H28  1  0.16848000  0.51750000  0.48373000  1.0
  H  H29  1  0.83145000  0.01751000  0.01631000  1.0
  H  H30  1  0.73687000  0.92178000  0.60729000  1.0
  H  H31  1  0.26314000  0.42182000  0.89270000  1.0
  H  H32  1  0.26312000  0.07822000  0.39270000  1.0
  H  H33  1  0.73687000  0.57817000  0.10728000  1.0
  H  H34  1  0.50811000  0.00833000  0.26869000  1.0
  H  H35  1  0.49189000  0.50835000  0.23132000  1.0
  H  H36  1  0.49189000  0.99168000  0.73130000  1.0
  H  H37  1  0.50811000  0.49165000  0.76869000  1.0
  H  H38  1  0.45160000  0.84934000  0.24908000  1.0
  H  H39  1  0.54833000  0.34935000  0.25091000  1.0
  H  H40  1  0.54840000  0.15066000  0.75091000  1.0
  H  H41  1  0.45165000  0.65065000  0.74909000  1.0
  C  C42  1  0.15173000  0.76219000  0.68240000  1.0
  C  C43  1  0.84827000  0.26218000  0.81761000  1.0
  C  C44  1  0.84826000  0.23780000  0.31759000  1.0
  C  C45  1  0.15175000  0.73781000  0.18240000  1.0
  C  C46  1  0.04964000  0.76440000  0.61121000  1.0
  C  C47  1  0.95036000  0.26441000  0.88881000  1.0
  C  C48  1  0.95036000  0.23560000  0.38877000  1.0
  C  C49  1  0.04964000  0.73559000  0.11120000  1.0
  C  C50  1  0.91279000  0.69855000  0.64318000  1.0
  C  C51  1  0.08724000  0.19858000  0.85684000  1.0
  C  C52  1  0.08721000  0.30145000  0.35682000  1.0
  C  C53  1  0.91275000  0.80142000  0.14317000  1.0
  C  C54  1  0.87988000  0.62831000  0.74668000  1.0
  C  C55  1  0.12016000  0.12841000  0.75334000  1.0
  C  C56  1  0.12012000  0.37170000  0.25331000  1.0
  C  C57  1  0.87984000  0.87158000  0.24666000  1.0
  C  C58  1  0.98161000  0.62512000  0.81734000  1.0
  C  C59  1  0.01843000  0.12519000  0.68267000  1.0
  C  C60  1  0.01839000  0.37488000  0.18265000  1.0
  C  C61  1  0.98157000  0.87481000  0.31733000  1.0
  C  C62  1  0.11677000  0.69293000  0.78620000  1.0
  C  C63  1  0.88322000  0.19295000  0.71382000  1.0
  C  C64  1  0.88323000  0.30706000  0.21380000  1.0
  C  C65  1  0.11679000  0.80704000  0.28618000  1.0
  C  C66  1  0.29629000  0.83733000  0.65159000  1.0
  C  C67  1  0.70367000  0.33733000  0.84844000  1.0
  C  C68  1  0.70372000  0.16267000  0.34840000  1.0
  C  C69  1  0.29633000  0.66267000  0.15157000  1.0
  C  C70  1  0.58560000  0.71405000  0.44341000  1.0
  C  C71  1  0.41440000  0.21406000  0.05664000  1.0
  C  C72  1  0.41440000  0.28594000  0.55658000  1.0
  C  C73  1  0.58559000  0.78594000  0.94337000  1.0
  C  C74  1  0.66353000  0.58824000  0.44586000  1.0
  C  C75  1  0.33650000  0.08827000  0.05416000  1.0
  C  C76  1  0.33648000  0.41176000  0.55413000  1.0
  C  C77  1  0.66349000  0.91174000  0.94586000  1.0
  C  C78  1  0.77077000  0.58078000  0.51135000  1.0
  C  C79  1  0.22924000  0.08081000  0.98864000  1.0
  C  C80  1  0.22923000  0.41922000  0.48863000  1.0
  C  C81  1  0.77074000  0.91920000  0.01138000  1.0
  C  C82  1  0.80148000  0.70148000  0.57025000  1.0
  C  C83  1  0.19848000  0.20147000  0.92975000  1.0
  C  C84  1  0.19852000  0.29853000  0.42974000  1.0
  C  C85  1  0.80151000  0.79852000  0.07025000  1.0
  C  C86  1  0.72130000  0.82526000  0.56150000  1.0
  C  C87  1  0.27870000  0.32526000  0.93853000  1.0
  C  C88  1  0.27870000  0.17474000  0.43849000  1.0
  C  C89  1  0.72130000  0.67474000  0.06147000  1.0
  N  N90  1  0.61417000  0.83033000  0.50059000  1.0
  N  N91  1  0.38584000  0.33031000  0.99945000  1.0
  N  N92  1  0.38583000  0.16968000  0.49940000  1.0
  N  N93  1  0.61416000  0.66969000  0.00055000  1.0
  O  O94  1  0.32212000  0.89558000  0.55279000  1.0
  O  O95  1  0.67788000  0.39558000  0.94724000  1.0
  O  O96  1  0.67788000  0.10442000  0.44719000  1.0
  O  O97  1  0.32212000  0.60442000  0.05277000  1.0
  O  O98  1  0.38068000  0.84362000  0.72115000  1.0
  O  O99  1  0.61931000  0.34359000  0.77886000  1.0
  O  O100  1  0.61933000  0.15637000  0.27885000  1.0
  O  O101  1  0.38070000  0.65641000  0.22115000  1.0
  O  O102  1  0.42153000  0.94739000  0.26729000  1.0
  O  O103  1  0.57845000  0.44741000  0.23278000  1.0
  O  O104  1  0.57848000  0.05260000  0.73272000  1.0
  O  O105  1  0.42155000  0.55259000  0.76723000  1.0
