# generated using pymatgen
data_Al4H71C69N21O20
_symmetry_space_group_name_H-M   'P 1'
_cell_length_a   6.64335000
_cell_length_b   22.70310000
_cell_length_c   23.13360000
_cell_angle_alpha   111.69300000
_cell_angle_beta   91.61210000
_cell_angle_gamma   93.14370000
_symmetry_Int_Tables_number   1
_chemical_formula_structural   Al4H71C69N21O20
_chemical_formula_sum   'Al4 H71 C69 N21 O20'
_cell_volume   3232.72242933
_cell_formula_units_Z   1
loop_
 _symmetry_equiv_pos_site_id
 _symmetry_equiv_pos_as_xyz
  1  'x, y, z'
loop_
 _atom_site_type_symbol
 _atom_site_label
 _atom_site_symmetry_multiplicity
 _atom_site_fract_x
 _atom_site_fract_y
 _atom_site_fract_z
 _atom_site_occupancy
  Al  Al0  1  0.88319000  0.49968000  0.49813000  1.0
  Al  Al1  1  0.38299000  0.50075000  0.49789000  1.0
  Al  Al2  1  0.35372000  0.00269000  0.00268000  1.0
  Al  Al3  1  0.85257000  0.99921000  0.00296000  1.0
  H  H4  1  0.81995000  0.77893000  0.13000000  1.0
  H  H5  1  0.43653000  0.69853000  0.34303000  1.0
  H  H6  1  0.38022000  0.35038000  0.56135000  1.0
  H  H7  1  0.34823000  0.16137000  0.94263000  1.0
  H  H8  1  0.29268000  0.83761000  0.92084000  1.0
  H  H9  1  0.60190000  0.84940000  0.87447000  1.0
  H  H10  1  0.56810000  0.76910000  0.82453000  1.0
  H  H11  1  0.61175000  0.78800000  0.90577000  1.0
  H  H12  1  0.79798000  0.85673000  0.07647000  1.0
  H  H13  1  0.57609000  0.68048000  0.41667000  1.0
  H  H14  1  0.59813000  0.70246000  0.51910000  1.0
  H  H15  1  0.40092000  0.64541000  0.51504000  1.0
  H  H16  1  0.34400000  0.72011000  0.51069000  1.0
  H  H17  1  0.78688000  0.53564000  0.37849000  1.0
  H  H18  1  0.68694000  0.50730000  0.24805000  1.0
  H  H19  1  0.56092000  0.57535000  0.29363000  1.0
  H  H20  1  0.52047000  0.50311000  0.30599000  1.0
  H  H21  1  0.85498000  0.60925000  0.26436000  1.0
  H  H22  1  0.20722000  0.27337000  0.59385000  1.0
  H  H23  1  0.46764000  0.19732000  0.54331000  1.0
  H  H24  1  0.27789000  0.16818000  0.58170000  1.0
  H  H25  1  0.52071000  0.19654000  0.61869000  1.0
  H  H26  1  0.84589000  0.37925000  0.78497000  1.0
  H  H27  1  0.20034000  0.40446000  0.78484000  1.0
  H  H28  1  0.16231000  0.40790000  0.70976000  1.0
  H  H29  1  0.12607000  0.33375000  0.71949000  1.0
  H  H30  1  0.94130000  0.48291000  0.74047000  1.0
  H  H31  1  0.01575000  0.52916000  0.64513000  1.0
  H  H32  1  0.97435000  0.57532000  0.72437000  1.0
  H  H33  1  0.76914000  0.54896000  0.66777000  1.0
  H  H34  1  0.36953000  0.22689000  0.87667000  1.0
  H  H35  1  0.65546000  0.87883000  0.76803000  1.0
  H  H36  1  0.72258000  0.98862000  0.80755000  1.0
  H  H37  1  0.93607000  0.95541000  0.76446000  1.0
  H  H38  1  0.94529000  0.98185000  0.84749000  1.0
  H  H39  1  0.91176000  0.08553000  0.87639000  1.0
  H  H40  1  0.96280000  0.17291000  0.77186000  1.0
  H  H41  1  0.18539000  0.09763000  0.82970000  1.0
  H  H42  1  0.22432000  0.10635000  0.75799000  1.0
  H  H43  1  0.03343000  0.04960000  0.76209000  1.0
  H  H44  1  0.41938000  0.18495000  0.13950000  1.0
  H  H45  1  0.93379000  0.08812000  0.25406000  1.0
  H  H46  1  0.21165000  0.12809000  0.20986000  1.0
  H  H47  1  0.09072000  0.08481000  0.13517000  1.0
  H  H48  1  0.17989000  0.04325000  0.18131000  1.0
  H  H49  1  0.18967000  0.32989000  0.21109000  1.0
  H  H50  1  0.24371000  0.29896000  0.10319000  1.0
  H  H51  1  0.47073000  0.26575000  0.11405000  1.0
  H  H52  1  0.45609000  0.34962000  0.14657000  1.0
  H  H53  1  0.91376000  0.19304000  0.30642000  1.0
  H  H54  1  0.36053000  0.38859000  0.30438000  1.0
  H  H55  1  0.83523000  0.25277000  0.38668000  1.0
  H  H56  1  0.11668000  0.29140000  0.33885000  1.0
  H  H57  1  0.14309000  0.31468000  0.42158000  1.0
  H  H58  1  0.06038000  0.36927000  0.38935000  1.0
  H  H59  1  0.36979000  0.69315000  0.80398000  1.0
  H  H60  1  0.79509000  0.80143000  0.70226000  1.0
  H  H61  1  0.40886000  0.56457000  0.65524000  1.0
  H  H62  1  0.52302000  0.53358000  0.73375000  1.0
  H  H63  1  0.35739000  0.58551000  0.78470000  1.0
  H  H64  1  0.60577000  0.61443000  0.77668000  1.0
  H  H65  1  0.80087000  0.73533000  0.63567000  1.0
  H  H66  1  0.92901000  0.73506000  0.54640000  1.0
  H  H67  1  0.87865000  0.65070000  0.52038000  1.0
  H  H68  1  0.11954000  0.68603000  0.55302000  1.0
  H  H69  1  0.41834000  0.92216000  0.13251000  1.0
  H  H70  1  0.43729000  0.84762000  0.18958000  1.0
  H  H71  1  0.65564000  0.57994000  0.54346000  1.0
  H  H72  1  0.12370000  0.43097000  0.51337000  1.0
  H  H73  1  0.58171000  0.92505000  0.94977000  1.0
  H  H74  1  0.10909000  0.07641000  0.99971000  1.0
  C  C75  1  0.63393000  0.44513000  0.57201000  1.0
  C  C76  1  0.60189000  0.40770000  0.40313000  1.0
  C  C77  1  0.13269000  0.55971000  0.42864000  1.0
  C  C78  1  0.16015000  0.59616000  0.59433000  1.0
  C  C79  1  0.05522000  0.85339000  0.84227000  1.0
  C  C80  1  0.16618000  0.65046000  0.65469000  1.0
  C  C81  1  0.28364000  0.69619000  0.76478000  1.0
  C  C82  1  0.29034000  0.64822000  0.70631000  1.0
  C  C83  1  0.03073000  0.69851000  0.66543000  1.0
  C  C84  1  0.02928000  0.74875000  0.72609000  1.0
  C  C85  1  0.16656000  0.74881000  0.77452000  1.0
  C  C86  1  0.18320000  0.80331000  0.83240000  1.0
  C  C87  1  0.90592000  0.84944000  0.79475000  1.0
  C  C88  1  0.90128000  0.79909000  0.73811000  1.0
  C  C89  1  0.28769000  0.89115000  0.13300000  1.0
  C  C90  1  0.29845000  0.84967000  0.16439000  1.0
  C  C91  1  0.13068000  0.80814000  0.16237000  1.0
  C  C92  1  0.94912000  0.81110000  0.13106000  1.0
  C  C93  1  0.93729000  0.85391000  0.10109000  1.0
  C  C94  1  0.10760000  0.89310000  0.10072000  1.0
  C  C95  1  0.15680000  0.68816000  0.25476000  1.0
  C  C96  1  0.14713000  0.76112000  0.19172000  1.0
  C  C97  1  0.30852000  0.66618000  0.34258000  1.0
  C  C98  1  0.30213000  0.63887000  0.38797000  1.0
  C  C99  1  0.13276000  0.59737000  0.38849000  1.0
  C  C100  1  0.96530000  0.58764000  0.34333000  1.0
  C  C101  1  0.97856000  0.61626000  0.29855000  1.0
  C  C102  1  0.14886000  0.65494000  0.29844000  1.0
  C  C103  1  0.48128000  0.36057000  0.60238000  1.0
  C  C104  1  0.47043000  0.32035000  0.63533000  1.0
  C  C105  1  0.61365000  0.33210000  0.68573000  1.0
  C  C106  1  0.75819000  0.38330000  0.70217000  1.0
  C  C107  1  0.76225000  0.42654000  0.66991000  1.0
  C  C108  1  0.62628000  0.41252000  0.61726000  1.0
  C  C109  1  0.63394000  0.22519000  0.79371000  1.0
  C  C110  1  0.61455000  0.29024000  0.72176000  1.0
  C  C111  1  0.48830000  0.19576000  0.87694000  1.0
  C  C112  1  0.47526000  0.15923000  0.91331000  1.0
  C  C113  1  0.62857000  0.11815000  0.91135000  1.0
  C  C114  1  0.79357000  0.11636000  0.87533000  1.0
  C  C115  1  0.80827000  0.15183000  0.83639000  1.0
  C  C116  1  0.64693000  0.19183000  0.83651000  1.0
  C  C117  1  0.65555000  0.13883000  0.16598000  1.0
  C  C118  1  0.58868000  0.34972000  0.34503000  1.0
  C  C119  1  0.43124000  0.29729000  0.23966000  1.0
  C  C120  1  0.45148000  0.34795000  0.29634000  1.0
  C  C121  1  0.70680000  0.29871000  0.33818000  1.0
  C  C122  1  0.68665000  0.24509000  0.28032000  1.0
  C  C123  1  0.54977000  0.24397000  0.23082000  1.0
  C  C124  1  0.53388000  0.18899000  0.17563000  1.0
  C  C125  1  0.79611000  0.14001000  0.21459000  1.0
  C  C126  1  0.80463000  0.19238000  0.26998000  1.0
  C  C127  1  0.63252000  0.08521000  0.10437000  1.0
  C  C128  1  0.61470000  0.07381000  0.94580000  1.0
  C  C129  1  0.07453000  0.91025000  0.90184000  1.0
  C  C130  1  0.10143000  0.93476000  0.06386000  1.0
  C  C131  1  0.53597000  0.80243000  0.87082000  1.0
  C  C132  1  0.44959000  0.68193000  0.49710000  1.0
  C  C133  1  0.63465000  0.53349000  0.29491000  1.0
  C  C134  1  0.40238000  0.20439000  0.58872000  1.0
  C  C135  1  0.10736000  0.38496000  0.74113000  1.0
  C  C136  1  0.91280000  0.53573000  0.68269000  1.0
  C  C137  1  0.84765000  0.95839000  0.80526000  1.0
  C  C138  1  0.10814000  0.09734000  0.78699000  1.0
  C  C139  1  0.10924000  0.08633000  0.18272000  1.0
  C  C140  1  0.37021000  0.30345000  0.13648000  1.0
  C  C141  1  0.05097000  0.31912000  0.38339000  1.0
  C  C142  1  0.47510000  0.58225000  0.75111000  1.0
  C  C143  1  0.95782000  0.69240000  0.55647000  1.0
  N  N144  1  0.99830000  0.71428000  0.17931000  1.0
  N  N145  1  0.00296000  0.67716000  0.21167000  1.0
  N  N146  1  0.32525000  0.72560000  0.25695000  1.0
  N  N147  1  0.32012000  0.76289000  0.22497000  1.0
  N  N148  1  0.44957000  0.28595000  0.75403000  1.0
  N  N149  1  0.45712000  0.25181000  0.78895000  1.0
  N  N150  1  0.78942000  0.22516000  0.75678000  1.0
  N  N151  1  0.77756000  0.25679000  0.71899000  1.0
  N  N152  1  0.31757000  0.80244000  0.87967000  1.0
  N  N153  1  0.46899000  0.65513000  0.43005000  1.0
  N  N154  1  0.79773000  0.55011000  0.34189000  1.0
  N  N155  1  0.32766000  0.26743000  0.61884000  1.0
  N  N156  1  0.89520000  0.39910000  0.75459000  1.0
  N  N157  1  0.88999000  0.47952000  0.69738000  1.0
  N  N158  1  0.76650000  0.89634000  0.80247000  1.0
  N  N159  1  0.96747000  0.14652000  0.79955000  1.0
  N  N160  1  0.91099000  0.08779000  0.21013000  1.0
  N  N161  1  0.29073000  0.29663000  0.19243000  1.0
  N  N162  1  0.83983000  0.29791000  0.38712000  1.0
  N  N163  1  0.39939000  0.59662000  0.69911000  1.0
  N  N164  1  0.89989000  0.70152000  0.61916000  1.0
  O  O165  1  0.43831000  0.43390000  0.42195000  1.0
  O  O166  1  0.80737000  0.45960000  0.55636000  1.0
  O  O167  1  0.98925000  0.57548000  0.56528000  1.0
  O  O168  1  0.77535000  0.42818000  0.42974000  1.0
  O  O169  1  0.96145000  0.53760000  0.43981000  1.0
  O  O170  1  0.46455000  0.45307000  0.54876000  1.0
  O  O171  1  0.64170000  0.53993000  0.50787000  1.0
  O  O172  1  0.30016000  0.54907000  0.45008000  1.0
  O  O173  1  0.32694000  0.57109000  0.57509000  1.0
  O  O174  1  0.12677000  0.46275000  0.49457000  1.0
  O  O175  1  0.78060000  0.05494000  0.95919000  1.0
  O  O176  1  0.45541000  0.06846000  0.07879000  1.0
  O  O177  1  0.27128000  0.95358000  0.05019000  1.0
  O  O178  1  0.43864000  0.05767000  0.95804000  1.0
  O  O179  1  0.25209000  0.93375000  0.92489000  1.0
  O  O180  1  0.79274000  0.06140000  0.08009000  1.0
  O  O181  1  0.59206000  0.96200000  0.98846000  1.0
  O  O182  1  0.91198000  0.93228000  0.92649000  1.0
  O  O183  1  0.92947000  0.94706000  0.04738000  1.0
  O  O184  1  0.10948000  0.03936000  0.01105000  1.0
