# generated using pymatgen
data_HgH16C22Br2N6(OF)2
_symmetry_space_group_name_H-M   'P 1'
_cell_length_a   4.18831000
_cell_length_b   10.79800000
_cell_length_c   13.12790000
_cell_angle_alpha   105.04700000
_cell_angle_beta   93.60960000
_cell_angle_gamma   94.59320000
_symmetry_Int_Tables_number   1
_chemical_formula_structural   HgH16C22Br2N6(OF)2
_chemical_formula_sum   'Hg1 H16 C22 Br2 N6 O2 F2'
_cell_volume   569.34915802
_cell_formula_units_Z   1
loop_
 _symmetry_equiv_pos_site_id
 _symmetry_equiv_pos_as_xyz
  1  'x, y, z'
loop_
 _atom_site_type_symbol
 _atom_site_label
 _atom_site_symmetry_multiplicity
 _atom_site_fract_x
 _atom_site_fract_y
 _atom_site_fract_z
 _atom_site_occupancy
  Hg  Hg0  1  0.50000000  0.00000000  0.50000000  1.0
  H  H1  1  0.00556000  0.06575000  0.10182000  1.0
  H  H2  1  0.99444000  0.93424000  0.89818000  1.0
  H  H3  1  0.11197000  0.10548000  0.30137000  1.0
  H  H4  1  0.88804000  0.89452000  0.69863000  1.0
  H  H5  1  0.62003000  0.78326000  0.25410000  1.0
  H  H6  1  0.37997000  0.21674000  0.74590000  1.0
  H  H7  1  0.51190000  0.61137000  0.57688000  1.0
  H  H8  1  0.48810000  0.38863000  0.42312000  1.0
  H  H9  1  0.83823000  0.42363000  0.57374000  1.0
  H  H10  1  0.16177000  0.57637000  0.42626000  1.0
  H  H11  1  0.00189000  0.37372000  0.74302000  1.0
  H  H12  1  0.99810000  0.62628000  0.25698000  1.0
  H  H13  1  0.84841000  0.50516000  0.91301000  1.0
  H  H14  1  0.15158000  0.49484000  0.08698000  1.0
  H  H15  1  0.34469000  0.77928000  0.92322000  1.0
  H  H16  1  0.65531000  0.22072000  0.07678000  1.0
  C  C17  1  0.14513000  0.00308000  0.13617000  1.0
  C  C18  1  0.85488000  0.99692000  0.86383000  1.0
  C  C19  1  0.20150000  0.02460000  0.24577000  1.0
  C  C20  1  0.79850000  0.97540000  0.75423000  1.0
  C  C21  1  0.48395000  0.84714000  0.22021000  1.0
  C  C22  1  0.51605000  0.15285000  0.77979000  1.0
  C  C23  1  0.43180000  0.82732000  0.11055000  1.0
  C  C24  1  0.56820000  0.17267000  0.88945000  1.0
  C  C25  1  0.57861000  0.72012000  0.03670000  1.0
  C  C26  1  0.42139000  0.27988000  0.96330000  1.0
  C  C27  1  0.59166000  0.63129000  0.84188000  1.0
  C  C28  1  0.40834000  0.36871000  0.15812000  1.0
  C  C29  1  0.49988000  0.65590000  0.74497000  1.0
  C  C30  1  0.50012000  0.34410000  0.25503000  1.0
  C  C31  1  0.58488000  0.58484000  0.64880000  1.0
  C  C32  1  0.41512000  0.41516000  0.35120000  1.0
  C  C33  1  0.76613000  0.48153000  0.64816000  1.0
  C  C34  1  0.23386000  0.51847000  0.35184000  1.0
  C  C35  1  0.85754000  0.45319000  0.74303000  1.0
  C  C36  1  0.14245000  0.54681000  0.25696000  1.0
  C  C37  1  0.77365000  0.52709000  0.83957000  1.0
  C  C38  1  0.22634000  0.47291000  0.16042000  1.0
  Br  Br39  1  0.14697000  0.18566000  0.52348000  1.0
  Br  Br40  1  0.85304000  0.81435000  0.47652000  1.0
  N  N41  1  0.26100000  0.90515000  0.06874000  1.0
  N  N42  1  0.73900000  0.09484000  0.93126000  1.0
  N  N43  1  0.37007000  0.94632000  0.28703000  1.0
  N  N44  1  0.62994000  0.05368000  0.71297000  1.0
  N  N45  1  0.49340000  0.71213000  0.93322000  1.0
  N  N46  1  0.50660000  0.28786000  0.06678000  1.0
  O  O47  1  0.76147000  0.65255000  0.07055000  1.0
  O  O48  1  0.23853000  0.34745000  0.92945000  1.0
  F  F49  1  0.31421000  0.75635000  0.74774000  1.0
  F  F50  1  0.68580000  0.24366000  0.25226000  1.0
