# generated using pymatgen
data_AlH4C14Cl3O5
_symmetry_space_group_name_H-M   'P 1'
_cell_length_a   6.64640000
_cell_length_b   21.41220000
_cell_length_c   25.55650000
_cell_angle_alpha   83.95300000
_cell_angle_beta   89.95570000
_cell_angle_gamma   89.44630000
_symmetry_Int_Tables_number   1
_chemical_formula_structural   AlH4C14Cl3O5
_chemical_formula_sum   'Al4 H16 C56 Cl12 O20'
_cell_volume   3616.64271104
_cell_formula_units_Z   4
loop_
 _symmetry_equiv_pos_site_id
 _symmetry_equiv_pos_as_xyz
  1  'x, y, z'
loop_
 _atom_site_type_symbol
 _atom_site_label
 _atom_site_symmetry_multiplicity
 _atom_site_fract_x
 _atom_site_fract_y
 _atom_site_fract_z
 _atom_site_occupancy
  Al  Al0  1  0.20105000  0.75026000  0.25054000  1.0
  Al  Al1  1  0.79893000  0.24974000  0.74946000  1.0
  Al  Al2  1  0.70108000  0.74984000  0.25148000  1.0
  Al  Al3  1  0.29898000  0.25017000  0.74852000  1.0
  H  H4  1  0.30404000  0.55733000  0.46503000  1.0
  H  H5  1  0.69592000  0.44266000  0.53497000  1.0
  H  H6  1  0.80443000  0.96133000  0.05064000  1.0
  H  H7  1  0.19557000  0.03868000  0.94937000  1.0
  H  H8  1  0.33212000  0.47766000  0.54344000  1.0
  H  H9  1  0.66784000  0.52233000  0.45656000  1.0
  H  H10  1  0.83804000  0.03962000  0.97158000  1.0
  H  H11  1  0.16195000  0.96039000  0.02842000  1.0
  H  H12  1  0.22759000  0.67330000  0.11212000  1.0
  H  H13  1  0.77243000  0.32671000  0.88788000  1.0
  H  H14  1  0.73203000  0.89814000  0.33598000  1.0
  H  H15  1  0.26797000  0.10187000  0.66402000  1.0
  H  H16  1  0.45444000  0.67148000  0.23767000  1.0
  H  H17  1  0.54558000  0.32852000  0.76233000  1.0
  H  H18  1  0.94670000  0.82827000  0.22510000  1.0
  H  H19  1  0.05333000  0.17173000  0.77490000  1.0
  C  C20  1  0.45087000  0.81825000  0.31990000  1.0
  C  C21  1  0.54916000  0.18176000  0.68010000  1.0
  C  C22  1  0.94841000  0.67637000  0.18438000  1.0
  C  C23  1  0.05162000  0.32363000  0.81562000  1.0
  C  C24  1  0.44681000  0.82969000  0.17514000  1.0
  C  C25  1  0.55318000  0.17031000  0.82486000  1.0
  C  C26  1  0.95779000  0.67230000  0.32605000  1.0
  C  C27  1  0.04221000  0.32771000  0.67395000  1.0
  C  C28  1  0.18761000  0.48763000  0.52409000  1.0
  C  C29  1  0.81236000  0.51237000  0.47591000  1.0
  C  C30  1  0.69077000  0.02196000  0.98425000  1.0
  C  C31  1  0.30922000  0.97805000  0.01576000  1.0
  C  C32  1  0.01575000  0.45506000  0.54422000  1.0
  C  C33  1  0.98422000  0.54492000  0.45579000  1.0
  C  C34  1  0.51887000  0.04414000  0.95535000  1.0
  C  C35  1  0.48112000  0.95586000  0.04466000  1.0
  C  C36  1  0.82793000  0.46810000  0.51942000  1.0
  C  C37  1  0.17204000  0.53189000  0.48058000  1.0
  C  C38  1  0.32777000  0.02148000  0.97185000  1.0
  C  C39  1  0.67223000  0.97852000  0.02815000  1.0
  C  C40  1  0.03013000  0.41031000  0.58889000  1.0
  C  C41  1  0.96984000  0.58967000  0.41112000  1.0
  C  C42  1  0.53625000  0.08826000  0.91035000  1.0
  C  C43  1  0.46374000  0.91175000  0.08965000  1.0
  C  C44  1  0.96098000  0.62791000  0.37235000  1.0
  C  C45  1  0.03902000  0.37209000  0.62766000  1.0
  C  C46  1  0.45272000  0.87394000  0.12865000  1.0
  C  C47  1  0.54726000  0.12606000  0.87135000  1.0
  C  C48  1  0.82155000  0.54753000  0.09647000  1.0
  C  C49  1  0.17848000  0.45246000  0.90353000  1.0
  C  C50  1  0.31934000  0.89778000  0.44343000  1.0
  C  C51  1  0.68065000  0.10222000  0.55656000  1.0
  C  C52  1  0.80495000  0.58634000  0.13734000  1.0
  C  C53  1  0.19507000  0.41366000  0.86266000  1.0
  C  C54  1  0.30169000  0.85777000  0.40345000  1.0
  C  C55  1  0.69831000  0.14223000  0.59654000  1.0
  C  C56  1  0.95253000  0.63213000  0.14260000  1.0
  C  C57  1  0.04749000  0.36787000  0.85740000  1.0
  C  C58  1  0.45199000  0.85855000  0.36440000  1.0
  C  C59  1  0.54801000  0.14146000  0.63560000  1.0
  C  C60  1  0.11303000  0.63846000  0.10698000  1.0
  C  C61  1  0.88699000  0.36153000  0.89302000  1.0
  C  C62  1  0.61492000  0.89935000  0.36564000  1.0
  C  C63  1  0.38508000  0.10066000  0.63435000  1.0
  C  C64  1  0.12586000  0.60170000  0.06555000  1.0
  C  C65  1  0.87417000  0.39830000  0.93446000  1.0
  C  C66  1  0.62713000  0.94089000  0.40356000  1.0
  C  C67  1  0.37288000  0.05911000  0.59644000  1.0
  C  C68  1  0.98097000  0.55493000  0.05930000  1.0
  C  C69  1  0.01907000  0.44506000  0.94071000  1.0
  C  C70  1  0.48030000  0.94095000  0.44379000  1.0
  C  C71  1  0.51970000  0.05905000  0.55621000  1.0
  C  C72  1  0.99408000  0.51658000  0.01797000  1.0
  C  C73  1  0.00598000  0.48340000  0.98205000  1.0
  C  C74  1  0.49346000  0.98203000  0.48308000  1.0
  C  C75  1  0.50651000  0.01797000  0.51692000  1.0
  Cl  Cl76  1  0.64993000  0.48963000  0.09045000  1.0
  Cl  Cl77  1  0.35008000  0.51038000  0.90955000  1.0
  Cl  Cl78  1  0.14672000  0.89530000  0.49336000  1.0
  Cl  Cl79  1  0.85325000  0.10469000  0.50664000  1.0
  Cl  Cl80  1  0.60959000  0.57363000  0.18130000  1.0
  Cl  Cl81  1  0.39040000  0.42638000  0.81870000  1.0
  Cl  Cl82  1  0.10283000  0.80710000  0.40509000  1.0
  Cl  Cl83  1  0.89720000  0.19291000  0.59490000  1.0
  Cl  Cl84  1  0.32065000  0.61313000  0.02135000  1.0
  Cl  Cl85  1  0.67936000  0.38687000  0.97866000  1.0
  Cl  Cl86  1  0.82330000  0.99288000  0.40150000  1.0
  Cl  Cl87  1  0.17670000  0.00712000  0.59850000  1.0
  O  O88  1  0.61607000  0.81517000  0.19678000  1.0
  O  O89  1  0.38392000  0.18483000  0.80321000  1.0
  O  O90  1  0.12765000  0.69288000  0.30941000  1.0
  O  O91  1  0.87241000  0.30712000  0.69060000  1.0
  O  O92  1  0.28412000  0.80755000  0.29866000  1.0
  O  O93  1  0.71594000  0.19245000  0.70134000  1.0
  O  O94  1  0.77817000  0.69693000  0.19751000  1.0
  O  O95  1  0.22183000  0.30307000  0.80248000  1.0
  O  O96  1  0.27432000  0.80958000  0.19045000  1.0
  O  O97  1  0.72570000  0.19041000  0.80954000  1.0
  O  O98  1  0.78699000  0.68660000  0.30538000  1.0
  O  O99  1  0.21301000  0.31340000  0.69462000  1.0
  O  O100  1  0.11904000  0.69050000  0.20228000  1.0
  O  O101  1  0.88099000  0.30949000  0.79772000  1.0
  O  O102  1  0.62285000  0.79999000  0.30538000  1.0
  O  O103  1  0.37713000  0.20001000  0.69461000  1.0
  O  O104  1  0.45204000  0.71236000  0.25079000  1.0
  O  O105  1  0.54798000  0.28764000  0.74921000  1.0
  O  O106  1  0.94972000  0.78859000  0.24724000  1.0
  O  O107  1  0.05030000  0.21141000  0.75276000  1.0
