# generated using pymatgen
data_ZnH22C24N2O5
_symmetry_space_group_name_H-M   'P 1'
_cell_length_a   8.91931000
_cell_length_b   10.18470000
_cell_length_c   12.96410000
_cell_angle_alpha   104.00200000
_cell_angle_beta   93.90150000
_cell_angle_gamma   95.89240000
_symmetry_Int_Tables_number   1
_chemical_formula_structural   ZnH22C24N2O5
_chemical_formula_sum   'Zn2 H44 C48 N4 O10'
_cell_volume   1131.36089802
_cell_formula_units_Z   2
loop_
 _symmetry_equiv_pos_site_id
 _symmetry_equiv_pos_as_xyz
  1  'x, y, z'
loop_
 _atom_site_type_symbol
 _atom_site_label
 _atom_site_symmetry_multiplicity
 _atom_site_fract_x
 _atom_site_fract_y
 _atom_site_fract_z
 _atom_site_occupancy
  Zn  Zn0  1  0.54608000  0.75295000  0.68403000  1.0
  Zn  Zn1  1  0.45392000  0.24706000  0.31596000  1.0
  H  H2  1  0.55372000  0.64889000  0.46190000  1.0
  H  H3  1  0.44626000  0.35111000  0.53810000  1.0
  H  H4  1  0.57390000  0.81181000  0.49919000  1.0
  H  H5  1  0.42607000  0.18820000  0.50080000  1.0
  H  H6  1  0.51624000  0.25843000  0.67328000  1.0
  H  H7  1  0.48374000  0.74157000  0.32672000  1.0
  H  H8  1  0.91844000  0.09462000  0.75184000  1.0
  H  H9  1  0.08155000  0.90538000  0.24815000  1.0
  H  H10  1  0.93314000  0.52559000  0.76971000  1.0
  H  H11  1  0.06685000  0.47441000  0.23029000  1.0
  H  H12  1  0.32378000  0.42632000  0.74674000  1.0
  H  H13  1  0.67623000  0.57365000  0.25325000  1.0
  H  H14  1  0.15805000  0.49315000  0.71111000  1.0
  H  H15  1  0.84195000  0.50683000  0.28888000  1.0
  H  H16  1  0.19309000  0.32795000  0.64094000  1.0
  H  H17  1  0.80690000  0.67202000  0.35905000  1.0
  H  H18  1  0.13777000  0.15483000  0.86244000  1.0
  H  H19  1  0.86222000  0.84517000  0.13756000  1.0
  H  H20  1  0.30757000  0.22557000  0.82142000  1.0
  H  H21  1  0.69242000  0.77441000  0.17858000  1.0
  H  H22  1  0.16462000  0.12790000  0.72426000  1.0
  H  H23  1  0.83537000  0.87209000  0.27574000  1.0
  H  H24  1  0.09602000  0.39206000  0.97230000  1.0
  H  H25  1  0.90398000  0.60795000  0.02770000  1.0
  H  H26  1  0.11248000  0.53346000  0.91441000  1.0
  H  H27  1  0.88752000  0.46654000  0.08558000  1.0
  H  H28  1  0.27459000  0.45284000  0.93656000  1.0
  H  H29  1  0.72541000  0.54717000  0.06344000  1.0
  H  H30  1  0.30388000  0.67372000  0.48630000  1.0
  H  H31  1  0.69611000  0.32625000  0.51370000  1.0
  H  H32  1  0.02816000  0.68740000  0.45423000  1.0
  H  H33  1  0.97182000  0.31257000  0.54577000  1.0
  H  H34  1  0.87983000  0.76776000  0.61134000  1.0
  H  H35  1  0.12017000  0.23223000  0.38868000  1.0
  H  H36  1  0.88153000  0.84576000  0.81118000  1.0
  H  H37  1  0.11848000  0.15424000  0.18883000  1.0
  H  H38  1  0.02067000  0.88854000  0.99211000  1.0
  H  H39  1  0.97935000  0.11148000  0.00790000  1.0
  H  H40  1  0.26771000  0.90358000  0.10544000  1.0
  H  H41  1  0.73232000  0.09646000  0.89457000  1.0
  H  H42  1  0.53940000  0.86611000  0.11280000  1.0
  H  H43  1  0.46063000  0.13391000  0.88720000  1.0
  H  H44  1  0.65746000  0.78831000  0.94014000  1.0
  H  H45  1  0.34255000  0.21169000  0.05986000  1.0
  C  C46  1  0.71866000  0.40413000  0.71861000  1.0
  C  C47  1  0.28134000  0.59588000  0.28139000  1.0
  C  C48  1  0.63688000  0.27460000  0.69888000  1.0
  C  C49  1  0.36312000  0.72540000  0.30112000  1.0
  C  C50  1  0.70936000  0.16415000  0.71139000  1.0
  C  C51  1  0.29064000  0.83586000  0.28860000  1.0
  C  C52  1  0.86493000  0.18373000  0.74447000  1.0
  C  C53  1  0.13507000  0.81628000  0.25553000  1.0
  C  C54  1  0.94926000  0.31285000  0.76664000  1.0
  C  C55  1  0.05074000  0.68714000  0.23336000  1.0
  C  C56  1  0.87286000  0.42302000  0.75436000  1.0
  C  C57  1  0.12715000  0.57698000  0.24563000  1.0
  C  C58  1  0.64167000  0.51740000  0.69284000  1.0
  C  C59  1  0.35832000  0.48260000  0.30716000  1.0
  C  C60  1  0.61739000  0.02612000  0.68700000  1.0
  C  C61  1  0.38260000  0.97388000  0.31300000  1.0
  C  C62  1  0.11980000  0.33612000  0.80020000  1.0
  C  C63  1  0.88018000  0.66388000  0.19980000  1.0
  C  C64  1  0.20262000  0.39962000  0.72016000  1.0
  C  C65  1  0.79737000  0.60036000  0.27983000  1.0
  C  C66  1  0.18449000  0.20283000  0.80215000  1.0
  C  C67  1  0.81549000  0.79717000  0.19786000  1.0
  C  C68  1  0.15204000  0.43431000  0.91244000  1.0
  C  C69  1  0.84796000  0.56568000  0.08755000  1.0
  C  C70  1  0.23719000  0.70639000  0.55289000  1.0
  C  C71  1  0.76281000  0.29359000  0.44712000  1.0
  C  C72  1  0.08174000  0.71515000  0.53573000  1.0
  C  C73  1  0.91826000  0.28483000  0.46428000  1.0
  C  C74  1  0.00058000  0.75927000  0.62216000  1.0
  C  C75  1  0.99941000  0.24072000  0.37786000  1.0
  C  C76  1  0.07623000  0.79159000  0.72633000  1.0
  C  C77  1  0.92377000  0.20841000  0.27368000  1.0
  C  C78  1  0.00136000  0.83458000  0.82112000  1.0
  C  C79  1  0.99865000  0.16541000  0.17889000  1.0
  C  C80  1  0.07830000  0.85845000  0.92005000  1.0
  C  C81  1  0.92173000  0.14157000  0.07996000  1.0
  C  C82  1  0.23593000  0.84366000  0.93231000  1.0
  C  C83  1  0.76409000  0.15636000  0.06769000  1.0
  C  C84  1  0.32082000  0.86759000  0.03229000  1.0
  C  C85  1  0.67920000  0.13244000  0.96771000  1.0
  C  C86  1  0.47185000  0.84741000  0.03640000  1.0
  C  C87  1  0.52817000  0.15261000  0.96359000  1.0
  C  C88  1  0.53871000  0.80576000  0.94054000  1.0
  C  C89  1  0.46131000  0.19425000  0.05946000  1.0
  C  C90  1  0.31367000  0.80353000  0.84012000  1.0
  C  C91  1  0.68634000  0.19648000  0.15988000  1.0
  C  C92  1  0.23288000  0.77750000  0.73582000  1.0
  C  C93  1  0.76712000  0.22250000  0.26418000  1.0
  N  N94  1  0.31104000  0.73764000  0.64986000  1.0
  N  N95  1  0.68895000  0.26235000  0.35015000  1.0
  N  N96  1  0.46202000  0.78609000  0.84529000  1.0
  N  N97  1  0.53800000  0.21392000  0.15471000  1.0
  O  O98  1  0.60033000  0.73049000  0.52020000  1.0
  O  O99  1  0.39964000  0.26952000  0.47979000  1.0
  O  O100  1  0.70256000  0.64044000  0.73306000  1.0
  O  O101  1  0.29744000  0.35956000  0.26693000  1.0
  O  O102  1  0.51966000  0.48975000  0.63099000  1.0
  O  O103  1  0.48034000  0.51024000  0.36901000  1.0
  O  O104  1  0.48936000  0.00759000  0.63614000  1.0
  O  O105  1  0.51062000  0.99241000  0.36388000  1.0
  O  O106  1  0.67974000  0.93370000  0.72255000  1.0
  O  O107  1  0.32028000  0.06630000  0.27744000  1.0
