# generated using pymatgen
data_LuH18C15(NO2)4
_symmetry_space_group_name_H-M   'P 1'
_cell_length_a   8.25648000
_cell_length_b   10.25660000
_cell_length_c   11.43890000
_cell_angle_alpha   113.82500000
_cell_angle_beta   100.54000000
_cell_angle_gamma   98.72150000
_symmetry_Int_Tables_number   1
_chemical_formula_structural   LuH18C15(NO2)4
_chemical_formula_sum   'Lu2 H36 C30 N8 O16'
_cell_volume   843.35039690
_cell_formula_units_Z   2
loop_
 _symmetry_equiv_pos_site_id
 _symmetry_equiv_pos_as_xyz
  1  'x, y, z'
loop_
 _atom_site_type_symbol
 _atom_site_label
 _atom_site_symmetry_multiplicity
 _atom_site_fract_x
 _atom_site_fract_y
 _atom_site_fract_z
 _atom_site_occupancy
  Lu  Lu0  1  0.86571000  0.09583000  0.15889000  1.0
  Lu  Lu1  1  0.13429000  0.90416000  0.84110000  1.0
  H  H2  1  0.59127000  0.99497000  0.90578000  1.0
  H  H3  1  0.40873000  0.00504000  0.09422000  1.0
  H  H4  1  0.74140000  0.92035000  0.86999000  1.0
  H  H5  1  0.25861000  0.07967000  0.13002000  1.0
  H  H6  1  0.86880000  0.92814000  0.60012000  1.0
  H  H7  1  0.13119000  0.07185000  0.39986000  1.0
  H  H8  1  0.88518000  0.94109000  0.45818000  1.0
  H  H9  1  0.11482000  0.05891000  0.54180000  1.0
  H  H10  1  0.10769000  0.68409000  0.33405000  1.0
  H  H11  1  0.89232000  0.31592000  0.66597000  1.0
  H  H12  1  0.03669000  0.80846000  0.28734000  1.0
  H  H13  1  0.96330000  0.19153000  0.71266000  1.0
  H  H14  1  0.09667000  0.53196000  0.44209000  1.0
  H  H15  1  0.90332000  0.46804000  0.55791000  1.0
  H  H16  1  0.20989000  0.70917000  0.55151000  1.0
  H  H17  1  0.79011000  0.29082000  0.44848000  1.0
  H  H18  1  0.34669000  0.00629000  0.29677000  1.0
  H  H19  1  0.65332000  0.99367000  0.70325000  1.0
  H  H20  1  0.93976000  0.56846000  0.81665000  1.0
  H  H21  1  0.06024000  0.43154000  0.18333000  1.0
  H  H22  1  0.47977000  0.23589000  0.37083000  1.0
  H  H23  1  0.52023000  0.76414000  0.62919000  1.0
  H  H24  1  0.82847000  0.46745000  0.29171000  1.0
  H  H25  1  0.17153000  0.53256000  0.70829000  1.0
  H  H26  1  0.57389000  0.65651000  0.18882000  1.0
  H  H27  1  0.42610000  0.34350000  0.81119000  1.0
  H  H28  1  0.73928000  0.66383000  0.31692000  1.0
  H  H29  1  0.26073000  0.33619000  0.68308000  1.0
  H  H30  1  0.52092000  0.62234000  0.32016000  1.0
  H  H31  1  0.47909000  0.37766000  0.67985000  1.0
  H  H32  1  0.38896000  0.42586000  0.02971000  1.0
  H  H33  1  0.61106000  0.57414000  0.97032000  1.0
  H  H34  1  0.34266000  0.32961000  0.12338000  1.0
  H  H35  1  0.65736000  0.67042000  0.87663000  1.0
  H  H36  1  0.45974000  0.26129000  0.00549000  1.0
  H  H37  1  0.54026000  0.73872000  0.99451000  1.0
  C  C38  1  0.67294000  0.02013000  0.30763000  1.0
  C  C39  1  0.32702000  0.97986000  0.69234000  1.0
  C  C40  1  0.58434000  0.99718000  0.40240000  1.0
  C  C41  1  0.41564000  0.00280000  0.59759000  1.0
  C  C42  1  0.41357000  0.00167000  0.38559000  1.0
  C  C43  1  0.58641000  0.99830000  0.61441000  1.0
  C  C44  1  0.67291000  0.99024000  0.51797000  1.0
  C  C45  1  0.32706000  0.00974000  0.48201000  1.0
  C  C46  1  0.96202000  0.79011000  0.04172000  1.0
  C  C47  1  0.03798000  0.20989000  0.95829000  1.0
  C  C48  1  0.98142000  0.64280000  0.02581000  1.0
  C  C49  1  0.01858000  0.35721000  0.97419000  1.0
  C  C50  1  0.96642000  0.53708000  0.89705000  1.0
  C  C51  1  0.03359000  0.46293000  0.10294000  1.0
  C  C52  1  0.01569000  0.60605000  0.13380000  1.0
  C  C53  1  0.98433000  0.39397000  0.86621000  1.0
  C  C54  1  0.17672000  0.29165000  0.33595000  1.0
  C  C55  1  0.82329000  0.70833000  0.66405000  1.0
  C  C56  1  0.34103000  0.40148000  0.41828000  1.0
  C  C57  1  0.65898000  0.59851000  0.58172000  1.0
  C  C58  1  0.49017000  0.35250000  0.42760000  1.0
  C  C59  1  0.50985000  0.64750000  0.57241000  1.0
  C  C60  1  0.34996000  0.55424000  0.49137000  1.0
  C  C61  1  0.65005000  0.44575000  0.50864000  1.0
  C  C62  1  0.71540000  0.38974000  0.21258000  1.0
  C  C63  1  0.28461000  0.61029000  0.78743000  1.0
  C  C64  1  0.60801000  0.60767000  0.25639000  1.0
  C  C65  1  0.39200000  0.39235000  0.74363000  1.0
  C  C66  1  0.43803000  0.36144000  0.07800000  1.0
  C  C67  1  0.56200000  0.63857000  0.92202000  1.0
  N  N68  1  0.83736000  0.97419000  0.53808000  1.0
  N  N69  1  0.16261000  0.02578000  0.46189000  1.0
  N  N70  1  0.02940000  0.70056000  0.26387000  1.0
  N  N71  1  0.97060000  0.29943000  0.73614000  1.0
  N  N72  1  0.20906000  0.60995000  0.47921000  1.0
  N  N73  1  0.79094000  0.39003000  0.52078000  1.0
  N  N74  1  0.59584000  0.45155000  0.17967000  1.0
  N  N75  1  0.40418000  0.54848000  0.82034000  1.0
  O  O76  1  0.59632000  0.98525000  0.18711000  1.0
  O  O77  1  0.40367000  0.01476000  0.81285000  1.0
  O  O78  1  0.83226000  0.08843000  0.35212000  1.0
  O  O79  1  0.16770000  0.91154000  0.64786000  1.0
  O  O80  1  0.91607000  0.87422000  0.14048000  1.0
  O  O81  1  0.08392000  0.12578000  0.85953000  1.0
  O  O82  1  0.98734000  0.82876000  0.95197000  1.0
  O  O83  1  0.01268000  0.17122000  0.04803000  1.0
  O  O84  1  0.17087000  0.15476000  0.26728000  1.0
  O  O85  1  0.82910000  0.84521000  0.73270000  1.0
  O  O86  1  0.03549000  0.32950000  0.33205000  1.0
  O  O87  1  0.96455000  0.67053000  0.66798000  1.0
  O  O88  1  0.70277000  0.25302000  0.15895000  1.0
  O  O89  1  0.29722000  0.74700000  0.84105000  1.0
  O  O90  1  0.69310000  0.97061000  0.94447000  1.0
  O  O91  1  0.30690000  0.02940000  0.05553000  1.0
