# generated using pymatgen
data_CaCuH6C14(NO4)2
_symmetry_space_group_name_H-M   'P 1'
_cell_length_a   4.96710000
_cell_length_b   9.59129000
_cell_length_c   15.32370000
_cell_angle_alpha   90.00000000
_cell_angle_beta   90.00000000
_cell_angle_gamma   104.31700000
_symmetry_Int_Tables_number   1
_chemical_formula_structural   CaCuH6C14(NO4)2
_chemical_formula_sum   'Ca2 Cu2 H12 C28 N4 O16'
_cell_volume   707.36167954
_cell_formula_units_Z   2
loop_
 _symmetry_equiv_pos_site_id
 _symmetry_equiv_pos_as_xyz
  1  'x, y, z'
loop_
 _atom_site_type_symbol
 _atom_site_label
 _atom_site_symmetry_multiplicity
 _atom_site_fract_x
 _atom_site_fract_y
 _atom_site_fract_z
 _atom_site_occupancy
  Ca  Ca0  1  0.00000000  0.00000000  0.00000000  1.0
  Ca  Ca1  1  0.00000000  0.50000000  0.50000000  1.0
  Cu  Cu2  1  0.50000000  0.00000000  0.50000000  1.0
  Cu  Cu3  1  0.50000000  0.50000000  0.00000000  1.0
  H  H4  1  0.78830000  0.77146000  0.17291000  1.0
  H  H5  1  0.21170000  0.72854000  0.67291000  1.0
  H  H6  1  0.21170000  0.22854000  0.82709000  1.0
  H  H7  1  0.78830000  0.27146000  0.32709000  1.0
  H  H8  1  0.96063000  0.70611000  0.31998000  1.0
  H  H9  1  0.03937000  0.79389000  0.81999000  1.0
  H  H10  1  0.03937000  0.29389000  0.68002000  1.0
  H  H11  1  0.96063000  0.20611000  0.18001000  1.0
  H  H12  1  0.33193000  0.03185000  0.30972000  1.0
  H  H13  1  0.66807000  0.46815000  0.80972000  1.0
  H  H14  1  0.66807000  0.96815000  0.69028000  1.0
  H  H15  1  0.33193000  0.53185000  0.19028000  1.0
  C  C16  1  0.54643000  0.90500000  0.23032000  1.0
  C  C17  1  0.45357000  0.59500000  0.73032000  1.0
  C  C18  1  0.45357000  0.09500000  0.76968000  1.0
  C  C19  1  0.54643000  0.40500000  0.26968000  1.0
  C  C20  1  0.74450000  0.84049000  0.38900000  1.0
  C  C21  1  0.25549000  0.65951000  0.88900000  1.0
  C  C22  1  0.25550000  0.15951000  0.61100000  1.0
  C  C23  1  0.74451000  0.34049000  0.11100000  1.0
  C  C24  1  0.47115000  0.96017000  0.30849000  1.0
  C  C25  1  0.52885000  0.53983000  0.80849000  1.0
  C  C26  1  0.52885000  0.03983000  0.69151000  1.0
  C  C27  1  0.47115000  0.46017000  0.19151000  1.0
  C  C28  1  0.82256000  0.77814000  0.31428000  1.0
  C  C29  1  0.17744000  0.72186000  0.81428000  1.0
  C  C30  1  0.17744000  0.22186000  0.68572000  1.0
  C  C31  1  0.82256000  0.27814000  0.18572000  1.0
  C  C32  1  0.72541000  0.81293000  0.23378000  1.0
  C  C33  1  0.27458000  0.68707000  0.73378000  1.0
  C  C34  1  0.27458000  0.18707000  0.76622000  1.0
  C  C35  1  0.72542000  0.31293000  0.26622000  1.0
  C  C36  1  0.44923000  0.94906000  0.14334000  1.0
  C  C37  1  0.55077000  0.55094000  0.64334000  1.0
  C  C38  1  0.55077000  0.05094000  0.85666000  1.0
  C  C39  1  0.44923000  0.44906000  0.35666000  1.0
  C  C40  1  0.84779000  0.82043000  0.47927000  1.0
  C  C41  1  0.15221000  0.67958000  0.97927000  1.0
  C  C42  1  0.15222000  0.17958000  0.52073000  1.0
  C  C43  1  0.84779000  0.32042000  0.02073000  1.0
  N  N44  1  0.57249000  0.92963000  0.38519000  1.0
  N  N45  1  0.42751000  0.57037000  0.88520000  1.0
  N  N46  1  0.42751000  0.07037000  0.61480000  1.0
  N  N47  1  0.57249000  0.42963000  0.11481000  1.0
  O  O48  1  0.75605000  0.88680000  0.54116000  1.0
  O  O49  1  0.24395000  0.61320000  0.04116000  1.0
  O  O50  1  0.24395000  0.11320000  0.45884000  1.0
  O  O51  1  0.75605000  0.38680000  0.95884000  1.0
  O  O52  1  0.23207000  0.99633000  0.14114000  1.0
  O  O53  1  0.76793000  0.50367000  0.64114000  1.0
  O  O54  1  0.76793000  0.00367000  0.85886000  1.0
  O  O55  1  0.23207000  0.49633000  0.35887000  1.0
  O  O56  1  0.02093000  0.74632000  0.49015000  1.0
  O  O57  1  0.97907000  0.75368000  0.99015000  1.0
  O  O58  1  0.97908000  0.25368000  0.50985000  1.0
  O  O59  1  0.02093000  0.24632000  0.00985000  1.0
  O  O60  1  0.59787000  0.93511000  0.07849000  1.0
  O  O61  1  0.40213000  0.56489000  0.57849000  1.0
  O  O62  1  0.40214000  0.06489000  0.92151000  1.0
  O  O63  1  0.59786000  0.43511000  0.42151000  1.0
