# generated using pymatgen
data_Al2H10C24O13
_symmetry_space_group_name_H-M   'P 1'
_cell_length_a   6.67109000
_cell_length_b   18.40000000
_cell_length_c   20.40690000
_cell_angle_alpha   87.40740000
_cell_angle_beta   89.99990000
_cell_angle_gamma   89.99800000
_symmetry_Int_Tables_number   1
_chemical_formula_structural   Al2H10C24O13
_chemical_formula_sum   'Al4 H20 C48 O26'
_cell_volume   2502.34333016
_cell_formula_units_Z   2
loop_
 _symmetry_equiv_pos_site_id
 _symmetry_equiv_pos_as_xyz
  1  'x, y, z'
loop_
 _atom_site_type_symbol
 _atom_site_label
 _atom_site_symmetry_multiplicity
 _atom_site_fract_x
 _atom_site_fract_y
 _atom_site_fract_z
 _atom_site_occupancy
  Al  Al0  1  0.93170000  0.49779000  0.50330000  1.0
  Al  Al1  1  0.43171000  0.50221000  0.49671000  1.0
  Al  Al2  1  0.31476000  0.00221000  0.99607000  1.0
  Al  Al3  1  0.81476000  0.99779000  0.00393000  1.0
  H  H4  1  0.80153000  0.40440000  0.77767000  1.0
  H  H5  1  0.30158000  0.59561000  0.22232000  1.0
  H  H6  1  0.23833000  0.14665000  0.81679000  1.0
  H  H7  1  0.73830000  0.85335000  0.18321000  1.0
  H  H8  1  0.32524000  0.15022000  0.72449000  1.0
  H  H9  1  0.82519000  0.84979000  0.27551000  1.0
  H  H10  1  0.48746000  0.16738000  0.61661000  1.0
  H  H11  1  0.98738000  0.83263000  0.38340000  1.0
  H  H12  1  0.95221000  0.41720000  0.67088000  1.0
  H  H13  1  0.45223000  0.58280000  0.32911000  1.0
  H  H14  1  0.79061000  0.17100000  0.98095000  1.0
  H  H15  1  0.29063000  0.82901000  0.01904000  1.0
  H  H16  1  0.70988000  0.38298000  0.86077000  1.0
  H  H17  1  0.20996000  0.61702000  0.13922000  1.0
  H  H18  1  0.45217000  0.32939000  0.52199000  1.0
  H  H19  1  0.95214000  0.67062000  0.47801000  1.0
  H  H20  1  0.66733000  0.46472000  0.58132000  1.0
  H  H21  1  0.16733000  0.53524000  0.41867000  1.0
  H  H22  1  0.58002000  0.03097000  0.91714000  1.0
  H  H23  1  0.08002000  0.96905000  0.08286000  1.0
  C  C24  1  0.68598000  0.41483000  0.41258000  1.0
  C  C25  1  0.18601000  0.58517000  0.58742000  1.0
  C  C26  1  0.68791000  0.60974000  0.42823000  1.0
  C  C27  1  0.18791000  0.39025000  0.57178000  1.0
  C  C28  1  0.85104000  0.29190000  0.86844000  1.0
  C  C29  1  0.35107000  0.70810000  0.13155000  1.0
  C  C30  1  0.02943000  0.17828000  0.88895000  1.0
  C  C31  1  0.52943000  0.82172000  0.11104000  1.0
  C  C32  1  0.35660000  0.27256000  0.59558000  1.0
  C  C33  1  0.85655000  0.72744000  0.40443000  1.0
  C  C34  1  0.38677000  0.20853000  0.63477000  1.0
  C  C35  1  0.88670000  0.79148000  0.36524000  1.0
  C  C36  1  0.29535000  0.19987000  0.69508000  1.0
  C  C37  1  0.79530000  0.80014000  0.30493000  1.0
  C  C38  1  0.16683000  0.25348000  0.71966000  1.0
  C  C39  1  0.66682000  0.74652000  0.28033000  1.0
  C  C40  1  0.12088000  0.31562000  0.67793000  1.0
  C  C41  1  0.62088000  0.68438000  0.32207000  1.0
  C  C42  1  0.08228000  0.24620000  0.78518000  1.0
  C  C43  1  0.58228000  0.75380000  0.21482000  1.0
  C  C44  1  0.94476000  0.30029000  0.80619000  1.0
  C  C45  1  0.44478000  0.69971000  0.19380000  1.0
  C  C46  1  0.90336000  0.36154000  0.76287000  1.0
  C  C47  1  0.40339000  0.63846000  0.23713000  1.0
  C  C48  1  0.98755000  0.36933000  0.70191000  1.0
  C  C49  1  0.48757000  0.63067000  0.29808000  1.0
  C  C50  1  0.12886000  0.18765000  0.82918000  1.0
  C  C51  1  0.62885000  0.81235000  0.17082000  1.0
  C  C52  1  0.88355000  0.22934000  0.90847000  1.0
  C  C53  1  0.38358000  0.77066000  0.09152000  1.0
  C  C54  1  0.21705000  0.32474000  0.61542000  1.0
  C  C55  1  0.71703000  0.67526000  0.38458000  1.0
  C  C56  1  0.06124000  0.86145000  0.86315000  1.0
  C  C57  1  0.56123000  0.13854000  0.13686000  1.0
  C  C58  1  0.08141000  0.81771000  0.82003000  1.0
  C  C59  1  0.58139000  0.18228000  0.17998000  1.0
  C  C60  1  0.10675000  0.77040000  0.77270000  1.0
  C  C61  1  0.60674000  0.22959000  0.22731000  1.0
  C  C62  1  0.13421000  0.72746000  0.72886000  1.0
  C  C63  1  0.63421000  0.27253000  0.27115000  1.0
  C  C64  1  0.16061000  0.68063000  0.68120000  1.0
  C  C65  1  0.66063000  0.31937000  0.31880000  1.0
  C  C66  1  0.18266000  0.63757000  0.63760000  1.0
  C  C67  1  0.68267000  0.36243000  0.36240000  1.0
  C  C68  1  0.55873000  0.88926000  0.06991000  1.0
  C  C69  1  0.05873000  0.11074000  0.93009000  1.0
  C  C70  1  0.55937000  0.08564000  0.08702000  1.0
  C  C71  1  0.05935000  0.91436000  0.91299000  1.0
  O  O72  1  0.51502000  0.58290000  0.44005000  1.0
  O  O73  1  0.01498000  0.41706000  0.55991000  1.0
  O  O74  1  0.85585000  0.43400000  0.43437000  1.0
  O  O75  1  0.35588000  0.56606000  0.56560000  1.0
  O  O76  1  0.85068000  0.58338000  0.45363000  1.0
  O  O77  1  0.35068000  0.41666000  0.54642000  1.0
  O  O78  1  0.01386000  0.56247000  0.57033000  1.0
  O  O79  1  0.51381000  0.43747000  0.42971000  1.0
  O  O80  1  0.67799000  0.49137000  0.53940000  1.0
  O  O81  1  0.17799000  0.50862000  0.46061000  1.0
  O  O82  1  0.73194000  0.06299000  0.07044000  1.0
  O  O83  1  0.23192000  0.93704000  0.92954000  1.0
  O  O84  1  0.39610000  0.91626000  0.04529000  1.0
  O  O85  1  0.89611000  0.08372000  0.95468000  1.0
  O  O86  1  0.39006000  0.06625000  0.06501000  1.0
  O  O87  1  0.89005000  0.93372000  0.93502000  1.0
  O  O88  1  0.23158000  0.08271000  0.93878000  1.0
  O  O89  1  0.73155000  0.91732000  0.06124000  1.0
  O  O90  1  0.56914000  0.00827000  0.96076000  1.0
  O  O91  1  0.06914000  0.99174000  0.03923000  1.0
  O  O92  1  0.77827000  0.22220000  0.96531000  1.0
  O  O93  1  0.27829000  0.77780000  0.03468000  1.0
  O  O94  1  0.72041000  0.34158000  0.89198000  1.0
  O  O95  1  0.22046000  0.65841000  0.10801000  1.0
  O  O96  1  0.46267000  0.27851000  0.53893000  1.0
  O  O97  1  0.96262000  0.72151000  0.46108000  1.0
