# generated using pymatgen
data_Ni2MoH72(C5N2)8
_symmetry_space_group_name_H-M   'P 1'
_cell_length_a   14.54700000
_cell_length_b   14.54750000
_cell_length_c   16.13000000
_cell_angle_alpha   106.34300000
_cell_angle_beta   101.64100000
_cell_angle_gamma   117.60900000
_symmetry_Int_Tables_number   1
_chemical_formula_structural   Ni2MoH72(C5N2)8
_chemical_formula_sum   'Ni4 Mo2 H144 C80 N32'
_cell_volume   2671.91837733
_cell_formula_units_Z   2
loop_
 _symmetry_equiv_pos_site_id
 _symmetry_equiv_pos_as_xyz
  1  'x, y, z'
loop_
 _atom_site_type_symbol
 _atom_site_label
 _atom_site_symmetry_multiplicity
 _atom_site_fract_x
 _atom_site_fract_y
 _atom_site_fract_z
 _atom_site_occupancy
  Ni  Ni0  1  0.00000000  0.50000000  0.50000000  1.0
  Ni  Ni1  1  0.00000000  0.99999000  0.99999000  1.0
  Ni  Ni2  1  0.00000000  0.50001000  0.00000000  1.0
  Ni  Ni3  1  0.49999000  0.50000000  0.49999000  1.0
  Mo  Mo4  1  0.84748000  0.59754000  0.74990000  1.0
  Mo  Mo5  1  0.15246000  0.40240000  0.25007000  1.0
  H  H6  1  0.88456000  0.33503000  0.33841000  1.0
  H  H7  1  0.88450000  0.59011000  0.50658000  1.0
  H  H8  1  0.87874000  0.37447000  0.06449000  1.0
  H  H9  1  0.86866000  0.37941000  0.82236000  1.0
  H  H10  1  0.73769000  0.37736000  0.42044000  1.0
  H  H11  1  0.70405000  0.31075000  0.29792000  1.0
  H  H12  1  0.87729000  0.49068000  0.31758000  1.0
  H  H13  1  0.77201000  0.51042000  0.34089000  1.0
  H  H14  1  0.03871000  0.67970000  0.41564000  1.0
  H  H15  1  0.04511000  0.77397000  0.61356000  1.0
  H  H16  1  0.12451000  0.86551000  0.56943000  1.0
  H  H17  1  0.86839000  0.68955000  0.36259000  1.0
  H  H18  1  0.99344000  0.82805000  0.43254000  1.0
  H  H19  1  0.89700000  0.76508000  0.48301000  1.0
  H  H20  1  0.66715000  0.21275000  0.43297000  1.0
  H  H21  1  0.72579000  0.14440000  0.47500000  1.0
  H  H22  1  0.79528000  0.29623000  0.53275000  1.0
  H  H23  1  0.77504000  0.13563000  0.25210000  1.0
  H  H24  1  0.70215000  0.04782000  0.30456000  1.0
  H  H25  1  0.65718000  0.13115000  0.27156000  1.0
  H  H26  1  0.73377000  0.35996000  0.89845000  1.0
  H  H27  1  0.69326000  0.25391000  0.94253000  1.0
  H  H28  1  0.85149000  0.23470000  0.92052000  1.0
  H  H29  1  0.74740000  0.19709000  0.81363000  1.0
  H  H30  1  0.01135000  0.29845000  0.87551000  1.0
  H  H31  1  0.03158000  0.46420000  0.78769000  1.0
  H  H32  1  0.09536000  0.38735000  0.76772000  1.0
  H  H33  1  0.83300000  0.14537000  0.73228000  1.0
  H  H34  1  0.95213000  0.19355000  0.70234000  1.0
  H  H35  1  0.86085000  0.24196000  0.68004000  1.0
  H  H36  1  0.77043000  0.35907000  0.15567000  1.0
  H  H37  1  0.71866000  0.45033000  0.17353000  1.0
  H  H38  1  0.65817000  0.33333333  0.06308000  1.0
  H  H39  1  0.68820000  0.46478000  0.98790000  1.0
  H  H40  1  0.75687000  0.58538000  0.09740000  1.0
  H  H41  1  0.82368000  0.58357000  0.01599000  1.0
  H  H42  1  0.99645000  0.04595000  0.16155000  1.0
  H  H43  1  0.08360000  0.87798000  0.99343000  1.0
  H  H44  1  0.31009000  0.31438000  0.43557000  1.0
  H  H45  1  0.55682000  0.54617000  0.67765000  1.0
  H  H46  1  0.95704000  0.81723000  0.07967000  1.0
  H  H47  1  0.01284000  0.90609000  0.20218000  1.0
  H  H48  1  0.17299000  0.05963000  0.18238000  1.0
  H  H49  1  0.16954000  0.93112000  0.15911000  1.0
  H  H50  1  0.26384000  0.12306000  0.08420000  1.0
  H  H51  1  0.16025000  0.93168000  0.88637000  1.0
  H  H52  1  0.29593000  0.05505000  0.93036000  1.0
  H  H53  1  0.32704000  0.00604000  0.13738000  1.0
  H  H54  1  0.39546000  0.06121000  0.06730000  1.0
  H  H55  1  0.28224000  0.91429000  0.01698000  1.0
  H  H56  1  0.77980000  0.73390000  0.06672000  1.0
  H  H57  1  0.66951000  0.75058000  0.02470000  1.0
  H  H58  1  0.76375000  0.76259000  0.96704000  1.0
  H  H59  1  0.88333000  0.02226000  0.24788000  1.0
  H  H60  1  0.74310000  0.89701000  0.19530000  1.0
  H  H61  1  0.85933000  0.88486000  0.22819000  1.0
  H  H62  1  0.46131000  0.33520000  0.60164000  1.0
  H  H63  1  0.31123000  0.25070000  0.55752000  1.0
  H  H64  1  0.31408000  0.43096000  0.57952000  1.0
  H  H65  1  0.38326000  0.43369000  0.68644000  1.0
  H  H66  1  0.42288000  0.63582000  0.62436000  1.0
  H  H67  1  0.67631000  0.74369000  0.71217000  1.0
  H  H68  1  0.61951000  0.82750000  0.73216000  1.0
  H  H69  1  0.41288000  0.60076000  0.76770000  1.0
  H  H70  1  0.49093000  0.74978000  0.79749000  1.0
  H  H71  1  0.56164000  0.68085000  0.81995000  1.0
  H  H72  1  0.20353000  0.11489000  0.34444000  1.0
  H  H73  1  0.27698000  0.04530000  0.32659000  1.0
  H  H74  1  0.27022000  0.09505000  0.43704000  1.0
  H  H75  1  0.47680000  0.20019000  0.51224000  1.0
  H  H76  1  0.48804000  0.15956000  0.40272000  1.0
  H  H77  1  0.56753000  0.30766000  0.48417000  1.0
  H  H78  1  0.11544000  0.66498000  0.66160000  1.0
  H  H79  1  0.11552000  0.40990000  0.49343000  1.0
  H  H80  1  0.12128000  0.62555000  0.93552000  1.0
  H  H81  1  0.13133000  0.62058000  0.17763000  1.0
  H  H82  1  0.26232000  0.62265000  0.57956000  1.0
  H  H83  1  0.29595000  0.68926000  0.70208000  1.0
  H  H84  1  0.12271000  0.50932000  0.68242000  1.0
  H  H85  1  0.22799000  0.48958000  0.65912000  1.0
  H  H86  1  0.96131000  0.32031000  0.58437000  1.0
  H  H87  1  0.95490000  0.22604000  0.38644000  1.0
  H  H88  1  0.87550000  0.13450000  0.43058000  1.0
  H  H89  1  0.13162000  0.31046000  0.63741000  1.0
  H  H90  1  0.00657000  0.17196000  0.56746000  1.0
  H  H91  1  0.10301000  0.23493000  0.51699000  1.0
  H  H92  1  0.33287000  0.78727000  0.56705000  1.0
  H  H93  1  0.27422000  0.85561000  0.52502000  1.0
  H  H94  1  0.20474000  0.70379000  0.46726000  1.0
  H  H95  1  0.22496000  0.86438000  0.74791000  1.0
  H  H96  1  0.29785000  0.95220000  0.69546000  1.0
  H  H97  1  0.34283000  0.86887000  0.72846000  1.0
  H  H98  1  0.26623000  0.64004000  0.10155000  1.0
  H  H99  1  0.30675000  0.74610000  0.05748000  1.0
  H  H100  1  0.14853000  0.76532000  0.07949000  1.0
  H  H101  1  0.25260000  0.80291000  0.18638000  1.0
  H  H102  1  0.98866000  0.70157000  0.12450000  1.0
  H  H103  1  0.96843000  0.53582000  0.21232000  1.0
  H  H104  1  0.90465000  0.61267000  0.23228000  1.0
  H  H105  1  0.16702000  0.85465000  0.26774000  1.0
  H  H106  1  0.04789000  0.80647000  0.29768000  1.0
  H  H107  1  0.13915000  0.75805000  0.31997000  1.0
  H  H108  1  0.22957000  0.64094000  0.84433000  1.0
  H  H109  1  0.28135000  0.54968000  0.82648000  1.0
  H  H110  1  0.34184000  0.66671000  0.93692000  1.0
  H  H111  1  0.31181000  0.53524000  0.01210000  1.0
  H  H112  1  0.24314000  0.41463000  0.90260000  1.0
  H  H113  1  0.17633000  0.41644000  0.98402000  1.0
  H  H114  1  0.00354000  0.95406000  0.83844000  1.0
  H  H115  1  0.91640000  0.12201000  0.00657000  1.0
  H  H116  1  0.68989000  0.68561000  0.56443000  1.0
  H  H117  1  0.44317000  0.45383000  0.32233000  1.0
  H  H118  1  0.04296000  0.18278000  0.92034000  1.0
  H  H119  1  0.98717000  0.09393000  0.79783000  1.0
  H  H120  1  0.82701000  0.94038000  0.81761000  1.0
  H  H121  1  0.83047000  0.06889000  0.84089000  1.0
  H  H122  1  0.73615000  0.87693000  0.91580000  1.0
  H  H123  1  0.83975000  0.06832000  0.11363000  1.0
  H  H124  1  0.70407000  0.94495000  0.06964000  1.0
  H  H125  1  0.67296000  0.99397000  0.86262000  1.0
  H  H126  1  0.60455000  0.93880000  0.93270000  1.0
  H  H127  1  0.71777000  0.08572000  0.98302000  1.0
  H  H128  1  0.22020000  0.26610000  0.93328000  1.0
  H  H129  1  0.33050000  0.24942000  0.97530000  1.0
  H  H130  1  0.23625000  0.23741000  0.03296000  1.0
  H  H131  1  0.11669000  0.97775000  0.75212000  1.0
  H  H132  1  0.25691000  0.10300000  0.80470000  1.0
  H  H133  1  0.14068000  0.11515000  0.77181000  1.0
  H  H134  1  0.53869000  0.66480000  0.39836000  1.0
  H  H135  1  0.68877000  0.74930000  0.44248000  1.0
  H  H136  1  0.68592000  0.56903000  0.42048000  1.0
  H  H137  1  0.61675000  0.56632000  0.31356000  1.0
  H  H138  1  0.57712000  0.36419000  0.37564000  1.0
  H  H139  1  0.32369000  0.25632000  0.28783000  1.0
  H  H140  1  0.38049000  0.17250000  0.26784000  1.0
  H  H141  1  0.58713000  0.39924000  0.23231000  1.0
  H  H142  1  0.50908000  0.25022000  0.20251000  1.0
  H  H143  1  0.43837000  0.31915000  0.18005000  1.0
  H  H144  1  0.79647000  0.88512000  0.65556000  1.0
  H  H145  1  0.72303000  0.95471000  0.67341000  1.0
  H  H146  1  0.72979000  0.90496000  0.56296000  1.0
  H  H147  1  0.52321000  0.79981000  0.48776000  1.0
  H  H148  1  0.51197000  0.84045000  0.59728000  1.0
  H  H149  1  0.43248000  0.69235000  0.51584000  1.0
  C  C150  1  0.90643000  0.58591000  0.87505000  1.0
  C  C151  1  0.77377000  0.37386000  0.36691000  1.0
  C  C152  1  0.83445000  0.49157000  0.36630000  1.0
  C  C153  1  0.99864000  0.69460000  0.46436000  1.0
  C  C154  1  0.08822000  0.77796000  0.56459000  1.0
  C  C155  1  0.81091000  0.23086000  0.39927000  1.0
  C  C156  1  0.93493000  0.74664000  0.43343000  1.0
  C  C157  1  0.74694000  0.22186000  0.46412000  1.0
  C  C158  1  0.73187000  0.13056000  0.30087000  1.0
  C  C159  1  0.76519000  0.32186000  0.93653000  1.0
  C  C160  1  0.81505000  0.26855000  0.88102000  1.0
  C  C161  1  0.97378000  0.32286000  0.82668000  1.0
  C  C162  1  0.06819000  0.42430000  0.81907000  1.0
  C  C163  1  0.82338000  0.48036000  0.09259000  1.0
  C  C164  1  0.90074000  0.22003000  0.72970000  1.0
  C  C165  1  0.73794000  0.40076000  0.12332000  1.0
  C  C166  1  0.77072000  0.53152000  0.04517000  1.0
  C  C167  1  0.90224000  0.52923000  0.65208000  1.0
  C  C168  1  0.76583000  0.41599000  0.71195000  1.0
  C  C169  1  0.88566000  0.71963000  0.69089000  1.0
  C  C170  1  0.71087000  0.53150000  0.62472000  1.0
  C  C171  1  0.00697000  0.90680000  0.13315000  1.0
  C  C172  1  0.12524000  0.96812000  0.13370000  1.0
  C  C173  1  0.23015000  0.03433000  0.03554000  1.0
  C  C174  1  0.21328000  0.02371000  0.93530000  1.0
  C  C175  1  0.83158000  0.91139000  0.10065000  1.0
  C  C176  1  0.31325000  0.00174000  0.06649000  1.0
  C  C177  1  0.75786000  0.78267000  0.03565000  1.0
  C  C178  1  0.82952000  0.93041000  0.19902000  1.0
  C  C179  1  0.38522000  0.32863000  0.56356000  1.0
  C  C180  1  0.38738000  0.43398000  0.61903000  1.0
  C  C181  1  0.49605000  0.64704000  0.67323000  1.0
  C  C182  1  0.60509000  0.74900000  0.68082000  1.0
  C  C183  1  0.38783000  0.23085000  0.40754000  1.0
  C  C184  1  0.49010000  0.67105000  0.77024000  1.0
  C  C185  1  0.27754000  0.11472000  0.37681000  1.0
  C  C186  1  0.48633000  0.22555000  0.45498000  1.0
  C  C187  1  0.87704000  0.75017000  0.84775000  1.0
  C  C188  1  0.70389000  0.55380000  0.78783000  1.0
  C  C189  1  0.02849000  0.69451000  0.80901000  1.0
  C  C190  1  0.09353000  0.41405000  0.12492000  1.0
  C  C191  1  0.22624000  0.62614000  0.63310000  1.0
  C  C192  1  0.16555000  0.50843000  0.63370000  1.0
  C  C193  1  0.00138000  0.30541000  0.53564000  1.0
  C  C194  1  0.91179000  0.22205000  0.43542000  1.0
  C  C195  1  0.18910000  0.76915000  0.60075000  1.0
  C  C196  1  0.06508000  0.25337000  0.56657000  1.0
  C  C197  1  0.25307000  0.77816000  0.53590000  1.0
  C  C198  1  0.26814000  0.86945000  0.69914000  1.0
  C  C199  1  0.23482000  0.67814000  0.06348000  1.0
  C  C200  1  0.18496000  0.73146000  0.11899000  1.0
  C  C201  1  0.02623000  0.67715000  0.17333000  1.0
  C  C202  1  0.93182000  0.57571000  0.18094000  1.0
  C  C203  1  0.17662000  0.51965000  0.90741000  1.0
  C  C204  1  0.09927000  0.77998000  0.27031000  1.0
  C  C205  1  0.26206000  0.59925000  0.87668000  1.0
  C  C206  1  0.22929000  0.46850000  0.95484000  1.0
  C  C207  1  0.09771000  0.47072000  0.34790000  1.0
  C  C208  1  0.23414000  0.58396000  0.28804000  1.0
  C  C209  1  0.11430000  0.28031000  0.30909000  1.0
  C  C210  1  0.28907000  0.46844000  0.37524000  1.0
  C  C211  1  0.99303000  0.09321000  0.86685000  1.0
  C  C212  1  0.87476000  0.03188000  0.86630000  1.0
  C  C213  1  0.76985000  0.96567000  0.96446000  1.0
  C  C214  1  0.78672000  0.97629000  0.06470000  1.0
  C  C215  1  0.16842000  0.08861000  0.89934000  1.0
  C  C216  1  0.68676000  0.99827000  0.93351000  1.0
  C  C217  1  0.24214000  0.21733000  0.96435000  1.0
  C  C218  1  0.17048000  0.06960000  0.80098000  1.0
  C  C219  1  0.61478000  0.67137000  0.43644000  1.0
  C  C220  1  0.61262000  0.56602000  0.38097000  1.0
  C  C221  1  0.50395000  0.35296000  0.32677000  1.0
  C  C222  1  0.39491000  0.25101000  0.31918000  1.0
  C  C223  1  0.61217000  0.76915000  0.59246000  1.0
  C  C224  1  0.50991000  0.32895000  0.22976000  1.0
  C  C225  1  0.72247000  0.88529000  0.62319000  1.0
  C  C226  1  0.51368000  0.77446000  0.54503000  1.0
  C  C227  1  0.12293000  0.24979000  0.15222000  1.0
  C  C228  1  0.29604000  0.44613000  0.21215000  1.0
  C  C229  1  0.97144000  0.30541000  0.19095000  1.0
  N  N230  1  0.85494000  0.34248000  0.39096000  1.0
  N  N231  1  0.92161000  0.58009000  0.45998000  1.0
  N  N232  1  0.85430000  0.41312000  0.02889000  1.0
  N  N233  1  0.90635000  0.35785000  0.86768000  1.0
  N  N234  1  0.93349000  0.49444000  0.59671000  1.0
  N  N235  1  0.72316000  0.31776000  0.69398000  1.0
  N  N236  1  0.90170000  0.78717000  0.65963000  1.0
  N  N237  1  0.94237000  0.57947000  0.94386000  1.0
  N  N238  1  0.95151000  0.96384000  0.10901000  1.0
  N  N239  1  0.12010000  0.96165000  0.03999000  1.0
  N  N240  1  0.38426000  0.32544000  0.47118000  1.0
  N  N241  1  0.49003000  0.53859000  0.63232000  1.0
  N  N242  1  0.89765000  0.83674000  0.90313000  1.0
  N  N243  1  0.62368000  0.52916000  0.80586000  1.0
  N  N244  1  0.12724000  0.74176000  0.84037000  1.0
  N  N245  1  0.63564000  0.49858000  0.55591000  1.0
  N  N246  1  0.14507000  0.65753000  0.60905000  1.0
  N  N247  1  0.07840000  0.41992000  0.54003000  1.0
  N  N248  1  0.14571000  0.58690000  0.97111000  1.0
  N  N249  1  0.09365000  0.64216000  0.13232000  1.0
  N  N250  1  0.06649000  0.50555000  0.40328000  1.0
  N  N251  1  0.27685000  0.68218000  0.30602000  1.0
  N  N252  1  0.09829000  0.21277000  0.34037000  1.0
  N  N253  1  0.05763000  0.42052000  0.05613000  1.0
  N  N254  1  0.04849000  0.03616000  0.89099000  1.0
  N  N255  1  0.87990000  0.03834000  0.96000000  1.0
  N  N256  1  0.61573000  0.67456000  0.52882000  1.0
  N  N257  1  0.50997000  0.46141000  0.36767000  1.0
  N  N258  1  0.10234000  0.16323000  0.09684000  1.0
  N  N259  1  0.37627000  0.47078000  0.19412000  1.0
  N  N260  1  0.87268000  0.25818000  0.15959000  1.0
  N  N261  1  0.36433000  0.50138000  0.44405000  1.0
