# generated using pymatgen
data_CuH14C18S(N2O3)2
_symmetry_space_group_name_H-M   'P 1'
_cell_length_a   10.97590000
_cell_length_b   11.94670000
_cell_length_c   17.52890000
_cell_angle_alpha   89.99990000
_cell_angle_beta   99.97050000
_cell_angle_gamma   89.99980000
_symmetry_Int_Tables_number   1
_chemical_formula_structural   CuH14C18S(N2O3)2
_chemical_formula_sum   'Cu4 H56 C72 S4 N16 O24'
_cell_volume   2263.77672526
_cell_formula_units_Z   4
loop_
 _symmetry_equiv_pos_site_id
 _symmetry_equiv_pos_as_xyz
  1  'x, y, z'
loop_
 _atom_site_type_symbol
 _atom_site_label
 _atom_site_symmetry_multiplicity
 _atom_site_fract_x
 _atom_site_fract_y
 _atom_site_fract_z
 _atom_site_occupancy
  Cu  Cu0  1  0.42358000  0.33832000  0.45611000  1.0
  Cu  Cu1  1  0.57642000  0.83832000  0.04390000  1.0
  Cu  Cu2  1  0.57641000  0.66168000  0.54389000  1.0
  Cu  Cu3  1  0.42359000  0.16168000  0.95611000  1.0
  H  H4  1  0.17465000  0.18825000  0.09137000  1.0
  H  H5  1  0.82536000  0.68825000  0.40863000  1.0
  H  H6  1  0.82535000  0.81175000  0.90863000  1.0
  H  H7  1  0.17465000  0.31175000  0.59137000  1.0
  H  H8  1  0.07553000  0.50519000  0.94720000  1.0
  H  H9  1  0.92447000  0.00520000  0.55279000  1.0
  H  H10  1  0.92447000  0.49481000  0.05279000  1.0
  H  H11  1  0.07553000  0.99480000  0.44721000  1.0
  H  H12  1  0.47210000  0.30238000  0.29602000  1.0
  H  H13  1  0.52790000  0.80238000  0.20399000  1.0
  H  H14  1  0.52790000  0.69762000  0.70398000  1.0
  H  H15  1  0.47210000  0.19762000  0.79601000  1.0
  H  H16  1  0.34239000  0.28844000  0.16331000  1.0
  H  H17  1  0.65762000  0.78843000  0.33669000  1.0
  H  H18  1  0.65762000  0.71157000  0.83669000  1.0
  H  H19  1  0.34237000  0.21156000  0.66331000  1.0
  H  H20  1  0.02280000  0.35416000  0.27006000  1.0
  H  H21  1  0.97720000  0.85417000  0.22993000  1.0
  H  H22  1  0.97720000  0.64583000  0.72993000  1.0
  H  H23  1  0.02280000  0.14583000  0.77007000  1.0
  H  H24  1  0.16472000  0.35425000  0.39898000  1.0
  H  H25  1  0.83527000  0.85425000  0.10102000  1.0
  H  H26  1  0.83528000  0.64575000  0.60102000  1.0
  H  H27  1  0.16473000  0.14575000  0.89898000  1.0
  H  H28  1  0.95664000  0.08285000  0.01943000  1.0
  H  H29  1  0.04335000  0.58285000  0.48057000  1.0
  H  H30  1  0.04335000  0.91715000  0.98056000  1.0
  H  H31  1  0.95664000  0.41715000  0.51944000  1.0
  H  H32  1  0.81703000  0.07912000  0.89110000  1.0
  H  H33  1  0.18297000  0.57911000  0.60890000  1.0
  H  H34  1  0.18297000  0.92089000  0.10890000  1.0
  H  H35  1  0.81703000  0.42089000  0.39110000  1.0
  H  H36  1  0.80381000  0.24733000  0.80560000  1.0
  H  H37  1  0.19619000  0.74732000  0.69440000  1.0
  H  H38  1  0.19619000  0.75268000  0.19440000  1.0
  H  H39  1  0.80381000  0.25268000  0.30560000  1.0
  H  H40  1  0.94447000  0.41003000  0.84355000  1.0
  H  H41  1  0.05554000  0.91003000  0.65645000  1.0
  H  H42  1  0.05554000  0.58998000  0.15645000  1.0
  H  H43  1  0.94447000  0.08998000  0.34355000  1.0
  H  H44  1  0.18199000  0.64165000  0.94243000  1.0
  H  H45  1  0.81801000  0.14165000  0.55757000  1.0
  H  H46  1  0.81801000  0.35835000  0.05757000  1.0
  H  H47  1  0.18199000  0.85835000  0.44244000  1.0
  H  H48  1  0.32741000  0.80287000  0.97144000  1.0
  H  H49  1  0.67258000  0.30287000  0.52856000  1.0
  H  H50  1  0.67259000  0.19712000  0.02856000  1.0
  H  H51  1  0.32741000  0.69713000  0.47144000  1.0
  H  H52  1  0.58107000  0.61197000  0.11883000  1.0
  H  H53  1  0.41893000  0.11197000  0.38117000  1.0
  H  H54  1  0.41893000  0.38803000  0.88117000  1.0
  H  H55  1  0.58107000  0.88802000  0.61883000  1.0
  H  H56  1  0.44728000  0.44034000  0.09475000  1.0
  H  H57  1  0.55272000  0.94034000  0.40525000  1.0
  H  H58  1  0.55272000  0.55966000  0.90525000  1.0
  H  H59  1  0.44728000  0.05966000  0.59475000  1.0
  C  C60  1  0.37169000  0.30954000  0.28719000  1.0
  C  C61  1  0.62831000  0.80955000  0.21281000  1.0
  C  C62  1  0.62831000  0.69045000  0.71281000  1.0
  C  C63  1  0.37169000  0.19045000  0.78719000  1.0
  C  C64  1  0.29934000  0.30418000  0.21378000  1.0
  C  C65  1  0.70067000  0.80419000  0.28622000  1.0
  C  C66  1  0.70067000  0.69581000  0.78622000  1.0
  C  C67  1  0.29933000  0.19581000  0.71378000  1.0
  C  C68  1  0.17147000  0.31981000  0.20697000  1.0
  C  C69  1  0.82854000  0.81982000  0.29303000  1.0
  C  C70  1  0.82854000  0.68019000  0.79303000  1.0
  C  C71  1  0.17146000  0.18018000  0.70697000  1.0
  C  C72  1  0.12156000  0.34004000  0.27381000  1.0
  C  C73  1  0.87844000  0.84004000  0.22619000  1.0
  C  C74  1  0.87844000  0.65996000  0.72619000  1.0
  C  C75  1  0.12156000  0.15996000  0.77381000  1.0
  C  C76  1  0.19920000  0.34055000  0.34515000  1.0
  C  C77  1  0.80080000  0.84056000  0.15485000  1.0
  C  C78  1  0.80081000  0.65945000  0.65485000  1.0
  C  C79  1  0.19920000  0.15944000  0.84515000  1.0
  C  C80  1  0.08445000  0.32223000  0.13119000  1.0
  C  C81  1  0.91555000  0.82223000  0.36881000  1.0
  C  C82  1  0.91555000  0.67777000  0.86880000  1.0
  C  C83  1  0.08445000  0.17777000  0.63120000  1.0
  C  C84  1  0.03062000  0.24532000  0.00235000  1.0
  C  C85  1  0.96938000  0.74533000  0.49765000  1.0
  C  C86  1  0.96937000  0.75468000  0.99765000  1.0
  C  C87  1  0.03062000  0.25468000  0.50236000  1.0
  C  C88  1  0.95520000  0.15278000  0.97935000  1.0
  C  C89  1  0.04480000  0.65278000  0.52065000  1.0
  C  C90  1  0.04479000  0.84722000  0.02065000  1.0
  C  C91  1  0.95520000  0.34722000  0.47935000  1.0
  C  C92  1  0.87551000  0.15170000  0.90810000  1.0
  C  C93  1  0.12449000  0.65170000  0.59190000  1.0
  C  C94  1  0.12449000  0.84830000  0.09190000  1.0
  C  C95  1  0.87551000  0.34830000  0.40810000  1.0
  C  C96  1  0.86882000  0.24585000  0.86025000  1.0
  C  C97  1  0.13118000  0.74585000  0.63975000  1.0
  C  C98  1  0.13118000  0.75416000  0.13974000  1.0
  C  C99  1  0.86882000  0.25415000  0.36026000  1.0
  C  C100  1  0.94605000  0.33737000  0.88133000  1.0
  C  C101  1  0.05395000  0.83737000  0.61868000  1.0
  C  C102  1  0.05395000  0.66263000  0.11867000  1.0
  C  C103  1  0.94605000  0.16263000  0.38133000  1.0
  C  C104  1  0.03022000  0.33687000  0.95135000  1.0
  C  C105  1  0.96979000  0.83688000  0.54865000  1.0
  C  C106  1  0.96978000  0.66313000  0.04865000  1.0
  C  C107  1  0.03022000  0.16312000  0.45135000  1.0
  C  C108  1  0.23321000  0.41995000  0.99854000  1.0
  C  C109  1  0.76679000  0.91994000  0.50146000  1.0
  C  C110  1  0.76679000  0.58006000  0.00146000  1.0
  C  C111  1  0.23321000  0.08006000  0.49854000  1.0
  C  C112  1  0.30419000  0.52697000  0.01659000  1.0
  C  C113  1  0.69581000  0.02697000  0.48341000  1.0
  C  C114  1  0.69580000  0.47303000  0.98341000  1.0
  C  C115  1  0.30420000  0.97303000  0.51660000  1.0
  C  C116  1  0.26914000  0.63040000  0.98224000  1.0
  C  C117  1  0.73086000  0.13040000  0.51776000  1.0
  C  C118  1  0.73086000  0.36960000  0.01776000  1.0
  C  C119  1  0.26914000  0.86960000  0.48224000  1.0
  C  C120  1  0.34906000  0.72110000  0.99790000  1.0
  C  C121  1  0.65093000  0.22109000  0.50210000  1.0
  C  C122  1  0.65094000  0.27891000  0.00209000  1.0
  C  C123  1  0.34906000  0.77891000  0.49790000  1.0
  C  C124  1  0.49134000  0.61439000  0.08082000  1.0
  C  C125  1  0.50866000  0.11439000  0.41918000  1.0
  C  C126  1  0.50865000  0.38561000  0.91918000  1.0
  C  C127  1  0.49134000  0.88561000  0.58082000  1.0
  C  C128  1  0.41689000  0.52013000  0.06796000  1.0
  C  C129  1  0.58311000  0.02012000  0.43204000  1.0
  C  C130  1  0.58311000  0.47988000  0.93205000  1.0
  C  C131  1  0.41690000  0.97988000  0.56796000  1.0
  S  S132  1  0.37549000  0.45086000  0.57479000  1.0
  S  S133  1  0.62451000  0.95086000  0.92521000  1.0
  S  S134  1  0.62451000  0.54914000  0.42520000  1.0
  S  S135  1  0.37549000  0.04914000  0.07479000  1.0
  N  N136  1  0.32228000  0.32577000  0.35150000  1.0
  N  N137  1  0.67772000  0.82578000  0.14850000  1.0
  N  N138  1  0.67772000  0.67422000  0.64850000  1.0
  N  N139  1  0.32228000  0.17422000  0.85150000  1.0
  N  N140  1  0.10328000  0.24660000  0.07779000  1.0
  N  N141  1  0.89672000  0.74660000  0.42220000  1.0
  N  N142  1  0.89672000  0.75340000  0.92220000  1.0
  N  N143  1  0.10328000  0.25340000  0.57780000  1.0
  N  N144  1  0.11008000  0.42934000  0.96940000  1.0
  N  N145  1  0.88993000  0.92935000  0.53060000  1.0
  N  N146  1  0.88992000  0.57066000  0.03060000  1.0
  N  N147  1  0.11008000  0.07066000  0.46940000  1.0
  N  N148  1  0.45917000  0.71243000  0.04517000  1.0
  N  N149  1  0.54083000  0.21242000  0.45483000  1.0
  N  N150  1  0.54083000  0.28758000  0.95483000  1.0
  N  N151  1  0.45917000  0.78757000  0.54517000  1.0
  O  O152  1  0.99848000  0.39282000  0.12218000  1.0
  O  O153  1  0.00152000  0.89282000  0.37782000  1.0
  O  O154  1  0.00152000  0.60718000  0.87782000  1.0
  O  O155  1  0.99847000  0.10718000  0.62218000  1.0
  O  O156  1  0.28772000  0.32900000  0.01119000  1.0
  O  O157  1  0.71229000  0.82900000  0.48882000  1.0
  O  O158  1  0.71228000  0.67100000  0.98882000  1.0
  O  O159  1  0.28772000  0.17100000  0.51119000  1.0
  O  O160  1  0.31357000  0.45667000  0.48961000  1.0
  O  O161  1  0.68643000  0.95667000  0.01039000  1.0
  O  O162  1  0.68642000  0.54333000  0.51039000  1.0
  O  O163  1  0.31358000  0.04333000  0.98961000  1.0
  O  O164  1  0.47529000  0.36318000  0.57183000  1.0
  O  O165  1  0.52471000  0.86318000  0.92817000  1.0
  O  O166  1  0.52471000  0.63682000  0.42817000  1.0
  O  O167  1  0.47529000  0.13682000  0.07183000  1.0
  O  O168  1  0.42943000  0.55931000  0.60139000  1.0
  O  O169  1  0.57057000  0.05931000  0.89861000  1.0
  O  O170  1  0.57057000  0.44069000  0.39861000  1.0
  O  O171  1  0.42943000  0.94069000  0.10139000  1.0
  O  O172  1  0.28568000  0.41354000  0.62304000  1.0
  O  O173  1  0.71432000  0.91355000  0.87696000  1.0
  O  O174  1  0.71432000  0.58645000  0.37696000  1.0
  O  O175  1  0.28568000  0.08645000  0.12304000  1.0
