# generated using pymatgen
data_Co3P4H30C14(NO5)4
_symmetry_space_group_name_H-M   'P 1'
_cell_length_a   9.36370000
_cell_length_b   9.58723000
_cell_length_c   9.71190000
_cell_angle_alpha   83.86630000
_cell_angle_beta   74.42030000
_cell_angle_gamma   66.89610000
_symmetry_Int_Tables_number   1
_chemical_formula_structural   Co3P4H30C14(NO5)4
_chemical_formula_sum   'Co3 P4 H30 C14 N4 O20'
_cell_volume   772.46306596
_cell_formula_units_Z   1
loop_
 _symmetry_equiv_pos_site_id
 _symmetry_equiv_pos_as_xyz
  1  'x, y, z'
loop_
 _atom_site_type_symbol
 _atom_site_label
 _atom_site_symmetry_multiplicity
 _atom_site_fract_x
 _atom_site_fract_y
 _atom_site_fract_z
 _atom_site_occupancy
  Co  Co0  1  1.00000000  0.00000000  0.50000000  1.0
  Co  Co1  1  0.44270000  0.29621000  0.45236000  1.0
  Co  Co2  1  0.55731000  0.70379000  0.54763000  1.0
  P  P3  1  0.77280000  0.11178000  0.28687000  1.0
  P  P4  1  0.22721000  0.88822000  0.71313000  1.0
  P  P5  1  0.73641000  0.34643000  0.49811000  1.0
  P  P6  1  0.26360000  0.65357000  0.50190000  1.0
  H  H7  1  0.53504000  0.50667000  0.33296000  1.0
  H  H8  1  0.46496000  0.49332000  0.66704000  1.0
  H  H9  1  0.95251000  0.17552000  0.75499000  1.0
  H  H10  1  0.04749000  0.82449000  0.24502000  1.0
  H  H11  1  0.92629000  0.55664000  0.10666000  1.0
  H  H12  1  0.07371000  0.44336000  0.89333000  1.0
  H  H13  1  0.86065000  0.55475000  0.30344000  1.0
  H  H14  1  0.13934000  0.44525000  0.69655000  1.0
  H  H15  1  0.12859000  0.28701000  0.11383000  1.0
  H  H16  1  0.87141000  0.71299000  0.88618000  1.0
  H  H17  1  0.05437000  0.28548000  0.30864000  1.0
  H  H18  1  0.94562000  0.71453000  0.69137000  1.0
  H  H19  1  0.04422000  0.12358000  0.98151000  1.0
  H  H20  1  0.95579000  0.87642000  0.01848000  1.0
  H  H21  1  0.72057000  0.44058000  0.75885000  1.0
  H  H22  1  0.27943000  0.55942000  0.24116000  1.0
  H  H23  1  0.65380000  0.55143000  0.03175000  1.0
  H  H24  1  0.34620000  0.44857000  0.96826000  1.0
  H  H25  1  0.70455000  0.03200000  0.55634000  1.0
  H  H26  1  0.29545000  0.96801000  0.44366000  1.0
  H  H27  1  0.73531000  0.06275000  0.70051000  1.0
  H  H28  1  0.26469000  0.93725000  0.29949000  1.0
  H  H29  1  0.34887000  0.08262000  0.60897000  1.0
  H  H30  1  0.65112000  0.91739000  0.39102000  1.0
  H  H31  1  0.36860000  0.18952000  0.70893000  1.0
  H  H32  1  0.63140000  0.81048000  0.29106000  1.0
  H  H33  1  0.33668000  0.14922000  0.30171000  1.0
  H  H34  1  0.66332000  0.85079000  0.69828000  1.0
  H  H35  1  0.49901000  0.17186000  0.21751000  1.0
  H  H36  1  0.50100000  0.82815000  0.78249000  1.0
  C  C37  1  0.74236000  0.31532000  0.30779000  1.0
  C  C38  1  0.25765000  0.68468000  0.69222000  1.0
  C  C39  1  0.86340000  0.35971000  0.19243000  1.0
  C  C40  1  0.13660000  0.64029000  0.80757000  1.0
  C  C41  1  0.91077000  0.49121000  0.20432000  1.0
  C  C42  1  0.08922000  0.50879000  0.79567000  1.0
  C  C43  1  0.02861000  0.33090000  0.20674000  1.0
  C  C44  1  0.97138000  0.66911000  0.79326000  1.0
  C  C45  1  0.94646000  0.22449000  0.96048000  1.0
  C  C46  1  0.05355000  0.77551000  0.03952000  1.0
  C  C47  1  0.77275000  0.39077000  0.84786000  1.0
  C  C48  1  0.22725000  0.60923000  0.15215000  1.0
  C  C49  1  0.74217000  0.44709000  0.98065000  1.0
  C  C50  1  0.25782000  0.55291000  0.01936000  1.0
  N  N51  1  0.85302000  0.34287000  0.04857000  1.0
  N  N52  1  0.14698000  0.65712000  0.95143000  1.0
  N  N53  1  0.89967000  0.25300000  0.83875000  1.0
  N  N54  1  0.10033000  0.74701000  0.16125000  1.0
  O  O55  1  0.73760000  0.09009000  0.14932000  1.0
  O  O56  1  0.26240000  0.90991000  0.85069000  1.0
  O  O57  1  0.94225000  0.01545000  0.30588000  1.0
  O  O58  1  0.05774000  0.98455000  0.69412000  1.0
  O  O59  1  0.64264000  0.08769000  0.41857000  1.0
  O  O60  1  0.35736000  0.91232000  0.58143000  1.0
  O  O61  1  0.73715000  0.50432000  0.51101000  1.0
  O  O62  1  0.26286000  0.49567000  0.48899000  1.0
  O  O63  1  0.88120000  0.22308000  0.53909000  1.0
  O  O64  1  0.11880000  0.77690000  0.46091000  1.0
  O  O65  1  0.57254000  0.33851000  0.58423000  1.0
  O  O66  1  0.42746000  0.66148000  0.41579000  1.0
  O  O67  1  0.58170000  0.40039000  0.28962000  1.0
  O  O68  1  0.41830000  0.59960000  0.71038000  1.0
  O  O69  1  0.76120000  0.98096000  0.63520000  1.0
  O  O70  1  0.23879000  0.01904000  0.36480000  1.0
  O  O71  1  0.32934000  0.19125000  0.62546000  1.0
  O  O72  1  0.67067000  0.80875000  0.37453000  1.0
  O  O73  1  0.38973000  0.22357000  0.27877000  1.0
  O  O74  1  0.61027000  0.77644000  0.72122000  1.0
