# generated using pymatgen
data_CdH15C19(NO3)2
_symmetry_space_group_name_H-M   'P 1'
_cell_length_a   7.80171000
_cell_length_b   9.83817000
_cell_length_c   12.37510000
_cell_angle_alpha   103.87600000
_cell_angle_beta   95.27250000
_cell_angle_gamma   108.15300000
_symmetry_Int_Tables_number   1
_chemical_formula_structural   CdH15C19(NO3)2
_chemical_formula_sum   'Cd2 H30 C38 N4 O12'
_cell_volume   861.82035850
_cell_formula_units_Z   2
loop_
 _symmetry_equiv_pos_site_id
 _symmetry_equiv_pos_as_xyz
  1  'x, y, z'
loop_
 _atom_site_type_symbol
 _atom_site_label
 _atom_site_symmetry_multiplicity
 _atom_site_fract_x
 _atom_site_fract_y
 _atom_site_fract_z
 _atom_site_occupancy
  Cd  Cd0  1  0.65574000  0.06293000  0.90111000  1.0
  Cd  Cd1  1  0.34426000  0.93707000  0.09889000  1.0
  H  H2  1  0.13912000  0.52834000  0.57744000  1.0
  H  H3  1  0.86088000  0.47166000  0.42256000  1.0
  H  H4  1  0.13762000  0.39860000  0.37722000  1.0
  H  H5  1  0.86238000  0.60140000  0.62278000  1.0
  H  H6  1  0.57394000  0.78618000  0.36084000  1.0
  H  H7  1  0.42606000  0.21382000  0.63916000  1.0
  H  H8  1  0.56670000  0.91566000  0.55844000  1.0
  H  H9  1  0.43329000  0.08434000  0.44156000  1.0
  H  H10  1  0.31319000  0.38309000  0.22222000  1.0
  H  H11  1  0.68681000  0.61691000  0.77778000  1.0
  H  H12  1  0.22312000  0.51126000  0.18204000  1.0
  H  H13  1  0.77689000  0.48874000  0.81796000  1.0
  H  H14  1  0.61580000  0.41390000  0.23463000  1.0
  H  H15  1  0.38419000  0.58610000  0.76537000  1.0
  H  H16  1  0.88481000  0.48454000  0.14111000  1.0
  H  H17  1  0.11519000  0.51546000  0.85889000  1.0
  H  H18  1  0.90858000  0.67539000  0.03485000  1.0
  H  H19  1  0.09143000  0.32462000  0.96516000  1.0
  H  H20  1  0.80347000  0.24408000  0.73308000  1.0
  H  H21  1  0.19652000  0.75591000  0.26692000  1.0
  H  H22  1  0.90857000  0.21422000  0.55017000  1.0
  H  H23  1  0.09142000  0.78578000  0.44983000  1.0
  H  H24  1  0.02467000  0.82948000  0.60379000  1.0
  H  H25  1  0.97533000  0.17052000  0.39621000  1.0
  H  H26  1  0.91474000  0.87864000  0.78495000  1.0
  H  H27  1  0.08526000  0.12136000  0.21505000  1.0
  H  H28  1  0.83094000  0.21580000  0.13012000  1.0
  H  H29  1  0.16906000  0.78420000  0.86988000  1.0
  H  H30  1  0.98894000  0.18748000  0.05782000  1.0
  H  H31  1  0.01106000  0.81252000  0.94218000  1.0
  C  C32  1  0.33880000  0.81215000  0.69743000  1.0
  C  C33  1  0.66120000  0.18784000  0.30257000  1.0
  C  C34  1  0.35190000  0.73046000  0.58011000  1.0
  C  C35  1  0.64809000  0.26954000  0.41989000  1.0
  C  C36  1  0.23388000  0.58334000  0.52903000  1.0
  C  C37  1  0.76611000  0.41665000  0.47097000  1.0
  C  C38  1  0.23482000  0.51097000  0.41791000  1.0
  C  C39  1  0.76517000  0.48903000  0.58209000  1.0
  C  C40  1  0.35608000  0.58312000  0.35586000  1.0
  C  C41  1  0.64392000  0.41688000  0.64414000  1.0
  C  C42  1  0.47915000  0.72797000  0.40795000  1.0
  C  C43  1  0.52085000  0.27203000  0.59205000  1.0
  C  C44  1  0.47603000  0.80108000  0.51886000  1.0
  C  C45  1  0.52396000  0.19892000  0.48114000  1.0
  C  C46  1  0.33974000  0.50226000  0.23322000  1.0
  C  C47  1  0.66026000  0.49774000  0.76678000  1.0
  C  C48  1  0.63459000  0.49783000  0.18913000  1.0
  C  C49  1  0.36541000  0.50217000  0.81087000  1.0
  C  C50  1  0.78360000  0.53906000  0.13824000  1.0
  C  C51  1  0.21640000  0.46094000  0.86176000  1.0
  C  C52  1  0.79331000  0.64433000  0.07818000  1.0
  C  C53  1  0.20669000  0.35568000  0.92183000  1.0
  C  C54  1  0.65929000  0.70890000  0.07019000  1.0
  C  C55  1  0.34072000  0.29110000  0.92981000  1.0
  C  C56  1  0.50430000  0.66808000  0.12664000  1.0
  C  C57  1  0.49570000  0.33192000  0.87336000  1.0
  C  C58  1  0.67703000  0.81391000  0.99835000  1.0
  C  C59  1  0.32298000  0.18609000  0.00166000  1.0
  C  C60  1  0.85536000  0.15438000  0.70120000  1.0
  C  C61  1  0.14463000  0.84562000  0.29879000  1.0
  C  C62  1  0.91418000  0.13553000  0.59778000  1.0
  C  C63  1  0.08582000  0.86447000  0.40222000  1.0
  C  C64  1  0.97290000  0.01483000  0.55630000  1.0
  C  C65  1  0.02710000  0.98517000  0.44370000  1.0
  C  C66  1  0.97634000  0.92306000  0.62707000  1.0
  C  C67  1  0.02367000  0.07695000  0.37293000  1.0
  C  C68  1  0.91583000  0.94977000  0.72965000  1.0
  C  C69  1  0.08418000  0.05023000  0.27035000  1.0
  N  N70  1  0.50100000  0.55833000  0.18299000  1.0
  N  N71  1  0.49900000  0.44167000  0.81701000  1.0
  N  N72  1  0.85282000  0.06217000  0.76609000  1.0
  N  N73  1  0.14719000  0.93783000  0.23391000  1.0
  O  O74  1  0.44601000  0.94700000  0.73731000  1.0
  O  O75  1  0.55399000  0.05300000  0.26269000  1.0
  O  O76  1  0.21901000  0.74052000  0.74548000  1.0
  O  O77  1  0.78099000  0.25948000  0.25452000  1.0
  O  O78  1  0.80858000  0.83736000  0.94450000  1.0
  O  O79  1  0.19143000  0.16265000  0.05550000  1.0
  O  O80  1  0.55580000  0.87600000  0.98978000  1.0
  O  O81  1  0.44420000  0.12400000  0.01022000  1.0
  O  O82  1  0.37209000  0.71533000  0.12994000  1.0
  O  O83  1  0.62791000  0.28467000  0.87006000  1.0
  O  O84  1  0.87457000  0.21229000  0.05528000  1.0
  O  O85  1  0.12542000  0.78771000  0.94472000  1.0
