# generated using pymatgen
data_CdH4C6(SN2)2
_symmetry_space_group_name_H-M   'P 1'
_cell_length_a   5.60198000
_cell_length_b   6.88477000
_cell_length_c   12.51490000
_cell_angle_alpha   90.00070000
_cell_angle_beta   90.00110000
_cell_angle_gamma   73.75300000
_symmetry_Int_Tables_number   1
_chemical_formula_structural   CdH4C6(SN2)2
_chemical_formula_sum   'Cd2 H8 C12 S4 N8'
_cell_volume   463.40294278
_cell_formula_units_Z   2
loop_
 _symmetry_equiv_pos_site_id
 _symmetry_equiv_pos_as_xyz
  1  'x, y, z'
loop_
 _atom_site_type_symbol
 _atom_site_label
 _atom_site_symmetry_multiplicity
 _atom_site_fract_x
 _atom_site_fract_y
 _atom_site_fract_z
 _atom_site_occupancy
  Cd  Cd0  1  0.50000000  0.49999000  0.50000000  1.0
  Cd  Cd1  1  0.49999000  0.50001000  1.00000000  1.0
  H  H2  1  0.57985000  0.51954000  0.75000000  1.0
  H  H3  1  0.42014000  0.48044000  0.25000000  1.0
  H  H4  1  0.97527000  0.86532000  0.57761000  1.0
  H  H5  1  0.02473000  0.13470000  0.07761000  1.0
  H  H6  1  0.02475000  0.13469000  0.42239000  1.0
  H  H7  1  0.97527000  0.86531000  0.92239000  1.0
  H  H8  1  0.75240000  0.99700000  0.75000000  1.0
  H  H9  1  0.24762000  0.00301000  0.25000000  1.0
  C  C10  1  0.06667000  0.30830000  0.59699000  1.0
  C  C11  1  0.93335000  0.69170000  0.09699000  1.0
  C  C12  1  0.93333000  0.69169000  0.40301000  1.0
  C  C13  1  0.06664000  0.30831000  0.90302000  1.0
  C  C14  1  0.39454000  0.62651000  0.75000000  1.0
  C  C15  1  0.60546000  0.37348000  0.25000000  1.0
  C  C16  1  0.06075000  0.81889000  0.65519000  1.0
  C  C17  1  0.93925000  0.18112000  0.15519000  1.0
  C  C18  1  0.93925000  0.18111000  0.34481000  1.0
  C  C19  1  0.06076000  0.81889000  0.84481000  1.0
  C  C20  1  0.93746000  0.89019000  0.75000000  1.0
  C  C21  1  0.06255000  0.10982000  0.25000000  1.0
  S  S22  1  0.35924000  0.18404000  0.58964000  1.0
  S  S23  1  0.64077000  0.81596000  0.08964000  1.0
  S  S24  1  0.64077000  0.81595000  0.41037000  1.0
  S  S25  1  0.35921000  0.18404000  0.91037000  1.0
  N  N26  1  0.85229000  0.39685000  0.60099000  1.0
  N  N27  1  0.14772000  0.60317000  0.10099000  1.0
  N  N28  1  0.14773000  0.60313000  0.39901000  1.0
  N  N29  1  0.85228000  0.39685000  0.89901000  1.0
  N  N30  1  0.28939000  0.68712000  0.65520000  1.0
  N  N31  1  0.71060000  0.31288000  0.15521000  1.0
  N  N32  1  0.71060000  0.31288000  0.34479000  1.0
  N  N33  1  0.28940000  0.68712000  0.84479000  1.0
