# generated using pymatgen
data_NiH5C5N2ClO3
_symmetry_space_group_name_H-M   'P 1'
_cell_length_a   7.55722000
_cell_length_b   10.39800000
_cell_length_c   11.11060000
_cell_angle_alpha   90.00040000
_cell_angle_beta   89.99970000
_cell_angle_gamma   89.99900000
_symmetry_Int_Tables_number   1
_chemical_formula_structural   NiH5C5N2ClO3
_chemical_formula_sum   'Ni4 H20 C20 N8 Cl4 O12'
_cell_volume   873.07065407
_cell_formula_units_Z   4
loop_
 _symmetry_equiv_pos_site_id
 _symmetry_equiv_pos_as_xyz
  1  'x, y, z'
loop_
 _atom_site_type_symbol
 _atom_site_label
 _atom_site_symmetry_multiplicity
 _atom_site_fract_x
 _atom_site_fract_y
 _atom_site_fract_z
 _atom_site_occupancy
  Ni  Ni0  1  0.73149000  0.77588000  0.32483000  1.0
  Ni  Ni1  1  0.23148000  0.22412000  0.67517000  1.0
  Ni  Ni2  1  0.73148000  0.27588000  0.17517000  1.0
  Ni  Ni3  1  0.23150000  0.72412000  0.82483000  1.0
  H  H4  1  0.49765000  0.82379000  0.13879000  1.0
  H  H5  1  0.99765000  0.17621000  0.86121000  1.0
  H  H6  1  0.49762000  0.32380000  0.36120000  1.0
  H  H7  1  0.99764000  0.67622000  0.63880000  1.0
  H  H8  1  0.55312000  0.94644000  0.21381000  1.0
  H  H9  1  0.05312000  0.05356000  0.78620000  1.0
  H  H10  1  0.55311000  0.44645000  0.28619000  1.0
  H  H11  1  0.05312000  0.55357000  0.71381000  1.0
  H  H12  1  0.98900000  0.96897000  0.18405000  1.0
  H  H13  1  0.48899000  0.03103000  0.81595000  1.0
  H  H14  1  0.98897000  0.46897000  0.31596000  1.0
  H  H15  1  0.48899000  0.53102000  0.68405000  1.0
  H  H16  1  0.96333000  0.57045000  0.95435000  1.0
  H  H17  1  0.46331000  0.42956000  0.04564000  1.0
  H  H18  1  0.96330000  0.07044000  0.54565000  1.0
  H  H19  1  0.46332000  0.92955000  0.45436000  1.0
  H  H20  1  0.16424000  0.94104000  0.99472000  1.0
  H  H21  1  0.66423000  0.05896000  0.00529000  1.0
  H  H22  1  0.16420000  0.44105000  0.50529000  1.0
  H  H23  1  0.66423000  0.55895000  0.49471000  1.0
  C  C24  1  0.76888000  0.56581000  0.16344000  1.0
  C  C25  1  0.26888000  0.43420000  0.83656000  1.0
  C  C26  1  0.76886000  0.06580000  0.33657000  1.0
  C  C27  1  0.26886000  0.93420000  0.66343000  1.0
  C  C28  1  0.98282000  0.87920000  0.13410000  1.0
  C  C29  1  0.48281000  0.12079000  0.86591000  1.0
  C  C30  1  0.98281000  0.37920000  0.36589000  1.0
  C  C31  1  0.48281000  0.62079000  0.63410000  1.0
  C  C32  1  0.87565000  0.67349000  0.11195000  1.0
  C  C33  1  0.37564000  0.32652000  0.88804000  1.0
  C  C34  1  0.87564000  0.17348000  0.38804000  1.0
  C  C35  1  0.37565000  0.82651000  0.61195000  1.0
  C  C36  1  0.96948000  0.65948000  0.00543000  1.0
  C  C37  1  0.46947000  0.34053000  0.99457000  1.0
  C  C38  1  0.96946000  0.15948000  0.49457000  1.0
  C  C39  1  0.46946000  0.84051000  0.50543000  1.0
  C  C40  1  0.07898000  0.86473000  0.02812000  1.0
  C  C41  1  0.57896000  0.13526000  0.97189000  1.0
  C  C42  1  0.07895000  0.36474000  0.47188000  1.0
  C  C43  1  0.57896000  0.63525000  0.52811000  1.0
  N  N44  1  0.88205000  0.78333000  0.17611000  1.0
  N  N45  1  0.38203000  0.21668000  0.82389000  1.0
  N  N46  1  0.88204000  0.28332000  0.32389000  1.0
  N  N47  1  0.38204000  0.71666000  0.67611000  1.0
  N  N48  1  0.07245000  0.75491000  0.96465000  1.0
  N  N49  1  0.57243000  0.24509000  0.03535000  1.0
  N  N50  1  0.07243000  0.25491000  0.53535000  1.0
  N  N51  1  0.57243000  0.74508000  0.46464000  1.0
  Cl  Cl52  1  0.98335000  0.70341000  0.44255000  1.0
  Cl  Cl53  1  0.48334000  0.29659000  0.55744000  1.0
  Cl  Cl54  1  0.98336000  0.20341000  0.05746000  1.0
  Cl  Cl55  1  0.48337000  0.79659000  0.94254000  1.0
  O  O56  1  0.67869000  0.59088000  0.25816000  1.0
  O  O57  1  0.17867000  0.40913000  0.74184000  1.0
  O  O58  1  0.67867000  0.09088000  0.24184000  1.0
  O  O59  1  0.17868000  0.90912000  0.75817000  1.0
  O  O60  1  0.51329000  0.85591000  0.22236000  1.0
  O  O61  1  0.01329000  0.14409000  0.77764000  1.0
  O  O62  1  0.51328000  0.35592000  0.27763000  1.0
  O  O63  1  0.01328000  0.64409000  0.72237000  1.0
  O  O64  1  0.78086000  0.45835000  0.11113000  1.0
  O  O65  1  0.28087000  0.54165000  0.88886000  1.0
  O  O66  1  0.78085000  0.95836000  0.38887000  1.0
  O  O67  1  0.28085000  0.04165000  0.61113000  1.0
