# generated using pymatgen
data_ZnH21C24N5O4
_symmetry_space_group_name_H-M   'P 1'
_cell_length_a   14.12910000
_cell_length_b   15.93970000
_cell_length_c   23.46070000
_cell_angle_alpha   90.00010000
_cell_angle_beta   89.99980000
_cell_angle_gamma   89.99970000
_symmetry_Int_Tables_number   1
_chemical_formula_structural   ZnH21C24N5O4
_chemical_formula_sum   'Zn8 H168 C192 N40 O32'
_cell_volume   5283.66906365
_cell_formula_units_Z   8
loop_
 _symmetry_equiv_pos_site_id
 _symmetry_equiv_pos_as_xyz
  1  'x, y, z'
loop_
 _atom_site_type_symbol
 _atom_site_label
 _atom_site_symmetry_multiplicity
 _atom_site_fract_x
 _atom_site_fract_y
 _atom_site_fract_z
 _atom_site_occupancy
  Zn  Zn0  1  0.04572000  0.94600000  0.31081000  1.0
  Zn  Zn1  1  0.54572000  0.05400000  0.68919000  1.0
  Zn  Zn2  1  0.04572000  0.55400000  0.81081000  1.0
  Zn  Zn3  1  0.54572000  0.44600000  0.18919000  1.0
  Zn  Zn4  1  0.44511000  0.84635000  0.34034000  1.0
  Zn  Zn5  1  0.94512000  0.15365000  0.65966000  1.0
  Zn  Zn6  1  0.44511000  0.65365000  0.84034000  1.0
  Zn  Zn7  1  0.94512000  0.34635000  0.15966000  1.0
  H  H8  1  0.05302000  0.95181000  0.17213000  1.0
  H  H9  1  0.55302000  0.04819000  0.82787000  1.0
  H  H10  1  0.05302000  0.54819000  0.67213000  1.0
  H  H11  1  0.55302000  0.45181000  0.32787000  1.0
  H  H12  1  0.16863000  0.11207000  0.29681000  1.0
  H  H13  1  0.66863000  0.88793000  0.70319000  1.0
  H  H14  1  0.16863000  0.38794000  0.79681000  1.0
  H  H15  1  0.66863000  0.61207000  0.20319000  1.0
  H  H16  1  0.19773000  0.18285000  0.18855000  1.0
  H  H17  1  0.69773000  0.81715000  0.81145000  1.0
  H  H18  1  0.19773000  0.31715000  0.68855000  1.0
  H  H19  1  0.69773000  0.68285000  0.31145000  1.0
  H  H20  1  0.13730000  0.94940000  0.08210000  1.0
  H  H21  1  0.63730000  0.05059000  0.91790000  1.0
  H  H22  1  0.13730000  0.55060000  0.58210000  1.0
  H  H23  1  0.63730000  0.44940000  0.41790000  1.0
  H  H24  1  0.11119000  0.24406000  0.00735000  1.0
  H  H25  1  0.61119000  0.75593000  0.99265000  1.0
  H  H26  1  0.11119000  0.25594000  0.50735000  1.0
  H  H27  1  0.61120000  0.74406000  0.49265000  1.0
  H  H28  1  0.11232000  0.21718000  0.11032000  1.0
  H  H29  1  0.61232000  0.78282000  0.88969000  1.0
  H  H30  1  0.11232000  0.28282000  0.61031000  1.0
  H  H31  1  0.61232000  0.71718000  0.38969000  1.0
  H  H32  1  0.13824000  0.03830000  0.81569000  1.0
  H  H33  1  0.63825000  0.96169000  0.18431000  1.0
  H  H34  1  0.13825000  0.46170000  0.31569000  1.0
  H  H35  1  0.63824000  0.53830000  0.68431000  1.0
  H  H36  1  0.15488000  0.88403000  0.80368000  1.0
  H  H37  1  0.65488000  0.11597000  0.19632000  1.0
  H  H38  1  0.15488000  0.61597000  0.30369000  1.0
  H  H39  1  0.65488000  0.38403000  0.69632000  1.0
  H  H40  1  0.14628000  0.84425000  0.98554000  1.0
  H  H41  1  0.64628000  0.15574000  0.01446000  1.0
  H  H42  1  0.14628000  0.65574000  0.48554000  1.0
  H  H43  1  0.64628000  0.34425000  0.51446000  1.0
  H  H44  1  0.17084000  0.17234000  0.85302000  1.0
  H  H45  1  0.67084000  0.82765000  0.14699000  1.0
  H  H46  1  0.17084000  0.32766000  0.35301000  1.0
  H  H47  1  0.67084000  0.67234000  0.64699000  1.0
  H  H48  1  0.15005000  0.23774000  0.91266000  1.0
  H  H49  1  0.65005000  0.76226000  0.08735000  1.0
  H  H50  1  0.15005000  0.26226000  0.41265000  1.0
  H  H51  1  0.65006000  0.73774000  0.58735000  1.0
  H  H52  1  0.99890000  0.14775000  0.84027000  1.0
  H  H53  1  0.49890000  0.85226000  0.15973000  1.0
  H  H54  1  0.99890000  0.35226000  0.34027000  1.0
  H  H55  1  0.49890000  0.64775000  0.65973000  1.0
  H  H56  1  0.02268000  0.25684000  0.84121000  1.0
  H  H57  1  0.52268000  0.74316000  0.15879000  1.0
  H  H58  1  0.02268000  0.24316000  0.34121000  1.0
  H  H59  1  0.52268000  0.75684000  0.65879000  1.0
  H  H60  1  0.97340000  0.20816000  0.90298000  1.0
  H  H61  1  0.47340000  0.79184000  0.09702000  1.0
  H  H62  1  0.97340000  0.29184000  0.40298000  1.0
  H  H63  1  0.47340000  0.70816000  0.59702000  1.0
  H  H64  1  0.26310000  0.72816000  0.94498000  1.0
  H  H65  1  0.76309000  0.27183000  0.05502000  1.0
  H  H66  1  0.26309000  0.77183000  0.44498000  1.0
  H  H67  1  0.76310000  0.22816000  0.55502000  1.0
  H  H68  1  0.05201000  0.75488000  0.81608000  1.0
  H  H69  1  0.55201000  0.24512000  0.18392000  1.0
  H  H70  1  0.05201000  0.74512000  0.31608000  1.0
  H  H71  1  0.55202000  0.25488000  0.68392000  1.0
  H  H72  1  0.21689000  0.57208000  0.90030000  1.0
  H  H73  1  0.71689000  0.42792000  0.09970000  1.0
  H  H74  1  0.21689000  0.92792000  0.40030000  1.0
  H  H75  1  0.71689000  0.07208000  0.59970000  1.0
  H  H76  1  0.26584000  0.81149000  0.26278000  1.0
  H  H77  1  0.76584000  0.18851000  0.73722000  1.0
  H  H78  1  0.26584000  0.68851000  0.76278000  1.0
  H  H79  1  0.76584000  0.31149000  0.23722000  1.0
  H  H80  1  0.24259000  0.89597000  0.15992000  1.0
  H  H81  1  0.74259000  0.10403000  0.84008000  1.0
  H  H82  1  0.24259000  0.60403000  0.65992000  1.0
  H  H83  1  0.74259000  0.39598000  0.34008000  1.0
  H  H84  1  0.47108000  0.00322000  0.25078000  1.0
  H  H85  1  0.97109000  0.99678000  0.74921000  1.0
  H  H86  1  0.47108000  0.49678000  0.75078000  1.0
  H  H87  1  0.97109000  0.50322000  0.24921000  1.0
  H  H88  1  0.38330000  0.13531000  0.20099000  1.0
  H  H89  1  0.88329000  0.86468000  0.79901000  1.0
  H  H90  1  0.38330000  0.36468000  0.70098000  1.0
  H  H91  1  0.88330000  0.63532000  0.29901000  1.0
  H  H92  1  0.39225000  0.23550000  0.12125000  1.0
  H  H93  1  0.89224000  0.76450000  0.87875000  1.0
  H  H94  1  0.39224000  0.26450000  0.62125000  1.0
  H  H95  1  0.89224000  0.73550000  0.37875000  1.0
  H  H96  1  0.36913000  0.92555000  0.08420000  1.0
  H  H97  1  0.86914000  0.07445000  0.91580000  1.0
  H  H98  1  0.36913000  0.57445000  0.58420000  1.0
  H  H99  1  0.86914000  0.42555000  0.41580000  1.0
  H  H100  1  0.38640000  0.19389000  0.88233000  1.0
  H  H101  1  0.88640000  0.80611000  0.11767000  1.0
  H  H102  1  0.38640000  0.30611000  0.38233000  1.0
  H  H103  1  0.88640000  0.69390000  0.61767000  1.0
  H  H104  1  0.38865000  0.06758000  0.82201000  1.0
  H  H105  1  0.88865000  0.93243000  0.17799000  1.0
  H  H106  1  0.38865000  0.43243000  0.32201000  1.0
  H  H107  1  0.88865000  0.56758000  0.67799000  1.0
  H  H108  1  0.37888000  0.90573000  0.96968000  1.0
  H  H109  1  0.87887000  0.09427000  0.03031000  1.0
  H  H110  1  0.37887000  0.59428000  0.46968000  1.0
  H  H111  1  0.87888000  0.40573000  0.53032000  1.0
  H  H112  1  0.34977000  0.28557000  0.95756000  1.0
  H  H113  1  0.84975000  0.71442000  0.04244000  1.0
  H  H114  1  0.34976000  0.21442000  0.45756000  1.0
  H  H115  1  0.84976000  0.78557000  0.54244000  1.0
  H  H116  1  0.33757000  0.29701000  0.03192000  1.0
  H  H117  1  0.83757000  0.70298000  0.96808000  1.0
  H  H118  1  0.33757000  0.20298000  0.53192000  1.0
  H  H119  1  0.83757000  0.79702000  0.46809000  1.0
  H  H120  1  0.51585000  0.29218000  0.04324000  1.0
  H  H121  1  0.01584000  0.70782000  0.95676000  1.0
  H  H122  1  0.51584000  0.20782000  0.54324000  1.0
  H  H123  1  0.01585000  0.79218000  0.45676000  1.0
  H  H124  1  0.48012000  0.37535000  0.99785000  1.0
  H  H125  1  0.98011000  0.62465000  0.00215000  1.0
  H  H126  1  0.48011000  0.12465000  0.49785000  1.0
  H  H127  1  0.98012000  0.87535000  0.50215000  1.0
  H  H128  1  0.52799000  0.28180000  0.96799000  1.0
  H  H129  1  0.02798000  0.71820000  0.03201000  1.0
  H  H130  1  0.52798000  0.21820000  0.46799000  1.0
  H  H131  1  0.02798000  0.78180000  0.53201000  1.0
  H  H132  1  0.38011000  0.96305000  0.77049000  1.0
  H  H133  1  0.88011000  0.03695000  0.22951000  1.0
  H  H134  1  0.38011000  0.53695000  0.27049000  1.0
  H  H135  1  0.88011000  0.46305000  0.72951000  1.0
  H  H136  1  0.40443000  0.79789000  0.73822000  1.0
  H  H137  1  0.90443000  0.20212000  0.26178000  1.0
  H  H138  1  0.40444000  0.70212000  0.23822000  1.0
  H  H139  1  0.90444000  0.29789000  0.76178000  1.0
  H  H140  1  0.40707000  0.80620000  0.91741000  1.0
  H  H141  1  0.90707000  0.19379000  0.08259000  1.0
  H  H142  1  0.40707000  0.69379000  0.41741000  1.0
  H  H143  1  0.90707000  0.30621000  0.58259000  1.0
  H  H144  1  0.77013000  0.86814000  0.22025000  1.0
  H  H145  1  0.27013000  0.13187000  0.77975000  1.0
  H  H146  1  0.77013000  0.63187000  0.72025000  1.0
  H  H147  1  0.27013000  0.36814000  0.27975000  1.0
  H  H148  1  0.77277000  0.76083000  0.24053000  1.0
  H  H149  1  0.27277000  0.23917000  0.75947000  1.0
  H  H150  1  0.77277000  0.73918000  0.74053000  1.0
  H  H151  1  0.27277000  0.26083000  0.25947000  1.0
  H  H152  1  0.76965000  0.91118000  0.32311000  1.0
  H  H153  1  0.26965000  0.08882000  0.67689000  1.0
  H  H154  1  0.76965000  0.58882000  0.82311000  1.0
  H  H155  1  0.26965000  0.41119000  0.17689000  1.0
  H  H156  1  0.75545000  0.80565000  0.34376000  1.0
  H  H157  1  0.25545000  0.19435000  0.65624000  1.0
  H  H158  1  0.75545000  0.69435000  0.84376000  1.0
  H  H159  1  0.25546000  0.30566000  0.15624000  1.0
  H  H160  1  0.49139000  0.98952000  0.48874000  1.0
  H  H161  1  0.99139000  0.01048000  0.51126000  1.0
  H  H162  1  0.49139000  0.51048000  0.98874000  1.0
  H  H163  1  0.99140000  0.48952000  0.01126000  1.0
  H  H164  1  0.39405000  0.95538000  0.53009000  1.0
  H  H165  1  0.89405000  0.04462000  0.46991000  1.0
  H  H166  1  0.39405000  0.54463000  0.03009000  1.0
  H  H167  1  0.89405000  0.45538000  0.96991000  1.0
  H  H168  1  0.59033000  0.87154000  0.52908000  1.0
  H  H169  1  0.09033000  0.12847000  0.47092000  1.0
  H  H170  1  0.59033000  0.62846000  0.02908000  1.0
  H  H171  1  0.09033000  0.37154000  0.97092000  1.0
  H  H172  1  0.48978000  0.83506000  0.56655000  1.0
  H  H173  1  0.98977000  0.16494000  0.43345000  1.0
  H  H174  1  0.48977000  0.66494000  0.06655000  1.0
  H  H175  1  0.98977000  0.33506000  0.93345000  1.0
  C  C176  1  0.09002000  0.00376000  0.19187000  1.0
  C  C177  1  0.59002000  0.99624000  0.80813000  1.0
  C  C178  1  0.09002000  0.49624000  0.69187000  1.0
  C  C179  1  0.59002000  0.50376000  0.30813000  1.0
  C  C180  1  0.14960000  0.09043000  0.25450000  1.0
  C  C181  1  0.64960000  0.90957000  0.74550000  1.0
  C  C182  1  0.14960000  0.40957000  0.75449000  1.0
  C  C183  1  0.64961000  0.59043000  0.24551000  1.0
  C  C184  1  0.16389000  0.12540000  0.20184000  1.0
  C  C185  1  0.66389000  0.87460000  0.79816000  1.0
  C  C186  1  0.16389000  0.37460000  0.70184000  1.0
  C  C187  1  0.66389000  0.62540000  0.29816000  1.0
  C  C188  1  0.12614000  0.08177000  0.10200000  1.0
  C  C189  1  0.62614000  0.91823000  0.89800000  1.0
  C  C190  1  0.12614000  0.41823000  0.60200000  1.0
  C  C191  1  0.62614000  0.58177000  0.39800000  1.0
  C  C192  1  0.13183000  0.01305000  0.06538000  1.0
  C  C193  1  0.63183000  0.98694000  0.93463000  1.0
  C  C194  1  0.13183000  0.48695000  0.56537000  1.0
  C  C195  1  0.63183000  0.51305000  0.43463000  1.0
  C  C196  1  0.13154000  0.02770000  0.00663000  1.0
  C  C197  1  0.63155000  0.97229000  0.99337000  1.0
  C  C198  1  0.13155000  0.47230000  0.50662000  1.0
  C  C199  1  0.63155000  0.52770000  0.49338000  1.0
  C  C200  1  0.12574000  0.11172000  0.98568000  1.0
  C  C201  1  0.62575000  0.88827000  0.01432000  1.0
  C  C202  1  0.12575000  0.38827000  0.48568000  1.0
  C  C203  1  0.62575000  0.61173000  0.51432000  1.0
  C  C204  1  0.11924000  0.18006000  0.02276000  1.0
  C  C205  1  0.61924000  0.81993000  0.97724000  1.0
  C  C206  1  0.11924000  0.31994000  0.52276000  1.0
  C  C207  1  0.61924000  0.68006000  0.47724000  1.0
  C  C208  1  0.11966000  0.16439000  0.08102000  1.0
  C  C209  1  0.61967000  0.83561000  0.91898000  1.0
  C  C210  1  0.11967000  0.33561000  0.58102000  1.0
  C  C211  1  0.61967000  0.66439000  0.41898000  1.0
  C  C212  1  0.13810000  0.97414000  0.95720000  1.0
  C  C213  1  0.63810000  0.02586000  0.04280000  1.0
  C  C214  1  0.13810000  0.52586000  0.45720000  1.0
  C  C215  1  0.63811000  0.47414000  0.54280000  1.0
  C  C216  1  0.13549000  0.02801000  0.90860000  1.0
  C  C217  1  0.63549000  0.97198000  0.09140000  1.0
  C  C218  1  0.13550000  0.47199000  0.40860000  1.0
  C  C219  1  0.63550000  0.52801000  0.59140000  1.0
  C  C220  1  0.14068000  0.99708000  0.85292000  1.0
  C  C221  1  0.64068000  0.00292000  0.14708000  1.0
  C  C222  1  0.14069000  0.50292000  0.35292000  1.0
  C  C223  1  0.64069000  0.49708000  0.64708000  1.0
  C  C224  1  0.14912000  0.91074000  0.84631000  1.0
  C  C225  1  0.64912000  0.08925000  0.15369000  1.0
  C  C226  1  0.14913000  0.58925000  0.34631000  1.0
  C  C227  1  0.64913000  0.41075000  0.65369000  1.0
  C  C228  1  0.15163000  0.85694000  0.89387000  1.0
  C  C229  1  0.65163000  0.14306000  0.10613000  1.0
  C  C230  1  0.15163000  0.64306000  0.39387000  1.0
  C  C231  1  0.65163000  0.35694000  0.60613000  1.0
  C  C232  1  0.14628000  0.88749000  0.94949000  1.0
  C  C233  1  0.64628000  0.11250000  0.05051000  1.0
  C  C234  1  0.14627000  0.61251000  0.44949000  1.0
  C  C235  1  0.64628000  0.38749000  0.55052000  1.0
  C  C236  1  0.12292000  0.18319000  0.88916000  1.0
  C  C237  1  0.62292000  0.81681000  0.11084000  1.0
  C  C238  1  0.12292000  0.31681000  0.38916000  1.0
  C  C239  1  0.62292000  0.68319000  0.61084000  1.0
  C  C240  1  0.02288000  0.19964000  0.86731000  1.0
  C  C241  1  0.52288000  0.80037000  0.13269000  1.0
  C  C242  1  0.02288000  0.30037000  0.36731000  1.0
  C  C243  1  0.52288000  0.69963000  0.63269000  1.0
  C  C244  1  0.21090000  0.71048000  0.91331000  1.0
  C  C245  1  0.71089000  0.28952000  0.08668000  1.0
  C  C246  1  0.21089000  0.78952000  0.41332000  1.0
  C  C247  1  0.71090000  0.21048000  0.58669000  1.0
  C  C248  1  0.10321000  0.72683000  0.84508000  1.0
  C  C249  1  0.60321000  0.27317000  0.15492000  1.0
  C  C250  1  0.10321000  0.77317000  0.34508000  1.0
  C  C251  1  0.60321000  0.22683000  0.65492000  1.0
  C  C252  1  0.18920000  0.63375000  0.89029000  1.0
  C  C253  1  0.68919000  0.36624000  0.10970000  1.0
  C  C254  1  0.18919000  0.86625000  0.39029000  1.0
  C  C255  1  0.68920000  0.13376000  0.60971000  1.0
  C  C256  1  0.30524000  0.86355000  0.24496000  1.0
  C  C257  1  0.80524000  0.13645000  0.75503000  1.0
  C  C258  1  0.30524000  0.63645000  0.74496000  1.0
  C  C259  1  0.80524000  0.36355000  0.25504000  1.0
  C  C260  1  0.29288000  0.90429000  0.19417000  1.0
  C  C261  1  0.79288000  0.09571000  0.80583000  1.0
  C  C262  1  0.29288000  0.59571000  0.69417000  1.0
  C  C263  1  0.79288000  0.40429000  0.30583000  1.0
  C  C264  1  0.41066000  0.96365000  0.24178000  1.0
  C  C265  1  0.91067000  0.03634000  0.75822000  1.0
  C  C266  1  0.41066000  0.53635000  0.74178000  1.0
  C  C267  1  0.91067000  0.46366000  0.25822000  1.0
  C  C268  1  0.37218000  0.02530000  0.14662000  1.0
  C  C269  1  0.87219000  0.97470000  0.85338000  1.0
  C  C270  1  0.37218000  0.47470000  0.64662000  1.0
  C  C271  1  0.87218000  0.52530000  0.35338000  1.0
  C  C272  1  0.38101000  0.11175000  0.15737000  1.0
  C  C273  1  0.88101000  0.88825000  0.84263000  1.0
  C  C274  1  0.38101000  0.38825000  0.65737000  1.0
  C  C275  1  0.88101000  0.61175000  0.34263000  1.0
  C  C276  1  0.38568000  0.16868000  0.11239000  1.0
  C  C277  1  0.88568000  0.83132000  0.88761000  1.0
  C  C278  1  0.38569000  0.33132000  0.61239000  1.0
  C  C279  1  0.88568000  0.66868000  0.38761000  1.0
  C  C280  1  0.38145000  0.13727000  0.05679000  1.0
  C  C281  1  0.88145000  0.86273000  0.94321000  1.0
  C  C282  1  0.38146000  0.36273000  0.55679000  1.0
  C  C283  1  0.88145000  0.63727000  0.44321000  1.0
  C  C284  1  0.37768000  0.04934000  0.04616000  1.0
  C  C285  1  0.87768000  0.95066000  0.95384000  1.0
  C  C286  1  0.37767000  0.45066000  0.54616000  1.0
  C  C287  1  0.87768000  0.54934000  0.45384000  1.0
  C  C288  1  0.37237000  0.99308000  0.09143000  1.0
  C  C289  1  0.87238000  0.00692000  0.90857000  1.0
  C  C290  1  0.37237000  0.50692000  0.59143000  1.0
  C  C291  1  0.87238000  0.49308000  0.40857000  1.0
  C  C292  1  0.37922000  0.03883000  0.98532000  1.0
  C  C293  1  0.87921000  0.96117000  0.01468000  1.0
  C  C294  1  0.37921000  0.46117000  0.48531000  1.0
  C  C295  1  0.87921000  0.53883000  0.51469000  1.0
  C  C296  1  0.38164000  0.12094000  0.96125000  1.0
  C  C297  1  0.88163000  0.87906000  0.03875000  1.0
  C  C298  1  0.38163000  0.37906000  0.46125000  1.0
  C  C299  1  0.88164000  0.62094000  0.53875000  1.0
  C  C300  1  0.38411000  0.13202000  0.90215000  1.0
  C  C301  1  0.88411000  0.86798000  0.09785000  1.0
  C  C302  1  0.38411000  0.36799000  0.40215000  1.0
  C  C303  1  0.88411000  0.63202000  0.59785000  1.0
  C  C304  1  0.38494000  0.06039000  0.86804000  1.0
  C  C305  1  0.88494000  0.93961000  0.13196000  1.0
  C  C306  1  0.38494000  0.43961000  0.36804000  1.0
  C  C307  1  0.88494000  0.56039000  0.63196000  1.0
  C  C308  1  0.38357000  0.97934000  0.89180000  1.0
  C  C309  1  0.88357000  0.02066000  0.10819000  1.0
  C  C310  1  0.38357000  0.52066000  0.39180000  1.0
  C  C311  1  0.88357000  0.47934000  0.60820000  1.0
  C  C312  1  0.37999000  0.96801000  0.95066000  1.0
  C  C313  1  0.88000000  0.03199000  0.04934000  1.0
  C  C314  1  0.38000000  0.53199000  0.45066000  1.0
  C  C315  1  0.88000000  0.46801000  0.54935000  1.0
  C  C316  1  0.38321000  0.27023000  0.99856000  1.0
  C  C317  1  0.88320000  0.72977000  0.00144000  1.0
  C  C318  1  0.38321000  0.22977000  0.49856000  1.0
  C  C319  1  0.88321000  0.77023000  0.50144000  1.0
  C  C320  1  0.48283000  0.30686000  0.00209000  1.0
  C  C321  1  0.98282000  0.69314000  0.99791000  1.0
  C  C322  1  0.48282000  0.19314000  0.50209000  1.0
  C  C323  1  0.98282000  0.80686000  0.49791000  1.0
  C  C324  1  0.38784000  0.90682000  0.79610000  1.0
  C  C325  1  0.88783000  0.09318000  0.20390000  1.0
  C  C326  1  0.38784000  0.59318000  0.29610000  1.0
  C  C327  1  0.88784000  0.40682000  0.70390000  1.0
  C  C328  1  0.39998000  0.82457000  0.78061000  1.0
  C  C329  1  0.89997000  0.17544000  0.21939000  1.0
  C  C330  1  0.39998000  0.67544000  0.28061000  1.0
  C  C331  1  0.89998000  0.32456000  0.71939000  1.0
  C  C332  1  0.40102000  0.82761000  0.87357000  1.0
  C  C333  1  0.90103000  0.17240000  0.12642000  1.0
  C  C334  1  0.40103000  0.67240000  0.37357000  1.0
  C  C335  1  0.90102000  0.32761000  0.62642000  1.0
  C  C336  1  0.89951000  0.82934000  0.26099000  1.0
  C  C337  1  0.39951000  0.17066000  0.73901000  1.0
  C  C338  1  0.89951000  0.67065000  0.76099000  1.0
  C  C339  1  0.39951000  0.32935000  0.23901000  1.0
  C  C340  1  0.79254000  0.82449000  0.25393000  1.0
  C  C341  1  0.29254000  0.17551000  0.74607000  1.0
  C  C342  1  0.79254000  0.67551000  0.75393000  1.0
  C  C343  1  0.29254000  0.32449000  0.24607000  1.0
  C  C344  1  0.74178000  0.85010000  0.30886000  1.0
  C  C345  1  0.24178000  0.14990000  0.69114000  1.0
  C  C346  1  0.74178000  0.64990000  0.80887000  1.0
  C  C347  1  0.24178000  0.35010000  0.19114000  1.0
  C  C348  1  0.63526000  0.85973000  0.30094000  1.0
  C  C349  1  0.13526000  0.14028000  0.69906000  1.0
  C  C350  1  0.63526000  0.64028000  0.80094000  1.0
  C  C351  1  0.13526000  0.35973000  0.19905000  1.0
  C  C352  1  0.43064000  0.87370000  0.46025000  1.0
  C  C353  1  0.93064000  0.12630000  0.53975000  1.0
  C  C354  1  0.43064000  0.62629000  0.96025000  1.0
  C  C355  1  0.93065000  0.37370000  0.03975000  1.0
  C  C356  1  0.45846000  0.93396000  0.50803000  1.0
  C  C357  1  0.95846000  0.06604000  0.49197000  1.0
  C  C358  1  0.45845000  0.56604000  0.00803000  1.0
  C  C359  1  0.95846000  0.43396000  0.99197000  1.0
  C  C360  1  0.52502000  0.89182000  0.55046000  1.0
  C  C361  1  0.02501000  0.10818000  0.44954000  1.0
  C  C362  1  0.52501000  0.60819000  0.05046000  1.0
  C  C363  1  0.02502000  0.39182000  0.94954000  1.0
  C  C364  1  0.55385000  0.94437000  0.60154000  1.0
  C  C365  1  0.05385000  0.05563000  0.39846000  1.0
  C  C366  1  0.55384000  0.55563000  0.10154000  1.0
  C  C367  1  0.05385000  0.44437000  0.89846000  1.0
  N  N368  1  0.10313000  0.01477000  0.24762000  1.0
  N  N369  1  0.60313000  0.98523000  0.75238000  1.0
  N  N370  1  0.10312000  0.48523000  0.74762000  1.0
  N  N371  1  0.60313000  0.51477000  0.25238000  1.0
  N  N372  1  0.12644000  0.06985000  0.16233000  1.0
  N  N373  1  0.62644000  0.93015000  0.83767000  1.0
  N  N374  1  0.12644000  0.43015000  0.66233000  1.0
  N  N375  1  0.62644000  0.56985000  0.33767000  1.0
  N  N376  1  0.12873000  0.11048000  0.92668000  1.0
  N  N377  1  0.62874000  0.88951000  0.07332000  1.0
  N  N378  1  0.12873000  0.38951000  0.42668000  1.0
  N  N379  1  0.62873000  0.61048000  0.57332000  1.0
  N  N380  1  0.15612000  0.76875000  0.88426000  1.0
  N  N381  1  0.65612000  0.23125000  0.11574000  1.0
  N  N382  1  0.15612000  0.73126000  0.38426000  1.0
  N  N383  1  0.65612000  0.26874000  0.61574000  1.0
  N  N384  1  0.12185000  0.64489000  0.84805000  1.0
  N  N385  1  0.62184000  0.35511000  0.15195000  1.0
  N  N386  1  0.12185000  0.85511000  0.34805000  1.0
  N  N387  1  0.62185000  0.14489000  0.65195000  1.0
  N  N388  1  0.37927000  0.90078000  0.27402000  1.0
  N  N389  1  0.87927000  0.09922000  0.72598000  1.0
  N  N390  1  0.37927000  0.59922000  0.77402000  1.0
  N  N391  1  0.87927000  0.40078000  0.22598000  1.0
  N  N392  1  0.35964000  0.96810000  0.19282000  1.0
  N  N393  1  0.85965000  0.03190000  0.80718000  1.0
  N  N394  1  0.35964000  0.53191000  0.69282000  1.0
  N  N395  1  0.85965000  0.46810000  0.30718000  1.0
  N  N396  1  0.38156000  0.17940000  0.00508000  1.0
  N  N397  1  0.88155000  0.82060000  0.99492000  1.0
  N  N398  1  0.38155000  0.32060000  0.50508000  1.0
  N  N399  1  0.88155000  0.67940000  0.49492000  1.0
  N  N400  1  0.38900000  0.90800000  0.85541000  1.0
  N  N401  1  0.88900000  0.09200000  0.14459000  1.0
  N  N402  1  0.38900000  0.59200000  0.35541000  1.0
  N  N403  1  0.88900000  0.40800000  0.64459000  1.0
  N  N404  1  0.40742000  0.77585000  0.82932000  1.0
  N  N405  1  0.90742000  0.22415000  0.17067000  1.0
  N  N406  1  0.40742000  0.72415000  0.32932000  1.0
  N  N407  1  0.90742000  0.27585000  0.67067000  1.0
  O  O408  1  0.93020000  0.90498000  0.27080000  1.0
  O  O409  1  0.43020000  0.09501000  0.72919000  1.0
  O  O410  1  0.93020000  0.59501000  0.77081000  1.0
  O  O411  1  0.43020000  0.40499000  0.22919000  1.0
  O  O412  1  0.94922000  0.76468000  0.25758000  1.0
  O  O413  1  0.44922000  0.23531000  0.74244000  1.0
  O  O414  1  0.94923000  0.73530000  0.75756000  1.0
  O  O415  1  0.44922000  0.26469000  0.24244000  1.0
  O  O416  1  0.58486000  0.83754000  0.34467000  1.0
  O  O417  1  0.08487000  0.16247000  0.65533000  1.0
  O  O418  1  0.58486000  0.66246000  0.84467000  1.0
  O  O419  1  0.08487000  0.33754000  0.15533000  1.0
  O  O420  1  0.42154000  0.90839000  0.41054000  1.0
  O  O421  1  0.92154000  0.09161000  0.58946000  1.0
  O  O422  1  0.42154000  0.59161000  0.91054000  1.0
  O  O423  1  0.92155000  0.40839000  0.08946000  1.0
  O  O424  1  0.60278000  0.88822000  0.25535000  1.0
  O  O425  1  0.10278000  0.11179000  0.74465000  1.0
  O  O426  1  0.60278000  0.61179000  0.75535000  1.0
  O  O427  1  0.10278000  0.38822000  0.24465000  1.0
  O  O428  1  0.48771000  0.98797000  0.62608000  1.0
  O  O429  1  0.98771000  0.01203000  0.37391000  1.0
  O  O430  1  0.48771000  0.51204000  0.12609000  1.0
  O  O431  1  0.98771000  0.48796000  0.87391000  1.0
  O  O432  1  0.41891000  0.79721000  0.47084000  1.0
  O  O433  1  0.91891000  0.20279000  0.52916000  1.0
  O  O434  1  0.41890000  0.70278000  0.97084000  1.0
  O  O435  1  0.91891000  0.29721000  0.02916000  1.0
  O  O436  1  0.63810000  0.94228000  0.61864000  1.0
  O  O437  1  0.13809000  0.05771000  0.38136000  1.0
  O  O438  1  0.63809000  0.55772000  0.11864000  1.0
  O  O439  1  0.13810000  0.44228000  0.88136000  1.0
