# generated using pymatgen
data_ZnH9C12N3O4
_symmetry_space_group_name_H-M   'P 1'
_cell_length_a   13.18270000
_cell_length_b   13.65880000
_cell_length_c   20.34860000
_cell_angle_alpha   89.99990000
_cell_angle_beta   90.00060000
_cell_angle_gamma   90.00000000
_symmetry_Int_Tables_number   1
_chemical_formula_structural   ZnH9C12N3O4
_chemical_formula_sum   'Zn8 H72 C96 N24 O32'
_cell_volume   3663.96612315
_cell_formula_units_Z   8
loop_
 _symmetry_equiv_pos_site_id
 _symmetry_equiv_pos_as_xyz
  1  'x, y, z'
loop_
 _atom_site_type_symbol
 _atom_site_label
 _atom_site_symmetry_multiplicity
 _atom_site_fract_x
 _atom_site_fract_y
 _atom_site_fract_z
 _atom_site_occupancy
  Zn  Zn0  1  0.16415000  0.42927000  0.30737000  1.0
  Zn  Zn1  1  0.33585000  0.07073000  0.80737000  1.0
  Zn  Zn2  1  0.33585000  0.92928000  0.69263000  1.0
  Zn  Zn3  1  0.16415000  0.57073000  0.19263000  1.0
  Zn  Zn4  1  0.83584000  0.57073000  0.69263000  1.0
  Zn  Zn5  1  0.66415000  0.92928000  0.19263000  1.0
  Zn  Zn6  1  0.66416000  0.07073000  0.30737000  1.0
  Zn  Zn7  1  0.83584000  0.42928000  0.80737000  1.0
  H  H8  1  0.42187000  0.75048000  0.26103000  1.0
  H  H9  1  0.07813000  0.74953000  0.76103000  1.0
  H  H10  1  0.07814000  0.25048000  0.73897000  1.0
  H  H11  1  0.42186000  0.24952000  0.23897000  1.0
  H  H12  1  0.57815000  0.24950000  0.73897000  1.0
  H  H13  1  0.92187000  0.25048000  0.23897000  1.0
  H  H14  1  0.92185000  0.74950000  0.26103000  1.0
  H  H15  1  0.57814000  0.75049000  0.76103000  1.0
  H  H16  1  0.49282000  0.89060000  0.44433000  1.0
  H  H17  1  0.00716000  0.60942000  0.94433000  1.0
  H  H18  1  0.00718000  0.39060000  0.55567000  1.0
  H  H19  1  0.49283000  0.10941000  0.05567000  1.0
  H  H20  1  0.50720000  0.10939000  0.55567000  1.0
  H  H21  1  0.99283000  0.39058000  0.05567000  1.0
  H  H22  1  0.99281000  0.60940000  0.44433000  1.0
  H  H23  1  0.50717000  0.89059000  0.94433000  1.0
  H  H24  1  0.29569000  0.63745000  0.44096000  1.0
  H  H25  1  0.20431000  0.86256000  0.94096000  1.0
  H  H26  1  0.20430000  0.13745000  0.55904000  1.0
  H  H27  1  0.29569000  0.36255000  0.05904000  1.0
  H  H28  1  0.70431000  0.36255000  0.55904000  1.0
  H  H29  1  0.79568000  0.13745000  0.05904000  1.0
  H  H30  1  0.79568000  0.86255000  0.44096000  1.0
  H  H31  1  0.70432000  0.63745000  0.94096000  1.0
  H  H32  1  0.35521000  0.98826000  0.50368000  1.0
  H  H33  1  0.14478000  0.51174000  0.00368000  1.0
  H  H34  1  0.14477000  0.48826000  0.49632000  1.0
  H  H35  1  0.35522000  0.01174000  0.99632000  1.0
  H  H36  1  0.64478000  0.01174000  0.49632000  1.0
  H  H37  1  0.85522000  0.48826000  0.99632000  1.0
  H  H38  1  0.85522000  0.51174000  0.50368000  1.0
  H  H39  1  0.64478000  0.98826000  0.00368000  1.0
  H  H40  1  0.25172000  0.97713000  0.55932000  1.0
  H  H41  1  0.24828000  0.52287000  0.05931000  1.0
  H  H42  1  0.24827000  0.47713000  0.44068000  1.0
  H  H43  1  0.25173000  0.02287000  0.94068000  1.0
  H  H44  1  0.74828000  0.02287000  0.44068000  1.0
  H  H45  1  0.75172000  0.47713000  0.94068000  1.0
  H  H46  1  0.75173000  0.52287000  0.55931000  1.0
  H  H47  1  0.74828000  0.97713000  0.05931000  1.0
  H  H48  1  0.24865000  0.91729000  0.48031000  1.0
  H  H49  1  0.25134000  0.58271000  0.98030000  1.0
  H  H50  1  0.25134000  0.41730000  0.51969000  1.0
  H  H51  1  0.24866000  0.08271000  0.01969000  1.0
  H  H52  1  0.75135000  0.08270000  0.51969000  1.0
  H  H53  1  0.74866000  0.41730000  0.01969000  1.0
  H  H54  1  0.74865000  0.58270000  0.48030000  1.0
  H  H55  1  0.75134000  0.91730000  0.98030000  1.0
  H  H56  1  0.40966000  0.55539000  0.53826000  1.0
  H  H57  1  0.09034000  0.94461000  0.03827000  1.0
  H  H58  1  0.09034000  0.05539000  0.46173000  1.0
  H  H59  1  0.40966000  0.44461000  0.96173000  1.0
  H  H60  1  0.59034000  0.44461000  0.46173000  1.0
  H  H61  1  0.90965000  0.05539000  0.96173000  1.0
  H  H62  1  0.90966000  0.94461000  0.53827000  1.0
  H  H63  1  0.59034000  0.55539000  0.03827000  1.0
  H  H64  1  0.50468000  0.58592000  0.59717000  1.0
  H  H65  1  0.99532000  0.91408000  0.09718000  1.0
  H  H66  1  0.99532000  0.08592000  0.40283000  1.0
  H  H67  1  0.50468000  0.41408000  0.90282000  1.0
  H  H68  1  0.49533000  0.41408000  0.40283000  1.0
  H  H69  1  0.00467000  0.08592000  0.90282000  1.0
  H  H70  1  0.00468000  0.91408000  0.59718000  1.0
  H  H71  1  0.49532000  0.58592000  0.09718000  1.0
  H  H72  1  0.51978000  0.61905000  0.51253000  1.0
  H  H73  1  0.98022000  0.88095000  0.01254000  1.0
  H  H74  1  0.98022000  0.11905000  0.48747000  1.0
  H  H75  1  0.51978000  0.38095000  0.98746000  1.0
  H  H76  1  0.48022000  0.38095000  0.48746000  1.0
  H  H77  1  0.01978000  0.11905000  0.98746000  1.0
  H  H78  1  0.01978000  0.88095000  0.51254000  1.0
  H  H79  1  0.48022000  0.61905000  0.01254000  1.0
  C  C80  1  0.29547000  0.60956000  0.30955000  1.0
  C  C81  1  0.20452000  0.89046000  0.80955000  1.0
  C  C82  1  0.20453000  0.10955000  0.69044000  1.0
  C  C83  1  0.29547000  0.39045000  0.19045000  1.0
  C  C84  1  0.70453000  0.39044000  0.69046000  1.0
  C  C85  1  0.79548000  0.10955000  0.19045000  1.0
  C  C86  1  0.79547000  0.89044000  0.30955000  1.0
  C  C87  1  0.70453000  0.60955000  0.80955000  1.0
  C  C88  1  0.35397000  0.68539000  0.34730000  1.0
  C  C89  1  0.14603000  0.81462000  0.84730000  1.0
  C  C90  1  0.14603000  0.18539000  0.65270000  1.0
  C  C91  1  0.35397000  0.31461000  0.15270000  1.0
  C  C92  1  0.64604000  0.31460000  0.65270000  1.0
  C  C93  1  0.85397000  0.18539000  0.15270000  1.0
  C  C94  1  0.85396000  0.81460000  0.34730000  1.0
  C  C95  1  0.64603000  0.68540000  0.84730000  1.0
  C  C96  1  0.41396000  0.75396000  0.31427000  1.0
  C  C97  1  0.08603000  0.74605000  0.81427000  1.0
  C  C98  1  0.08604000  0.25396000  0.68573000  1.0
  C  C99  1  0.41396000  0.24604000  0.18573000  1.0
  C  C100  1  0.58605000  0.24602000  0.68574000  1.0
  C  C101  1  0.91397000  0.25396000  0.18573000  1.0
  C  C102  1  0.91395000  0.74603000  0.31426000  1.0
  C  C103  1  0.58604000  0.75396000  0.81427000  1.0
  C  C104  1  0.46414000  0.82731000  0.34939000  1.0
  C  C105  1  0.03586000  0.67270000  0.84939000  1.0
  C  C106  1  0.03586000  0.32731000  0.65061000  1.0
  C  C107  1  0.46414000  0.17270000  0.15061000  1.0
  C  C108  1  0.53588000  0.17268000  0.65061000  1.0
  C  C109  1  0.96414000  0.32730000  0.15061000  1.0
  C  C110  1  0.96413000  0.67268000  0.34939000  1.0
  C  C111  1  0.53586000  0.82731000  0.84939000  1.0
  C  C112  1  0.45338000  0.83288000  0.41761000  1.0
  C  C113  1  0.04661000  0.66713000  0.91761000  1.0
  C  C114  1  0.04662000  0.33289000  0.58240000  1.0
  C  C115  1  0.45339000  0.16712000  0.08239000  1.0
  C  C116  1  0.54663000  0.16711000  0.58239000  1.0
  C  C117  1  0.95339000  0.33287000  0.08239000  1.0
  C  C118  1  0.95337000  0.66711000  0.41761000  1.0
  C  C119  1  0.54662000  0.83288000  0.91761000  1.0
  C  C120  1  0.39320000  0.76442000  0.45017000  1.0
  C  C121  1  0.10679000  0.73559000  0.95017000  1.0
  C  C122  1  0.10679000  0.26442000  0.54983000  1.0
  C  C123  1  0.39320000  0.23558000  0.04983000  1.0
  C  C124  1  0.60681000  0.23558000  0.54983000  1.0
  C  C125  1  0.89320000  0.26441000  0.04983000  1.0
  C  C126  1  0.89320000  0.73558000  0.45017000  1.0
  C  C127  1  0.60680000  0.76442000  0.95017000  1.0
  C  C128  1  0.34384000  0.69021000  0.41567000  1.0
  C  C129  1  0.15616000  0.80980000  0.91567000  1.0
  C  C130  1  0.15616000  0.19021000  0.58433000  1.0
  C  C131  1  0.34384000  0.30979000  0.08433000  1.0
  C  C132  1  0.65617000  0.30979000  0.58434000  1.0
  C  C133  1  0.84384000  0.19020000  0.08433000  1.0
  C  C134  1  0.84383000  0.80979000  0.41566000  1.0
  C  C135  1  0.65616000  0.69021000  0.91567000  1.0
  C  C136  1  0.53179000  0.89934000  0.31478000  1.0
  C  C137  1  0.96821000  0.60067000  0.81478000  1.0
  C  C138  1  0.96821000  0.39934000  0.68523000  1.0
  C  C139  1  0.53180000  0.10067000  0.18522000  1.0
  C  C140  1  0.46822000  0.10065000  0.68521000  1.0
  C  C141  1  0.03180000  0.39933000  0.18522000  1.0
  C  C142  1  0.03178000  0.60065000  0.31478000  1.0
  C  C143  1  0.46821000  0.89933000  0.81477000  1.0
  C  C144  1  0.34218000  0.85020000  0.55320000  1.0
  C  C145  1  0.15782000  0.64980000  0.05319000  1.0
  C  C146  1  0.15781000  0.35020000  0.44680000  1.0
  C  C147  1  0.34218000  0.14980000  0.94680000  1.0
  C  C148  1  0.65782000  0.14980000  0.44680000  1.0
  C  C149  1  0.84218000  0.35020000  0.94680000  1.0
  C  C150  1  0.84218000  0.64980000  0.55319000  1.0
  C  C151  1  0.65782000  0.85020000  0.05320000  1.0
  C  C152  1  0.41511000  0.70645000  0.56742000  1.0
  C  C153  1  0.08489000  0.79355000  0.06743000  1.0
  C  C154  1  0.08489000  0.20645000  0.43258000  1.0
  C  C155  1  0.41511000  0.29355000  0.93258000  1.0
  C  C156  1  0.58490000  0.29355000  0.43258000  1.0
  C  C157  1  0.91511000  0.20645000  0.93258000  1.0
  C  C158  1  0.91511000  0.79355000  0.56742000  1.0
  C  C159  1  0.58489000  0.70645000  0.06742000  1.0
  C  C160  1  0.29658000  0.93810000  0.52223000  1.0
  C  C161  1  0.20342000  0.56190000  0.02222000  1.0
  C  C162  1  0.20341000  0.43810000  0.47777000  1.0
  C  C163  1  0.29659000  0.06190000  0.97777000  1.0
  C  C164  1  0.70342000  0.06190000  0.47778000  1.0
  C  C165  1  0.79658000  0.43810000  0.97778000  1.0
  C  C166  1  0.79658000  0.56190000  0.52222000  1.0
  C  C167  1  0.70342000  0.93810000  0.02222000  1.0
  C  C168  1  0.46513000  0.61143000  0.55299000  1.0
  C  C169  1  0.03488000  0.88857000  0.05300000  1.0
  C  C170  1  0.03488000  0.11143000  0.44701000  1.0
  C  C171  1  0.46512000  0.38857000  0.94700000  1.0
  C  C172  1  0.53488000  0.38857000  0.44701000  1.0
  C  C173  1  0.96512000  0.11143000  0.94700000  1.0
  C  C174  1  0.96512000  0.88857000  0.55300000  1.0
  C  C175  1  0.53488000  0.61143000  0.05300000  1.0
  N  N176  1  0.35056000  0.83201000  0.61698000  1.0
  N  N177  1  0.14943000  0.66798000  0.11698000  1.0
  N  N178  1  0.14944000  0.33202000  0.38302000  1.0
  N  N179  1  0.35056000  0.16799000  0.88302000  1.0
  N  N180  1  0.64945000  0.16799000  0.38302000  1.0
  N  N181  1  0.85056000  0.33202000  0.88302000  1.0
  N  N182  1  0.85055000  0.66799000  0.61698000  1.0
  N  N183  1  0.64944000  0.83202000  0.11698000  1.0
  N  N184  1  0.39653000  0.74241000  0.62628000  1.0
  N  N185  1  0.10347000  0.75759000  0.12628000  1.0
  N  N186  1  0.10347000  0.24240000  0.37373000  1.0
  N  N187  1  0.39653000  0.25760000  0.87372000  1.0
  N  N188  1  0.60349000  0.25760000  0.37372000  1.0
  N  N189  1  0.89652000  0.24241000  0.87372000  1.0
  N  N190  1  0.89652000  0.75760000  0.62627000  1.0
  N  N191  1  0.60348000  0.74241000  0.12628000  1.0
  N  N192  1  0.38209000  0.77187000  0.51990000  1.0
  N  N193  1  0.11791000  0.72813000  0.01990000  1.0
  N  N194  1  0.11790000  0.27187000  0.48010000  1.0
  N  N195  1  0.38209000  0.22813000  0.98010000  1.0
  N  N196  1  0.61792000  0.22813000  0.48010000  1.0
  N  N197  1  0.88209000  0.27187000  0.98010000  1.0
  N  N198  1  0.88209000  0.72813000  0.51990000  1.0
  N  N199  1  0.61791000  0.77187000  0.01990000  1.0
  O  O200  1  0.27111000  0.53199000  0.34046000  1.0
  O  O201  1  0.22887000  0.96803000  0.84046000  1.0
  O  O202  1  0.22888000  0.03199000  0.65954000  1.0
  O  O203  1  0.27113000  0.46802000  0.15954000  1.0
  O  O204  1  0.72889000  0.46801000  0.65954000  1.0
  O  O205  1  0.77112000  0.03199000  0.15954000  1.0
  O  O206  1  0.77111000  0.96801000  0.34046000  1.0
  O  O207  1  0.72888000  0.53199000  0.84046000  1.0
  O  O208  1  0.27369000  0.63151000  0.25065000  1.0
  O  O209  1  0.22631000  0.86851000  0.75066000  1.0
  O  O210  1  0.22631000  0.13150000  0.74935000  1.0
  O  O211  1  0.27369000  0.36850000  0.24934000  1.0
  O  O212  1  0.72630000  0.36850000  0.74935000  1.0
  O  O213  1  0.77371000  0.13149000  0.24935000  1.0
  O  O214  1  0.77369000  0.86850000  0.25065000  1.0
  O  O215  1  0.72631000  0.63150000  0.75065000  1.0
  O  O216  1  0.56096000  0.97295000  0.34811000  1.0
  O  O217  1  0.93903000  0.52706000  0.84811000  1.0
  O  O218  1  0.93904000  0.47295000  0.65189000  1.0
  O  O219  1  0.56097000  0.02706000  0.15189000  1.0
  O  O220  1  0.43904000  0.02705000  0.65188000  1.0
  O  O221  1  0.06098000  0.47293000  0.15189000  1.0
  O  O222  1  0.06095000  0.52704000  0.34812000  1.0
  O  O223  1  0.43902000  0.97294000  0.84812000  1.0
  O  O224  1  0.55485000  0.87899000  0.25584000  1.0
  O  O225  1  0.94515000  0.62101000  0.75583000  1.0
  O  O226  1  0.94514000  0.37899000  0.74416000  1.0
  O  O227  1  0.55487000  0.12102000  0.24416000  1.0
  O  O228  1  0.44515000  0.12100000  0.74416000  1.0
  O  O229  1  0.05485000  0.37899000  0.24416000  1.0
  O  O230  1  0.05484000  0.62100000  0.25584000  1.0
  O  O231  1  0.44516000  0.87900000  0.75584000  1.0
