# generated using pymatgen
data_ZnH2C7NO4
_symmetry_space_group_name_H-M   'P 1'
_cell_length_a   7.16469000
_cell_length_b   7.16470000
_cell_length_c   19.77390000
_cell_angle_alpha   90.00020000
_cell_angle_beta   90.00020000
_cell_angle_gamma   90.00000000
_symmetry_Int_Tables_number   1
_chemical_formula_structural   ZnH2C7NO4
_chemical_formula_sum   'Zn4 H8 C28 N4 O16'
_cell_volume   1015.05073046
_cell_formula_units_Z   4
loop_
 _symmetry_equiv_pos_site_id
 _symmetry_equiv_pos_as_xyz
  1  'x, y, z'
loop_
 _atom_site_type_symbol
 _atom_site_label
 _atom_site_symmetry_multiplicity
 _atom_site_fract_x
 _atom_site_fract_y
 _atom_site_fract_z
 _atom_site_occupancy
  Zn  Zn0  1  0.00000000  0.00000000  0.28011000  1.0
  Zn  Zn1  1  0.50000000  0.50000000  0.78012000  1.0
  Zn  Zn2  1  0.50000000  0.50000000  0.21988000  1.0
  Zn  Zn3  1  0.00000000  0.00000000  0.71989000  1.0
  H  H4  1  0.19037000  0.76265000  0.05021000  1.0
  H  H5  1  0.73734000  0.69038000  0.55021000  1.0
  H  H6  1  0.80962000  0.23735000  0.05021000  1.0
  H  H7  1  0.26266000  0.30961000  0.55021000  1.0
  H  H8  1  0.69038000  0.73734000  0.44979000  1.0
  H  H9  1  0.76265000  0.19037000  0.94980000  1.0
  H  H10  1  0.30962000  0.26266000  0.44979000  1.0
  H  H11  1  0.23735000  0.80963000  0.94980000  1.0
  C  C12  1  0.00000000  0.00000000  0.03752000  1.0
  C  C13  1  0.50000000  0.50000000  0.53752000  1.0
  C  C14  1  0.50000000  0.50000000  0.46248000  1.0
  C  C15  1  0.00000000  0.00000000  0.96248000  1.0
  C  C16  1  0.10601000  0.86973000  0.07436000  1.0
  C  C17  1  0.63027000  0.60602000  0.57436000  1.0
  C  C18  1  0.89399000  0.13027000  0.07436000  1.0
  C  C19  1  0.36973000  0.39398000  0.57436000  1.0
  C  C20  1  0.60602000  0.63027000  0.42564000  1.0
  C  C21  1  0.86973000  0.10601000  0.92564000  1.0
  C  C22  1  0.39399000  0.36974000  0.42564000  1.0
  C  C23  1  0.13027000  0.89399000  0.92564000  1.0
  C  C24  1  0.10391000  0.87581000  0.14470000  1.0
  C  C25  1  0.62419000  0.60391000  0.64470000  1.0
  C  C26  1  0.89609000  0.12420000  0.14470000  1.0
  C  C27  1  0.37580000  0.39609000  0.64470000  1.0
  C  C28  1  0.60391000  0.62420000  0.35530000  1.0
  C  C29  1  0.87581000  0.10391000  0.85530000  1.0
  C  C30  1  0.39609000  0.37581000  0.35530000  1.0
  C  C31  1  0.12419000  0.89609000  0.85530000  1.0
  C  C32  1  0.21755000  0.75017000  0.19013000  1.0
  C  C33  1  0.74984000  0.71755000  0.69013000  1.0
  C  C34  1  0.78245000  0.24983000  0.19013000  1.0
  C  C35  1  0.25016000  0.28244000  0.69013000  1.0
  C  C36  1  0.71755000  0.74983000  0.30987000  1.0
  C  C37  1  0.75016000  0.21756000  0.80988000  1.0
  C  C38  1  0.28245000  0.25018000  0.30986000  1.0
  C  C39  1  0.24983000  0.78244000  0.80988000  1.0
  N  N40  1  0.00000000  0.00000000  0.17796000  1.0
  N  N41  1  0.50000000  0.50000000  0.67797000  1.0
  N  N42  1  0.50000000  0.50000000  0.32203000  1.0
  N  N43  1  0.00000000  0.00000000  0.82204000  1.0
  O  O44  1  0.32942000  0.63854000  0.15986000  1.0
  O  O45  1  0.86145000  0.82940000  0.65987000  1.0
  O  O46  1  0.67058000  0.36146000  0.15986000  1.0
  O  O47  1  0.13854000  0.17059000  0.65987000  1.0
  O  O48  1  0.82941000  0.86147000  0.34013000  1.0
  O  O49  1  0.63854000  0.32941000  0.84014000  1.0
  O  O50  1  0.17059000  0.13854000  0.34013000  1.0
  O  O51  1  0.36146000  0.67059000  0.84014000  1.0
  O  O52  1  0.19666000  0.76710000  0.25304000  1.0
  O  O53  1  0.73289000  0.69664000  0.75305000  1.0
  O  O54  1  0.80334000  0.23290000  0.25304000  1.0
  O  O55  1  0.26711000  0.30335000  0.75305000  1.0
  O  O56  1  0.69665000  0.73290000  0.24695000  1.0
  O  O57  1  0.76710000  0.19666000  0.74695000  1.0
  O  O58  1  0.30334000  0.26711000  0.24695000  1.0
  O  O59  1  0.23289000  0.80333000  0.74695000  1.0
