# generated using pymatgen
data_CuH12C22(NO2)4
_symmetry_space_group_name_H-M   'P 1'
_cell_length_a   7.48314000
_cell_length_b   13.19020000
_cell_length_c   15.86550000
_cell_angle_alpha   79.25190000
_cell_angle_beta   83.00780000
_cell_angle_gamma   85.93640000
_symmetry_Int_Tables_number   1
_chemical_formula_structural   CuH12C22(NO2)4
_chemical_formula_sum   'Cu3 H36 C66 N12 O24'
_cell_volume   1525.21133691
_cell_formula_units_Z   3
loop_
 _symmetry_equiv_pos_site_id
 _symmetry_equiv_pos_as_xyz
  1  'x, y, z'
loop_
 _atom_site_type_symbol
 _atom_site_label
 _atom_site_symmetry_multiplicity
 _atom_site_fract_x
 _atom_site_fract_y
 _atom_site_fract_z
 _atom_site_occupancy
  Cu  Cu0  1  0.00000000  0.99999000  0.50001000  1.0
  Cu  Cu1  1  0.50776000  0.76150000  0.80403000  1.0
  Cu  Cu2  1  0.49223000  0.23850000  0.19597000  1.0
  H  H3  1  0.99406000  0.17066000  0.34535000  1.0
  H  H4  1  0.00598000  0.82931000  0.65466000  1.0
  H  H5  1  0.04683000  0.35890000  0.31502000  1.0
  H  H6  1  0.95322000  0.64106000  0.68498000  1.0
  H  H7  1  0.14530000  0.44148000  0.43120000  1.0
  H  H8  1  0.85472000  0.55850000  0.56880000  1.0
  H  H9  1  0.12128000  0.14165000  0.59641000  1.0
  H  H10  1  0.87873000  0.85834000  0.40360000  1.0
  H  H11  1  0.34257000  0.60399000  0.50213000  1.0
  H  H12  1  0.65743000  0.39601000  0.49786000  1.0
  H  H13  1  0.43466000  0.78944000  0.48797000  1.0
  H  H14  1  0.56534000  0.21056000  0.51202000  1.0
  H  H15  1  0.50779000  0.84904000  0.61857000  1.0
  H  H16  1  0.49220000  0.15097000  0.38142000  1.0
  H  H17  1  0.42789000  0.55981000  0.77038000  1.0
  H  H18  1  0.57211000  0.44019000  0.22960000  1.0
  H  H19  1  0.25248000  0.36137000  0.89778000  1.0
  H  H20  1  0.74750000  0.63865000  0.10222000  1.0
  H  H21  1  0.18236000  0.07222000  0.04916000  1.0
  H  H22  1  0.81763000  0.92779000  0.95085000  1.0
  H  H23  1  0.16958000  0.98905000  0.91893000  1.0
  H  H24  1  0.83045000  0.01095000  0.08108000  1.0
  H  H25  1  0.18876000  0.10495000  0.77216000  1.0
  H  H26  1  0.81127000  0.89504000  0.22785000  1.0
  H  H27  1  0.40247000  0.94660000  0.07449000  1.0
  H  H28  1  0.59752000  0.05342000  0.92551000  1.0
  H  H29  1  0.22145000  0.75088000  0.36599000  1.0
  H  H30  1  0.77856000  0.24911000  0.63401000  1.0
  H  H31  1  0.32429000  0.51776000  0.00863000  1.0
  H  H32  1  0.67568000  0.48225000  0.99137000  1.0
  H  H33  1  0.23214000  0.24774000  0.03266000  1.0
  H  H34  1  0.76785000  0.75228000  0.96734000  1.0
  H  H35  1  0.39917000  0.68140000  0.98374000  1.0
  H  H36  1  0.60085000  0.31861000  0.01626000  1.0
  H  H37  1  0.17389000  0.52013000  0.19432000  1.0
  H  H38  1  0.82608000  0.47987000  0.80568000  1.0
  C  C39  1  0.03302000  0.20907000  0.39492000  1.0
  C  C40  1  0.96702000  0.79090000  0.60509000  1.0
  C  C41  1  0.06285000  0.31431000  0.37877000  1.0
  C  C42  1  0.93718000  0.68566000  0.62123000  1.0
  C  C43  1  0.11787000  0.35964000  0.44323000  1.0
  C  C44  1  0.88215000  0.64033000  0.55677000  1.0
  C  C45  1  0.14057000  0.29711000  0.52330000  1.0
  C  C46  1  0.85942000  0.70287000  0.47671000  1.0
  C  C47  1  0.10631000  0.19227000  0.53503000  1.0
  C  C48  1  0.89369000  0.80771000  0.46498000  1.0
  C  C49  1  0.19987000  0.33654000  0.59587000  1.0
  C  C50  1  0.80012000  0.66345000  0.40413000  1.0
  C  C51  1  0.23831000  0.31108000  0.73811000  1.0
  C  C52  1  0.76170000  0.68892000  0.26189000  1.0
  C  C53  1  0.31007000  0.46320000  0.65148000  1.0
  C  C54  1  0.68993000  0.53680000  0.34851000  1.0
  C  C55  1  0.37479000  0.56885000  0.63802000  1.0
  C  C56  1  0.62522000  0.43115000  0.36196000  1.0
  C  C57  1  0.38013000  0.63367000  0.55688000  1.0
  C  C58  1  0.61987000  0.36633000  0.44310000  1.0
  C  C59  1  0.43069000  0.73474000  0.54880000  1.0
  C  C60  1  0.56931000  0.26526000  0.45118000  1.0
  C  C61  1  0.47159000  0.76962000  0.62161000  1.0
  C  C62  1  0.52840000  0.23039000  0.37838000  1.0
  C  C63  1  0.42475000  0.60831000  0.70711000  1.0
  C  C64  1  0.57526000  0.39169000  0.29288000  1.0
  C  C65  1  0.22176000  0.24180000  0.82341000  1.0
  C  C66  1  0.77826000  0.75821000  0.17659000  1.0
  C  C67  1  0.23192000  0.28051000  0.89838000  1.0
  C  C68  1  0.76808000  0.71950000  0.10163000  1.0
  C  C69  1  0.19292000  0.11572000  0.98360000  1.0
  C  C70  1  0.80707000  0.88428000  0.01641000  1.0
  C  C71  1  0.18323000  0.07201000  0.91139000  1.0
  C  C72  1  0.81679000  0.92800000  0.08862000  1.0
  C  C73  1  0.19642000  0.13588000  0.83061000  1.0
  C  C74  1  0.80361000  0.86412000  0.16939000  1.0
  C  C75  1  0.25194000  0.94865000  0.37212000  1.0
  C  C76  1  0.74807000  0.05136000  0.62788000  1.0
  C  C77  1  0.29288000  0.90014000  0.29240000  1.0
  C  C78  1  0.70712000  0.09986000  0.70761000  1.0
  C  C79  1  0.35243000  0.95338000  0.20953000  1.0
  C  C80  1  0.64755000  0.04664000  0.79047000  1.0
  C  C81  1  0.35822000  0.90388000  0.13843000  1.0
  C  C82  1  0.64175000  0.09615000  0.86157000  1.0
  C  C83  1  0.30944000  0.80180000  0.14749000  1.0
  C  C84  1  0.69057000  0.19822000  0.85250000  1.0
  C  C85  1  0.26725000  0.74554000  0.23149000  1.0
  C  C86  1  0.73277000  0.25447000  0.76850000  1.0
  C  C87  1  0.25990000  0.79566000  0.30215000  1.0
  C  C88  1  0.74008000  0.20435000  0.69785000  1.0
  C  C89  1  0.41329000  0.06050000  0.19618000  1.0
  C  C90  1  0.58667000  0.93951000  0.80385000  1.0
  C  C91  1  0.29324000  0.76460000  0.06490000  1.0
  C  C92  1  0.70678000  0.23542000  0.93509000  1.0
  C  C93  1  0.22449000  0.63385000  0.25124000  1.0
  C  C94  1  0.77553000  0.36616000  0.74874000  1.0
  C  C95  1  0.19548000  0.65655000  0.87602000  1.0
  C  C96  1  0.80451000  0.34344000  0.12397000  1.0
  C  C97  1  0.09576000  0.57587000  0.94035000  1.0
  C  C98  1  0.90423000  0.42413000  0.05965000  1.0
  C  C99  1  0.18172000  0.51023000  0.00462000  1.0
  C  C100  1  0.81827000  0.48977000  0.99538000  1.0
  C  C101  1  0.91210000  0.56466000  0.93591000  1.0
  C  C102  1  0.08789000  0.43535000  0.06409000  1.0
  C  C103  1  0.80638000  0.62851000  0.86871000  1.0
  C  C104  1  0.19359000  0.37150000  0.13129000  1.0
  N  N105  1  0.05300000  0.14952000  0.47252000  1.0
  N  N106  1  0.94702000  0.85045000  0.52749000  1.0
  N  N107  1  0.26055000  0.43211000  0.58190000  1.0
  N  N108  1  0.73944000  0.56789000  0.41809000  1.0
  N  N109  1  0.29940000  0.40588000  0.73167000  1.0
  N  N110  1  0.70062000  0.59413000  0.26832000  1.0
  N  N111  1  0.18861000  0.27251000  0.67278000  1.0
  N  N112  1  0.81138000  0.72749000  0.32723000  1.0
  N  N113  1  0.46894000  0.70677000  0.69914000  1.0
  N  N114  1  0.53106000  0.29323000  0.30085000  1.0
  N  N115  1  0.21771000  0.21717000  0.97523000  1.0
  N  N116  1  0.78228000  0.78284000  0.02478000  1.0
  O  O117  1  0.08588000  0.98490000  0.38034000  1.0
  O  O118  1  0.91410000  0.01506000  0.61967000  1.0
  O  O119  1  0.36202000  0.94237000  0.42569000  1.0
  O  O120  1  0.63798000  0.05767000  0.57430000  1.0
  O  O121  1  0.38196000  0.11121000  0.25911000  1.0
  O  O122  1  0.61786000  0.88881000  0.74091000  1.0
  O  O123  1  0.49771000  0.10203000  0.12525000  1.0
  O  O124  1  0.50239000  0.89798000  0.87481000  1.0
  O  O125  1  0.41902000  0.69447000  0.04327000  1.0
  O  O126  1  0.58100000  0.30554000  0.95673000  1.0
  O  O127  1  0.17602000  0.80350000  0.01927000  1.0
  O  O128  1  0.82399000  0.19651000  0.98072000  1.0
  O  O129  1  0.24393000  0.58000000  0.32235000  1.0
  O  O130  1  0.75607000  0.42001000  0.67764000  1.0
  O  O131  1  0.16359000  0.60145000  0.18631000  1.0
  O  O132  1  0.83642000  0.39856000  0.81368000  1.0
  O  O133  1  0.36462000  0.66418000  0.88882000  1.0
  O  O134  1  0.63537000  0.33582000  0.11117000  1.0
  O  O135  1  0.12110000  0.70814000  0.81537000  1.0
  O  O136  1  0.87890000  0.29182000  0.18460000  1.0
  O  O137  1  0.77727000  0.58955000  0.80500000  1.0
  O  O138  1  0.22268000  0.41045000  0.19502000  1.0
  O  O139  1  0.73240000  0.71440000  0.88430000  1.0
  O  O140  1  0.26759000  0.28562000  0.11570000  1.0
