# generated using pymatgen
data_CdH11C10NO10
_symmetry_space_group_name_H-M   'P 1'
_cell_length_a   7.74995000
_cell_length_b   7.86827000
_cell_length_c   11.08110000
_cell_angle_alpha   95.38200000
_cell_angle_beta   90.58450000
_cell_angle_gamma   108.76300000
_symmetry_Int_Tables_number   1
_chemical_formula_structural   CdH11C10NO10
_chemical_formula_sum   'Cd2 H22 C20 N2 O20'
_cell_volume   636.39689563
_cell_formula_units_Z   2
loop_
 _symmetry_equiv_pos_site_id
 _symmetry_equiv_pos_as_xyz
  1  'x, y, z'
loop_
 _atom_site_type_symbol
 _atom_site_label
 _atom_site_symmetry_multiplicity
 _atom_site_fract_x
 _atom_site_fract_y
 _atom_site_fract_z
 _atom_site_occupancy
  Cd  Cd0  1  0.73544000  0.90003000  0.55242000  1.0
  Cd  Cd1  1  0.26456000  0.09997000  0.44758000  1.0
  H  H2  1  0.37070000  0.57520000  0.52421000  1.0
  H  H3  1  0.62930000  0.42480000  0.47579000  1.0
  H  H4  1  0.39923000  0.75569000  0.45741000  1.0
  H  H5  1  0.60077000  0.24432000  0.54259000  1.0
  H  H6  1  0.02353000  0.91570000  0.71085000  1.0
  H  H7  1  0.97647000  0.08430000  0.28916000  1.0
  H  H8  1  0.85747000  0.74391000  0.73745000  1.0
  H  H9  1  0.14253000  0.25609000  0.26255000  1.0
  H  H10  1  0.42945000  0.78189000  0.77158000  1.0
  H  H11  1  0.57055000  0.21811000  0.22841000  1.0
  H  H12  1  0.51805000  0.99356000  0.86211000  1.0
  H  H13  1  0.48195000  0.00643000  0.13789000  1.0
  H  H14  1  0.95256000  0.83633000  0.98261000  1.0
  H  H15  1  0.04744000  0.16367000  0.01739000  1.0
  H  H16  1  0.88433000  0.68291000  0.16644000  1.0
  H  H17  1  0.11567000  0.31709000  0.83356000  1.0
  H  H18  1  0.46667000  0.73409000  0.96675000  1.0
  H  H19  1  0.53333000  0.26590000  0.03325000  1.0
  H  H20  1  0.90408000  0.38113000  0.38055000  1.0
  H  H21  1  0.09593000  0.61887000  0.61945000  1.0
  H  H22  1  0.81086000  0.46173000  0.26002000  1.0
  H  H23  1  0.18915000  0.53826000  0.73998000  1.0
  C  C24  1  0.40388000  0.00471000  0.68728000  1.0
  C  C25  1  0.59612000  0.99529000  0.31272000  1.0
  C  C26  1  0.40435000  0.90991000  0.80014000  1.0
  C  C27  1  0.59564000  0.09008000  0.19986000  1.0
  C  C28  1  0.21200000  0.79321000  0.95990000  1.0
  C  C29  1  0.78799000  0.20678000  0.04010000  1.0
  C  C30  1  0.04885000  0.77754000  0.01939000  1.0
  C  C31  1  0.95115000  0.22245000  0.98061000  1.0
  C  C32  1  0.01069000  0.68943000  0.12287000  1.0
  C  C33  1  0.98931000  0.31057000  0.87713000  1.0
  C  C34  1  0.13020000  0.60799000  0.17009000  1.0
  C  C35  1  0.86980000  0.39201000  0.82991000  1.0
  C  C36  1  0.29605000  0.62961000  0.11161000  1.0
  C  C37  1  0.70396000  0.37040000  0.88839000  1.0
  C  C38  1  0.33717000  0.72249000  0.00763000  1.0
  C  C39  1  0.66283000  0.27751000  0.99237000  1.0
  C  C40  1  0.92592000  0.49563000  0.32669000  1.0
  C  C41  1  0.07408000  0.50437000  0.67331000  1.0
  C  C42  1  0.92564000  0.66295000  0.40895000  1.0
  C  C43  1  0.07437000  0.33705000  0.59105000  1.0
  N  N44  1  0.43532000  0.56387000  0.15674000  1.0
  N  N45  1  0.56468000  0.43613000  0.84326000  1.0
  O  O46  1  0.55956000  0.07123000  0.64335000  1.0
  O  O47  1  0.44044000  0.92877000  0.35665000  1.0
  O  O48  1  0.25434000  0.01223000  0.64423000  1.0
  O  O49  1  0.74566000  0.98777000  0.35577000  1.0
  O  O50  1  0.23424000  0.87952000  0.85705000  1.0
  O  O51  1  0.76576000  0.12047000  0.14295000  1.0
  O  O52  1  0.59465000  0.63533000  0.12519000  1.0
  O  O53  1  0.40535000  0.36468000  0.87480000  1.0
  O  O54  1  0.39459000  0.43882000  0.22380000  1.0
  O  O55  1  0.60542000  0.56117000  0.77619000  1.0
  O  O56  1  0.09363000  0.51283000  0.26793000  1.0
  O  O57  1  0.90637000  0.48716000  0.73207000  1.0
  O  O58  1  0.05717000  0.80564000  0.40995000  1.0
  O  O59  1  0.94284000  0.19436000  0.59005000  1.0
  O  O60  1  0.78217000  0.63909000  0.47053000  1.0
  O  O61  1  0.21784000  0.36092000  0.52947000  1.0
  O  O62  1  0.43084000  0.70837000  0.53118000  1.0
  O  O63  1  0.56916000  0.29163000  0.46882000  1.0
  O  O64  1  0.89041000  0.87159000  0.72338000  1.0
  O  O65  1  0.10958000  0.12841000  0.27662000  1.0
