# generated using pymatgen
data_CuH16C13NO4
_symmetry_space_group_name_H-M   'P 1'
_cell_length_a   11.29570000
_cell_length_b   12.04470000
_cell_length_c   12.04460000
_cell_angle_alpha   70.93860000
_cell_angle_beta   62.54150000
_cell_angle_gamma   62.54140000
_symmetry_Int_Tables_number   1
_chemical_formula_structural   CuH16C13NO4
_chemical_formula_sum   'Cu4 H64 C52 N4 O16'
_cell_volume   1276.70041555
_cell_formula_units_Z   4
loop_
 _symmetry_equiv_pos_site_id
 _symmetry_equiv_pos_as_xyz
  1  'x, y, z'
loop_
 _atom_site_type_symbol
 _atom_site_label
 _atom_site_symmetry_multiplicity
 _atom_site_fract_x
 _atom_site_fract_y
 _atom_site_fract_z
 _atom_site_occupancy
  Cu  Cu0  1  0.75000000  0.12009000  0.87991000  1.0
  Cu  Cu1  1  0.25000000  0.87989000  0.12011000  1.0
  Cu  Cu2  1  0.75000000  0.30479000  0.69521000  1.0
  Cu  Cu3  1  0.25000000  0.69520000  0.30480000  1.0
  H  H4  1  0.96861000  0.90696000  0.98898000  1.0
  H  H5  1  0.53139000  0.01101000  0.09304000  1.0
  H  H6  1  0.03140000  0.09303000  0.01101000  1.0
  H  H7  1  0.46861000  0.98899000  0.90696000  1.0
  H  H8  1  0.97749000  0.72765000  0.16635000  1.0
  H  H9  1  0.52253000  0.83363000  0.27234000  1.0
  H  H10  1  0.02253000  0.27233000  0.83364000  1.0
  H  H11  1  0.47747000  0.16636000  0.72766000  1.0
  H  H12  1  0.88188000  0.50713000  0.57588000  1.0
  H  H13  1  0.61812000  0.42412000  0.49287000  1.0
  H  H14  1  0.11810000  0.49288000  0.42413000  1.0
  H  H15  1  0.38189000  0.57587000  0.50712000  1.0
  H  H16  1  0.89548000  0.68249000  0.39557000  1.0
  H  H17  1  0.60453000  0.60444000  0.31751000  1.0
  H  H18  1  0.10451000  0.31753000  0.60445000  1.0
  H  H19  1  0.39548000  0.39555000  0.68248000  1.0
  H  H20  1  0.27640000  0.27299000  0.00424000  1.0
  H  H21  1  0.22361000  0.99576000  0.72702000  1.0
  H  H22  1  0.72359000  0.72705000  0.99572000  1.0
  H  H23  1  0.77641000  0.00428000  0.27295000  1.0
  H  H24  1  0.25922000  0.41674000  0.89589000  1.0
  H  H25  1  0.24078000  0.10411000  0.58326000  1.0
  H  H26  1  0.74085000  0.58329000  0.10408000  1.0
  H  H27  1  0.75914000  0.89593000  0.41670000  1.0
  H  H28  1  0.40456000  0.53113000  0.94141000  1.0
  H  H29  1  0.09544000  0.05859000  0.46887000  1.0
  H  H30  1  0.59544000  0.46888000  0.05857000  1.0
  H  H31  1  0.90456000  0.94143000  0.53112000  1.0
  H  H32  1  0.22925000  0.60513000  0.94485000  1.0
  H  H33  1  0.27075000  0.05515000  0.39487000  1.0
  H  H34  1  0.77073000  0.39489000  0.05517000  1.0
  H  H35  1  0.72927000  0.94483000  0.60511000  1.0
  H  H36  1  0.46736000  0.32994000  0.10614000  1.0
  H  H37  1  0.03264000  0.89386000  0.67005000  1.0
  H  H38  1  0.53264000  0.67005000  0.89387000  1.0
  H  H39  1  0.96736000  0.10614000  0.32994000  1.0
  H  H40  1  0.34749000  0.24921000  0.18599000  1.0
  H  H41  1  0.15251000  0.81401000  0.75079000  1.0
  H  H42  1  0.65250000  0.75080000  0.81401000  1.0
  H  H43  1  0.84750000  0.18600000  0.24919000  1.0
  H  H44  1  0.31132000  0.38765000  0.23913000  1.0
  H  H45  1  0.18868000  0.76087000  0.61235000  1.0
  H  H46  1  0.68867000  0.61236000  0.76088000  1.0
  H  H47  1  0.81133000  0.23912000  0.38764000  1.0
  H  H48  1  0.06976000  0.51807000  0.21356000  1.0
  H  H49  1  0.43024000  0.78644000  0.48193000  1.0
  H  H50  1  0.93024000  0.48193000  0.78645000  1.0
  H  H51  1  0.56976000  0.21355000  0.51807000  1.0
  H  H52  1  0.04673000  0.51079000  0.08111000  1.0
  H  H53  1  0.45327000  0.91889000  0.48921000  1.0
  H  H54  1  0.95326000  0.48921000  0.91889000  1.0
  H  H55  1  0.54674000  0.08111000  0.51079000  1.0
  H  H56  1  0.94149000  0.37559000  0.26674000  1.0
  H  H57  1  0.55851000  0.73326000  0.62441000  1.0
  H  H58  1  0.05851000  0.62440000  0.73325000  1.0
  H  H59  1  0.44149000  0.26675000  0.37560000  1.0
  H  H60  1  0.10250000  0.29202000  0.29589000  1.0
  H  H61  1  0.39749000  0.70411000  0.70798000  1.0
  H  H62  1  0.89749000  0.70797000  0.70411000  1.0
  H  H63  1  0.60251000  0.29589000  0.29202000  1.0
  H  H64  1  0.09195000  0.27333000  0.16128000  1.0
  H  H65  1  0.40805000  0.83872000  0.72667000  1.0
  H  H66  1  0.90805000  0.72666000  0.83872000  1.0
  H  H67  1  0.59194000  0.16128000  0.27334000  1.0
  C  C68  1  0.87207000  0.88740000  0.05437000  1.0
  C  C69  1  0.62794000  0.94562000  0.11260000  1.0
  C  C70  1  0.12794000  0.11259000  0.94563000  1.0
  C  C71  1  0.37206000  0.05437000  0.88741000  1.0
  C  C72  1  0.87633000  0.78754000  0.15323000  1.0
  C  C73  1  0.62368000  0.84676000  0.21246000  1.0
  C  C74  1  0.12368000  0.21246000  0.84677000  1.0
  C  C75  1  0.37632000  0.15323000  0.78755000  1.0
  C  C76  1  0.75001000  0.76515000  0.23483000  1.0
  C  C77  1  0.25000000  0.23484000  0.76517000  1.0
  C  C78  1  0.82519000  0.53034000  0.51375000  1.0
  C  C79  1  0.67481000  0.48625000  0.46967000  1.0
  C  C80  1  0.17480000  0.46967000  0.48626000  1.0
  C  C81  1  0.32520000  0.51374000  0.53034000  1.0
  C  C82  1  0.83074000  0.62911000  0.41372000  1.0
  C  C83  1  0.66926000  0.58629000  0.37089000  1.0
  C  C84  1  0.16925000  0.37090000  0.58628000  1.0
  C  C85  1  0.33074000  0.41372000  0.62910000  1.0
  C  C86  1  0.75001000  0.65964000  0.34036000  1.0
  C  C87  1  0.25000000  0.34036000  0.65964000  1.0
  C  C88  1  0.47330000  0.30037000  0.89142000  1.0
  C  C89  1  0.02670000  0.10858000  0.69964000  1.0
  C  C90  1  0.52674000  0.69961000  0.10860000  1.0
  C  C91  1  0.97326000  0.89140000  0.30039000  1.0
  C  C92  1  0.31212000  0.35299000  0.96261000  1.0
  C  C93  1  0.18788000  0.03738000  0.64701000  1.0
  C  C94  1  0.68789000  0.64703000  0.03738000  1.0
  C  C95  1  0.81211000  0.96262000  0.35297000  1.0
  C  C96  1  0.26667000  0.42563000  0.07031000  1.0
  C  C97  1  0.23333000  0.92969000  0.57437000  1.0
  C  C98  1  0.73333000  0.57437000  0.92969000  1.0
  C  C99  1  0.76667000  0.07031000  0.42563000  1.0
  C  C100  1  0.29173000  0.55093000  0.00639000  1.0
  C  C101  1  0.20826000  0.99361000  0.44907000  1.0
  C  C102  1  0.70828000  0.44907000  0.99362000  1.0
  C  C103  1  0.79172000  0.00638000  0.55093000  1.0
  C  C104  1  0.26109000  0.64258000  0.08727000  1.0
  C  C105  1  0.23891000  0.91273000  0.35742000  1.0
  C  C106  1  0.73894000  0.35742000  0.91271000  1.0
  C  C107  1  0.76106000  0.08728000  0.64259000  1.0
  C  C108  1  0.35322000  0.34364000  0.15547000  1.0
  C  C109  1  0.14678000  0.84453000  0.65637000  1.0
  C  C110  1  0.64678000  0.65637000  0.84454000  1.0
  C  C111  1  0.85322000  0.15547000  0.34363000  1.0
  C  C112  1  0.10430000  0.45538000  0.14660000  1.0
  C  C113  1  0.39570000  0.85340000  0.54462000  1.0
  C  C114  1  0.89570000  0.54462000  0.85340000  1.0
  C  C115  1  0.60430000  0.14660000  0.45538000  1.0
  C  C116  1  0.05892000  0.34270000  0.22079000  1.0
  C  C117  1  0.44108000  0.77921000  0.65730000  1.0
  C  C118  1  0.94108000  0.65730000  0.77920000  1.0
  C  C119  1  0.55891000  0.22080000  0.34270000  1.0
  N  N120  1  0.75000000  0.96578000  0.03422000  1.0
  N  N121  1  0.25000000  0.03421000  0.96579000  1.0
  N  N122  1  0.75000000  0.45889000  0.54111000  1.0
  N  N123  1  0.25000000  0.54112000  0.45888000  1.0
  O  O124  1  0.53007000  0.37081000  0.79711000  1.0
  O  O125  1  0.96993000  0.20289000  0.62920000  1.0
  O  O126  1  0.46996000  0.62913000  0.20288000  1.0
  O  O127  1  0.03004000  0.79712000  0.37087000  1.0
  O  O128  1  0.54058000  0.18799000  0.93415000  1.0
  O  O129  1  0.95942000  0.06585000  0.81201000  1.0
  O  O130  1  0.45940000  0.81203000  0.06590000  1.0
  O  O131  1  0.04059000  0.93410000  0.18797000  1.0
  O  O132  1  0.22933000  0.60788000  0.20651000  1.0
  O  O133  1  0.27066000  0.79350000  0.39212000  1.0
  O  O134  1  0.77065000  0.39215000  0.79350000  1.0
  O  O135  1  0.72936000  0.20650000  0.60786000  1.0
  O  O136  1  0.27315000  0.74779000  0.02792000  1.0
  O  O137  1  0.22685000  0.97208000  0.25221000  1.0
  O  O138  1  0.72692000  0.25222000  0.97205000  1.0
  O  O139  1  0.77308000  0.02794000  0.74779000  1.0
