# generated using pymatgen
data_ZnH5C14NO4
_symmetry_space_group_name_H-M   'P 1'
_cell_length_a   13.21350000
_cell_length_b   14.48850000
_cell_length_c   16.08290000
_cell_angle_alpha   89.96440000
_cell_angle_beta   89.83820000
_cell_angle_gamma   89.99390000
_symmetry_Int_Tables_number   1
_chemical_formula_structural   ZnH5C14NO4
_chemical_formula_sum   'Zn2 H10 C28 N2 O8'
_cell_volume   3078.95851852
_cell_formula_units_Z   2
loop_
 _symmetry_equiv_pos_site_id
 _symmetry_equiv_pos_as_xyz
  1  'x, y, z'
loop_
 _atom_site_type_symbol
 _atom_site_label
 _atom_site_symmetry_multiplicity
 _atom_site_fract_x
 _atom_site_fract_y
 _atom_site_fract_z
 _atom_site_occupancy
  Zn  Zn0  1  0.60519000  0.49999000  0.49975000  1.0
  Zn  Zn1  1  0.39481000  0.50000000  0.50025000  1.0
  H  H2  1  0.41529000  0.63958000  0.05102000  1.0
  H  H3  1  0.58471000  0.36042000  0.94898000  1.0
  H  H4  1  0.59095000  0.63628000  0.94878000  1.0
  H  H5  1  0.40905000  0.36372000  0.05122000  1.0
  H  H6  1  0.24134000  0.50484000  0.99026000  1.0
  H  H7  1  0.28456000  0.56540000  0.90036000  1.0
  H  H8  1  0.28183000  0.44281000  0.90037000  1.0
  H  H9  1  0.75865000  0.49516000  0.00974000  1.0
  H  H10  1  0.71817000  0.55719000  0.09963000  1.0
  H  H11  1  0.71544000  0.43460000  0.09964000  1.0
  C  C12  1  0.49998000  0.78011000  0.50001000  1.0
  C  C13  1  0.50001000  0.21989000  0.49999000  1.0
  C  C14  1  0.49999000  0.68046000  0.50000000  1.0
  C  C15  1  0.50001000  0.31953000  0.50000000  1.0
  C  C16  1  0.50006000  0.50005000  0.33868000  1.0
  C  C17  1  0.49994000  0.49995000  0.66132000  1.0
  C  C18  1  0.49999000  0.86484000  0.50000000  1.0
  C  C19  1  0.50001000  0.13516000  0.50000000  1.0
  C  C20  1  0.14866000  0.50000000  0.50000000  1.0
  C  C21  1  0.85134000  0.50000000  0.50000000  1.0
  C  C22  1  0.50000000  0.95739000  0.50000000  1.0
  C  C23  1  0.50000000  0.04261000  0.50001000  1.0
  C  C24  1  0.55036000  0.57583000  0.97235000  1.0
  C  C25  1  0.44964000  0.42418000  0.02765000  1.0
  C  C26  1  0.45311000  0.57765000  0.02750000  1.0
  C  C27  1  0.54688000  0.42235000  0.97250000  1.0
  C  C28  1  0.04625000  0.50000000  0.49997000  1.0
  C  C29  1  0.95376000  0.50000000  0.50003000  1.0
  C  C30  1  0.49987000  0.50007000  0.24914000  1.0
  C  C31  1  0.50013000  0.49993000  0.75086000  1.0
  C  C32  1  0.59755000  0.49818000  0.02803000  1.0
  C  C33  1  0.40245000  0.50182000  0.97197000  1.0
  C  C34  1  0.49925000  0.50003000  0.08545000  1.0
  C  C35  1  0.50075000  0.49998000  0.91455000  1.0
  C  C36  1  0.49865000  0.50008000  0.17330000  1.0
  C  C37  1  0.50135000  0.49992000  0.82670000  1.0
  C  C38  1  0.29687000  0.50383000  0.93914000  1.0
  C  C39  1  0.70313000  0.49617000  0.06086000  1.0
  N  N40  1  0.23695000  0.50000000  0.50013000  1.0
  N  N41  1  0.76305000  0.50000000  0.49987000  1.0
  O  O42  1  0.58651000  0.64166000  0.49985000  1.0
  O  O43  1  0.41349000  0.35834000  0.50015000  1.0
  O  O44  1  0.41348000  0.64167000  0.50012000  1.0
  O  O45  1  0.58652000  0.35833000  0.49988000  1.0
  O  O46  1  0.58645000  0.50004000  0.37414000  1.0
  O  O47  1  0.41355000  0.49995000  0.62586000  1.0
  O  O48  1  0.41370000  0.50005000  0.37462000  1.0
  O  O49  1  0.58630000  0.49995000  0.62538000  1.0
