# generated using pymatgen
data_CdH8C9O5
_symmetry_space_group_name_H-M   'P 1'
_cell_length_a   7.54741000
_cell_length_b   10.74750000
_cell_length_c   11.85080000
_cell_angle_alpha   89.99990000
_cell_angle_beta   89.99980000
_cell_angle_gamma   108.46300000
_symmetry_Int_Tables_number   1
_chemical_formula_structural   CdH8C9O5
_chemical_formula_sum   'Cd4 H32 C36 O20'
_cell_volume   911.80797770
_cell_formula_units_Z   4
loop_
 _symmetry_equiv_pos_site_id
 _symmetry_equiv_pos_as_xyz
  1  'x, y, z'
loop_
 _atom_site_type_symbol
 _atom_site_label
 _atom_site_symmetry_multiplicity
 _atom_site_fract_x
 _atom_site_fract_y
 _atom_site_fract_z
 _atom_site_occupancy
  Cd  Cd0  1  0.14956000  0.46902000  0.29953000  1.0
  Cd  Cd1  1  0.35044000  0.53098000  0.79953000  1.0
  Cd  Cd2  1  0.85044000  0.53098000  0.70047000  1.0
  Cd  Cd3  1  0.64956000  0.46902000  0.20047000  1.0
  H  H4  1  0.98040000  0.63752000  0.39050000  1.0
  H  H5  1  0.51960000  0.36248000  0.89050000  1.0
  H  H6  1  0.01960000  0.36248000  0.60950000  1.0
  H  H7  1  0.48040000  0.63752000  0.10951000  1.0
  H  H8  1  0.12693000  0.63990000  0.48940000  1.0
  H  H9  1  0.37307000  0.36010000  0.98940000  1.0
  H  H10  1  0.87307000  0.36009000  0.51060000  1.0
  H  H11  1  0.62693000  0.63990000  0.01060000  1.0
  H  H12  1  0.93203000  0.67538000  0.99564000  1.0
  H  H13  1  0.56796000  0.32462000  0.49564000  1.0
  H  H14  1  0.06797000  0.32462000  0.00436000  1.0
  H  H15  1  0.43204000  0.67538000  0.50436000  1.0
  H  H16  1  0.16795000  0.71103000  0.95312000  1.0
  H  H17  1  0.33205000  0.28897000  0.45312000  1.0
  H  H18  1  0.83205000  0.28897000  0.04688000  1.0
  H  H19  1  0.66795000  0.71103000  0.54688000  1.0
  H  H20  1  0.92595000  0.79915000  0.20905000  1.0
  H  H21  1  0.57405000  0.20085000  0.70905000  1.0
  H  H22  1  0.07405000  0.20085000  0.79095000  1.0
  H  H23  1  0.42596000  0.79915000  0.29095000  1.0
  H  H24  1  0.99433000  0.02793000  0.27432000  1.0
  H  H25  1  0.50567000  0.97208000  0.77431000  1.0
  H  H26  1  0.00567000  0.97207000  0.72569000  1.0
  H  H27  1  0.49433000  0.02792000  0.22569000  1.0
  H  H28  1  0.39428000  0.16064000  0.00563000  1.0
  H  H29  1  0.10572000  0.83937000  0.50562000  1.0
  H  H30  1  0.60572000  0.83937000  0.99437000  1.0
  H  H31  1  0.89428000  0.16063000  0.49437000  1.0
  H  H32  1  0.32350000  0.93232000  0.93887000  1.0
  H  H33  1  0.17650000  0.06769000  0.43887000  1.0
  H  H34  1  0.67650000  0.06769000  0.06113000  1.0
  H  H35  1  0.82350000  0.93231000  0.56113000  1.0
  C  C36  1  0.10587000  0.61866000  0.11377000  1.0
  C  C37  1  0.39413000  0.38135000  0.61377000  1.0
  C  C38  1  0.89413000  0.38135000  0.88623000  1.0
  C  C39  1  0.60587000  0.61865000  0.38623000  1.0
  C  C40  1  0.07684000  0.71157000  0.02528000  1.0
  C  C41  1  0.42315000  0.28843000  0.52527000  1.0
  C  C42  1  0.92315000  0.28843000  0.97472000  1.0
  C  C43  1  0.57685000  0.71157000  0.47472000  1.0
  C  C44  1  0.12187000  0.85004000  0.06962000  1.0
  C  C45  1  0.37813000  0.14997000  0.56961000  1.0
  C  C46  1  0.87813000  0.14997000  0.93039000  1.0
  C  C47  1  0.62187000  0.85003000  0.43038000  1.0
  C  C48  1  0.03041000  0.87786000  0.16486000  1.0
  C  C49  1  0.46959000  0.12214000  0.66485000  1.0
  C  C50  1  0.96959000  0.12214000  0.83514000  1.0
  C  C51  1  0.53042000  0.87786000  0.33514000  1.0
  C  C52  1  0.06865000  0.00637000  0.20197000  1.0
  C  C53  1  0.43135000  0.99363000  0.70197000  1.0
  C  C54  1  0.93135000  0.99363000  0.79803000  1.0
  C  C55  1  0.56865000  0.00637000  0.29803000  1.0
  C  C56  1  0.19987000  0.11002000  0.14516000  1.0
  C  C57  1  0.30013000  0.88998000  0.64515000  1.0
  C  C58  1  0.80013000  0.88998000  0.85485000  1.0
  C  C59  1  0.69988000  0.11002000  0.35485000  1.0
  C  C60  1  0.29203000  0.08187000  0.05058000  1.0
  C  C61  1  0.20797000  0.91814000  0.55058000  1.0
  C  C62  1  0.70797000  0.91814000  0.94942000  1.0
  C  C63  1  0.79203000  0.08186000  0.44942000  1.0
  C  C64  1  0.25292000  0.95320000  0.01333000  1.0
  C  C65  1  0.24708000  0.04680000  0.51333000  1.0
  C  C66  1  0.74708000  0.04680000  0.98667000  1.0
  C  C67  1  0.75293000  0.95320000  0.48667000  1.0
  C  C68  1  0.23689000  0.24733000  0.18422000  1.0
  C  C69  1  0.26311000  0.75267000  0.68421000  1.0
  C  C70  1  0.76311000  0.75267000  0.81579000  1.0
  C  C71  1  0.73690000  0.24733000  0.31578000  1.0
  O  O72  1  0.96688000  0.52474000  0.15199000  1.0
  O  O73  1  0.53312000  0.47526000  0.65199000  1.0
  O  O74  1  0.03312000  0.47526000  0.84800000  1.0
  O  O75  1  0.46688000  0.52474000  0.34800000  1.0
  O  O76  1  0.26856000  0.63445000  0.15237000  1.0
  O  O77  1  0.23144000  0.36556000  0.65237000  1.0
  O  O78  1  0.73144000  0.36555000  0.84763000  1.0
  O  O79  1  0.76856000  0.63444000  0.34763000  1.0
  O  O80  1  0.15636000  0.26524000  0.27504000  1.0
  O  O81  1  0.34365000  0.73476000  0.77504000  1.0
  O  O82  1  0.84365000  0.73476000  0.72496000  1.0
  O  O83  1  0.65635000  0.26524000  0.22496000  1.0
  O  O84  1  0.34300000  0.34388000  0.12665000  1.0
  O  O85  1  0.15700000  0.65613000  0.62665000  1.0
  O  O86  1  0.65700000  0.65613000  0.87335000  1.0
  O  O87  1  0.84300000  0.34387000  0.37335000  1.0
  O  O88  1  0.10651000  0.63041000  0.40581000  1.0
  O  O89  1  0.39349000  0.36959000  0.90580000  1.0
  O  O90  1  0.89349000  0.36959000  0.59420000  1.0
  O  O91  1  0.60651000  0.63041000  0.09420000  1.0
