# generated using pymatgen
data_CoH24C30(N2O7)2
_symmetry_space_group_name_H-M   'P 1'
_cell_length_a   7.67506000
_cell_length_b   9.39053000
_cell_length_c   10.64950000
_cell_angle_alpha   113.36300000
_cell_angle_beta   91.35220000
_cell_angle_gamma   99.90610000
_symmetry_Int_Tables_number   1
_chemical_formula_structural   CoH24C30(N2O7)2
_chemical_formula_sum   'Co1 H24 C30 N4 O14'
_cell_volume   690.51815653
_cell_formula_units_Z   1
loop_
 _symmetry_equiv_pos_site_id
 _symmetry_equiv_pos_as_xyz
  1  'x, y, z'
loop_
 _atom_site_type_symbol
 _atom_site_label
 _atom_site_symmetry_multiplicity
 _atom_site_fract_x
 _atom_site_fract_y
 _atom_site_fract_z
 _atom_site_occupancy
  Co  Co0  1  0.00000000  0.50000000  0.50000000  1.0
  H  H1  1  0.94333000  0.23372000  0.96384000  1.0
  H  H2  1  0.05667000  0.76629000  0.03617000  1.0
  H  H3  1  0.40975000  0.61991000  0.21578000  1.0
  H  H4  1  0.59025000  0.38009000  0.78421000  1.0
  H  H5  1  0.62166000  0.95652000  0.04627000  1.0
  H  H6  1  0.37834000  0.04348000  0.95373000  1.0
  H  H7  1  0.40363000  0.60076000  0.63135000  1.0
  H  H8  1  0.59637000  0.39923000  0.36865000  1.0
  H  H9  1  0.57030000  0.77409000  0.85598000  1.0
  H  H10  1  0.42971000  0.22590000  0.14401000  1.0
  H  H11  1  0.57211000  0.81345000  0.44307000  1.0
  H  H12  1  0.42789000  0.18654000  0.55693000  1.0
  H  H13  1  0.77335000  0.13303000  0.27895000  1.0
  H  H14  1  0.22665000  0.86697000  0.72105000  1.0
  H  H15  1  0.21929000  0.50934000  0.03800000  1.0
  H  H16  1  0.78070000  0.49066000  0.96200000  1.0
  H  H17  1  0.06517000  0.34726000  0.80062000  1.0
  H  H18  1  0.93482000  0.65273000  0.19938000  1.0
  H  H19  1  0.78777000  0.26924000  0.51178000  1.0
  H  H20  1  0.21223000  0.73076000  0.48822000  1.0
  H  H21  1  0.78494000  0.43935000  0.63509000  1.0
  H  H22  1  0.21506000  0.56065000  0.36491000  1.0
  H  H23  1  0.83911000  0.05116000  0.60194000  1.0
  H  H24  1  0.16089000  0.94885000  0.39806000  1.0
  C  C25  1  0.92397000  0.98107000  0.87187000  1.0
  C  C26  1  0.07604000  0.01894000  0.12813000  1.0
  C  C27  1  0.95563000  0.84818000  0.89218000  1.0
  C  C28  1  0.04437000  0.15182000  0.10782000  1.0
  C  C29  1  0.96988000  0.13133000  0.97940000  1.0
  C  C30  1  0.03013000  0.86868000  0.02060000  1.0
  C  C31  1  0.83111000  0.96131000  0.73877000  1.0
  C  C32  1  0.16887000  0.03867000  0.26122000  1.0
  C  C33  1  0.92196000  0.68642000  0.77599000  1.0
  C  C34  1  0.07803000  0.31359000  0.22402000  1.0
  C  C35  1  0.37020000  0.58915000  0.72585000  1.0
  C  C36  1  0.62981000  0.41084000  0.27415000  1.0
  C  C37  1  0.17665000  0.44549000  0.82373000  1.0
  C  C38  1  0.82335000  0.55450000  0.17627000  1.0
  C  C39  1  0.45788000  0.68472000  0.85349000  1.0
  C  C40  1  0.54213000  0.31527000  0.14651000  1.0
  C  C41  1  0.26445000  0.53753000  0.95262000  1.0
  C  C42  1  0.73555000  0.46247000  0.04737000  1.0
  C  C43  1  0.40735000  0.66395000  0.97255000  1.0
  C  C44  1  0.59266000  0.33604000  0.02744000  1.0
  C  C45  1  0.49800000  0.77000000  0.10797000  1.0
  C  C46  1  0.50200000  0.23000000  0.89203000  1.0
  C  C47  1  0.60417000  0.91736000  0.12939000  1.0
  C  C48  1  0.39582000  0.08264000  0.87061000  1.0
  C  C49  1  0.48601000  0.73284000  0.22393000  1.0
  C  C50  1  0.51399000  0.26716000  0.77607000  1.0
  C  C51  1  0.68914000  0.01841000  0.25666000  1.0
  C  C52  1  0.31086000  0.98159000  0.74334000  1.0
  C  C53  1  0.57376000  0.83631000  0.35052000  1.0
  C  C54  1  0.42624000  0.16369000  0.64948000  1.0
  N  N55  1  0.22766000  0.47201000  0.71121000  1.0
  N  N56  1  0.77234000  0.52798000  0.28879000  1.0
  N  N57  1  0.67295000  0.97824000  0.36576000  1.0
  N  N58  1  0.32704000  0.02176000  0.63424000  1.0
  O  O59  1  0.90929000  0.06501000  0.69140000  1.0
  O  O60  1  0.09072000  0.93501000  0.30860000  1.0
  O  O61  1  0.69450000  0.86155000  0.68449000  1.0
  O  O62  1  0.30553000  0.13848000  0.31552000  1.0
  O  O63  1  0.00256000  0.68028000  0.66990000  1.0
  O  O64  1  0.99744000  0.31972000  0.33010000  1.0
  O  O65  1  0.82652000  0.57169000  0.79090000  1.0
  O  O66  1  0.17348000  0.42832000  0.20910000  1.0
  O  O67  1  0.13885000  0.38550000  0.59006000  1.0
  O  O68  1  0.86115000  0.61449000  0.40994000  1.0
  O  O69  1  0.75243000  0.08194000  0.48764000  1.0
  O  O70  1  0.24756000  0.91806000  0.51236000  1.0
  O  O71  1  0.78218000  0.38267000  0.53191000  1.0
  O  O72  1  0.21782000  0.61733000  0.46809000  1.0
