# generated using pymatgen
data_AgH7C8(NO2)2
_symmetry_space_group_name_H-M   'P 1'
_cell_length_a   7.12511000
_cell_length_b   10.33470000
_cell_length_c   12.75830000
_cell_angle_alpha   70.26000000
_cell_angle_beta   89.99990000
_cell_angle_gamma   89.99960000
_symmetry_Int_Tables_number   1
_chemical_formula_structural   AgH7C8(NO2)2
_chemical_formula_sum   'Ag4 H28 C32 N8 O16'
_cell_volume   884.26068426
_cell_formula_units_Z   4
loop_
 _symmetry_equiv_pos_site_id
 _symmetry_equiv_pos_as_xyz
  1  'x, y, z'
loop_
 _atom_site_type_symbol
 _atom_site_label
 _atom_site_symmetry_multiplicity
 _atom_site_fract_x
 _atom_site_fract_y
 _atom_site_fract_z
 _atom_site_occupancy
  Ag  Ag0  1  0.04945000  0.42455000  0.12136000  1.0
  Ag  Ag1  1  0.54946000  0.57545000  0.37864000  1.0
  Ag  Ag2  1  0.95055000  0.57546000  0.87864000  1.0
  Ag  Ag3  1  0.45054000  0.42455000  0.62136000  1.0
  H  H4  1  0.37576000  0.63603000  0.11095000  1.0
  H  H5  1  0.87576000  0.36397000  0.38905000  1.0
  H  H6  1  0.62426000  0.36398000  0.88905000  1.0
  H  H7  1  0.12424000  0.63603000  0.61095000  1.0
  H  H8  1  0.37047000  0.21242000  0.18493000  1.0
  H  H9  1  0.87047000  0.78758000  0.31507000  1.0
  H  H10  1  0.62952000  0.78758000  0.81507000  1.0
  H  H11  1  0.12952000  0.21242000  0.68493000  1.0
  H  H12  1  0.72301000  0.20930000  0.18228000  1.0
  H  H13  1  0.22301000  0.79070000  0.31772000  1.0
  H  H14  1  0.27699000  0.79069000  0.81772000  1.0
  H  H15  1  0.77698000  0.20930000  0.68228000  1.0
  H  H16  1  0.73084000  0.63315000  0.11265000  1.0
  H  H17  1  0.23084000  0.36685000  0.38735000  1.0
  H  H18  1  0.26918000  0.36684000  0.88735000  1.0
  H  H19  1  0.76916000  0.63315000  0.61265000  1.0
  H  H20  1  0.88360000  0.06625000  0.89347000  1.0
  H  H21  1  0.38361000  0.93376000  0.60653000  1.0
  H  H22  1  0.11639000  0.93376000  0.10652000  1.0
  H  H23  1  0.61639000  0.06624000  0.39348000  1.0
  H  H24  1  0.04048000  0.09127000  0.18346000  1.0
  H  H25  1  0.54049000  0.90873000  0.31654000  1.0
  H  H26  1  0.95952000  0.90874000  0.81654000  1.0
  H  H27  1  0.45952000  0.09127000  0.68346000  1.0
  H  H28  1  0.92507000  0.88240000  0.46261000  1.0
  H  H29  1  0.42507000  0.11760000  0.03739000  1.0
  H  H30  1  0.07492000  0.11760000  0.53739000  1.0
  H  H31  1  0.57492000  0.88240000  0.96261000  1.0
  C  C32  1  0.45496000  0.54113000  0.12654000  1.0
  C  C33  1  0.95496000  0.45887000  0.37346000  1.0
  C  C34  1  0.54505000  0.45887000  0.87346000  1.0
  C  C35  1  0.04504000  0.54113000  0.62654000  1.0
  C  C36  1  0.45124000  0.30669000  0.16651000  1.0
  C  C37  1  0.95124000  0.69331000  0.33349000  1.0
  C  C38  1  0.54877000  0.69331000  0.83350000  1.0
  C  C39  1  0.04876000  0.30669000  0.66651000  1.0
  C  C40  1  0.64618000  0.30518000  0.16595000  1.0
  C  C41  1  0.14618000  0.69482000  0.33405000  1.0
  C  C42  1  0.35382000  0.69482000  0.83405000  1.0
  C  C43  1  0.85382000  0.30518000  0.66595000  1.0
  C  C44  1  0.65044000  0.53930000  0.12708000  1.0
  C  C45  1  0.15044000  0.46070000  0.37292000  1.0
  C  C46  1  0.34957000  0.46070000  0.87292000  1.0
  C  C47  1  0.84955000  0.53930000  0.62708000  1.0
  C  C48  1  0.98842000  0.19415000  0.98672000  1.0
  C  C49  1  0.48842000  0.80585000  0.51328000  1.0
  C  C50  1  0.01158000  0.80585000  0.01327000  1.0
  C  C51  1  0.51157000  0.19415000  0.48673000  1.0
  C  C52  1  0.96396000  0.06015000  0.96761000  1.0
  C  C53  1  0.46397000  0.93986000  0.53239000  1.0
  C  C54  1  0.03603000  0.93986000  0.03239000  1.0
  C  C55  1  0.53603000  0.06014000  0.46761000  1.0
  C  C56  1  0.03865000  0.07522000  0.34236000  1.0
  C  C57  1  0.53865000  0.92477000  0.15764000  1.0
  C  C58  1  0.96135000  0.92478000  0.65764000  1.0
  C  C59  1  0.46135000  0.07522000  0.84236000  1.0
  C  C60  1  0.98717000  0.98164000  0.45494000  1.0
  C  C61  1  0.48717000  0.01836000  0.04506000  1.0
  C  C62  1  0.01283000  0.01837000  0.54505000  1.0
  C  C63  1  0.51283000  0.98164000  0.95495000  1.0
  N  N64  1  0.35554000  0.42517000  0.14380000  1.0
  N  N65  1  0.85554000  0.57483000  0.35620000  1.0
  N  N66  1  0.64447000  0.57483000  0.85620000  1.0
  N  N67  1  0.14446000  0.42517000  0.64380000  1.0
  N  N68  1  0.74604000  0.42177000  0.14401000  1.0
  N  N69  1  0.24604000  0.57822000  0.35599000  1.0
  N  N70  1  0.25397000  0.57822000  0.85600000  1.0
  N  N71  1  0.75396000  0.42177000  0.64400000  1.0
  O  O72  1  0.92788000  0.30020000  0.91225000  1.0
  O  O73  1  0.42788000  0.69980000  0.58775000  1.0
  O  O74  1  0.07212000  0.69980000  0.08774000  1.0
  O  O75  1  0.57212000  0.30020000  0.41226000  1.0
  O  O76  1  0.07197000  0.19539000  0.07651000  1.0
  O  O77  1  0.57197000  0.80460000  0.42349000  1.0
  O  O78  1  0.92803000  0.80461000  0.92348000  1.0
  O  O79  1  0.42803000  0.19539000  0.57652000  1.0
  O  O80  1  0.10291000  0.19179000  0.32471000  1.0
  O  O81  1  0.60291000  0.80821000  0.17529000  1.0
  O  O82  1  0.89709000  0.80821000  0.67529000  1.0
  O  O83  1  0.39710000  0.19179000  0.82471000  1.0
  O  O84  1  0.00670000  0.02024000  0.26354000  1.0
  O  O85  1  0.50671000  0.97976000  0.23646000  1.0
  O  O86  1  0.99329000  0.97976000  0.73646000  1.0
  O  O87  1  0.49330000  0.02024000  0.76354000  1.0
