# generated using pymatgen
data_TbH9C14(NO5)2
_symmetry_space_group_name_H-M   'P 1'
_cell_length_a   8.99514000
_cell_length_b   9.17468000
_cell_length_c   9.43033000
_cell_angle_alpha   88.74090000
_cell_angle_beta   89.05450000
_cell_angle_gamma   82.45470000
_symmetry_Int_Tables_number   1
_chemical_formula_structural   TbH9C14(NO5)2
_chemical_formula_sum   'Tb2 H18 C28 N4 O20'
_cell_volume   771.26407886
_cell_formula_units_Z   2
loop_
 _symmetry_equiv_pos_site_id
 _symmetry_equiv_pos_as_xyz
  1  'x, y, z'
loop_
 _atom_site_type_symbol
 _atom_site_label
 _atom_site_symmetry_multiplicity
 _atom_site_fract_x
 _atom_site_fract_y
 _atom_site_fract_z
 _atom_site_occupancy
  Tb  Tb0  1  0.60354000  0.12307000  0.86777000  1.0
  Tb  Tb1  1  0.39646000  0.87694000  0.13223000  1.0
  H  H2  1  0.01380000  0.37456000  0.90432000  1.0
  H  H3  1  0.98620000  0.62544000  0.09569000  1.0
  H  H4  1  0.04361000  0.62857000  0.80905000  1.0
  H  H5  1  0.95639000  0.37143000  0.19096000  1.0
  H  H6  1  0.81754000  0.71835000  0.67027000  1.0
  H  H7  1  0.18247000  0.28165000  0.32972000  1.0
  H  H8  1  0.95684000  0.47387000  0.59033000  1.0
  H  H9  1  0.04316000  0.52613000  0.40967000  1.0
  H  H10  1  0.92198000  0.15422000  0.94354000  1.0
  H  H11  1  0.07802000  0.84578000  0.05646000  1.0
  H  H12  1  0.54928000  0.00786000  0.60781000  1.0
  H  H13  1  0.45072000  0.99214000  0.39218000  1.0
  H  H14  1  0.82579000  0.15739000  0.08067000  1.0
  H  H15  1  0.17421000  0.84262000  0.91933000  1.0
  H  H16  1  0.55246000  0.16976000  0.55321000  1.0
  H  H17  1  0.44754000  0.83024000  0.44679000  1.0
  H  H18  1  0.11872000  0.85564000  0.60871000  1.0
  H  H19  1  0.88128000  0.14436000  0.39129000  1.0
  C  C20  1  0.23521000  0.14079000  0.90933000  1.0
  C  C21  1  0.76479000  0.85921000  0.09066000  1.0
  C  C22  1  0.24857000  0.29894000  0.87125000  1.0
  C  C23  1  0.75144000  0.70106000  0.12876000  1.0
  C  C24  1  0.12242000  0.40431000  0.87102000  1.0
  C  C25  1  0.87758000  0.59569000  0.12899000  1.0
  C  C26  1  0.13952000  0.54392000  0.81947000  1.0
  C  C27  1  0.86048000  0.45608000  0.18054000  1.0
  C  C28  1  0.27959000  0.57604000  0.77100000  1.0
  C  C29  1  0.72041000  0.42396000  0.22900000  1.0
  C  C30  1  0.27877000  0.70968000  0.67747000  1.0
  C  C31  1  0.72122000  0.29032000  0.32253000  1.0
  C  C32  1  0.40568000  0.46876000  0.79313000  1.0
  C  C33  1  0.59432000  0.53124000  0.20686000  1.0
  C  C34  1  0.56507000  0.48699000  0.76148000  1.0
  C  C35  1  0.43493000  0.51301000  0.23852000  1.0
  C  C36  1  0.62829000  0.61988000  0.74998000  1.0
  C  C37  1  0.37171000  0.38012000  0.25002000  1.0
  C  C38  1  0.56093000  0.76060000  0.81871000  1.0
  C  C39  1  0.43908000  0.23940000  0.18129000  1.0
  C  C40  1  0.77049000  0.61521000  0.68572000  1.0
  C  C41  1  0.22951000  0.38479000  0.31428000  1.0
  C  C42  1  0.84810000  0.48166000  0.64342000  1.0
  C  C43  1  0.15191000  0.51834000  0.35658000  1.0
  C  C44  1  0.78753000  0.35314000  0.67861000  1.0
  C  C45  1  0.21247000  0.64686000  0.32139000  1.0
  C  C46  1  0.86215000  0.19916000  0.64331000  1.0
  C  C47  1  0.13785000  0.80084000  0.35669000  1.0
  N  N48  1  0.38605000  0.33247000  0.83898000  1.0
  N  N49  1  0.61395000  0.66753000  0.16102000  1.0
  N  N50  1  0.65056000  0.35776000  0.73749000  1.0
  N  N51  1  0.34944000  0.64224000  0.26251000  1.0
  O  O52  1  0.36056000  0.05680000  0.93227000  1.0
  O  O53  1  0.63944000  0.94320000  0.06773000  1.0
  O  O54  1  0.10877000  0.10009000  0.91752000  1.0
  O  O55  1  0.89123000  0.89991000  0.08247000  1.0
  O  O56  1  0.95935000  0.18835000  0.54521000  1.0
  O  O57  1  0.04064000  0.81164000  0.45479000  1.0
  O  O58  1  0.16113000  0.81146000  0.70176000  1.0
  O  O59  1  0.83886000  0.18854000  0.29825000  1.0
  O  O60  1  0.37007000  0.71647000  0.57938000  1.0
  O  O61  1  0.62993000  0.28353000  0.42063000  1.0
  O  O62  1  0.46425000  0.74971000  0.91634000  1.0
  O  O63  1  0.53576000  0.25029000  0.08366000  1.0
  O  O64  1  0.61382000  0.87750000  0.78043000  1.0
  O  O65  1  0.38619000  0.12251000  0.21957000  1.0
  O  O66  1  0.50317000  0.10923000  0.62304000  1.0
  O  O67  1  0.49683000  0.89077000  0.37696000  1.0
  O  O68  1  0.82148000  0.19392000  0.98223000  1.0
  O  O69  1  0.17852000  0.80609000  0.01777000  1.0
  O  O70  1  0.81177000  0.09410000  0.71151000  1.0
  O  O71  1  0.18822000  0.90589000  0.28849000  1.0
