# generated using pymatgen
data_DyH15C23Cl6O7
_symmetry_space_group_name_H-M   'P 1'
_cell_length_a   9.21675000
_cell_length_b   10.61430000
_cell_length_c   14.29400000
_cell_angle_alpha   77.94900000
_cell_angle_beta   86.51790000
_cell_angle_gamma   75.59610000
_symmetry_Int_Tables_number   1
_chemical_formula_structural   DyH15C23Cl6O7
_chemical_formula_sum   'Dy2 H30 C46 Cl12 O14'
_cell_volume   1324.51098886
_cell_formula_units_Z   2
loop_
 _symmetry_equiv_pos_site_id
 _symmetry_equiv_pos_as_xyz
  1  'x, y, z'
loop_
 _atom_site_type_symbol
 _atom_site_label
 _atom_site_symmetry_multiplicity
 _atom_site_fract_x
 _atom_site_fract_y
 _atom_site_fract_z
 _atom_site_occupancy
  Dy  Dy0  1  0.21909000  0.45363000  0.99335000  1.0
  Dy  Dy1  1  0.78092000  0.54636000  0.00665000  1.0
  H  H2  1  0.47360000  0.14965000  0.77434000  1.0
  H  H3  1  0.52639000  0.85034000  0.22566000  1.0
  H  H4  1  0.53775000  0.27357000  0.69165000  1.0
  H  H5  1  0.46224000  0.72642000  0.30835000  1.0
  H  H6  1  0.34558000  0.30357000  0.72739000  1.0
  H  H7  1  0.65441000  0.69643000  0.27262000  1.0
  H  H8  1  0.61348000  0.27308000  0.85685000  1.0
  H  H9  1  0.38651000  0.72692000  0.14315000  1.0
  H  H10  1  0.48379000  0.42413000  0.81011000  1.0
  H  H11  1  0.51620000  0.57586000  0.18989000  1.0
  H  H12  1  0.79844000  0.21540000  0.00888000  1.0
  H  H13  1  0.20156000  0.78460000  0.99112000  1.0
  H  H14  1  0.83127000  0.81950000  0.17480000  1.0
  H  H15  1  0.16873000  0.18051000  0.82521000  1.0
  H  H16  1  0.19484000  0.01066000  0.17382000  1.0
  H  H17  1  0.80515000  0.98934000  0.82619000  1.0
  H  H18  1  0.77929000  0.45324000  0.31260000  1.0
  H  H19  1  0.22072000  0.54676000  0.68739000  1.0
  H  H20  1  0.03805000  0.28564000  0.57073000  1.0
  H  H21  1  0.96196000  0.71436000  0.42926000  1.0
  H  H22  1  0.25594000  0.41438000  0.30391000  1.0
  H  H23  1  0.74407000  0.58563000  0.69608000  1.0
  H  H24  1  0.20533000  0.75245000  0.76269000  1.0
  H  H25  1  0.79467000  0.24755000  0.23731000  1.0
  H  H26  1  0.38890000  0.04105000  0.56429000  1.0
  H  H27  1  0.61110000  0.95895000  0.43571000  1.0
  H  H28  1  0.65947000  0.77436000  0.79532000  1.0
  H  H29  1  0.34052000  0.22564000  0.20468000  1.0
  H  H30  1  0.40188000  0.20734000  0.93884000  1.0
  H  H31  1  0.59812000  0.79264000  0.06116000  1.0
  C  C32  1  0.46066000  0.25734000  0.75215000  1.0
  C  C33  1  0.53933000  0.74266000  0.24785000  1.0
  C  C34  1  0.49724000  0.31677000  0.83275000  1.0
  C  C35  1  0.50275000  0.68322000  0.16725000  1.0
  C  C36  1  0.06841000  0.24173000  0.05478000  1.0
  C  C37  1  0.93160000  0.75827000  0.94522000  1.0
  C  C38  1  0.00340000  0.12427000  0.08750000  1.0
  C  C39  1  0.99659000  0.87574000  0.91250000  1.0
  C  C40  1  0.86122000  0.12786000  0.05666000  1.0
  C  C41  1  0.13878000  0.87214000  0.94335000  1.0
  C  C42  1  0.80125000  0.01850000  0.08938000  1.0
  C  C43  1  0.19874000  0.98151000  0.91062000  1.0
  C  C44  1  0.87914000  0.90491000  0.15074000  1.0
  C  C45  1  0.12086000  0.09509000  0.84927000  1.0
  C  C46  1  0.02123000  0.90397000  0.18025000  1.0
  C  C47  1  0.97876000  0.09603000  0.81975000  1.0
  C  C48  1  0.08483000  0.01198000  0.14945000  1.0
  C  C49  1  0.91517000  0.98802000  0.85056000  1.0
  C  C50  1  0.01006000  0.48886000  0.19169000  1.0
  C  C51  1  0.98995000  0.51114000  0.80830000  1.0
  C  C52  1  0.01677000  0.43972000  0.29827000  1.0
  C  C53  1  0.98324000  0.56027000  0.70172000  1.0
  C  C54  1  0.88596000  0.42402000  0.34947000  1.0
  C  C55  1  0.11405000  0.57597000  0.65052000  1.0
  C  C56  1  0.89539000  0.36754000  0.44678000  1.0
  C  C57  1  0.10461000  0.63246000  0.55322000  1.0
  C  C58  1  0.03187000  0.32957000  0.49476000  1.0
  C  C59  1  0.96815000  0.67043000  0.50523000  1.0
  C  C60  1  0.16022000  0.34905000  0.44234000  1.0
  C  C61  1  0.83979000  0.65096000  0.55765000  1.0
  C  C62  1  0.15494000  0.40258000  0.34465000  1.0
  C  C63  1  0.84508000  0.59742000  0.65534000  1.0
  C  C64  1  0.44922000  0.64369000  0.87409000  1.0
  C  C65  1  0.55078000  0.35631000  0.12591000  1.0
  C  C66  1  0.43428000  0.75227000  0.78644000  1.0
  C  C67  1  0.56572000  0.24773000  0.21356000  1.0
  C  C68  1  0.29810000  0.79742000  0.73758000  1.0
  C  C69  1  0.70190000  0.20258000  0.26242000  1.0
  C  C70  1  0.28320000  0.90150000  0.65850000  1.0
  C  C71  1  0.71680000  0.09849000  0.34150000  1.0
  C  C72  1  0.40202000  0.95970000  0.62607000  1.0
  C  C73  1  0.59798000  0.04030000  0.37393000  1.0
  C  C74  1  0.53726000  0.91173000  0.67554000  1.0
  C  C75  1  0.46274000  0.08827000  0.32447000  1.0
  C  C76  1  0.55504000  0.80923000  0.75579000  1.0
  C  C77  1  0.44495000  0.19078000  0.24421000  1.0
  Cl  Cl78  1  0.62155000  0.02639000  0.05537000  1.0
  Cl  Cl79  1  0.37844000  0.97361000  0.94464000  1.0
  Cl  Cl80  1  0.11853000  0.76502000  0.25768000  1.0
  Cl  Cl81  1  0.88147000  0.23499000  0.74232000  1.0
  Cl  Cl82  1  0.73417000  0.34218000  0.50870000  1.0
  Cl  Cl83  1  0.26584000  0.65782000  0.49130000  1.0
  Cl  Cl84  1  0.33093000  0.30392000  0.50021000  1.0
  Cl  Cl85  1  0.66908000  0.69609000  0.49978000  1.0
  Cl  Cl86  1  0.11273000  0.96226000  0.60043000  1.0
  Cl  Cl87  1  0.88727000  0.03774000  0.39957000  1.0
  Cl  Cl88  1  0.68619000  0.98243000  0.63562000  1.0
  Cl  Cl89  1  0.31381000  0.01757000  0.36439000  1.0
  O  O90  1  0.98154000  0.35635000  0.02437000  1.0
  O  O91  1  0.01846000  0.64366000  0.97562000  1.0
  O  O92  1  0.20933000  0.22708000  0.05701000  1.0
  O  O93  1  0.79066000  0.77291000  0.94299000  1.0
  O  O94  1  0.88118000  0.53670000  0.15436000  1.0
  O  O95  1  0.11883000  0.46330000  0.84564000  1.0
  O  O96  1  0.13433000  0.47480000  0.14625000  1.0
  O  O97  1  0.86567000  0.52520000  0.85375000  1.0
  O  O98  1  0.33255000  0.60140000  0.90148000  1.0
  O  O99  1  0.66746000  0.39859000  0.09852000  1.0
  O  O100  1  0.57438000  0.60030000  0.91504000  1.0
  O  O101  1  0.42563000  0.39969000  0.08496000  1.0
  O  O102  1  0.39733000  0.30117000  0.91398000  1.0
  O  O103  1  0.60267000  0.69882000  0.08602000  1.0
