# generated using pymatgen
data_CdH8C12N7O3
_symmetry_space_group_name_H-M   'P 1'
_cell_length_a   9.09251000
_cell_length_b   12.39510000
_cell_length_c   14.31260000
_cell_angle_alpha   90.00000000
_cell_angle_beta   106.89500000
_cell_angle_gamma   90.00000000
_symmetry_Int_Tables_number   1
_chemical_formula_structural   CdH8C12N7O3
_chemical_formula_sum   'Cd4 H32 C48 N28 O12'
_cell_volume   1543.44515436
_cell_formula_units_Z   4
loop_
 _symmetry_equiv_pos_site_id
 _symmetry_equiv_pos_as_xyz
  1  'x, y, z'
loop_
 _atom_site_type_symbol
 _atom_site_label
 _atom_site_symmetry_multiplicity
 _atom_site_fract_x
 _atom_site_fract_y
 _atom_site_fract_z
 _atom_site_occupancy
  Cd  Cd0  1  0.16873000  0.45464000  0.09624000  1.0
  Cd  Cd1  1  0.83127000  0.95463000  0.40377000  1.0
  Cd  Cd2  1  0.83126000  0.54536000  0.90375000  1.0
  Cd  Cd3  1  0.16874000  0.04537000  0.59625000  1.0
  H  H4  1  0.09047000  0.68981000  0.18176000  1.0
  H  H5  1  0.90954000  0.18981000  0.31824000  1.0
  H  H6  1  0.90953000  0.31019000  0.81823000  1.0
  H  H7  1  0.09047000  0.81019000  0.68178000  1.0
  H  H8  1  0.22629000  0.85878000  0.25455000  1.0
  H  H9  1  0.77372000  0.35877000  0.24545000  1.0
  H  H10  1  0.77370000  0.14122000  0.74544000  1.0
  H  H11  1  0.22630000  0.64122000  0.75456000  1.0
  H  H12  1  0.48869000  0.89596000  0.23455000  1.0
  H  H13  1  0.51132000  0.39596000  0.26545000  1.0
  H  H14  1  0.51131000  0.10403000  0.76545000  1.0
  H  H15  1  0.48869000  0.60403000  0.73455000  1.0
  H  H16  1  0.59320000  0.77091000  0.13353000  1.0
  H  H17  1  0.40680000  0.27091000  0.36647000  1.0
  H  H18  1  0.40680000  0.22909000  0.86647000  1.0
  H  H19  1  0.59320000  0.72910000  0.63353000  1.0
  H  H20  1  0.63430000  0.20932000  0.05011000  1.0
  H  H21  1  0.36569000  0.70932000  0.44989000  1.0
  H  H22  1  0.36570000  0.79068000  0.94989000  1.0
  H  H23  1  0.63430000  0.29068000  0.55011000  1.0
  H  H24  1  0.56590000  0.03773000  0.11821000  1.0
  H  H25  1  0.43409000  0.53774000  0.38179000  1.0
  H  H26  1  0.43410000  0.96227000  0.88179000  1.0
  H  H27  1  0.56590000  0.46227000  0.61821000  1.0
  H  H28  1  0.31257000  0.02946000  0.15923000  1.0
  H  H29  1  0.68742000  0.52946000  0.34077000  1.0
  H  H30  1  0.68743000  0.97054000  0.84077000  1.0
  H  H31  1  0.31257000  0.47055000  0.65923000  1.0
  H  H32  1  0.15082000  0.19384000  0.13699000  1.0
  H  H33  1  0.84918000  0.69384000  0.36301000  1.0
  H  H34  1  0.84918000  0.80616000  0.86301000  1.0
  H  H35  1  0.15082000  0.30616000  0.63699000  1.0
  C  C36  1  0.20246000  0.71003000  0.17322000  1.0
  C  C37  1  0.79755000  0.21003000  0.32678000  1.0
  C  C38  1  0.79753000  0.28997000  0.82676000  1.0
  C  C39  1  0.20247000  0.78997000  0.67324000  1.0
  C  C40  1  0.27862000  0.80433000  0.21357000  1.0
  C  C41  1  0.72139000  0.30433000  0.28643000  1.0
  C  C42  1  0.72138000  0.19566000  0.78642000  1.0
  C  C43  1  0.27862000  0.69566000  0.71358000  1.0
  C  C44  1  0.42204000  0.82578000  0.20096000  1.0
  C  C45  1  0.57796000  0.32578000  0.29904000  1.0
  C  C46  1  0.57795000  0.17422000  0.79904000  1.0
  C  C47  1  0.42205000  0.67422000  0.70096000  1.0
  C  C48  1  0.48202000  0.75558000  0.14523000  1.0
  C  C49  1  0.51799000  0.25558000  0.35477000  1.0
  C  C50  1  0.51799000  0.24441000  0.85476000  1.0
  C  C51  1  0.48201000  0.74442000  0.64524000  1.0
  C  C52  1  0.39661000  0.66428000  0.10531000  1.0
  C  C53  1  0.60340000  0.16427000  0.39469000  1.0
  C  C54  1  0.60339000  0.33572000  0.89468000  1.0
  C  C55  1  0.39661000  0.83573000  0.60532000  1.0
  C  C56  1  0.45137000  0.58305000  0.04681000  1.0
  C  C57  1  0.54863000  0.08305000  0.45319000  1.0
  C  C58  1  0.54863000  0.41695000  0.95318000  1.0
  C  C59  1  0.45137000  0.91695000  0.54682000  1.0
  C  C60  1  0.46482000  0.39697000  0.02092000  1.0
  C  C61  1  0.53518000  0.89698000  0.47908000  1.0
  C  C62  1  0.53519000  0.60302000  0.97907000  1.0
  C  C63  1  0.46482000  0.10303000  0.52093000  1.0
  C  C64  1  0.42606000  0.29026000  0.05463000  1.0
  C  C65  1  0.57393000  0.79026000  0.44537000  1.0
  C  C66  1  0.57393000  0.70974000  0.94536000  1.0
  C  C67  1  0.42607000  0.20974000  0.55464000  1.0
  C  C68  1  0.52568000  0.20205000  0.06717000  1.0
  C  C69  1  0.47432000  0.70206000  0.43283000  1.0
  C  C70  1  0.47432000  0.79794000  0.93284000  1.0
  C  C71  1  0.52568000  0.29795000  0.56716000  1.0
  C  C72  1  0.48696000  0.10613000  0.10508000  1.0
  C  C73  1  0.51304000  0.60613000  0.39493000  1.0
  C  C74  1  0.51304000  0.89387000  0.89493000  1.0
  C  C75  1  0.48696000  0.39387000  0.60507000  1.0
  C  C76  1  0.34891000  0.10136000  0.12852000  1.0
  C  C77  1  0.65108000  0.60136000  0.37148000  1.0
  C  C78  1  0.65109000  0.89865000  0.87148000  1.0
  C  C79  1  0.34891000  0.39865000  0.62852000  1.0
  C  C80  1  0.25686000  0.19332000  0.11604000  1.0
  C  C81  1  0.74313000  0.69332000  0.38396000  1.0
  C  C82  1  0.74313000  0.80668000  0.88396000  1.0
  C  C83  1  0.25686000  0.30668000  0.61604000  1.0
  N  N84  1  0.26146000  0.64060000  0.12199000  1.0
  N  N85  1  0.73854000  0.14060000  0.37801000  1.0
  N  N86  1  0.73853000  0.35940000  0.87800000  1.0
  N  N87  1  0.26147000  0.85940000  0.62201000  1.0
  N  N88  1  0.41791000  0.48109000  0.06343000  1.0
  N  N89  1  0.58209000  0.98109000  0.43657000  1.0
  N  N90  1  0.58209000  0.51891000  0.93656000  1.0
  N  N91  1  0.41791000  0.01891000  0.56344000  1.0
  N  N92  1  0.29505000  0.28621000  0.08128000  1.0
  N  N93  1  0.70495000  0.78621000  0.41872000  1.0
  N  N94  1  0.70495000  0.71379000  0.91871000  1.0
  N  N95  1  0.29505000  0.21379000  0.58129000  1.0
  N  N96  1  0.93054000  0.53485000  0.07478000  1.0
  N  N97  1  0.06947000  0.03485000  0.42522000  1.0
  N  N98  1  0.06946000  0.46515000  0.92521000  1.0
  N  N99  1  0.93054000  0.96515000  0.57479000  1.0
  N  N100  1  0.85744000  0.53937000  0.13262000  1.0
  N  N101  1  0.14256000  0.03937000  0.36738000  1.0
  N  N102  1  0.14256000  0.46062000  0.86737000  1.0
  N  N103  1  0.85743000  0.96062000  0.63264000  1.0
  N  N104  1  0.78548000  0.54485000  0.18796000  1.0
  N  N105  1  0.21452000  0.04485000  0.31204000  1.0
  N  N106  1  0.21452000  0.45514000  0.81203000  1.0
  N  N107  1  0.78548000  0.95514000  0.68797000  1.0
  N  N108  1  0.14373000  0.36500000  0.28102000  1.0
  N  N109  1  0.85627000  0.86501000  0.21898000  1.0
  N  N110  1  0.85627000  0.63500000  0.71897000  1.0
  N  N111  1  0.14373000  0.13500000  0.78103000  1.0
  O  O112  1  0.24121000  0.43674000  0.26894000  1.0
  O  O113  1  0.75879000  0.93674000  0.23106000  1.0
  O  O114  1  0.75879000  0.56327000  0.73105000  1.0
  O  O115  1  0.24121000  0.06327000  0.76895000  1.0
  O  O116  1  0.04211000  0.33140000  0.20543000  1.0
  O  O117  1  0.95789000  0.83140000  0.29457000  1.0
  O  O118  1  0.95789000  0.66860000  0.79456000  1.0
  O  O119  1  0.04211000  0.16860000  0.70544000  1.0
  O  O120  1  0.15338000  0.33105000  0.36437000  1.0
  O  O121  1  0.84662000  0.83106000  0.13562000  1.0
  O  O122  1  0.84664000  0.66896000  0.63562000  1.0
  O  O123  1  0.15337000  0.16896000  0.86438000  1.0
