# generated using pymatgen
data_ZnH14C20(NO)4
_symmetry_space_group_name_H-M   'P 1'
_cell_length_a   8.22373000
_cell_length_b   10.03040000
_cell_length_c   11.88400000
_cell_angle_alpha   112.52500000
_cell_angle_beta   93.99580000
_cell_angle_gamma   104.61100000
_symmetry_Int_Tables_number   1
_chemical_formula_structural   ZnH14C20(NO)4
_chemical_formula_sum   'Zn2 H28 C40 N8 O8'
_cell_volume   860.91083334
_cell_formula_units_Z   2
loop_
 _symmetry_equiv_pos_site_id
 _symmetry_equiv_pos_as_xyz
  1  'x, y, z'
loop_
 _atom_site_type_symbol
 _atom_site_label
 _atom_site_symmetry_multiplicity
 _atom_site_fract_x
 _atom_site_fract_y
 _atom_site_fract_z
 _atom_site_occupancy
  Zn  Zn0  1  0.75252000  0.00086000  0.74966000  1.0
  Zn  Zn1  1  0.24748000  0.99914000  0.25034000  1.0
  H  H2  1  0.41095000  0.57999000  0.88565000  1.0
  H  H3  1  0.58904000  0.42000000  0.11434000  1.0
  H  H4  1  0.20442000  0.32624000  0.83097000  1.0
  H  H5  1  0.79557000  0.67375000  0.16903000  1.0
  H  H6  1  0.08967000  0.47534000  0.19613000  1.0
  H  H7  1  0.91034000  0.52466000  0.80388000  1.0
  H  H8  1  0.29964000  0.72987000  0.25424000  1.0
  H  H9  1  0.70036000  0.27013000  0.74576000  1.0
  H  H10  1  0.67647000  0.79110000  0.97759000  1.0
  H  H11  1  0.32353000  0.20890000  0.02240000  1.0
  H  H12  1  0.60029000  0.19243000  0.22788000  1.0
  H  H13  1  0.39971000  0.80757000  0.77212000  1.0
  H  H14  1  0.72949000  0.64058000  0.32076000  1.0
  H  H15  1  0.27051000  0.35942000  0.67924000  1.0
  H  H16  1  0.52214000  0.38723000  0.26688000  1.0
  H  H17  1  0.47786000  0.61277000  0.73312000  1.0
  H  H18  1  0.20183000  0.59298000  0.50110000  1.0
  H  H19  1  0.79817000  0.40702000  0.49890000  1.0
  H  H20  1  0.40814000  0.84896000  0.55525000  1.0
  H  H21  1  0.59187000  0.15104000  0.44475000  1.0
  H  H22  1  0.76994000  0.91113000  0.28734000  1.0
  H  H23  1  0.23006000  0.08887000  0.71266000  1.0
  H  H24  1  0.95747000  0.24093000  0.65541000  1.0
  H  H25  1  0.04253000  0.75907000  0.34459000  1.0
  H  H26  1  0.97678000  0.17583000  0.42569000  1.0
  H  H27  1  0.02322000  0.82417000  0.57431000  1.0
  H  H28  1  0.78334000  0.08274000  0.07194000  1.0
  H  H29  1  0.21666000  0.91726000  0.92806000  1.0
  C  C30  1  0.33968000  0.55801000  0.95366000  1.0
  C  C31  1  0.66031000  0.44199000  0.04634000  1.0
  C  C32  1  0.22510000  0.41652000  0.92285000  1.0
  C  C33  1  0.77489000  0.58347000  0.07715000  1.0
  C  C34  1  0.13134000  0.38653000  0.00896000  1.0
  C  C35  1  0.86866000  0.61347000  0.99105000  1.0
  C  C36  1  0.16014000  0.50051000  0.12872000  1.0
  C  C37  1  0.83986000  0.49949000  0.87128000  1.0
  C  C38  1  0.27540000  0.64314000  0.16004000  1.0
  C  C39  1  0.72460000  0.35686000  0.83996000  1.0
  C  C40  1  0.36371000  0.67520000  0.07193000  1.0
  C  C41  1  0.63629000  0.32479000  0.92806000  1.0
  C  C42  1  0.47740000  0.82530000  0.09774000  1.0
  C  C43  1  0.52260000  0.17470000  0.90226000  1.0
  C  C44  1  0.61801000  0.86193000  0.04536000  1.0
  C  C45  1  0.38199000  0.13807000  0.95464000  1.0
  C  C46  1  0.58152000  0.07279000  0.17553000  1.0
  C  C47  1  0.41848000  0.92721000  0.82447000  1.0
  C  C48  1  0.99806000  0.23670000  0.97093000  1.0
  C  C49  1  0.00194000  0.76330000  0.02908000  1.0
  C  C50  1  0.61171000  0.63101000  0.35763000  1.0
  C  C51  1  0.38829000  0.36899000  0.64237000  1.0
  C  C52  1  0.49710000  0.48956000  0.32813000  1.0
  C  C53  1  0.50289000  0.51044000  0.67187000  1.0
  C  C54  1  0.34824000  0.47404000  0.37828000  1.0
  C  C55  1  0.65176000  0.52596000  0.62172000  1.0
  C  C56  1  0.31720000  0.60478000  0.46099000  1.0
  C  C57  1  0.68280000  0.39522000  0.53901000  1.0
  C  C58  1  0.43270000  0.74732000  0.49143000  1.0
  C  C59  1  0.56731000  0.25268000  0.50858000  1.0
  C  C60  1  0.58090000  0.76251000  0.43927000  1.0
  C  C61  1  0.41910000  0.23749000  0.56073000  1.0
  C  C62  1  0.70434000  0.91021000  0.46796000  1.0
  C  C63  1  0.29566000  0.08979000  0.53204000  1.0
  C  C64  1  0.78350000  0.96254000  0.38739000  1.0
  C  C65  1  0.21650000  0.03746000  0.61261000  1.0
  C  C66  1  0.88313000  0.13674000  0.57808000  1.0
  C  C67  1  0.11687000  0.86326000  0.42193000  1.0
  C  C68  1  0.23137000  0.31797000  0.34777000  1.0
  C  C69  1  0.76863000  0.68203000  0.65223000  1.0
  N  N70  1  0.76904000  0.02195000  0.58789000  1.0
  N  N71  1  0.23096000  0.97804000  0.41211000  1.0
  N  N72  1  0.89458000  0.10437000  0.45852000  1.0
  N  N73  1  0.10542000  0.89563000  0.54148000  1.0
  N  N74  1  0.45597000  0.96052000  0.17932000  1.0
  N  N75  1  0.54403000  0.03948000  0.82068000  1.0
  N  N76  1  0.68109000  0.01684000  0.09598000  1.0
  N  N77  1  0.31891000  0.98316000  0.90402000  1.0
  O  O78  1  0.92582000  0.20780000  0.05204000  1.0
  O  O79  1  0.07418000  0.79221000  0.94797000  1.0
  O  O80  1  0.96775000  0.14866000  0.85361000  1.0
  O  O81  1  0.03226000  0.85134000  0.14640000  1.0
  O  O82  1  0.10011000  0.30438000  0.39583000  1.0
  O  O83  1  0.89989000  0.69562000  0.60416000  1.0
  O  O84  1  0.28064000  0.20898000  0.27367000  1.0
  O  O85  1  0.71936000  0.79102000  0.72634000  1.0
