# generated using pymatgen
data_Cu3H12(C11N3)2
_symmetry_space_group_name_H-M   'P 1'
_cell_length_a   21.96360000
_cell_length_b   25.68300000
_cell_length_c   27.30550000
_cell_angle_alpha   90.90920000
_cell_angle_beta   92.07990000
_cell_angle_gamma   90.11440000
_symmetry_Int_Tables_number   1
_chemical_formula_structural   Cu3H12(C11N3)2
_chemical_formula_sum   'Cu12 H48 C88 N24'
_cell_volume   15390.65405573
_cell_formula_units_Z   4
loop_
 _symmetry_equiv_pos_site_id
 _symmetry_equiv_pos_as_xyz
  1  'x, y, z'
loop_
 _atom_site_type_symbol
 _atom_site_label
 _atom_site_symmetry_multiplicity
 _atom_site_fract_x
 _atom_site_fract_y
 _atom_site_fract_z
 _atom_site_occupancy
  Cu  Cu0  1  0.59898000  0.43713000  0.65685000  1.0
  Cu  Cu1  1  0.64682000  0.39762000  0.55810000  1.0
  Cu  Cu2  1  0.59102000  0.31735000  0.63456000  1.0
  Cu  Cu3  1  0.35898000  0.10611000  0.17311000  1.0
  Cu  Cu4  1  0.35408000  0.10511000  0.05650000  1.0
  Cu  Cu5  1  0.44358000  0.18049000  0.11787000  1.0
  Cu  Cu6  1  0.10724000  0.56814000  0.84237000  1.0
  Cu  Cu7  1  0.15266000  0.59931000  0.94767000  1.0
  Cu  Cu8  1  0.08948000  0.68321000  0.87416000  1.0
  Cu  Cu9  1  0.87428000  0.91080000  0.32613000  1.0
  Cu  Cu10  1  0.86065000  0.89257000  0.43707000  1.0
  Cu  Cu11  1  0.92710000  0.80752000  0.36870000  1.0
  H  H12  1  0.68210000  0.53686000  0.67634000  1.0
  H  H13  1  0.73839000  0.49069000  0.53170000  1.0
  H  H14  1  0.51503000  0.28009000  0.72637000  1.0
  H  H15  1  0.50151000  0.44792000  0.73969000  1.0
  H  H16  1  0.64195000  0.32483000  0.46339000  1.0
  H  H17  1  0.60620000  0.21139000  0.57438000  1.0
  H  H18  1  0.25455000  0.02543000  0.19286000  1.0
  H  H19  1  0.27178000  0.00343000  0.03636000  1.0
  H  H20  1  0.55126000  0.19717000  0.20007000  1.0
  H  H21  1  0.41941000  0.11101000  0.28077000  1.0
  H  H22  1  0.34994000  0.16123000  0.95322000  1.0
  H  H23  1  0.45376000  0.27233000  0.04306000  1.0
  H  H24  1  0.19512000  0.47390000  0.81995000  1.0
  H  H25  1  0.24742000  0.50627000  0.97175000  1.0
  H  H26  1  0.00749000  0.72514000  0.78173000  1.0
  H  H27  1  0.00988000  0.55880000  0.75344000  1.0
  H  H28  1  0.15024000  0.66594000  0.04674000  1.0
  H  H29  1  0.10437000  0.78433000  0.94073000  1.0
  H  H30  1  0.77168000  0.99680000  0.30685000  1.0
  H  H31  1  0.77340000  0.98824000  0.46521000  1.0
  H  H32  1  0.01898000  0.77398000  0.28337000  1.0
  H  H33  1  0.95670000  0.92512000  0.23503000  1.0
  H  H34  1  0.87176000  0.83622000  0.53879000  1.0
  H  H35  1  0.92139000  0.71097000  0.44035000  1.0
  H  H36  1  0.16202000  0.97604000  0.18355000  1.0
  H  H37  1  0.23191000  0.91581000  0.04831000  1.0
  H  H38  1  0.08396000  0.92651000  0.22643000  1.0
  H  H39  1  0.02671000  0.77530000  0.17159000  1.0
  H  H40  1  0.06817000  0.74004000  0.09418000  1.0
  H  H41  1  0.19176000  0.83249000  0.01263000  1.0
  H  H42  1  0.80717000  0.54602000  0.68160000  1.0
  H  H43  1  0.76102000  0.60371000  0.53766000  1.0
  H  H44  1  0.89413000  0.58399000  0.73004000  1.0
  H  H45  1  0.99181000  0.71526000  0.67539000  1.0
  H  H46  1  0.95899000  0.75389000  0.59491000  1.0
  H  H47  1  0.81820000  0.67855000  0.50545000  1.0
  H  H48  1  0.67040000  0.03304000  0.31522000  1.0
  H  H49  1  0.73583000  0.08265000  0.45939000  1.0
  H  H50  1  0.58879000  0.08213000  0.27190000  1.0
  H  H51  1  0.51259000  0.21852000  0.33953000  1.0
  H  H52  1  0.55423000  0.25009000  0.42085000  1.0
  H  H53  1  0.69173000  0.16152000  0.49889000  1.0
  H  H54  1  0.31869000  0.46489000  0.82244000  1.0
  H  H55  1  0.27006000  0.39327000  0.95726000  1.0
  H  H56  1  0.40023000  0.42710000  0.77330000  1.0
  H  H57  1  0.49007000  0.28602000  0.81925000  1.0
  H  H58  1  0.45819000  0.24163000  0.89477000  1.0
  H  H59  1  0.32497000  0.31368000  0.98553000  1.0
  C  C60  1  0.68864000  0.51852000  0.64083000  1.0
  C  C61  1  0.72985000  0.53141000  0.60486000  1.0
  C  C62  1  0.71663000  0.49569000  0.56652000  1.0
  C  C63  1  0.51882000  0.32206000  0.72355000  1.0
  C  C64  1  0.49055000  0.36157000  0.75055000  1.0
  C  C65  1  0.51099000  0.40776000  0.72965000  1.0
  C  C66  1  0.63266000  0.30398000  0.49660000  1.0
  C  C67  1  0.62424000  0.25038000  0.50294000  1.0
  C  C68  1  0.61581000  0.24577000  0.55334000  1.0
  C  C69  1  0.26483000  0.02729000  0.15435000  1.0
  C  C70  1  0.24425000  0.99548000  0.11478000  1.0
  C  C71  1  0.27440000  0.01552000  0.07464000  1.0
  C  C72  1  0.51211000  0.17612000  0.21280000  1.0
  C  C73  1  0.50288000  0.15440000  0.25869000  1.0
  C  C74  1  0.44453000  0.13238000  0.25404000  1.0
  C  C75  1  0.37658000  0.18211000  0.98147000  1.0
  C  C76  1  0.40013000  0.23283000  0.98129000  1.0
  C  C77  1  0.42907000  0.23895000  0.02758000  1.0
  C  C78  1  0.20060000  0.48876000  0.85728000  1.0
  C  C79  1  0.24112000  0.47272000  0.89493000  1.0
  C  C80  1  0.22657000  0.50442000  0.93512000  1.0
  C  C81  1  0.01562000  0.68347000  0.78112000  1.0
  C  C82  1  0.99066000  0.64479000  0.74950000  1.0
  C  C83  1  0.01578000  0.59833000  0.76748000  1.0
  C  C84  1  0.13814000  0.68837000  0.01448000  1.0
  C  C85  1  0.12866000  0.74210000  0.01034000  1.0
  C  C86  1  0.11618000  0.74900000  0.96016000  1.0
  C  C87  1  0.77890000  0.98779000  0.34531000  1.0
  C  C88  1  0.75307000  0.01074000  0.38673000  1.0
  C  C89  1  0.78059000  0.98416000  0.42622000  1.0
  C  C90  1  0.99623000  0.81097000  0.27758000  1.0
  C  C91  1  0.00654000  0.84906000  0.24253000  1.0
  C  C92  1  0.96514000  0.88865000  0.25363000  1.0
  C  C93  1  0.88532000  0.81174000  0.50832000  1.0
  C  C94  1  0.89601000  0.75801000  0.50680000  1.0
  C  C95  1  0.90941000  0.74762000  0.45779000  1.0
  C  C96  1  0.12609000  0.90120000  0.15956000  1.0
  C  C97  1  0.16379000  0.94549000  0.15538000  1.0
  C  C98  1  0.20278000  0.95089000  0.11618000  1.0
  C  C99  1  0.20203000  0.91229000  0.07919000  1.0
  C  C100  1  0.16499000  0.86726000  0.08159000  1.0
  C  C101  1  0.12806000  0.86086000  0.12308000  1.0
  C  C102  1  0.08624000  0.89552000  0.19872000  1.0
  C  C103  1  0.05022000  0.85078000  0.20308000  1.0
  C  C104  1  0.05487000  0.81011000  0.16863000  1.0
  C  C105  1  0.09295000  0.81450000  0.12803000  1.0
  C  C106  1  0.09547000  0.77534000  0.09105000  1.0
  C  C107  1  0.12980000  0.78215000  0.04932000  1.0
  C  C108  1  0.16416000  0.82775000  0.04474000  1.0
  C  C109  1  0.86174000  0.61102000  0.65903000  1.0
  C  C110  1  0.81430000  0.57393000  0.65261000  1.0
  C  C111  1  0.77802000  0.57101000  0.60931000  1.0
  C  C112  1  0.78918000  0.60552000  0.57143000  1.0
  C  C113  1  0.83513000  0.64425000  0.57671000  1.0
  C  C114  1  0.87124000  0.64759000  0.62123000  1.0
  C  C115  1  0.90090000  0.61227000  0.70128000  1.0
  C  C116  1  0.94814000  0.64889000  0.70704000  1.0
  C  C117  1  0.95495000  0.68675000  0.67113000  1.0
  C  C118  1  0.91710000  0.68691000  0.62787000  1.0
  C  C119  1  0.92439000  0.72348000  0.59007000  1.0
  C  C120  1  0.88928000  0.72025000  0.54623000  1.0
  C  C121  1  0.84575000  0.68056000  0.53954000  1.0
  C  C122  1  0.62760000  0.10205000  0.34406000  1.0
  C  C123  1  0.66937000  0.06034000  0.34623000  1.0
  C  C124  1  0.70856000  0.05306000  0.38725000  1.0
  C  C125  1  0.70499000  0.08744000  0.42752000  1.0
  C  C126  1  0.66392000  0.12997000  0.42719000  1.0
  C  C127  1  0.62521000  0.13760000  0.38468000  1.0
  C  C128  1  0.58761000  0.10950000  0.30287000  1.0
  C  C129  1  0.54590000  0.15066000  0.30139000  1.0
  C  C130  1  0.54471000  0.18615000  0.34075000  1.0
  C  C131  1  0.58442000  0.18077000  0.38256000  1.0
  C  C132  1  0.58496000  0.21676000  0.42237000  1.0
  C  C133  1  0.62340000  0.21018000  0.46395000  1.0
  C  C134  1  0.66152000  0.16652000  0.46665000  1.0
  C  C135  1  0.36909000  0.39502000  0.84069000  1.0
  C  C136  1  0.32452000  0.43357000  0.84878000  1.0
  C  C137  1  0.28858000  0.43304000  0.89018000  1.0
  C  C138  1  0.29806000  0.39415000  0.92504000  1.0
  C  C139  1  0.34169000  0.35429000  0.91824000  1.0
  C  C140  1  0.37678000  0.35418000  0.87523000  1.0
  C  C141  1  0.40638000  0.39581000  0.79960000  1.0
  C  C142  1  0.45026000  0.35728000  0.79184000  1.0
  C  C143  1  0.45572000  0.31601000  0.82476000  1.0
  C  C144  1  0.41962000  0.31354000  0.86663000  1.0
  C  C145  1  0.42580000  0.27299000  0.90117000  1.0
  C  C146  1  0.39232000  0.27334000  0.94381000  1.0
  C  C147  1  0.35103000  0.31377000  0.95226000  1.0
  N  N148  1  0.67121000  0.46347000  0.57911000  1.0
  N  N149  1  0.65353000  0.47806000  0.62509000  1.0
  N  N150  1  0.54878000  0.39651000  0.69317000  1.0
  N  N151  1  0.55340000  0.34326000  0.68914000  1.0
  N  N152  1  0.61869000  0.29333000  0.57532000  1.0
  N  N153  1  0.62969000  0.32944000  0.54003000  1.0
  N  N154  1  0.31007000  0.05610000  0.08927000  1.0
  N  N155  1  0.30426000  0.06328000  0.13892000  1.0
  N  N156  1  0.42067000  0.14027000  0.20845000  1.0
  N  N157  1  0.46259000  0.16752000  0.18288000  1.0
  N  N158  1  0.42314000  0.19504000  0.05352000  1.0
  N  N159  1  0.39020000  0.15972000  0.02504000  1.0
  N  N160  1  0.18091000  0.53720000  0.92212000  1.0
  N  N161  1  0.16453000  0.52707000  0.87387000  1.0
  N  N162  1  0.05320000  0.60865000  0.80664000  1.0
  N  N163  1  0.05278000  0.66147000  0.81543000  1.0
  N  N164  1  0.11790000  0.70269000  0.93616000  1.0
  N  N165  1  0.13210000  0.66499000  0.96990000  1.0
  N  N166  1  0.81972000  0.94817000  0.40947000  1.0
  N  N167  1  0.81889000  0.95066000  0.35922000  1.0
  N  N168  1  0.93249000  0.87509000  0.29231000  1.0
  N  N169  1  0.95210000  0.82707000  0.30761000  1.0
  N  N170  1  0.90712000  0.79206000  0.43201000  1.0
  N  N171  1  0.89159000  0.83192000  0.46336000  1.0
