# generated using pymatgen
data_KCrH26C16(NO4)2
_symmetry_space_group_name_H-M   'P 1'
_cell_length_a   7.82407000
_cell_length_b   7.85437000
_cell_length_c   19.70700000
_cell_angle_alpha   90.00000000
_cell_angle_beta   90.00000000
_cell_angle_gamma   108.03100000
_symmetry_Int_Tables_number   1
_chemical_formula_structural   KCrH26C16(NO4)2
_chemical_formula_sum   'K2 Cr2 H52 C32 N4 O16'
_cell_volume   1151.58104243
_cell_formula_units_Z   2
loop_
 _symmetry_equiv_pos_site_id
 _symmetry_equiv_pos_as_xyz
  1  'x, y, z'
loop_
 _atom_site_type_symbol
 _atom_site_label
 _atom_site_symmetry_multiplicity
 _atom_site_fract_x
 _atom_site_fract_y
 _atom_site_fract_z
 _atom_site_occupancy
  K  K0  1  0.50000000  0.50001000  1.00000000  1.0
  K  K1  1  0.00000000  0.50000000  0.50000000  1.0
  Cr  Cr2  1  0.00000000  0.00000000  0.00000000  1.0
  Cr  Cr3  1  0.50000000  0.00000000  0.50000000  1.0
  H  H4  1  0.01021000  0.37441000  0.08491000  1.0
  H  H5  1  0.48977000  0.62558000  0.58491000  1.0
  H  H6  1  0.98979000  0.62559000  0.91509000  1.0
  H  H7  1  0.51023000  0.37442000  0.41509000  1.0
  H  H8  1  0.77907000  0.29219000  0.10527000  1.0
  H  H9  1  0.72091000  0.70780000  0.60527000  1.0
  H  H10  1  0.22093000  0.70781000  0.89473000  1.0
  H  H11  1  0.27909000  0.29220000  0.39473000  1.0
  H  H12  1  0.08676000  0.99934000  0.15618000  1.0
  H  H13  1  0.41324000  0.00066000  0.65618000  1.0
  H  H14  1  0.91324000  0.00066000  0.84382000  1.0
  H  H15  1  0.58676000  0.99934000  0.34382000  1.0
  H  H16  1  0.06992000  0.21257000  0.18047000  1.0
  H  H17  1  0.43007000  0.78743000  0.68047000  1.0
  H  H18  1  0.93008000  0.78742000  0.81953000  1.0
  H  H19  1  0.56993000  0.21257000  0.31953000  1.0
  H  H20  1  0.59303000  0.94370000  0.22122000  1.0
  H  H21  1  0.90697000  0.05630000  0.72122000  1.0
  H  H22  1  0.40697000  0.05630000  0.77878000  1.0
  H  H23  1  0.09303000  0.94370000  0.27878000  1.0
  H  H24  1  0.82764000  0.03186000  0.23545000  1.0
  H  H25  1  0.67236000  0.96814000  0.73545000  1.0
  H  H26  1  0.17236000  0.96814000  0.76455000  1.0
  H  H27  1  0.32764000  0.03185000  0.26455000  1.0
  H  H28  1  0.70708000  0.16845000  0.19920000  1.0
  H  H29  1  0.79292000  0.83155000  0.69920000  1.0
  H  H30  1  0.29292000  0.83155000  0.80080000  1.0
  H  H31  1  0.20708000  0.16845000  0.30080000  1.0
  H  H32  1  0.87581000  0.77504000  0.17040000  1.0
  H  H33  1  0.62419000  0.22496000  0.67040000  1.0
  H  H34  1  0.12419000  0.22496000  0.82960000  1.0
  H  H35  1  0.37581000  0.77504000  0.32960000  1.0
  H  H36  1  0.64116000  0.68508000  0.15759000  1.0
  H  H37  1  0.85884000  0.31492000  0.65759000  1.0
  H  H38  1  0.35884000  0.31492000  0.84241000  1.0
  H  H39  1  0.14116000  0.68508000  0.34241000  1.0
  H  H40  1  0.79133000  0.72348000  0.08720000  1.0
  H  H41  1  0.70867000  0.27651000  0.58720000  1.0
  H  H42  1  0.20867000  0.27652000  0.91280000  1.0
  H  H43  1  0.29133000  0.72348000  0.41280000  1.0
  H  H44  1  0.59739000  0.92037000  0.03339000  1.0
  H  H45  1  0.90260000  0.07962000  0.53339000  1.0
  H  H46  1  0.40260000  0.07963000  0.96661000  1.0
  H  H47  1  0.09739000  0.92037000  0.46661000  1.0
  H  H48  1  0.46211000  0.84604000  0.10614000  1.0
  H  H49  1  0.03788000  0.15396000  0.60614000  1.0
  H  H50  1  0.53789000  0.15396000  0.89386000  1.0
  H  H51  1  0.96212000  0.84604000  0.39386000  1.0
  H  H52  1  0.54229000  0.07715000  0.08809000  1.0
  H  H53  1  0.95770000  0.92284000  0.58809000  1.0
  H  H54  1  0.45771000  0.92285000  0.91191000  1.0
  H  H55  1  0.04229000  0.07715000  0.41191000  1.0
  C  C56  1  0.84888000  0.28154000  0.99965000  1.0
  C  C57  1  0.65111000  0.71846000  0.49965000  1.0
  C  C58  1  0.15113000  0.71846000  0.00035000  1.0
  C  C59  1  0.34889000  0.28154000  0.50035000  1.0
  C  C60  1  0.88525000  0.26504000  0.07500000  1.0
  C  C61  1  0.61474000  0.73496000  0.57500000  1.0
  C  C62  1  0.11475000  0.73496000  0.92500000  1.0
  C  C63  1  0.38526000  0.26505000  0.42500000  1.0
  C  C64  1  0.07461000  0.12630000  0.13710000  1.0
  C  C65  1  0.42539000  0.87370000  0.63710000  1.0
  C  C66  1  0.92539000  0.87369000  0.86290000  1.0
  C  C67  1  0.57461000  0.12630000  0.36290000  1.0
  C  C68  1  0.24206000  0.21467000  0.09512000  1.0
  C  C69  1  0.25796000  0.78534000  0.59512000  1.0
  C  C70  1  0.75794000  0.78533000  0.90488000  1.0
  C  C71  1  0.74204000  0.21466000  0.40488000  1.0
  C  C72  1  0.74406000  0.96336000  0.12924000  1.0
  C  C73  1  0.75594000  0.03663000  0.62924000  1.0
  C  C74  1  0.25594000  0.03664000  0.87076000  1.0
  C  C75  1  0.24406000  0.96336000  0.37076000  1.0
  C  C76  1  0.71916000  0.03284000  0.20027000  1.0
  C  C77  1  0.78084000  0.96716000  0.70027000  1.0
  C  C78  1  0.28084000  0.96716000  0.79973000  1.0
  C  C79  1  0.21916000  0.03284000  0.29973000  1.0
  C  C80  1  0.76550000  0.77647000  0.13619000  1.0
  C  C81  1  0.73450000  0.22352000  0.63618000  1.0
  C  C82  1  0.23450000  0.22353000  0.86381000  1.0
  C  C83  1  0.26550000  0.77647000  0.36382000  1.0
  C  C84  1  0.57785000  0.95268000  0.08628000  1.0
  C  C85  1  0.92215000  0.04731000  0.58628000  1.0
  C  C86  1  0.42215000  0.04731000  0.91372000  1.0
  C  C87  1  0.07785000  0.95269000  0.41372000  1.0
  N  N88  1  0.91116000  0.08951000  0.09397000  1.0
  N  N89  1  0.58884000  0.91049000  0.59397000  1.0
  N  N90  1  0.08884000  0.91049000  0.90604000  1.0
  N  N91  1  0.41116000  0.08952000  0.40604000  1.0
  O  O92  1  0.89777000  0.17460000  0.95919000  1.0
  O  O93  1  0.60224000  0.82540000  0.45919000  1.0
  O  O94  1  0.10224000  0.82540000  0.04081000  1.0
  O  O95  1  0.39777000  0.17460000  0.54081000  1.0
  O  O96  1  0.22155000  0.18752000  0.02974000  1.0
  O  O97  1  0.27845000  0.81249000  0.52974000  1.0
  O  O98  1  0.77845000  0.81248000  0.97026000  1.0
  O  O99  1  0.72155000  0.18751000  0.47026000  1.0
  O  O100  1  0.78313000  0.39815000  0.98015000  1.0
  O  O101  1  0.71687000  0.60184000  0.48016000  1.0
  O  O102  1  0.21687000  0.60185000  0.01985000  1.0
  O  O103  1  0.28313000  0.39816000  0.51985000  1.0
  O  O104  1  0.38467000  0.30433000  0.12219000  1.0
  O  O105  1  0.11532000  0.69566000  0.62219000  1.0
  O  O106  1  0.61533000  0.69567000  0.87782000  1.0
  O  O107  1  0.88468000  0.30433000  0.37781000  1.0
