# generated using pymatgen
data_Zn2H12C14N2O11
_symmetry_space_group_name_H-M   'P 1'
_cell_length_a   8.04931000
_cell_length_b   8.04931000
_cell_length_c   12.93260000
_cell_angle_alpha   83.08790000
_cell_angle_beta   83.08770000
_cell_angle_gamma   74.27660000
_symmetry_Int_Tables_number   1
_chemical_formula_structural   Zn2H12C14N2O11
_chemical_formula_sum   'Zn4 H24 C28 N4 O22'
_cell_volume   797.32283803
_cell_formula_units_Z   2
loop_
 _symmetry_equiv_pos_site_id
 _symmetry_equiv_pos_as_xyz
  1  'x, y, z'
loop_
 _atom_site_type_symbol
 _atom_site_label
 _atom_site_symmetry_multiplicity
 _atom_site_fract_x
 _atom_site_fract_y
 _atom_site_fract_z
 _atom_site_occupancy
  Zn  Zn0  1  0.57288000  0.52555000  0.12502000  1.0
  Zn  Zn1  1  0.47445000  0.42712000  0.37498000  1.0
  Zn  Zn2  1  0.42712000  0.47445000  0.87498000  1.0
  Zn  Zn3  1  0.52555000  0.57289000  0.62502000  1.0
  H  H4  1  0.52314000  0.80800000  0.99587000  1.0
  H  H5  1  0.19200000  0.47687000  0.50413000  1.0
  H  H6  1  0.47686000  0.19200000  0.00413000  1.0
  H  H7  1  0.80800000  0.52314000  0.49587000  1.0
  H  H8  1  0.59199000  0.86728000  0.09258000  1.0
  H  H9  1  0.13272000  0.40801000  0.40742000  1.0
  H  H10  1  0.40801000  0.13272000  0.90742000  1.0
  H  H11  1  0.86728000  0.59199000  0.59258000  1.0
  H  H12  1  0.25926000  0.64486000  0.21514000  1.0
  H  H13  1  0.35515000  0.74075000  0.28486000  1.0
  H  H14  1  0.74075000  0.35514000  0.78486000  1.0
  H  H15  1  0.64486000  0.25925000  0.71513000  1.0
  H  H16  1  0.82101000  0.84555000  0.20606000  1.0
  H  H17  1  0.15445000  0.17898000  0.29394000  1.0
  H  H18  1  0.17898000  0.15445000  0.79394000  1.0
  H  H19  1  0.84555000  0.82101000  0.70607000  1.0
  H  H20  1  0.98078000  0.72096000  0.36274000  1.0
  H  H21  1  0.27904000  0.01921000  0.13726000  1.0
  H  H22  1  0.01922000  0.27905000  0.63726000  1.0
  H  H23  1  0.72095000  0.98078000  0.86274000  1.0
  H  H24  1  0.89568000  0.87441000  0.52705000  1.0
  H  H25  1  0.12560000  0.10431000  0.97295000  1.0
  H  H26  1  0.10432000  0.12560000  0.47294000  1.0
  H  H27  1  0.87441000  0.89568000  0.02706000  1.0
  C  C28  1  0.56960000  0.15697000  0.18907000  1.0
  C  C29  1  0.84303000  0.43039000  0.31093000  1.0
  C  C30  1  0.43039000  0.84303000  0.81093000  1.0
  C  C31  1  0.15697000  0.56960000  0.68907000  1.0
  C  C32  1  0.66147000  0.06678000  0.28270000  1.0
  C  C33  1  0.93322000  0.33852000  0.21730000  1.0
  C  C34  1  0.33853000  0.93322000  0.71730000  1.0
  C  C35  1  0.06678000  0.66147000  0.78270000  1.0
  C  C36  1  0.78812000  0.90956000  0.27791000  1.0
  C  C37  1  0.09044000  0.21187000  0.22209000  1.0
  C  C38  1  0.21187000  0.09045000  0.72209000  1.0
  C  C39  1  0.90955000  0.78813000  0.77791000  1.0
  C  C40  1  0.87765000  0.84042000  0.36536000  1.0
  C  C41  1  0.15958000  0.12234000  0.13464000  1.0
  C  C42  1  0.12235000  0.15958000  0.63464000  1.0
  C  C43  1  0.84042000  0.87765000  0.86536000  1.0
  C  C44  1  0.83191000  0.92531000  0.45619000  1.0
  C  C45  1  0.07468000  0.16809000  0.04381000  1.0
  C  C46  1  0.16809000  0.07469000  0.54381000  1.0
  C  C47  1  0.92531000  0.83191000  0.95619000  1.0
  C  C48  1  0.70292000  0.08119000  0.45505000  1.0
  C  C49  1  0.91881000  0.29708000  0.04495000  1.0
  C  C50  1  0.29708000  0.91881000  0.54495000  1.0
  C  C51  1  0.08119000  0.70291000  0.95505000  1.0
  C  C52  1  0.65172000  0.18410000  0.54885000  1.0
  C  C53  1  0.81591000  0.34827000  0.95114000  1.0
  C  C54  1  0.34828000  0.81591000  0.45115000  1.0
  C  C55  1  0.18409000  0.65172000  0.04886000  1.0
  N  N56  1  0.62298000  0.15321000  0.36897000  1.0
  N  N57  1  0.84679000  0.37702000  0.13104000  1.0
  N  N58  1  0.37702000  0.84679000  0.63103000  1.0
  N  N59  1  0.15321000  0.62298000  0.86897000  1.0
  O  O60  1  0.48355000  0.31346000  0.19686000  1.0
  O  O61  1  0.68654000  0.51644000  0.30314000  1.0
  O  O62  1  0.51644000  0.68654000  0.80314000  1.0
  O  O63  1  0.31346000  0.48356000  0.69686000  1.0
  O  O64  1  0.58600000  0.07645000  0.10837000  1.0
  O  O65  1  0.92356000  0.41399000  0.39163000  1.0
  O  O66  1  0.41400000  0.92356000  0.89163000  1.0
  O  O67  1  0.07644000  0.58601000  0.60837000  1.0
  O  O68  1  0.57442000  0.34398000  0.52912000  1.0
  O  O69  1  0.65602000  0.42559000  0.97088000  1.0
  O  O70  1  0.42558000  0.65602000  0.47088000  1.0
  O  O71  1  0.34399000  0.57441000  0.02912000  1.0
  O  O72  1  0.68955000  0.10917000  0.63750000  1.0
  O  O73  1  0.89083000  0.31045000  0.86251000  1.0
  O  O74  1  0.31046000  0.89083000  0.36250000  1.0
  O  O75  1  0.10918000  0.68954000  0.13750000  1.0
  O  O76  1  0.58766000  0.76374000  0.05931000  1.0
  O  O77  1  0.23626000  0.41235000  0.44068000  1.0
  O  O78  1  0.41234000  0.23626000  0.94068000  1.0
  O  O79  1  0.76374000  0.58766000  0.55931000  1.0
  O  O80  1  0.36976000  0.63025000  0.25000000  1.0
  O  O81  1  0.63025000  0.36976000  0.75000000  1.0
