# generated using pymatgen
data_CdH8C6(NCl)2
_symmetry_space_group_name_H-M   'P 1'
_cell_length_a   6.60366000
_cell_length_b   6.63023000
_cell_length_c   10.51529001
_cell_angle_alpha   83.98743796
_cell_angle_beta   71.71592006
_cell_angle_gamma   70.48750000
_symmetry_Int_Tables_number   1
_chemical_formula_structural   CdH8C6(NCl)2
_chemical_formula_sum   'Cd2 H16 C12 N4 Cl4'
_cell_volume   412.04847650
_cell_formula_units_Z   2
loop_
 _symmetry_equiv_pos_site_id
 _symmetry_equiv_pos_as_xyz
  1  'x, y, z'
loop_
 _atom_site_type_symbol
 _atom_site_label
 _atom_site_symmetry_multiplicity
 _atom_site_fract_x
 _atom_site_fract_y
 _atom_site_fract_z
 _atom_site_occupancy
  Cd  Cd0  1  0.68022000  0.49998000  0.63975000  1.0
  Cd  Cd1  1  0.58871000  0.99999000  0.82293000  1.0
  H  H2  1  0.94801000  0.77867000  0.91340000  1.0
  H  H3  1  0.13904000  0.22166000  0.91302000  1.0
  H  H4  1  0.81574000  0.60652000  0.90967000  1.0
  H  H5  1  0.27512000  0.39369000  0.90953000  1.0
  H  H6  1  0.75141000  0.05521000  0.11176000  1.0
  H  H7  1  0.13586000  0.94540000  0.11137000  1.0
  H  H8  1  0.65544000  0.44715000  0.10241000  1.0
  H  H9  1  0.24329000  0.55234000  0.10239000  1.0
  H  H10  1  0.32091000  0.72187000  0.54949000  1.0
  H  H11  1  0.12974000  0.27790000  0.54922000  1.0
  H  H12  1  0.45330000  0.89386000  0.55324000  1.0
  H  H13  1  0.99338000  0.10597000  0.55310000  1.0
  H  H14  1  0.51737000  0.44531000  0.35118000  1.0
  H  H15  1  0.13235000  0.55404000  0.35110000  1.0
  H  H16  1  0.61355000  0.05319000  0.36049000  1.0
  H  H17  1  0.02472000  0.94723000  0.36011000  1.0
  C  C18  1  0.71475000  0.74981000  0.09142000  1.0
  C  C19  1  0.19399000  0.25016000  0.09125000  1.0
  C  C20  1  0.70224000  0.92041000  0.16433000  1.0
  C  C21  1  0.13283000  0.07988000  0.16405000  1.0
  C  C22  1  0.64519000  0.58037000  0.15932000  1.0
  C  C23  1  0.19615000  0.41932000  0.15921000  1.0
  C  C24  1  0.55416000  0.75060000  0.37147000  1.0
  C  C25  1  0.07421000  0.24934000  0.37124000  1.0
  C  C26  1  0.56665000  0.58005000  0.29855000  1.0
  C  C27  1  0.13534000  0.41957000  0.29842000  1.0
  C  C28  1  0.62376000  0.92005000  0.30355000  1.0
  C  C29  1  0.07197000  0.08017000  0.30327000  1.0
  N  N30  1  0.79599000  0.75019000  0.94824000  1.0
  N  N31  1  0.25621000  0.24997000  0.94802000  1.0
  N  N32  1  0.47297000  0.75024000  0.51465000  1.0
  N  N33  1  0.01234000  0.24959000  0.51444000  1.0
  Cl  Cl34  1  0.34374000  0.73931000  0.84132000  1.0
  Cl  Cl35  1  0.81525000  0.26087000  0.84124000  1.0
  Cl  Cl36  1  0.92521000  0.76072000  0.62151000  1.0
  Cl  Cl37  1  0.45331000  0.23941000  0.62148000  1.0
