# generated using pymatgen
data_NaH7C5O4
_symmetry_space_group_name_H-M   'P 1'
_cell_length_a   5.24856000
_cell_length_b   6.90988000
_cell_length_c   18.54570000
_cell_angle_alpha   90.00270000
_cell_angle_beta   90.00130000
_cell_angle_gamma   110.28900000
_symmetry_Int_Tables_number   1
_chemical_formula_structural   NaH7C5O4
_chemical_formula_sum   'Na4 H28 C20 O16'
_cell_volume   630.86458289
_cell_formula_units_Z   4
loop_
 _symmetry_equiv_pos_site_id
 _symmetry_equiv_pos_as_xyz
  1  'x, y, z'
loop_
 _atom_site_type_symbol
 _atom_site_label
 _atom_site_symmetry_multiplicity
 _atom_site_fract_x
 _atom_site_fract_y
 _atom_site_fract_z
 _atom_site_occupancy
  Na  Na0  1  0.21236000  0.71758000  0.54767000  1.0
  Na  Na1  1  0.28766000  0.78242000  0.04768000  1.0
  Na  Na2  1  0.78768000  0.28241000  0.45232000  1.0
  Na  Na3  1  0.71233000  0.21760000  0.95232000  1.0
  H  H4  1  0.04197000  0.78996000  0.72709000  1.0
  H  H5  1  0.45801000  0.71003000  0.22708000  1.0
  H  H6  1  0.95806000  0.21000000  0.27291000  1.0
  H  H7  1  0.54193000  0.28999000  0.77291000  1.0
  H  H8  1  0.79754000  0.54623000  0.72844000  1.0
  H  H9  1  0.70245000  0.95375000  0.22845000  1.0
  H  H10  1  0.20247000  0.45374000  0.27156000  1.0
  H  H11  1  0.29751000  0.04626000  0.77156000  1.0
  H  H12  1  0.48909000  0.66252000  0.80591000  1.0
  H  H13  1  0.01090000  0.83745000  0.30592000  1.0
  H  H14  1  0.51094000  0.33747000  0.19409000  1.0
  H  H15  1  0.98906000  0.16253000  0.69408000  1.0
  H  H16  1  0.70972000  0.91974000  0.80063000  1.0
  H  H17  1  0.79024000  0.58023000  0.30062000  1.0
  H  H18  1  0.29030000  0.08025000  0.19937000  1.0
  H  H19  1  0.20970000  0.41976000  0.69936000  1.0
  H  H20  1  0.87532000  0.56696000  0.86271000  1.0
  H  H21  1  0.62467000  0.93304000  0.36271000  1.0
  H  H22  1  0.12470000  0.43304000  0.13730000  1.0
  H  H23  1  0.37532000  0.06696000  0.63730000  1.0
  H  H24  1  0.07885000  0.82598000  0.86246000  1.0
  H  H25  1  0.42113000  0.67402000  0.36245000  1.0
  H  H26  1  0.92118000  0.17402000  0.13755000  1.0
  H  H27  1  0.57885000  0.32598000  0.63756000  1.0
  H  H28  1  0.74909000  0.79952000  0.55319000  1.0
  H  H29  1  0.75089000  0.70043000  0.05319000  1.0
  H  H30  1  0.25096000  0.20048000  0.44681000  1.0
  H  H31  1  0.24908000  0.29957000  0.94681000  1.0
  C  C32  1  0.69552000  0.75630000  0.66241000  1.0
  C  C33  1  0.80446000  0.74368000  0.16240000  1.0
  C  C34  1  0.30452000  0.24368000  0.33760000  1.0
  C  C35  1  0.19548000  0.25634000  0.83760000  1.0
  C  C36  1  0.82111000  0.71112000  0.73061000  1.0
  C  C37  1  0.67886000  0.78886000  0.23061000  1.0
  C  C38  1  0.17891000  0.28885000  0.26939000  1.0
  C  C39  1  0.32108000  0.21116000  0.76939000  1.0
  C  C40  1  0.70425000  0.75950000  0.80083000  1.0
  C  C41  1  0.79572000  0.74048000  0.30084000  1.0
  C  C42  1  0.29578000  0.24049000  0.19917000  1.0
  C  C43  1  0.20422000  0.25952000  0.69916000  1.0
  C  C44  1  0.86449000  0.72284000  0.86478000  1.0
  C  C45  1  0.63550000  0.77716000  0.36478000  1.0
  C  C46  1  0.13554000  0.27717000  0.13522000  1.0
  C  C47  1  0.36448000  0.22283000  0.63522000  1.0
  C  C48  1  0.76152000  0.75298000  0.93857000  1.0
  C  C49  1  0.73852000  0.74701000  0.43857000  1.0
  C  C50  1  0.23851000  0.24703000  0.06143000  1.0
  C  C51  1  0.26150000  0.25298000  0.56143000  1.0
  O  O52  1  0.84955000  0.77348000  0.60478000  1.0
  O  O53  1  0.65043000  0.72643000  0.10477000  1.0
  O  O54  1  0.15049000  0.22651000  0.39522000  1.0
  O  O55  1  0.34953000  0.27357000  0.89522000  1.0
  O  O56  1  0.46638000  0.77125000  0.65981000  1.0
  O  O57  1  0.03364000  0.72880000  0.15982000  1.0
  O  O58  1  0.53366000  0.22871000  0.34018000  1.0
  O  O59  1  0.96632000  0.27125000  0.84018000  1.0
  O  O60  1  0.85244000  0.67059000  0.99141000  1.0
  O  O61  1  0.64754000  0.82941000  0.49141000  1.0
  O  O62  1  0.14754000  0.32942000  0.00859000  1.0
  O  O63  1  0.35251000  0.17059000  0.50859000  1.0
  O  O64  1  0.60280000  0.85163000  0.94774000  1.0
  O  O65  1  0.89722000  0.64838000  0.44773000  1.0
  O  O66  1  0.39723000  0.14840000  0.05226000  1.0
  O  O67  1  0.10281000  0.35162000  0.55226000  1.0
