# generated using pymatgen
data_ZnP4H16C10(NO7)2
_symmetry_space_group_name_H-M   'P 1'
_cell_length_a   8.55706000
_cell_length_b   9.18201000
_cell_length_c   11.61020000
_cell_angle_alpha   96.43280000
_cell_angle_beta   90.00000000
_cell_angle_gamma   89.99990000
_symmetry_Int_Tables_number   1
_chemical_formula_structural   ZnP4H16C10(NO7)2
_chemical_formula_sum   'Zn2 P8 H32 C20 N4 O28'
_cell_volume   906.48172533
_cell_formula_units_Z   2
loop_
 _symmetry_equiv_pos_site_id
 _symmetry_equiv_pos_as_xyz
  1  'x, y, z'
loop_
 _atom_site_type_symbol
 _atom_site_label
 _atom_site_symmetry_multiplicity
 _atom_site_fract_x
 _atom_site_fract_y
 _atom_site_fract_z
 _atom_site_occupancy
  Zn  Zn0  1  0.00000000  0.00000000  0.00000000  1.0
  Zn  Zn1  1  0.50000000  0.50000000  0.50000000  1.0
  P  P2  1  0.09292000  0.23913000  0.81482000  1.0
  P  P3  1  0.59292000  0.26087000  0.68518000  1.0
  P  P4  1  0.90708000  0.76087000  0.18518000  1.0
  P  P5  1  0.40708000  0.73913000  0.31482000  1.0
  P  P6  1  0.49482000  0.71550000  0.77087000  1.0
  P  P7  1  0.99482000  0.78450000  0.72913000  1.0
  P  P8  1  0.50518000  0.28450000  0.22913000  1.0
  P  P9  1  0.00518000  0.21550000  0.27087000  1.0
  H  H10  1  0.27366000  0.59072000  0.13149000  1.0
  H  H11  1  0.77366000  0.90928000  0.36850000  1.0
  H  H12  1  0.72634000  0.40928000  0.86850000  1.0
  H  H13  1  0.22634000  0.09072000  0.63149000  1.0
  H  H14  1  0.12273000  0.38663000  0.05408000  1.0
  H  H15  1  0.62273000  0.11337000  0.44592000  1.0
  H  H16  1  0.87727000  0.61337000  0.94592000  1.0
  H  H17  1  0.37727000  0.88663000  0.55408000  1.0
  H  H18  1  0.28902000  0.45467000  0.71231000  1.0
  H  H19  1  0.78903000  0.04533000  0.78769000  1.0
  H  H20  1  0.71097000  0.54533000  0.28769000  1.0
  H  H21  1  0.21098000  0.95467000  0.21231000  1.0
  H  H22  1  0.42505000  0.73207000  0.02253000  1.0
  H  H23  1  0.92505000  0.76793000  0.47748000  1.0
  H  H24  1  0.57495000  0.26793000  0.97747000  1.0
  H  H25  1  0.07495000  0.23207000  0.52252000  1.0
  H  H26  1  0.89040000  0.32237000  0.71836000  1.0
  H  H27  1  0.39040000  0.17763000  0.78164000  1.0
  H  H28  1  0.10959000  0.67763000  0.28164000  1.0
  H  H29  1  0.60960000  0.82237000  0.21836000  1.0
  H  H30  1  0.28968000  0.83142000  0.72893000  1.0
  H  H31  1  0.78968000  0.66858000  0.77107000  1.0
  H  H32  1  0.71032000  0.16858000  0.27106000  1.0
  H  H33  1  0.21032000  0.33142000  0.22894000  1.0
  H  H34  1  0.29811000  0.09866000  0.05528000  1.0
  H  H35  1  0.79811000  0.40134000  0.44472000  1.0
  H  H36  1  0.70189000  0.90134000  0.94472000  1.0
  H  H37  1  0.20189000  0.59866000  0.55528000  1.0
  H  H38  1  0.29667000  0.00405000  0.93006000  1.0
  H  H39  1  0.79667000  0.49595000  0.56994000  1.0
  H  H40  1  0.70333000  0.99595000  0.06994000  1.0
  H  H41  1  0.20333000  0.50405000  0.43006000  1.0
  C  C42  1  0.18981000  0.44519000  0.99428000  1.0
  C  C43  1  0.68981000  0.05481000  0.50572000  1.0
  C  C44  1  0.81019000  0.55481000  0.00572000  1.0
  C  C45  1  0.31019000  0.94519000  0.49428000  1.0
  C  C46  1  0.19261000  0.40425000  0.87573000  1.0
  C  C47  1  0.69261000  0.09575000  0.62427000  1.0
  C  C48  1  0.80739000  0.59575000  0.12427000  1.0
  C  C49  1  0.30739000  0.90425000  0.37573000  1.0
  C  C50  1  0.28391000  0.48600000  0.80566000  1.0
  C  C51  1  0.78391000  0.01400000  0.69434000  1.0
  C  C52  1  0.71609000  0.51400000  0.19434000  1.0
  C  C53  1  0.21609000  0.98600000  0.30566000  1.0
  C  C54  1  0.37172000  0.60508000  0.85545000  1.0
  C  C55  1  0.87172000  0.89492000  0.64455000  1.0
  C  C56  1  0.62828000  0.39492000  0.14455000  1.0
  C  C57  1  0.12828000  0.10508000  0.35545000  1.0
  C  C58  1  0.36270000  0.64118000  0.97499000  1.0
  C  C59  1  0.86270000  0.85882000  0.52501000  1.0
  C  C60  1  0.63730000  0.35882000  0.02501000  1.0
  C  C61  1  0.13730000  0.14118000  0.47499000  1.0
  N  N62  1  0.27395000  0.56149000  0.03983000  1.0
  N  N63  1  0.77395000  0.93850000  0.46017000  1.0
  N  N64  1  0.72605000  0.43850000  0.96017000  1.0
  N  N65  1  0.22605000  0.06149000  0.53983000  1.0
  O  O66  1  0.98595000  0.18838000  0.90527000  1.0
  O  O67  1  0.48595000  0.31162000  0.59474000  1.0
  O  O68  1  0.01405000  0.81162000  0.09473000  1.0
  O  O69  1  0.51405000  0.68838000  0.40526000  1.0
  O  O70  1  0.22315000  0.13466000  0.76669000  1.0
  O  O71  1  0.72315000  0.36534000  0.73331000  1.0
  O  O72  1  0.77685000  0.86534000  0.23331000  1.0
  O  O73  1  0.27685000  0.63466000  0.26669000  1.0
  O  O74  1  0.00397000  0.28529000  0.70530000  1.0
  O  O75  1  0.50397000  0.21471000  0.79471000  1.0
  O  O76  1  0.99603000  0.71471000  0.29470000  1.0
  O  O77  1  0.49604000  0.78529000  0.20529000  1.0
  O  O78  1  0.51688000  0.63773000  0.65124000  1.0
  O  O79  1  0.01688000  0.86226000  0.84877000  1.0
  O  O80  1  0.48312000  0.36226000  0.34876000  1.0
  O  O81  1  0.98312000  0.13774000  0.15123000  1.0
  O  O82  1  0.64239000  0.75400000  0.84078000  1.0
  O  O83  1  0.14239000  0.74600000  0.65922000  1.0
  O  O84  1  0.35761000  0.24600000  0.15922000  1.0
  O  O85  1  0.85761000  0.25400000  0.34078000  1.0
  O  O86  1  0.39300000  0.86117000  0.76845000  1.0
  O  O87  1  0.89300000  0.63883000  0.73155000  1.0
  O  O88  1  0.60700000  0.13883000  0.23155000  1.0
  O  O89  1  0.10700000  0.36117000  0.26845000  1.0
  O  O90  1  0.25272000  0.01145000  0.00835000  1.0
  O  O91  1  0.75272000  0.48855000  0.49165000  1.0
  O  O92  1  0.74728000  0.98855000  0.99165000  1.0
  O  O93  1  0.24728000  0.51145000  0.50835000  1.0
