# generated using pymatgen
data_CdH6C12N2(O2F)2
_symmetry_space_group_name_H-M   'P 1'
_cell_length_a   9.68120000
_cell_length_b   10.98360000
_cell_length_c   12.97520000
_cell_angle_alpha   107.36100000
_cell_angle_beta   89.99950000
_cell_angle_gamma   90.00000000
_symmetry_Int_Tables_number   1
_chemical_formula_structural   CdH6C12N2(O2F)2
_chemical_formula_sum   'Cd4 H24 C48 N8 O16 F8'
_cell_volume   1316.85591212
_cell_formula_units_Z   4
loop_
 _symmetry_equiv_pos_site_id
 _symmetry_equiv_pos_as_xyz
  1  'x, y, z'
loop_
 _atom_site_type_symbol
 _atom_site_label
 _atom_site_symmetry_multiplicity
 _atom_site_fract_x
 _atom_site_fract_y
 _atom_site_fract_z
 _atom_site_occupancy
  Cd  Cd0  1  0.62948000  0.09274000  0.41476000  1.0
  Cd  Cd1  1  0.12949000  0.40726000  0.08524000  1.0
  Cd  Cd2  1  0.37052000  0.90726000  0.58524000  1.0
  Cd  Cd3  1  0.87052000  0.59273000  0.91476000  1.0
  H  H4  1  0.41443000  0.20212000  0.28843000  1.0
  H  H5  1  0.91443000  0.29789000  0.21157000  1.0
  H  H6  1  0.58557000  0.79789000  0.71157000  1.0
  H  H7  1  0.08558000  0.70210000  0.78843000  1.0
  H  H8  1  0.51175000  0.33128000  0.61602000  1.0
  H  H9  1  0.01176000  0.16871000  0.88398000  1.0
  H  H10  1  0.48826000  0.66873000  0.38398000  1.0
  H  H11  1  0.98824000  0.83128000  0.11602000  1.0
  H  H12  1  0.19986000  0.53201000  0.49180000  1.0
  H  H13  1  0.69986000  0.96801000  0.00821000  1.0
  H  H14  1  0.80014000  0.46800000  0.50820000  1.0
  H  H15  1  0.30015000  0.03199000  0.99180000  1.0
  H  H16  1  0.50975000  0.10593000  0.83417000  1.0
  H  H17  1  0.00975000  0.39408000  0.66582000  1.0
  H  H18  1  0.49025000  0.89407000  0.16582000  1.0
  H  H19  1  0.99025000  0.60593000  0.33418000  1.0
  H  H20  1  0.67436000  0.45292000  0.05482000  1.0
  H  H21  1  0.17436000  0.04707000  0.44518000  1.0
  H  H22  1  0.32563000  0.54707000  0.94518000  1.0
  H  H23  1  0.82564000  0.95294000  0.55482000  1.0
  H  H24  1  0.79021000  0.35385000  0.73164000  1.0
  H  H25  1  0.29020000  0.14614000  0.76836000  1.0
  H  H26  1  0.20979000  0.64615000  0.26836000  1.0
  H  H27  1  0.70979000  0.85385000  0.23164000  1.0
  C  C28  1  0.22461000  0.38005000  0.27929000  1.0
  C  C29  1  0.72461000  0.11997000  0.22071000  1.0
  C  C30  1  0.77540000  0.61996000  0.72071000  1.0
  C  C31  1  0.27540000  0.88003000  0.77929000  1.0
  C  C32  1  0.29825000  0.36832000  0.37793000  1.0
  C  C33  1  0.79825000  0.13169000  0.12208000  1.0
  C  C34  1  0.70175000  0.63169000  0.62207000  1.0
  C  C35  1  0.20175000  0.86830000  0.87793000  1.0
  C  C36  1  0.39506000  0.27084000  0.36715000  1.0
  C  C37  1  0.89507000  0.22917000  0.13285000  1.0
  C  C38  1  0.60494000  0.72917000  0.63285000  1.0
  C  C39  1  0.10495000  0.77083000  0.86715000  1.0
  C  C40  1  0.44888000  0.34174000  0.54955000  1.0
  C  C41  1  0.94889000  0.15825000  0.95045000  1.0
  C  C42  1  0.55112000  0.65827000  0.45045000  1.0
  C  C43  1  0.05111000  0.84174000  0.04955000  1.0
  C  C44  1  0.35271000  0.43960000  0.56516000  1.0
  C  C45  1  0.85271000  0.06040000  0.93485000  1.0
  C  C46  1  0.64729000  0.56040000  0.43484000  1.0
  C  C47  1  0.14729000  0.93960000  0.06516000  1.0
  C  C48  1  0.27502000  0.45508000  0.47998000  1.0
  C  C49  1  0.77502000  0.04493000  0.02003000  1.0
  C  C50  1  0.72498000  0.54493000  0.52003000  1.0
  C  C51  1  0.22499000  0.95506000  0.97997000  1.0
  C  C52  1  0.64286000  0.13921000  0.65191000  1.0
  C  C53  1  0.14285000  0.36079000  0.84808000  1.0
  C  C54  1  0.35714000  0.86080000  0.34808000  1.0
  C  C55  1  0.85715000  0.63920000  0.15193000  1.0
  C  C56  1  0.64991000  0.21942000  0.76830000  1.0
  C  C57  1  0.14990000  0.28058000  0.73170000  1.0
  C  C58  1  0.35010000  0.78058000  0.23169000  1.0
  C  C59  1  0.85010000  0.71942000  0.26831000  1.0
  C  C60  1  0.57412000  0.19123000  0.85003000  1.0
  C  C61  1  0.07412000  0.30877000  0.64997000  1.0
  C  C62  1  0.42588000  0.80877000  0.14996000  1.0
  C  C63  1  0.92588000  0.69123000  0.35004000  1.0
  C  C64  1  0.58417000  0.27693000  0.95304000  1.0
  C  C65  1  0.08417000  0.22306000  0.54696000  1.0
  C  C66  1  0.41583000  0.72306000  0.04696000  1.0
  C  C67  1  0.91583000  0.77694000  0.45304000  1.0
  C  C68  1  0.66619000  0.38571000  0.97412000  1.0
  C  C69  1  0.16619000  0.11429000  0.52588000  1.0
  C  C70  1  0.33380000  0.61429000  0.02588000  1.0
  C  C71  1  0.83380000  0.88572000  0.47412000  1.0
  C  C72  1  0.73123000  0.32946000  0.79409000  1.0
  C  C73  1  0.23123000  0.17054000  0.70591000  1.0
  C  C74  1  0.26876000  0.67054000  0.20590000  1.0
  C  C75  1  0.76876000  0.82946000  0.29410000  1.0
  N  N76  1  0.46807000  0.25809000  0.45127000  1.0
  N  N77  1  0.96808000  0.24190000  0.04873000  1.0
  N  N78  1  0.53193000  0.74192000  0.54873000  1.0
  N  N79  1  0.03192000  0.75809000  0.95127000  1.0
  N  N80  1  0.73884000  0.41031000  0.89434000  1.0
  N  N81  1  0.23884000  0.08968000  0.60566000  1.0
  N  N82  1  0.26116000  0.58969000  0.10566000  1.0
  N  N83  1  0.76116000  0.91031000  0.39434000  1.0
  O  O84  1  0.12335000  0.45646000  0.29169000  1.0
  O  O85  1  0.62335000  0.04355000  0.20832000  1.0
  O  O86  1  0.87665000  0.54354000  0.70832000  1.0
  O  O87  1  0.37666000  0.95645000  0.79168000  1.0
  O  O88  1  0.27131000  0.31448000  0.18771000  1.0
  O  O89  1  0.77130000  0.18554000  0.31230000  1.0
  O  O90  1  0.72869000  0.68552000  0.81229000  1.0
  O  O91  1  0.22870000  0.81446000  0.68771000  1.0
  O  O92  1  0.71382000  0.18046000  0.58598000  1.0
  O  O93  1  0.21381000  0.31953000  0.91402000  1.0
  O  O94  1  0.28619000  0.81954000  0.41402000  1.0
  O  O95  1  0.78619000  0.68045000  0.08598000  1.0
  O  O96  1  0.56845000  0.04046000  0.62526000  1.0
  O  O97  1  0.06845000  0.45955000  0.87473000  1.0
  O  O98  1  0.43154000  0.95955000  0.37472000  1.0
  O  O99  1  0.93155000  0.54045000  0.12528000  1.0
  F  F100  1  0.33615000  0.52042000  0.66637000  1.0
  F  F101  1  0.83614000  0.97959000  0.83363000  1.0
  F  F102  1  0.66385000  0.47958000  0.33363000  1.0
  F  F103  1  0.16385000  0.02041000  0.16637000  1.0
  F  F104  1  0.51354000  0.25504000  0.03578000  1.0
  F  F105  1  0.01355000  0.24496000  0.46422000  1.0
  F  F106  1  0.48645000  0.74495000  0.96421000  1.0
  F  F107  1  0.98645000  0.75505000  0.53579000  1.0
