# generated using pymatgen
data_Zn4H58C74N7O20
_symmetry_space_group_name_H-M   'P 1'
_cell_length_a   13.89700000
_cell_length_b   16.63280000
_cell_length_c   18.13150000
_cell_angle_alpha   112.64400000
_cell_angle_beta   97.68600000
_cell_angle_gamma   101.01000000
_symmetry_Int_Tables_number   1
_chemical_formula_structural   Zn4H58C74N7O20
_chemical_formula_sum   'Zn8 H116 C148 N14 O40'
_cell_volume   3696.05296772
_cell_formula_units_Z   2
loop_
 _symmetry_equiv_pos_site_id
 _symmetry_equiv_pos_as_xyz
  1  'x, y, z'
loop_
 _atom_site_type_symbol
 _atom_site_label
 _atom_site_symmetry_multiplicity
 _atom_site_fract_x
 _atom_site_fract_y
 _atom_site_fract_z
 _atom_site_occupancy
  Zn  Zn0  1  0.83884000  0.65718000  0.14843000  1.0
  Zn  Zn1  1  0.16116000  0.34282000  0.85157000  1.0
  Zn  Zn2  1  0.17949000  0.84898000  0.84683000  1.0
  Zn  Zn3  1  0.82051000  0.15102000  0.15317000  1.0
  Zn  Zn4  1  0.85322000  0.08137000  0.40301000  1.0
  Zn  Zn5  1  0.14678000  0.91863000  0.59699000  1.0
  Zn  Zn6  1  0.84760000  0.59182000  0.39867000  1.0
  Zn  Zn7  1  0.15240000  0.40818000  0.60132000  1.0
  H  H8  1  0.17611000  0.60741000  0.14530000  1.0
  H  H9  1  0.82389000  0.39259000  0.85470000  1.0
  H  H10  1  0.37518000  0.66976000  0.37442000  1.0
  H  H11  1  0.62482000  0.33024000  0.62558000  1.0
  H  H12  1  0.22901000  0.66919000  0.44020000  1.0
  H  H13  1  0.77099000  0.33080000  0.55981000  1.0
  H  H14  1  0.53820000  0.61401000  0.20325000  1.0
  H  H15  1  0.46180000  0.38599000  0.79675000  1.0
  H  H16  1  0.37366000  0.81047000  0.30158000  1.0
  H  H17  1  0.62634000  0.18953000  0.69841000  1.0
  H  H18  1  0.53274000  0.93426000  0.34637000  1.0
  H  H19  1  0.46726000  0.06574000  0.65362000  1.0
  H  H20  1  0.48314000  0.87048000  0.79028000  1.0
  H  H21  1  0.51685000  0.12951000  0.20972000  1.0
  H  H22  1  0.64356000  0.66666667  0.75738000  1.0
  H  H23  1  0.35644000  0.33333333  0.24262000  1.0
  H  H24  1  0.47814000  0.54790000  0.70762000  1.0
  H  H25  1  0.52186000  0.45210000  0.29238000  1.0
  H  H26  1  0.85171000  0.88719000  0.86278000  1.0
  H  H27  1  0.14829000  0.11281000  0.13722000  1.0
  H  H28  1  0.62272000  0.79803000  0.64241000  1.0
  H  H29  1  0.37728000  0.20197000  0.35759000  1.0
  H  H30  1  0.75615000  0.81405000  0.56651000  1.0
  H  H31  1  0.24385000  0.18595000  0.43349000  1.0
  H  H32  1  0.78952000  0.77116000  0.06115000  1.0
  H  H33  1  0.21047000  0.22884000  0.93885000  1.0
  H  H34  1  0.80212000  0.77679000  0.92709000  1.0
  H  H35  1  0.19788000  0.22321000  0.07291000  1.0
  H  H36  1  0.96957000  0.57425000  0.88800000  1.0
  H  H37  1  0.03042000  0.42575000  0.11200000  1.0
  H  H38  1  0.94726000  0.57654000  0.02144000  1.0
  H  H39  1  0.05274000  0.42345000  0.97856000  1.0
  H  H40  1  0.71894000  0.58406000  0.50891000  1.0
  H  H41  1  0.28106000  0.41594000  0.49109000  1.0
  H  H42  1  0.72711000  0.57760000  0.64479000  1.0
  H  H43  1  0.27290000  0.42240000  0.35521000  1.0
  H  H44  1  0.04375000  0.59141000  0.66052000  1.0
  H  H45  1  0.95625000  0.40859000  0.33948000  1.0
  H  H46  1  0.02190000  0.59771000  0.52481000  1.0
  H  H47  1  0.97810000  0.40229000  0.47519000  1.0
  H  H48  1  0.83195000  0.69913000  0.79130000  1.0
  H  H49  1  0.16805000  0.30087000  0.20870000  1.0
  H  H50  1  0.96308000  0.72623000  0.81958000  1.0
  H  H51  1  0.03692000  0.27377000  0.18042000  1.0
  H  H52  1  0.83012000  0.53154000  0.74546000  1.0
  H  H53  1  0.16988000  0.46846000  0.25454000  1.0
  H  H54  1  0.96303000  0.56454000  0.76374000  1.0
  H  H55  1  0.03697000  0.43546000  0.23627000  1.0
  H  H56  1  0.79442000  0.50991000  0.20277000  1.0
  H  H57  1  0.20558000  0.49009000  0.79723000  1.0
  H  H58  1  0.69033000  0.34945000  0.14382000  1.0
  H  H59  1  0.30967000  0.65055000  0.85618000  1.0
  H  H60  1  0.57667000  0.38061000  0.92527000  1.0
  H  H61  1  0.42333000  0.61939000  0.07473000  1.0
  H  H62  1  0.68392000  0.53969000  0.99330000  1.0
  H  H63  1  0.31608000  0.46031000  0.00670000  1.0
  H  H64  1  0.21570000  0.99529000  0.79058000  1.0
  H  H65  1  0.78430000  0.00471000  0.20942000  1.0
  H  H66  1  0.31428000  0.15727000  0.84963000  1.0
  H  H67  1  0.68572000  0.84273000  0.15038000  1.0
  H  H68  1  0.44924000  0.12371000  0.06134000  1.0
  H  H69  1  0.55076000  0.87628000  0.93866000  1.0
  H  H70  1  0.34527000  0.96341000  0.99402000  1.0
  H  H71  1  0.65473000  0.03658000  0.00598000  1.0
  H  H72  1  0.56234000  0.22444000  0.92523000  1.0
  H  H73  1  0.43766000  0.77556000  0.07477000  1.0
  H  H74  1  0.59288000  0.21703000  0.02043000  1.0
  H  H75  1  0.40712000  0.78296000  0.97957000  1.0
  H  H76  1  0.41900000  0.28821000  0.96838000  1.0
  H  H77  1  0.58101000  0.71179000  0.03162000  1.0
  H  H78  1  0.45044000  0.28191000  0.06416000  1.0
  H  H79  1  0.54956000  0.71809000  0.93584000  1.0
  H  H80  1  0.21947000  0.73411000  0.93219000  1.0
  H  H81  1  0.78053000  0.26588000  0.06781000  1.0
  H  H82  1  0.20563000  0.72711000  0.06562000  1.0
  H  H83  1  0.79437000  0.27289000  0.93437000  1.0
  H  H84  1  0.04371000  0.93364000  0.10773000  1.0
  H  H85  1  0.95630000  0.06636000  0.89227000  1.0
  H  H86  1  0.07006000  0.93434000  0.97531000  1.0
  H  H87  1  0.92995000  0.06567000  0.02470000  1.0
  H  H88  1  0.28769000  0.94283000  0.50200000  1.0
  H  H89  1  0.71232000  0.05717000  0.49800000  1.0
  H  H90  1  0.29293000  0.95078000  0.36786000  1.0
  H  H91  1  0.70707000  0.04923000  0.63214000  1.0
  H  H92  1  0.96808000  0.89967000  0.32051000  1.0
  H  H93  1  0.03192000  0.10033000  0.67949000  1.0
  H  H94  1  0.97714000  0.89491000  0.45607000  1.0
  H  H95  1  0.02287000  0.10509000  0.54393000  1.0
  H  H96  1  0.17861000  0.80284000  0.20094000  1.0
  H  H97  1  0.82140000  0.19716000  0.79906000  1.0
  H  H98  1  0.04792000  0.78531000  0.17697000  1.0
  H  H99  1  0.95208000  0.21469000  0.82304000  1.0
  H  H100  1  0.19752000  0.97333000  0.25204000  1.0
  H  H101  1  0.80248000  0.02668000  0.74796000  1.0
  H  H102  1  0.06464000  0.95028000  0.23308000  1.0
  H  H103  1  0.93536000  0.04972000  0.76692000  1.0
  H  H104  1  0.85932000  0.25043000  0.47439000  1.0
  H  H105  1  0.14069000  0.74957000  0.52560000  1.0
  H  H106  1  0.78507000  0.20771000  0.38159000  1.0
  H  H107  1  0.21494000  0.79230000  0.61841000  1.0
  H  H108  1  0.78691000  0.71261000  0.37233000  1.0
  H  H109  1  0.21310000  0.28739000  0.62767000  1.0
  H  H110  1  0.85092000  0.76118000  0.46977000  1.0
  H  H111  1  0.14908000  0.23881000  0.53023000  1.0
  H  H112  1  0.60440000  0.22140000  0.42380000  1.0
  H  H113  1  0.39560000  0.77860000  0.57620000  1.0
  H  H114  1  0.61487000  0.38015000  0.44779000  1.0
  H  H115  1  0.38513000  0.61985000  0.55221000  1.0
  H  H116  1  0.38733000  0.37589000  0.58895000  1.0
  H  H117  1  0.61267000  0.62410000  0.41105000  1.0
  H  H118  1  0.38769000  0.21792000  0.55990000  1.0
  H  H119  1  0.61230000  0.78207000  0.44010000  1.0
  H  H120  1  0.43976000  0.50550000  0.56638000  1.0
  H  H121  1  0.56024000  0.49450000  0.43361000  1.0
  H  H122  1  0.57124000  0.53492000  0.58414000  1.0
  H  H123  1  0.42876000  0.46507000  0.41586000  1.0
  C  C124  1  0.11972000  0.63987000  0.33102000  1.0
  C  C125  1  0.88028000  0.36013000  0.66899000  1.0
  C  C126  1  0.10528000  0.62331000  0.24757000  1.0
  C  C127  1  0.89472000  0.37669000  0.75244000  1.0
  C  C128  1  0.18713000  0.62173000  0.21023000  1.0
  C  C129  1  0.81287000  0.37827000  0.78978000  1.0
  C  C130  1  0.28327000  0.63889000  0.25628000  1.0
  C  C131  1  0.71674000  0.36112000  0.74373000  1.0
  C  C132  1  0.29955000  0.65667000  0.33937000  1.0
  C  C133  1  0.70046000  0.34333000  0.66064000  1.0
  C  C134  1  0.21759000  0.65677000  0.37576000  1.0
  C  C135  1  0.78241000  0.34322000  0.62424000  1.0
  C  C136  1  0.03432000  0.63417000  0.37288000  1.0
  C  C137  1  0.96568000  0.36583000  0.62712000  1.0
  C  C138  1  0.00584000  0.61120000  0.19498000  1.0
  C  C139  1  0.99416000  0.38880000  0.80503000  1.0
  C  C140  1  0.62459000  0.84448000  0.30029000  1.0
  C  C141  1  0.37541000  0.15552000  0.69971000  1.0
  C  C142  1  0.62565000  0.75387000  0.25962000  1.0
  C  C143  1  0.37435000  0.24613000  0.74038000  1.0
  C  C144  1  0.53731000  0.68447000  0.23398000  1.0
  C  C145  1  0.46269000  0.31553000  0.76602000  1.0
  C  C146  1  0.44713000  0.70529000  0.24849000  1.0
  C  C147  1  0.55288000  0.29472000  0.75151000  1.0
  C  C148  1  0.44431000  0.79511000  0.28940000  1.0
  C  C149  1  0.55569000  0.20489000  0.71060000  1.0
  C  C150  1  0.53308000  0.86378000  0.31458000  1.0
  C  C151  1  0.46692000  0.13622000  0.68542000  1.0
  C  C152  1  0.72163000  0.91721000  0.33038000  1.0
  C  C153  1  0.27836000  0.08279000  0.66962000  1.0
  C  C154  1  0.71819000  0.72653000  0.23747000  1.0
  C  C155  1  0.28181000  0.27347000  0.76253000  1.0
  C  C156  1  0.38859000  0.64195000  0.71932000  1.0
  C  C157  1  0.61140000  0.35805000  0.28068000  1.0
  C  C158  1  0.39011000  0.73352000  0.74571000  1.0
  C  C159  1  0.60989000  0.26648000  0.25429000  1.0
  C  C160  1  0.48167000  0.79955000  0.77161000  1.0
  C  C161  1  0.51832000  0.20045000  0.22839000  1.0
  C  C162  1  0.57171000  0.77458000  0.77410000  1.0
  C  C163  1  0.42829000  0.22542000  0.22589000  1.0
  C  C164  1  0.57205000  0.68431000  0.75240000  1.0
  C  C165  1  0.42795000  0.31569000  0.24760000  1.0
  C  C166  1  0.48036000  0.61881000  0.72516000  1.0
  C  C167  1  0.51964000  0.38119000  0.27484000  1.0
  C  C168  1  0.28949000  0.57111000  0.68106000  1.0
  C  C169  1  0.71051000  0.42889000  0.31894000  1.0
  C  C170  1  0.29751000  0.76677000  0.75644000  1.0
  C  C171  1  0.70249000  0.23322000  0.24356000  1.0
  C  C172  1  0.87983000  0.85609000  0.66984000  1.0
  C  C173  1  0.12017000  0.14391000  0.33016000  1.0
  C  C174  1  0.90598000  0.87506000  0.75371000  1.0
  C  C175  1  0.09402000  0.12494000  0.24629000  1.0
  C  C176  1  0.83134000  0.87014000  0.79738000  1.0
  C  C177  1  0.16866000  0.12986000  0.20262000  1.0
  C  C178  1  0.73013000  0.84201000  0.75742000  1.0
  C  C179  1  0.26987000  0.15800000  0.24258000  1.0
  C  C180  1  0.70193000  0.81939000  0.67348000  1.0
  C  C181  1  0.29808000  0.18061000  0.32652000  1.0
  C  C182  1  0.77720000  0.82811000  0.63118000  1.0
  C  C183  1  0.22280000  0.17189000  0.36882000  1.0
  C  C184  1  0.95771000  0.87063000  0.62300000  1.0
  C  C185  1  0.04229000  0.12937000  0.37700000  1.0
  C  C186  1  0.01125000  0.89492000  0.80107000  1.0
  C  C187  1  0.98875000  0.10508000  0.19893000  1.0
  C  C188  1  0.82849000  0.72903000  0.02022000  1.0
  C  C189  1  0.17150000  0.27097000  0.97978000  1.0
  C  C190  1  0.83649000  0.73176000  0.94569000  1.0
  C  C191  1  0.16351000  0.26824000  0.05431000  1.0
  C  C192  1  0.88712000  0.67606000  0.89476000  1.0
  C  C193  1  0.11288000  0.32394000  0.10524000  1.0
  C  C194  1  0.92926000  0.62030000  0.92317000  1.0
  C  C195  1  0.07073000  0.37970000  0.07683000  1.0
  C  C196  1  0.91752000  0.62047000  0.99800000  1.0
  C  C197  1  0.08248000  0.37953000  0.00200000  1.0
  C  C198  1  0.78892000  0.58476000  0.54463000  1.0
  C  C199  1  0.21108000  0.41524000  0.45537000  1.0
  C  C200  1  0.79448000  0.58172000  0.62030000  1.0
  C  C201  1  0.20552000  0.41828000  0.37970000  1.0
  C  C202  1  0.88639000  0.58401000  0.66468000  1.0
  C  C203  1  0.11361000  0.41599000  0.33533000  1.0
  C  C204  1  0.96976000  0.58942000  0.62969000  1.0
  C  C205  1  0.03024000  0.41058000  0.37030000  1.0
  C  C206  1  0.95850000  0.59210000  0.55345000  1.0
  C  C207  1  0.04149000  0.40789000  0.44655000  1.0
  C  C208  1  0.89435000  0.67588000  0.81295000  1.0
  C  C209  1  0.10565000  0.32412000  0.18705000  1.0
  C  C210  1  0.89435000  0.58340000  0.74769000  1.0
  C  C211  1  0.10565000  0.41660000  0.25231000  1.0
  C  C212  1  0.74441000  0.47865000  0.14189000  1.0
  C  C213  1  0.25559000  0.52134000  0.85811000  1.0
  C  C214  1  0.68620000  0.38971000  0.10865000  1.0
  C  C215  1  0.31380000  0.61029000  0.89135000  1.0
  C  C216  1  0.62495000  0.35181000  0.02932000  1.0
  C  C217  1  0.37505000  0.64819000  0.97069000  1.0
  C  C218  1  0.62308000  0.40684000  0.98719000  1.0
  C  C219  1  0.37692000  0.59316000  0.01281000  1.0
  C  C220  1  0.68267000  0.49522000  0.02461000  1.0
  C  C221  1  0.31733000  0.50478000  0.97539000  1.0
  C  C222  1  0.26875000  0.02631000  0.85006000  1.0
  C  C223  1  0.73125000  0.97369000  0.14994000  1.0
  C  C224  1  0.32425000  0.11609000  0.88312000  1.0
  C  C225  1  0.67575000  0.88391000  0.11689000  1.0
  C  C226  1  0.38977000  0.15378000  0.96062000  1.0
  C  C227  1  0.61023000  0.84622000  0.03939000  1.0
  C  C228  1  0.39892000  0.09775000  0.00099000  1.0
  C  C229  1  0.60108000  0.90225000  0.99901000  1.0
  C  C230  1  0.34138000  0.00873000  0.96398000  1.0
  C  C231  1  0.65862000  0.99127000  0.03602000  1.0
  C  C232  1  0.56158000  0.25588000  0.99076000  1.0
  C  C233  1  0.43842000  0.74412000  0.00924000  1.0
  C  C234  1  0.45133000  0.25034000  0.99865000  1.0
  C  C235  1  0.54867000  0.74966000  0.00135000  1.0
  C  C236  1  0.18259000  0.77756000  0.97408000  1.0
  C  C237  1  0.81741000  0.22244000  0.02591000  1.0
  C  C238  1  0.17382000  0.77406000  0.04816000  1.0
  C  C239  1  0.82618000  0.22594000  0.95184000  1.0
  C  C240  1  0.12554000  0.83128000  0.10017000  1.0
  C  C241  1  0.87446000  0.16872000  0.89983000  1.0
  C  C242  1  0.08482000  0.88837000  0.07245000  1.0
  C  C243  1  0.91519000  0.11163000  0.92755000  1.0
  C  C244  1  0.09797000  0.88921000  0.99816000  1.0
  C  C245  1  0.90203000  0.11079000  0.00184000  1.0
  C  C246  1  0.21895000  0.93333000  0.45923000  1.0
  C  C247  1  0.78106000  0.06667000  0.54077000  1.0
  C  C248  1  0.22077000  0.93684000  0.38421000  1.0
  C  C249  1  0.77923000  0.06316000  0.61579000  1.0
  C  C250  1  0.13034000  0.92426000  0.33144000  1.0
  C  C251  1  0.86967000  0.07574000  0.66856000  1.0
  C  C252  1  0.04118000  0.90878000  0.35757000  1.0
  C  C253  1  0.95882000  0.09122000  0.64243000  1.0
  C  C254  1  0.04497000  0.90670000  0.43370000  1.0
  C  C255  1  0.95504000  0.09330000  0.56630000  1.0
  C  C256  1  0.11955000  0.83135000  0.18220000  1.0
  C  C257  1  0.88045000  0.16865000  0.81780000  1.0
  C  C258  1  0.12863000  0.92568000  0.24908000  1.0
  C  C259  1  0.87137000  0.07432000  0.75092000  1.0
  C  C260  1  0.55680000  0.25760000  0.46011000  1.0
  C  C261  1  0.44320000  0.74239000  0.53990000  1.0
  C  C262  1  0.56252000  0.34717000  0.47376000  1.0
  C  C263  1  0.43748000  0.65283000  0.52624000  1.0
  C  C264  1  0.50089000  0.39275000  0.52033000  1.0
  C  C265  1  0.49911000  0.60724000  0.47967000  1.0
  C  C266  1  0.43735000  0.34485000  0.55204000  1.0
  C  C267  1  0.56264000  0.65515000  0.44795000  1.0
  C  C268  1  0.43730000  0.25553000  0.53536000  1.0
  C  C269  1  0.56269000  0.74447000  0.46464000  1.0
  C  C270  1  0.50243000  0.48938000  0.53769000  1.0
  C  C271  1  0.49757000  0.51061000  0.46231000  1.0
  N  N272  1  0.86739000  0.67340000  0.04585000  1.0
  N  N273  1  0.13260000  0.32660000  0.95415000  1.0
  N  N274  1  0.86966000  0.58952000  0.51116000  1.0
  N  N275  1  0.13034000  0.41048000  0.48884000  1.0
  N  N276  1  0.74299000  0.53037000  0.10025000  1.0
  N  N277  1  0.25701000  0.46963000  0.89975000  1.0
  N  N278  1  0.27661000  0.97372000  0.89023000  1.0
  N  N279  1  0.72339000  0.02628000  0.10977000  1.0
  N  N280  1  0.14722000  0.83562000  0.94990000  1.0
  N  N281  1  0.85278000  0.16438000  0.05010000  1.0
  N  N282  1  0.13241000  0.91877000  0.48393000  1.0
  N  N283  1  0.86760000  0.08123000  0.51607000  1.0
  N  N284  1  0.49506000  0.21112000  0.48980000  1.0
  N  N285  1  0.50493000  0.78888000  0.51020000  1.0
  O  O286  1  0.94684000  0.58334000  0.32790000  1.0
  O  O287  1  0.05316000  0.41666000  0.67210000  1.0
  O  O288  1  0.80705000  0.19681000  0.43052000  1.0
  O  O289  1  0.19296000  0.80320000  0.56948000  1.0
  O  O290  1  0.80135000  0.70589000  0.42499000  1.0
  O  O291  1  0.19865000  0.29411000  0.57501000  1.0
  O  O292  1  0.04988000  0.67505000  0.44991000  1.0
  O  O293  1  0.95012000  0.32495000  0.55009000  1.0
  O  O294  1  0.96832000  0.67989000  0.22024000  1.0
  O  O295  1  0.03168000  0.32012000  0.77976000  1.0
  O  O296  1  0.96976000  0.54132000  0.12951000  1.0
  O  O297  1  0.03024000  0.45869000  0.87050000  1.0
  O  O298  1  0.71473000  0.99841000  0.34556000  1.0
  O  O299  1  0.28527000  0.00159000  0.65444000  1.0
  O  O300  1  0.80335000  0.89692000  0.34033000  1.0
  O  O301  1  0.19665000  0.10307000  0.65966000  1.0
  O  O302  1  0.76231000  0.68749000  0.27295000  1.0
  O  O303  1  0.23769000  0.31251000  0.72705000  1.0
  O  O304  1  0.74073000  0.73403000  0.17312000  1.0
  O  O305  1  0.25926000  0.26596000  0.82688000  1.0
  O  O306  1  0.36172000  0.63321000  0.21604000  1.0
  O  O307  1  0.63828000  0.36680000  0.78397000  1.0
  O  O308  1  0.29232000  0.48814000  0.66211000  1.0
  O  O309  1  0.70767000  0.51185000  0.33789000  1.0
  O  O310  1  0.21082000  0.59413000  0.66666667  1.0
  O  O311  1  0.78918000  0.40587000  0.33329000  1.0
  O  O312  1  0.26761000  0.76560000  0.82095000  1.0
  O  O313  1  0.73238000  0.23440000  0.17905000  1.0
  O  O314  1  0.26334000  0.80420000  0.71483000  1.0
  O  O315  1  0.73666000  0.19580000  0.28517000  1.0
  O  O316  1  0.04755000  0.91774000  0.66567000  1.0
  O  O317  1  0.95245000  0.08226000  0.33434000  1.0
  O  O318  1  0.93428000  0.84041000  0.54591000  1.0
  O  O319  1  0.06573000  0.15959000  0.45409000  1.0
  O  O320  1  0.05098000  0.82751000  0.77581000  1.0
  O  O321  1  0.94902000  0.17249000  0.22419000  1.0
  O  O322  1  0.04869000  0.96748000  0.86378000  1.0
  O  O323  1  0.95130000  0.03252000  0.13622000  1.0
  O  O324  1  0.66106000  0.84275000  0.80608000  1.0
  O  O325  1  0.33894000  0.15725000  0.19391000  1.0
