# generated using pymatgen
data_Cu2H19C31SN4ClO6
_symmetry_space_group_name_H-M   'P 1'
_cell_length_a   10.32530000
_cell_length_b   13.19150000
_cell_length_c   13.37570000
_cell_angle_alpha   110.75700000
_cell_angle_beta   99.14200000
_cell_angle_gamma   98.75630000
_symmetry_Int_Tables_number   1
_chemical_formula_structural   Cu2H19C31SN4ClO6
_chemical_formula_sum   'Cu4 H38 C62 S2 N8 Cl2 O12'
_cell_volume   1638.48823170
_cell_formula_units_Z   2
loop_
 _symmetry_equiv_pos_site_id
 _symmetry_equiv_pos_as_xyz
  1  'x, y, z'
loop_
 _atom_site_type_symbol
 _atom_site_label
 _atom_site_symmetry_multiplicity
 _atom_site_fract_x
 _atom_site_fract_y
 _atom_site_fract_z
 _atom_site_occupancy
  Cu  Cu0  1  0.62116000  0.46029000  0.29118000  1.0
  Cu  Cu1  1  0.37884000  0.53971000  0.70882000  1.0
  Cu  Cu2  1  0.38708000  0.88328000  0.93898000  1.0
  Cu  Cu3  1  0.61291000  0.11671000  0.06102000  1.0
  H  H4  1  0.80792000  0.29202000  0.24767000  1.0
  H  H5  1  0.19208000  0.70798000  0.75233000  1.0
  H  H6  1  0.97502000  0.24116000  0.37089000  1.0
  H  H7  1  0.02497000  0.75884000  0.62911000  1.0
  H  H8  1  0.00939000  0.33626000  0.57589000  1.0
  H  H9  1  0.99061000  0.66374000  0.42411000  1.0
  H  H10  1  0.94785000  0.47975000  0.73579000  1.0
  H  H11  1  0.05215000  0.52025000  0.26421000  1.0
  H  H12  1  0.81316000  0.62096000  0.80023000  1.0
  H  H13  1  0.18684000  0.37904000  0.19977000  1.0
  H  H14  1  0.63896000  0.73022000  0.75168000  1.0
  H  H15  1  0.36104000  0.26978000  0.24832000  1.0
  H  H16  1  0.49431000  0.76370000  0.60582000  1.0
  H  H17  1  0.50569000  0.23630000  0.39418000  1.0
  H  H18  1  0.48724000  0.65078000  0.40535000  1.0
  H  H19  1  0.51276000  0.34923000  0.59465000  1.0
  H  H20  1  0.82160000  0.47077000  0.04554000  1.0
  H  H21  1  0.17840000  0.52923000  0.95446000  1.0
  H  H22  1  0.69979000  0.40641000  0.84909000  1.0
  H  H23  1  0.30021000  0.59359000  0.15091000  1.0
  H  H24  1  0.62001000  0.74040000  0.13066000  1.0
  H  H25  1  0.37999000  0.25960000  0.86934000  1.0
  H  H26  1  0.38080000  0.02559000  0.79470000  1.0
  H  H27  1  0.61920000  0.97441000  0.20529000  1.0
  H  H28  1  0.19679000  0.09589000  0.70849000  1.0
  H  H29  1  0.80321000  0.90411000  0.29151000  1.0
  H  H30  1  0.96238000  0.04307000  0.72810000  1.0
  H  H31  1  0.03762000  0.95693000  0.27191000  1.0
  H  H32  1  0.80328000  0.94436000  0.81457000  1.0
  H  H33  1  0.19672000  0.05564000  0.18543000  1.0
  H  H34  1  0.77442000  0.83858000  0.93037000  1.0
  H  H35  1  0.22557000  0.16142000  0.06963000  1.0
  H  H36  1  0.87868000  0.73645000  0.04564000  1.0
  H  H37  1  0.12132000  0.26355000  0.95436000  1.0
  H  H38  1  0.08281000  0.68930000  0.12387000  1.0
  H  H39  1  0.91719000  0.31070000  0.87614000  1.0
  H  H40  1  0.30448000  0.74758000  0.07665000  1.0
  H  H41  1  0.69552000  0.25242000  0.92335000  1.0
  C  C42  1  0.82738000  0.33132000  0.33682000  1.0
  C  C43  1  0.17262000  0.66867000  0.66318000  1.0
  C  C44  1  0.91971000  0.30375000  0.40663000  1.0
  C  C45  1  0.08029000  0.69625000  0.59337000  1.0
  C  C46  1  0.93918000  0.35608000  0.51953000  1.0
  C  C47  1  0.06082000  0.64393000  0.48047000  1.0
  C  C48  1  0.86730000  0.43840000  0.56270000  1.0
  C  C49  1  0.13270000  0.56160000  0.43730000  1.0
  C  C50  1  0.87897000  0.49889000  0.67775000  1.0
  C  C51  1  0.12102000  0.50111000  0.32225000  1.0
  C  C52  1  0.80558000  0.57753000  0.71274000  1.0
  C  C53  1  0.19442000  0.42247000  0.28726000  1.0
  C  C54  1  0.71647000  0.60414000  0.63660000  1.0
  C  C55  1  0.28353000  0.39586000  0.36340000  1.0
  C  C56  1  0.63698000  0.68368000  0.66581000  1.0
  C  C57  1  0.36302000  0.31632000  0.33419000  1.0
  C  C58  1  0.55579000  0.70249000  0.58422000  1.0
  C  C59  1  0.44421000  0.29751000  0.41578000  1.0
  C  C60  1  0.55048000  0.64064000  0.47309000  1.0
  C  C61  1  0.44952000  0.35936000  0.52691000  1.0
  C  C62  1  0.70387000  0.54553000  0.52296000  1.0
  C  C63  1  0.29613000  0.45447000  0.47705000  1.0
  C  C64  1  0.77796000  0.46155000  0.48615000  1.0
  C  C65  1  0.22204000  0.53846000  0.51385000  1.0
  C  C66  1  0.72718000  0.60996000  0.10113000  1.0
  C  C67  1  0.27282000  0.39004000  0.89887000  1.0
  C  C68  1  0.75074000  0.51564000  0.02074000  1.0
  C  C69  1  0.24926000  0.48436000  0.97927000  1.0
  C  C70  1  0.68369000  0.47966000  0.91220000  1.0
  C  C71  1  0.31631000  0.52034000  0.08780000  1.0
  C  C72  1  0.58825000  0.53506000  0.87685000  1.0
  C  C73  1  0.41175000  0.46494000  0.12315000  1.0
  C  C74  1  0.57017000  0.63348000  0.95886000  1.0
  C  C75  1  0.42983000  0.36652000  0.04115000  1.0
  C  C76  1  0.63855000  0.66740000  0.06931000  1.0
  C  C77  1  0.36145000  0.33260000  0.93070000  1.0
  C  C78  1  0.48494000  0.70389000  0.93227000  1.0
  C  C79  1  0.51506000  0.29611000  0.06773000  1.0
  C  C80  1  0.27686000  0.00451000  0.80069000  1.0
  C  C81  1  0.72314000  0.99549000  0.19931000  1.0
  C  C82  1  0.17310000  0.04185000  0.75202000  1.0
  C  C83  1  0.82690000  0.95815000  0.24798000  1.0
  C  C84  1  0.04334000  0.01321000  0.76385000  1.0
  C  C85  1  0.95665000  0.98679000  0.23615000  1.0
  C  C86  1  0.01713000  0.94744000  0.82513000  1.0
  C  C87  1  0.98287000  0.05255000  0.17487000  1.0
  C  C88  1  0.88885000  0.91723000  0.84769000  1.0
  C  C89  1  0.11115000  0.08277000  0.15231000  1.0
  C  C90  1  0.87240000  0.85755000  0.91195000  1.0
  C  C91  1  0.12759000  0.14245000  0.08805000  1.0
  C  C92  1  0.98241000  0.82096000  0.95769000  1.0
  C  C93  1  0.01759000  0.17904000  0.04231000  1.0
  C  C94  1  0.97405000  0.76036000  0.02568000  1.0
  C  C95  1  0.02595000  0.23964000  0.97432000  1.0
  C  C96  1  0.08857000  0.73310000  0.06870000  1.0
  C  C97  1  0.91143000  0.26691000  0.93130000  1.0
  C  C98  1  0.21132000  0.76594000  0.04388000  1.0
  C  C99  1  0.78868000  0.23406000  0.95612000  1.0
  C  C100  1  0.10991000  0.84978000  0.93649000  1.0
  C  C101  1  0.89009000  0.15021000  0.06351000  1.0
  C  C102  1  0.12772000  0.91378000  0.87097000  1.0
  C  C103  1  0.87228000  0.08622000  0.12902000  1.0
  S  S104  1  0.81590000  0.65745000  0.24075000  1.0
  S  S105  1  0.18410000  0.34255000  0.75925000  1.0
  N  N106  1  0.75732000  0.40712000  0.37597000  1.0
  N  N107  1  0.24268000  0.59288000  0.62403000  1.0
  N  N108  1  0.62167000  0.56335000  0.44395000  1.0
  N  N109  1  0.37833000  0.43666000  0.55605000  1.0
  N  N110  1  0.22092000  0.82225000  0.97907000  1.0
  N  N111  1  0.77907000  0.17775000  0.02093000  1.0
  N  N112  1  0.25442000  0.94186000  0.85818000  1.0
  N  N113  1  0.74558000  0.05814000  0.14182000  1.0
  Cl  Cl114  1  0.55958000  0.93591000  0.86851000  1.0
  Cl  Cl115  1  0.44042000  0.06409000  0.13150000  1.0
  O  O116  1  0.80457000  0.55562000  0.26560000  1.0
  O  O117  1  0.19543000  0.44438000  0.73440000  1.0
  O  O118  1  0.95711000  0.70195000  0.24461000  1.0
  O  O119  1  0.04289000  0.29805000  0.75539000  1.0
  O  O120  1  0.75026000  0.73998000  0.30564000  1.0
  O  O121  1  0.24974000  0.26002000  0.69436000  1.0
  O  O122  1  0.52758000  0.49345000  0.77269000  1.0
  O  O123  1  0.47243000  0.50655000  0.22731000  1.0
  O  O124  1  0.40419000  0.67464000  0.83834000  1.0
  O  O125  1  0.59581000  0.32536000  0.16166000  1.0
  O  O126  1  0.49354000  0.80086000  0.00631000  1.0
  O  O127  1  0.50646000  0.19914000  0.99369000  1.0
