# generated using pymatgen
data_MnH8C16(N5O)2
_symmetry_space_group_name_H-M   'P 1'
_cell_length_a   6.83806000
_cell_length_b   7.32251000
_cell_length_c   19.13590000
_cell_angle_alpha   90.00130000
_cell_angle_beta   90.00060000
_cell_angle_gamma   63.36000000
_symmetry_Int_Tables_number   1
_chemical_formula_structural   MnH8C16(N5O)2
_chemical_formula_sum   'Mn2 H16 C32 N20 O4'
_cell_volume   856.45046796
_cell_formula_units_Z   2
loop_
 _symmetry_equiv_pos_site_id
 _symmetry_equiv_pos_as_xyz
  1  'x, y, z'
loop_
 _atom_site_type_symbol
 _atom_site_label
 _atom_site_symmetry_multiplicity
 _atom_site_fract_x
 _atom_site_fract_y
 _atom_site_fract_z
 _atom_site_occupancy
  Mn  Mn0  1  0.50001000  0.00000000  0.00000000  1.0
  Mn  Mn1  1  0.99999000  0.50001000  0.50000000  1.0
  H  H2  1  0.29543000  0.03377000  0.18315000  1.0
  H  H3  1  0.79541000  0.53378000  0.31685000  1.0
  H  H4  1  0.70458000  0.96621000  0.81685000  1.0
  H  H5  1  0.20459000  0.46622000  0.68315000  1.0
  H  H6  1  0.30711000  0.76053000  0.26397000  1.0
  H  H7  1  0.80711000  0.26053000  0.23603000  1.0
  H  H8  1  0.69288000  0.23946000  0.73603000  1.0
  H  H9  1  0.19288000  0.73947000  0.76397000  1.0
  H  H10  1  0.10340000  0.50747000  0.08919000  1.0
  H  H11  1  0.60341000  0.00747000  0.41080000  1.0
  H  H12  1  0.89660000  0.49253000  0.91081000  1.0
  H  H13  1  0.39659000  0.99253000  0.58920000  1.0
  H  H14  1  0.07980000  0.80464000  0.01738000  1.0
  H  H15  1  0.57980000  0.30465000  0.48262000  1.0
  H  H16  1  0.92022000  0.19535000  0.98262000  1.0
  H  H17  1  0.42020000  0.69535000  0.51738000  1.0
  C  C18  1  0.25316000  0.91403000  0.16653000  1.0
  C  C19  1  0.75314000  0.41404000  0.33346000  1.0
  C  C20  1  0.74685000  0.08597000  0.83347000  1.0
  C  C21  1  0.24685000  0.58596000  0.66653000  1.0
  C  C22  1  0.25961000  0.76057000  0.20972000  1.0
  C  C23  1  0.75960000  0.26057000  0.29028000  1.0
  C  C24  1  0.74038000  0.23942000  0.79028000  1.0
  C  C25  1  0.24039000  0.73943000  0.70972000  1.0
  C  C26  1  0.20678000  0.60966000  0.18278000  1.0
  C  C27  1  0.70679000  0.10965000  0.31722000  1.0
  C  C28  1  0.79321000  0.39035000  0.81722000  1.0
  C  C29  1  0.29320000  0.89035000  0.68278000  1.0
  C  C30  1  0.14463000  0.62139000  0.11229000  1.0
  C  C31  1  0.64464000  0.12139000  0.38770000  1.0
  C  C32  1  0.85537000  0.37860000  0.88771000  1.0
  C  C33  1  0.35536000  0.87861000  0.61229000  1.0
  C  C34  1  0.13635000  0.77919000  0.07127000  1.0
  C  C35  1  0.63634000  0.27920000  0.42872000  1.0
  C  C36  1  0.86367000  0.22080000  0.92873000  1.0
  C  C37  1  0.36366000  0.72080000  0.57127000  1.0
  C  C38  1  0.21452000  0.44714000  0.22496000  1.0
  C  C39  1  0.71453000  0.94712000  0.27503000  1.0
  C  C40  1  0.78546000  0.55287000  0.77504000  1.0
  C  C41  1  0.28546000  0.05288000  0.72496000  1.0
  C  C42  1  0.68541000  0.55912000  0.07656000  1.0
  C  C43  1  0.18542000  0.05911000  0.42344000  1.0
  C  C44  1  0.31459000  0.44089000  0.92345000  1.0
  C  C45  1  0.81459000  0.94090000  0.57656000  1.0
  C  C46  1  0.65713000  0.26469000  0.09641000  1.0
  C  C47  1  0.15712000  0.76469000  0.40359000  1.0
  C  C48  1  0.34289000  0.73531000  0.90359000  1.0
  C  C49  1  0.84288000  0.23533000  0.59641000  1.0
  N  N50  1  0.19421000  0.92113000  0.09811000  1.0
  N  N51  1  0.69419000  0.42114000  0.40188000  1.0
  N  N52  1  0.80581000  0.07886000  0.90189000  1.0
  N  N53  1  0.30581000  0.57886000  0.59811000  1.0
  N  N54  1  0.22190000  0.31074000  0.25845000  1.0
  N  N55  1  0.72193000  0.81072000  0.24154000  1.0
  N  N56  1  0.77806000  0.68927000  0.74155000  1.0
  N  N57  1  0.27806000  0.18928000  0.75846000  1.0
  N  N58  1  0.66770000  0.70425000  0.04498000  1.0
  N  N59  1  0.16770000  0.20425000  0.45501000  1.0
  N  N60  1  0.33231000  0.29574000  0.95502000  1.0
  N  N61  1  0.83231000  0.79576000  0.54499000  1.0
  N  N62  1  0.71651000  0.40284000  0.11461000  1.0
  N  N63  1  0.21650000  0.90283000  0.38539000  1.0
  N  N64  1  0.28351000  0.59715000  0.88539000  1.0
  N  N65  1  0.78350000  0.09718000  0.61461000  1.0
  N  N66  1  0.60923000  0.13143000  0.08491000  1.0
  N  N67  1  0.10921000  0.63144000  0.41509000  1.0
  N  N68  1  0.39079000  0.86856000  0.91509000  1.0
  N  N69  1  0.89078000  0.36858000  0.58490000  1.0
  O  O70  1  0.19882000  0.06324000  0.05697000  1.0
  O  O71  1  0.69880000  0.56326000  0.44303000  1.0
  O  O72  1  0.80120000  0.93675000  0.94304000  1.0
  O  O73  1  0.30119000  0.43675000  0.55697000  1.0
