# generated using pymatgen
data_Zr6H28C52S5O47F2
_symmetry_space_group_name_H-M   'P 1'
_cell_length_a   14.72495495
_cell_length_b   14.78660000
_cell_length_c   14.78850000
_cell_angle_alpha   119.99340000
_cell_angle_beta   90.33464564
_cell_angle_gamma   119.37521730
_symmetry_Int_Tables_number   1
_chemical_formula_structural   Zr6H28C52S5O47F2
_chemical_formula_sum   'Zr6 H28 C52 S5 O47 F2'
_cell_volume   2291.77733799
_cell_formula_units_Z   1
loop_
 _symmetry_equiv_pos_site_id
 _symmetry_equiv_pos_as_xyz
  1  'x, y, z'
loop_
 _atom_site_type_symbol
 _atom_site_label
 _atom_site_symmetry_multiplicity
 _atom_site_fract_x
 _atom_site_fract_y
 _atom_site_fract_z
 _atom_site_occupancy
  Zr  Zr0  1  0.87422000  0.49479000  0.12017000  1.0
  Zr  Zr1  1  0.11220000  0.49808000  0.88102000  1.0
  Zr  Zr2  1  0.11111000  0.73429000  0.12145000  1.0
  Zr  Zr3  1  0.87429000  0.25759000  0.87930000  1.0
  Zr  Zr4  1  0.11534000  0.49484000  0.11608000  1.0
  Zr  Zr5  1  0.87335000  0.49747000  0.88213000  1.0
  H  H6  1  0.08973000  0.68284000  0.28247000  1.0
  H  H7  1  0.09147000  0.31098000  0.90377000  1.0
  H  H8  1  0.08635000  0.68554000  0.90876000  1.0
  H  H9  1  0.71227000  0.30932000  0.90740000  1.0
  H  H10  1  0.83195000  0.45003000  0.39244000  1.0
  H  H11  1  0.14468000  0.49443000  0.41314000  1.0
  H  H12  1  0.83769000  0.45474000  0.56340000  1.0
  H  H13  1  0.58033000  0.51459000  0.15307000  1.0
  H  H14  1  0.57581000  0.47307000  0.84317000  1.0
  H  H15  1  0.41155000  0.51429000  0.14071000  1.0
  H  H16  1  0.12276000  0.22256000  0.16478000  1.0
  H  H17  1  0.84864000  0.94861000  0.86025000  1.0
  H  H18  1  0.11163000  0.04542000  0.15805000  1.0
  H  H19  1  0.57251000  0.22340000  0.57239000  1.0
  H  H20  1  0.59846000  0.95496000  0.59040000  1.0
  H  H21  1  0.40615000  0.04353000  0.40388000  1.0
  H  H22  1  0.98705000  0.72748000  0.42911000  1.0
  H  H23  1  0.99820000  0.73765000  0.60016000  1.0
  H  H24  1  0.99521000  0.07072000  0.76617000  1.0
  H  H25  1  0.00482000  0.91145000  0.76944000  1.0
  H  H26  1  0.60062000  0.93125000  0.88273000  1.0
  H  H27  1  0.58634000  0.23395000  0.14093000  1.0
  H  H28  1  0.43456000  0.77631000  0.89351000  1.0
  H  H29  1  0.25774000  0.64296000  0.77485000  1.0
  H  H30  1  0.23308000  0.37013000  0.68750000  1.0
  H  H31  1  0.87634000  0.62838000  0.76563000  1.0
  H  H32  1  0.26413000  0.64387000  0.35484000  1.0
  H  H33  1  0.24572000  0.97352000  0.11450000  1.0
  C  C34  1  0.99234000  0.48335000  0.29702000  1.0
  C  C35  1  0.29940000  0.49986000  0.99249000  1.0
  C  C36  1  0.99413000  0.49324000  0.69321000  1.0
  C  C37  1  0.69232000  0.49980000  0.00451000  1.0
  C  C38  1  0.98784000  0.79693000  0.29961000  1.0
  C  C39  1  0.69929000  0.19114000  0.00419000  1.0
  C  C40  1  0.98527000  0.19195000  0.69099000  1.0
  C  C41  1  0.30364000  0.81065000  0.00844000  1.0
  C  C42  1  0.30356000  0.79777000  0.30224000  1.0
  C  C43  1  0.98493000  0.79947000  0.00285000  1.0
  C  C44  1  0.69584000  0.20154000  0.69336000  1.0
  C  C45  1  0.99375000  0.19727000  0.00684000  1.0
  C  C46  1  0.99460000  0.48039000  0.58643000  1.0
  C  C47  1  0.98895000  0.47400000  0.39326000  1.0
  C  C48  1  0.08120000  0.48850000  0.54171000  1.0
  C  C49  1  0.90100000  0.46016000  0.43406000  1.0
  C  C50  1  0.07685000  0.48479000  0.44560000  1.0
  C  C51  1  0.90446000  0.46293000  0.52938000  1.0
  C  C52  1  0.39758000  0.49339000  0.98598000  1.0
  C  C53  1  0.58894000  0.49511000  0.99900000  1.0
  C  C54  1  0.44369000  0.47937000  0.89958000  1.0
  C  C55  1  0.54219000  0.50481000  0.08254000  1.0
  C  C56  1  0.53881000  0.48093000  0.90781000  1.0
  C  C57  1  0.44747000  0.50368000  0.07506000  1.0
  C  C58  1  0.97717000  0.89731000  0.00411000  1.0
  C  C59  1  0.98706000  0.09582000  0.01158000  1.0
  C  C60  1  0.90065000  0.86996000  0.91991000  1.0
  C  C61  1  0.06053000  0.12401000  0.09695000  1.0
  C  C62  1  0.90633000  0.96935000  0.92537000  1.0
  C  C63  1  0.05424000  0.02495000  0.09286000  1.0
  C  C64  1  0.40650000  0.89741000  0.40187000  1.0
  C  C65  1  0.59671000  0.09988000  0.59117000  1.0
  C  C66  1  0.46278000  0.87318000  0.45585000  1.0
  C  C67  1  0.54239000  0.12561000  0.53931000  1.0
  C  C68  1  0.55644000  0.97411000  0.54883000  1.0
  C  C69  1  0.44852000  0.02479000  0.44569000  1.0
  C  C70  1  0.98637000  0.89618000  0.40111000  1.0
  C  C71  1  0.98905000  0.89756000  0.49859000  1.0
  C  C72  1  0.98290000  0.98768000  0.40126000  1.0
  C  C73  1  0.99243000  0.80549000  0.50319000  1.0
  C  C74  1  0.99804000  0.81058000  0.59879000  1.0
  C  C75  1  0.98577000  0.08892000  0.59185000  1.0
  C  C76  1  0.98083000  0.08225000  0.49542000  1.0
  C  C77  1  0.99033000  0.99622000  0.59564000  1.0
  C  C78  1  0.99700000  0.99875000  0.69282000  1.0
  C  C79  1  0.00112000  0.90845000  0.69439000  1.0
  C  C80  1  0.41076000  0.91444000  0.01844000  1.0
  C  C81  1  0.60274000  0.09282000  0.00993000  1.0
  C  C82  1  0.45778000  0.04670000  0.09176000  1.0
  C  C83  1  0.56082000  0.96374000  0.94116000  1.0
  C  C84  1  0.55208000  0.13313000  0.08613000  1.0
  C  C85  1  0.46646000  0.87664000  0.94654000  1.0
  S  S86  1  0.20649000  0.50935000  0.59657000  1.0
  S  S87  1  0.40199000  0.46913000  0.77729000  1.0
  S  S88  1  0.78888000  0.71615000  0.80026000  1.0
  S  S89  1  0.42991000  0.72193000  0.41980000  1.0
  S  S90  1  0.41354000  0.12508000  0.20116000  1.0
  O  O91  1  0.91686000  0.48820000  0.26106000  1.0
  O  O92  1  0.25850000  0.50557000  0.92057000  1.0
  O  O93  1  0.07339000  0.50258000  0.74148000  1.0
  O  O94  1  0.73063000  0.49838000  0.08131000  1.0
  O  O95  1  0.06588000  0.83554000  0.26226000  1.0
  O  O96  1  0.73494000  0.15297000  0.92399000  1.0
  O  O97  1  0.91007000  0.15528000  0.73188000  1.0
  O  O98  1  0.25653000  0.84209000  0.08016000  1.0
  O  O99  1  0.25946000  0.68009000  0.26355000  1.0
  O  O100  1  0.91539000  0.68309000  0.92203000  1.0
  O  O101  1  0.73420000  0.31736000  0.73333000  1.0
  O  O102  1  0.07396000  0.31209000  0.08007000  1.0
  O  O103  1  0.06194000  0.83737000  0.08036000  1.0
  O  O104  1  0.73440000  0.16469000  0.73487000  1.0
  O  O105  1  0.91957000  0.16090000  0.92774000  1.0
  O  O106  1  0.26331000  0.83348000  0.26158000  1.0
  O  O107  1  0.91277000  0.68150000  0.26011000  1.0
  O  O108  1  0.26318000  0.69598000  0.92751000  1.0
  O  O109  1  0.05998000  0.30656000  0.72864000  1.0
  O  O110  1  0.73751000  0.30714000  0.07945000  1.0
  O  O111  1  0.73513000  0.50339000  0.93043000  1.0
  O  O112  1  0.07187000  0.48957000  0.25986000  1.0
  O  O113  1  0.26162000  0.49928000  0.06994000  1.0
  O  O114  1  0.91728000  0.49681000  0.73128000  1.0
  O  O115  1  0.79241000  0.36226000  0.93380000  1.0
  O  O116  1  0.05998000  0.63263000  0.93575000  1.0
  O  O117  1  0.06207000  0.36219000  0.92993000  1.0
  O  O118  1  0.06184000  0.63001000  0.20220000  1.0
  O  O119  1  0.14443000  0.59778000  0.05034000  1.0
  O  O120  1  0.94715000  0.39818000  0.04889000  1.0
  O  O121  1  0.94400000  0.39928000  0.85156000  1.0
  O  O122  1  0.94376000  0.59565000  0.05119000  1.0
  O  O123  1  0.26966000  0.64687000  0.71066000  1.0
  O  O124  1  0.27049000  0.52225000  0.52622000  1.0
  O  O125  1  0.18002000  0.41387000  0.61568000  1.0
  O  O126  1  0.27551000  0.35197000  0.72066000  1.0
  O  O127  1  0.46154000  0.43154000  0.70733000  1.0
  O  O128  1  0.41053000  0.58357000  0.80996000  1.0
  O  O129  1  0.85206000  0.65799000  0.73013000  1.0
  O  O130  1  0.74431000  0.73899000  0.73382000  1.0
  O  O131  1  0.71929000  0.64018000  0.83583000  1.0
  O  O132  1  0.30515000  0.65331000  0.41652000  1.0
  O  O133  1  0.49268000  0.74395000  0.51154000  1.0
  O  O134  1  0.43668000  0.65548000  0.31122000  1.0
  O  O135  1  0.28874000  0.06306000  0.13846000  1.0
  O  O136  1  0.47219000  0.25499000  0.23787000  1.0
  O  O137  1  0.41720000  0.09447000  0.27880000  1.0
  F  F138  1  0.96919000  0.16267000  0.48610000  1.0
  F  F139  1  0.97705000  0.98709000  0.30955000  1.0
