# generated using pymatgen
data_TbH21(C10O7)2
_symmetry_space_group_name_H-M   'P 1'
_cell_length_a   9.34814000
_cell_length_b   10.30380000
_cell_length_c   13.09730000
_cell_angle_alpha   100.39700000
_cell_angle_beta   96.51340000
_cell_angle_gamma   113.49600000
_symmetry_Int_Tables_number   1
_chemical_formula_structural   TbH21(C10O7)2
_chemical_formula_sum   'Tb2 H42 C40 O28'
_cell_volume   1113.66392751
_cell_formula_units_Z   2
loop_
 _symmetry_equiv_pos_site_id
 _symmetry_equiv_pos_as_xyz
  1  'x, y, z'
loop_
 _atom_site_type_symbol
 _atom_site_label
 _atom_site_symmetry_multiplicity
 _atom_site_fract_x
 _atom_site_fract_y
 _atom_site_fract_z
 _atom_site_occupancy
  Tb  Tb0  1  0.28256000  0.54891000  0.51984000  1.0
  Tb  Tb1  1  0.71744000  0.45109000  0.48016000  1.0
  H  H2  1  0.44089000  0.72290000  0.92697000  1.0
  H  H3  1  0.55910000  0.27710000  0.07303000  1.0
  H  H4  1  0.50677000  0.87227000  0.81993000  1.0
  H  H5  1  0.49323000  0.12773000  0.18007000  1.0
  H  H6  1  0.49833000  0.08424000  0.34449000  1.0
  H  H7  1  0.50168000  0.91576000  0.65551000  1.0
  H  H8  1  0.10661000  0.64192000  0.66932000  1.0
  H  H9  1  0.89339000  0.35808000  0.33068000  1.0
  H  H10  1  0.27530000  0.78110000  0.68945000  1.0
  H  H11  1  0.72470000  0.21890000  0.31054000  1.0
  H  H12  1  0.50568000  0.49148000  0.67638000  1.0
  H  H13  1  0.49432000  0.50852000  0.32362000  1.0
  H  H14  1  0.37663000  0.51774000  0.73926000  1.0
  H  H15  1  0.62337000  0.48226000  0.26074000  1.0
  H  H16  1  0.34088000  0.59847000  0.14395000  1.0
  H  H17  1  0.65912000  0.40153000  0.85605000  1.0
  H  H18  1  0.04235000  0.25783000  0.86768000  1.0
  H  H19  1  0.95765000  0.74217000  0.13232000  1.0
  H  H20  1  0.94362000  0.22087000  0.17831000  1.0
  H  H21  1  0.05638000  0.77913000  0.82169000  1.0
  H  H22  1  0.93767000  0.00134000  0.86185000  1.0
  H  H23  1  0.06233000  0.99866000  0.13815000  1.0
  H  H24  1  0.78558000  0.05655000  0.82275000  1.0
  H  H25  1  0.21442000  0.94345000  0.17725000  1.0
  H  H26  1  0.69351000  0.78188000  0.79169000  1.0
  H  H27  1  0.30649000  0.21812000  0.20830000  1.0
  H  H28  1  0.74078000  0.80618000  0.93140000  1.0
  H  H29  1  0.25922000  0.19382000  0.06860000  1.0
  H  H30  1  0.80723000  0.74338000  0.34895000  1.0
  H  H31  1  0.19278000  0.25662000  0.65105000  1.0
  H  H32  1  0.05459000  0.19837000  0.34848000  1.0
  H  H33  1  0.94541000  0.80163000  0.65152000  1.0
  H  H34  1  0.31479000  0.96436000  0.45157000  1.0
  H  H35  1  0.68521000  0.03564000  0.54843000  1.0
  H  H36  1  0.61309000  0.76047000  0.25359000  1.0
  H  H37  1  0.38691000  0.23953000  0.74641000  1.0
  H  H38  1  0.62246000  0.86737000  0.38006000  1.0
  H  H39  1  0.37754000  0.13263000  0.61994000  1.0
  H  H40  1  0.49396000  0.88302000  0.15794000  1.0
  H  H41  1  0.50604000  0.11699000  0.84206000  1.0
  H  H42  1  0.38618000  0.83371000  0.25965000  1.0
  H  H43  1  0.61382000  0.16629000  0.74034000  1.0
  C  C44  1  0.19701000  0.46905000  0.29160000  1.0
  C  C45  1  0.80298000  0.53095000  0.70840000  1.0
  C  C46  1  0.14755000  0.41638000  0.17392000  1.0
  C  C47  1  0.85244000  0.58362000  0.82608000  1.0
  C  C48  1  0.23797000  0.49487000  0.10897000  1.0
  C  C49  1  0.76202000  0.50513000  0.89103000  1.0
  C  C50  1  0.19615000  0.43814000  0.99921000  1.0
  C  C51  1  0.80385000  0.56186000  0.00079000  1.0
  C  C52  1  0.06795000  0.30060000  0.95337000  1.0
  C  C53  1  0.93204000  0.69940000  0.04663000  1.0
  C  C54  1  0.97777000  0.22299000  0.01909000  1.0
  C  C55  1  0.02223000  0.77701000  0.98092000  1.0
  C  C56  1  0.01536000  0.28334000  0.12895000  1.0
  C  C57  1  0.98464000  0.71666000  0.87105000  1.0
  C  C58  1  0.29075000  0.52165000  0.92895000  1.0
  C  C59  1  0.70924000  0.47835000  0.07105000  1.0
  C  C60  1  0.82643000  0.00501000  0.87929000  1.0
  C  C61  1  0.17357000  0.99499000  0.12071000  1.0
  C  C62  1  0.70271000  0.85099000  0.86918000  1.0
  C  C63  1  0.29729000  0.14901000  0.13082000  1.0
  C  C64  1  0.06471000  0.71334000  0.43617000  1.0
  C  C65  1  0.93530000  0.28666000  0.56384000  1.0
  C  C66  1  0.06135000  0.84279000  0.40145000  1.0
  C  C67  1  0.93866000  0.15721000  0.59855000  1.0
  C  C68  1  0.91614000  0.84247000  0.36045000  1.0
  C  C69  1  0.08386000  0.15753000  0.63955000  1.0
  C  C70  1  0.91543000  0.96941000  0.33691000  1.0
  C  C71  1  0.08457000  0.03059000  0.66309000  1.0
  C  C72  1  0.05767000  0.09733000  0.35989000  1.0
  C  C73  1  0.94233000  0.90268000  0.64011000  1.0
  C  C74  1  0.20164000  0.09577000  0.40014000  1.0
  C  C75  1  0.79836000  0.90423000  0.59986000  1.0
  C  C76  1  0.20428000  0.96695000  0.41810000  1.0
  C  C77  1  0.79572000  0.03305000  0.58190000  1.0
  C  C78  1  0.35246000  0.23264000  0.43273000  1.0
  C  C79  1  0.64754000  0.76737000  0.56727000  1.0
  C  C80  1  0.62971000  0.86925000  0.29702000  1.0
  C  C81  1  0.37029000  0.13075000  0.70298000  1.0
  C  C82  1  0.50154000  0.90485000  0.24414000  1.0
  C  C83  1  0.49846000  0.09515000  0.75587000  1.0
  O  O84  1  0.09573000  0.41825000  0.34875000  1.0
  O  O85  1  0.90427000  0.58175000  0.65125000  1.0
  O  O86  1  0.34049000  0.56013000  0.33548000  1.0
  O  O87  1  0.65951000  0.43987000  0.66452000  1.0
  O  O88  1  0.37789000  0.66208000  0.97530000  1.0
  O  O89  1  0.62211000  0.33792000  0.02470000  1.0
  O  O90  1  0.28523000  0.46131000  0.83676000  1.0
  O  O91  1  0.71477000  0.53869000  0.16325000  1.0
  O  O92  1  0.85448000  0.08722000  0.98625000  1.0
  O  O93  1  0.14552000  0.91278000  0.01375000  1.0
  O  O94  1  0.54994000  0.84423000  0.88143000  1.0
  O  O95  1  0.45006000  0.15577000  0.11857000  1.0
  O  O96  1  0.19979000  0.71436000  0.46283000  1.0
  O  O97  1  0.80021000  0.28565000  0.53717000  1.0
  O  O98  1  0.93281000  0.61191000  0.43931000  1.0
  O  O99  1  0.06719000  0.38809000  0.56069000  1.0
  O  O100  1  0.48440000  0.22064000  0.43511000  1.0
  O  O101  1  0.51560000  0.77936000  0.56489000  1.0
  O  O102  1  0.34901000  0.35551000  0.45980000  1.0
  O  O103  1  0.65100000  0.64449000  0.54020000  1.0
  O  O104  1  0.78168000  0.98001000  0.29326000  1.0
  O  O105  1  0.21832000  0.01999000  0.70674000  1.0
  O  O106  1  0.53391000  0.05589000  0.27837000  1.0
  O  O107  1  0.46610000  0.94411000  0.72163000  1.0
  O  O108  1  0.22277000  0.67358000  0.67275000  1.0
  O  O109  1  0.77723000  0.32642000  0.32725000  1.0
  O  O110  1  0.42394000  0.52989000  0.67521000  1.0
  O  O111  1  0.57606000  0.47011000  0.32479000  1.0
