# generated using pymatgen
data_Na2UH8C8(NO7)2
_symmetry_space_group_name_H-M   'P 1'
_cell_length_a   5.52824000
_cell_length_b   6.59035000
_cell_length_c   10.36400000
_cell_angle_alpha   78.13920000
_cell_angle_beta   87.23890000
_cell_angle_gamma   81.81950000
_symmetry_Int_Tables_number   1
_chemical_formula_structural   Na2UH8C8(NO7)2
_chemical_formula_sum   'Na2 U1 H8 C8 N2 O14'
_cell_volume   365.70044698
_cell_formula_units_Z   1
loop_
 _symmetry_equiv_pos_site_id
 _symmetry_equiv_pos_as_xyz
  1  'x, y, z'
loop_
 _atom_site_type_symbol
 _atom_site_label
 _atom_site_symmetry_multiplicity
 _atom_site_fract_x
 _atom_site_fract_y
 _atom_site_fract_z
 _atom_site_occupancy
  Na  Na0  1  0.78409000  0.33166000  0.01366000  1.0
  Na  Na1  1  0.21590000  0.66834000  0.98634000  1.0
  U  U2  1  0.99999000  0.50000000  0.50000000  1.0
  H  H3  1  0.30800000  0.28760000  0.87770000  1.0
  H  H4  1  0.69198000  0.71239000  0.12230000  1.0
  H  H5  1  0.07943000  0.43393000  0.80866000  1.0
  H  H6  1  0.92053000  0.56607000  0.19135000  1.0
  H  H7  1  0.71019000  0.17982000  0.78878000  1.0
  H  H8  1  0.28982000  0.82018000  0.21122000  1.0
  H  H9  1  0.60246000  0.99256000  0.87787000  1.0
  H  H10  1  0.39753000  0.00745000  0.12213000  1.0
  C  C11  1  0.66875000  0.99591000  0.39980000  1.0
  C  C12  1  0.33127000  0.00407000  0.60019000  1.0
  C  C13  1  0.88841000  0.98362000  0.30667000  1.0
  C  C14  1  0.11161000  0.01639000  0.69334000  1.0
  C  C15  1  0.45678000  0.14430000  0.38524000  1.0
  C  C16  1  0.54325000  0.85573000  0.61475000  1.0
  C  C17  1  0.36852000  0.30915000  0.26552000  1.0
  C  C18  1  0.63149000  0.69081000  0.73449000  1.0
  N  N19  1  0.70177000  0.85509000  0.51290000  1.0
  N  N20  1  0.29825000  0.14491000  0.48711000  1.0
  O  O21  1  0.73876000  0.45882000  0.41460000  1.0
  O  O22  1  0.26122000  0.54122000  0.58541000  1.0
  O  O23  1  0.04699000  0.81931000  0.34462000  1.0
  O  O24  1  0.95300000  0.18068000  0.65537000  1.0
  O  O25  1  0.91620000  0.12414000  0.21030000  1.0
  O  O26  1  0.08381000  0.87584000  0.78968000  1.0
  O  O27  1  0.21592000  0.45820000  0.29693000  1.0
  O  O28  1  0.78405000  0.54179000  0.70307000  1.0
  O  O29  1  0.42929000  0.29299000  0.15031000  1.0
  O  O30  1  0.57073000  0.70700000  0.84968000  1.0
  O  O31  1  0.15192000  0.37357000  0.89480000  1.0
  O  O32  1  0.84806000  0.62642000  0.10521000  1.0
  O  O33  1  0.60206000  0.14453000  0.86687000  1.0
  O  O34  1  0.39794000  0.85549000  0.13312000  1.0
