# generated using pymatgen
data_ZnH18C27N4O5
_symmetry_space_group_name_H-M   'P 1'
_cell_length_a   8.80232000
_cell_length_b   10.94660000
_cell_length_c   14.46610000
_cell_angle_alpha   110.66900000
_cell_angle_beta   98.32560000
_cell_angle_gamma   98.89550000
_symmetry_Int_Tables_number   1
_chemical_formula_structural   ZnH18C27N4O5
_chemical_formula_sum   'Zn2 H36 C54 N8 O10'
_cell_volume   1258.15582831
_cell_formula_units_Z   2
loop_
 _symmetry_equiv_pos_site_id
 _symmetry_equiv_pos_as_xyz
  1  'x, y, z'
loop_
 _atom_site_type_symbol
 _atom_site_label
 _atom_site_symmetry_multiplicity
 _atom_site_fract_x
 _atom_site_fract_y
 _atom_site_fract_z
 _atom_site_occupancy
  Zn  Zn0  1  0.13386000  0.78225000  0.37669000  1.0
  Zn  Zn1  1  0.86614000  0.21775000  0.62331000  1.0
  H  H2  1  0.38783000  0.46579000  0.28113000  1.0
  H  H3  1  0.61217000  0.53420000  0.71887000  1.0
  H  H4  1  0.55436000  0.32111000  0.18622000  1.0
  H  H5  1  0.44563000  0.67888000  0.81378000  1.0
  H  H6  1  0.30144000  0.32037000  0.90755000  1.0
  H  H7  1  0.69856000  0.67963000  0.09246000  1.0
  H  H8  1  0.14319000  0.46970000  0.00251000  1.0
  H  H9  1  0.85682000  0.53030000  0.99749000  1.0
  H  H10  1  0.16684000  0.86438000  0.75503000  1.0
  H  H11  1  0.83315000  0.13562000  0.24497000  1.0
  H  H12  1  0.28486000  0.03797000  0.92919000  1.0
  H  H13  1  0.71514000  0.96203000  0.07081000  1.0
  H  H14  1  0.64952000  0.20814000  0.81247000  1.0
  H  H15  1  0.35048000  0.79185000  0.18753000  1.0
  H  H16  1  0.51724000  0.04479000  0.63672000  1.0
  H  H17  1  0.48275000  0.95521000  0.36328000  1.0
  H  H18  1  0.02532000  0.78844000  0.16123000  1.0
  H  H19  1  0.97468000  0.21156000  0.83877000  1.0
  H  H20  1  0.24763000  0.10740000  0.43655000  1.0
  H  H21  1  0.75236000  0.89260000  0.56344000  1.0
  H  H22  1  0.21157000  0.20933000  0.28497000  1.0
  H  H23  1  0.78842000  0.79066000  0.71502000  1.0
  H  H24  1  0.06763000  0.79555000  0.01668000  1.0
  H  H25  1  0.93237000  0.20444000  0.98331000  1.0
  H  H26  1  0.03286000  0.20876000  0.15149000  1.0
  H  H27  1  0.96714000  0.79123000  0.84850000  1.0
  H  H28  1  0.52352000  0.71462000  0.33813000  1.0
  H  H29  1  0.47648000  0.28539000  0.66187000  1.0
  H  H30  1  0.79568000  0.82939000  0.29393000  1.0
  H  H31  1  0.20432000  0.17061000  0.70606000  1.0
  H  H32  1  0.92277000  0.61805000  0.47565000  1.0
  H  H33  1  0.07723000  0.38196000  0.52435000  1.0
  H  H34  1  0.44016000  0.70912000  0.48698000  1.0
  H  H35  1  0.55985000  0.29089000  0.51303000  1.0
  H  H36  1  0.72770000  0.41435000  0.43824000  1.0
  H  H37  1  0.27231000  0.58566000  0.56177000  1.0
  C  C38  1  0.17025000  0.57691000  0.20606000  1.0
  C  C39  1  0.82976000  0.42309000  0.79394000  1.0
  C  C40  1  0.25766000  0.47816000  0.14814000  1.0
  C  C41  1  0.74234000  0.52184000  0.85187000  1.0
  C  C42  1  0.37117000  0.43362000  0.19931000  1.0
  C  C43  1  0.62883000  0.56637000  0.80068000  1.0
  C  C44  1  0.46267000  0.35282000  0.14678000  1.0
  C  C45  1  0.53733000  0.64717000  0.85322000  1.0
  C  C46  1  0.43825000  0.31179000  0.04121000  1.0
  C  C47  1  0.56175000  0.68821000  0.95879000  1.0
  C  C48  1  0.54538000  0.23593000  0.98530000  1.0
  C  C49  1  0.45462000  0.76407000  0.01470000  1.0
  C  C50  1  0.31993000  0.35139000  0.98949000  1.0
  C  C51  1  0.68007000  0.64861000  0.01051000  1.0
  C  C52  1  0.23135000  0.43557000  0.04257000  1.0
  C  C53  1  0.76865000  0.56443000  0.95743000  1.0
  C  C54  1  0.24845000  0.85138000  0.58177000  1.0
  C  C55  1  0.75154000  0.14862000  0.41823000  1.0
  C  C56  1  0.33409000  0.94602000  0.68625000  1.0
  C  C57  1  0.66590000  0.05398000  0.31375000  1.0
  C  C58  1  0.27098000  0.94186000  0.76890000  1.0
  C  C59  1  0.72902000  0.05814000  0.23110000  1.0
  C  C60  1  0.33752000  0.03791000  0.86543000  1.0
  C  C61  1  0.66248000  0.96209000  0.13457000  1.0
  C  C62  1  0.47422000  0.13413000  0.88108000  1.0
  C  C63  1  0.52578000  0.86587000  0.11892000  1.0
  C  C64  1  0.54305000  0.13336000  0.79938000  1.0
  C  C65  1  0.45694000  0.86664000  0.20062000  1.0
  C  C66  1  0.47091000  0.04192000  0.70198000  1.0
  C  C67  1  0.52909000  0.95808000  0.29802000  1.0
  C  C68  1  0.07944000  0.88925000  0.21523000  1.0
  C  C69  1  0.92056000  0.11075000  0.78477000  1.0
  C  C70  1  0.19467000  0.05774000  0.35654000  1.0
  C  C71  1  0.80533000  0.94226000  0.64346000  1.0
  C  C72  1  0.17675000  0.10888000  0.28267000  1.0
  C  C73  1  0.82325000  0.89111000  0.71733000  1.0
  C  C74  1  0.05469000  0.00184000  0.09554000  1.0
  C  C75  1  0.94532000  0.99816000  0.90446000  1.0
  C  C76  1  0.03448000  0.88421000  0.01014000  1.0
  C  C77  1  0.96552000  0.11578000  0.98986000  1.0
  C  C78  1  0.02084000  0.11765000  0.08542000  1.0
  C  C79  1  0.97916000  0.88234000  0.91458000  1.0
  C  C80  1  0.64636000  0.71332000  0.35925000  1.0
  C  C81  1  0.35365000  0.28669000  0.64075000  1.0
  C  C82  1  0.78098000  0.76703000  0.33720000  1.0
  C  C83  1  0.21902000  0.23297000  0.66280000  1.0
  C  C84  1  0.85166000  0.65542000  0.42878000  1.0
  C  C85  1  0.14834000  0.34458000  0.57122000  1.0
  C  C86  1  0.46597000  0.61755000  0.49246000  1.0
  C  C87  1  0.53403000  0.38246000  0.50755000  1.0
  C  C88  1  0.59487000  0.57036000  0.45900000  1.0
  C  C89  1  0.40513000  0.42964000  0.54100000  1.0
  C  C90  1  0.62936000  0.45324000  0.46617000  1.0
  C  C91  1  0.37065000  0.54677000  0.53383000  1.0
  N  N92  1  0.13391000  0.92101000  0.31330000  1.0
  N  N93  1  0.86609000  0.07899000  0.68670000  1.0
  N  N94  1  0.10386000  0.00071000  0.19317000  1.0
  N  N95  1  0.89614000  0.99929000  0.80683000  1.0
  N  N96  1  0.90750000  0.73070000  0.38130000  1.0
  N  N97  1  0.09250000  0.26930000  0.61870000  1.0
  N  N98  1  0.69310000  0.64223000  0.41697000  1.0
  N  N99  1  0.30690000  0.35777000  0.58304000  1.0
  O  O100  1  0.23418000  0.63968000  0.30245000  1.0
  O  O101  1  0.76583000  0.36032000  0.69755000  1.0
  O  O102  1  0.05014000  0.59746000  0.16174000  1.0
  O  O103  1  0.94987000  0.40254000  0.83826000  1.0
  O  O104  1  0.15263000  0.74718000  0.57019000  1.0
  O  O105  1  0.84736000  0.25282000  0.42981000  1.0
  O  O106  1  0.28017000  0.88744000  0.50883000  1.0
  O  O107  1  0.71983000  0.11255000  0.49117000  1.0
  O  O108  1  0.68689000  0.25751000  0.02279000  1.0
  O  O109  1  0.31311000  0.74249000  0.97721000  1.0
