# generated using pymatgen
data_CuH7C5(N2O)2
_symmetry_space_group_name_H-M   'P 1'
_cell_length_a   6.82105000
_cell_length_b   9.85574000
_cell_length_c   11.81760000
_cell_angle_alpha   89.99990000
_cell_angle_beta   81.54100000
_cell_angle_gamma   89.99960000
_symmetry_Int_Tables_number   1
_chemical_formula_structural   CuH7C5(N2O)2
_chemical_formula_sum   'Cu4 H28 C20 N16 O8'
_cell_volume   785.81324833
_cell_formula_units_Z   4
loop_
 _symmetry_equiv_pos_site_id
 _symmetry_equiv_pos_as_xyz
  1  'x, y, z'
loop_
 _atom_site_type_symbol
 _atom_site_label
 _atom_site_symmetry_multiplicity
 _atom_site_fract_x
 _atom_site_fract_y
 _atom_site_fract_z
 _atom_site_occupancy
  Cu  Cu0  1  0.18477000  0.00890000  0.61273000  1.0
  Cu  Cu1  1  0.31524000  0.50890000  0.88727000  1.0
  Cu  Cu2  1  0.81524000  0.99109000  0.38727000  1.0
  Cu  Cu3  1  0.68476000  0.49110000  0.11273000  1.0
  H  H4  1  0.25514000  0.20409000  0.79928000  1.0
  H  H5  1  0.24485000  0.70409000  0.70072000  1.0
  H  H6  1  0.74485000  0.79591000  0.20072000  1.0
  H  H7  1  0.75515000  0.29591000  0.29927000  1.0
  H  H8  1  0.64758000  0.66539000  0.47951000  1.0
  H  H9  1  0.85242000  0.16539000  0.02049000  1.0
  H  H10  1  0.35242000  0.33461000  0.52049000  1.0
  H  H11  1  0.14758000  0.83461000  0.97951000  1.0
  H  H12  1  0.57296000  0.65088000  0.63023000  1.0
  H  H13  1  0.92705000  0.15088000  0.86978000  1.0
  H  H14  1  0.42705000  0.34912000  0.36978000  1.0
  H  H15  1  0.07296000  0.84912000  0.13022000  1.0
  H  H16  1  0.79000000  0.74595000  0.57355000  1.0
  H  H17  1  0.71000000  0.24595000  0.92645000  1.0
  H  H18  1  0.21001000  0.25405000  0.42645000  1.0
  H  H19  1  0.29000000  0.75404000  0.07355000  1.0
  H  H20  1  0.41281000  0.94008000  0.81577000  1.0
  H  H21  1  0.08719000  0.44008000  0.68424000  1.0
  H  H22  1  0.58719000  0.05992000  0.18424000  1.0
  H  H23  1  0.91279000  0.55992000  0.31576000  1.0
  H  H24  1  0.37338000  0.06895000  0.92297000  1.0
  H  H25  1  0.12661000  0.56895000  0.57703000  1.0
  H  H26  1  0.62662000  0.93106000  0.07703000  1.0
  H  H27  1  0.87337000  0.43105000  0.42296000  1.0
  H  H28  1  0.58277000  0.07825000  0.81204000  1.0
  H  H29  1  0.91722000  0.57825000  0.68797000  1.0
  H  H30  1  0.41722000  0.92176000  0.18796000  1.0
  H  H31  1  0.08277000  0.42176000  0.31204000  1.0
  C  C32  1  0.51338000  0.84277000  0.56061000  1.0
  C  C33  1  0.98662000  0.34277000  0.93939000  1.0
  C  C34  1  0.48663000  0.15723000  0.43939000  1.0
  C  C35  1  0.01338000  0.65723000  0.06061000  1.0
  C  C36  1  0.63895000  0.71869000  0.56167000  1.0
  C  C37  1  0.86106000  0.21869000  0.93833000  1.0
  C  C38  1  0.36106000  0.28131000  0.43833000  1.0
  C  C39  1  0.13895000  0.78131000  0.06167000  1.0
  C  C40  1  0.87353000  0.86649000  0.79358000  1.0
  C  C41  1  0.62647000  0.36650000  0.70642000  1.0
  C  C42  1  0.12646000  0.13350000  0.20642000  1.0
  C  C43  1  0.37354000  0.63351000  0.29359000  1.0
  C  C44  1  0.62883000  0.73040000  0.89187000  1.0
  C  C45  1  0.87116000  0.23040000  0.60813000  1.0
  C  C46  1  0.37115000  0.26960000  0.10813000  1.0
  C  C47  1  0.12884000  0.76959000  0.39187000  1.0
  C  C48  1  0.42552000  0.04915000  0.83192000  1.0
  C  C49  1  0.07447000  0.54915000  0.66808000  1.0
  C  C50  1  0.57448000  0.95086000  0.16808000  1.0
  C  C51  1  0.92552000  0.45086000  0.33192000  1.0
  N  N52  1  0.57242000  0.94918000  0.49751000  1.0
  N  N53  1  0.92758000  0.44918000  0.00249000  1.0
  N  N54  1  0.42758000  0.05082000  0.50250000  1.0
  N  N55  1  0.07242000  0.55082000  0.99751000  1.0
  N  N56  1  0.97165000  0.92185000  0.71726000  1.0
  N  N57  1  0.52835000  0.42186000  0.78274000  1.0
  N  N58  1  0.02835000  0.07813000  0.28274000  1.0
  N  N59  1  0.47166000  0.57815000  0.21726000  1.0
  N  N60  1  0.77387000  0.81473000  0.88438000  1.0
  N  N61  1  0.72613000  0.31473000  0.61563000  1.0
  N  N62  1  0.22613000  0.18527000  0.11562000  1.0
  N  N63  1  0.27388000  0.68527000  0.38438000  1.0
  N  N64  1  0.49205000  0.65690000  0.91250000  1.0
  N  N65  1  0.00794000  0.15690000  0.58750000  1.0
  N  N66  1  0.50793000  0.34310000  0.08749000  1.0
  N  N67  1  0.99206000  0.84309000  0.41251000  1.0
  O  O68  1  0.34030000  0.84213000  0.62464000  1.0
  O  O69  1  0.15970000  0.34213000  0.87536000  1.0
  O  O70  1  0.65971000  0.15787000  0.37536000  1.0
  O  O71  1  0.84030000  0.65788000  0.12463000  1.0
  O  O72  1  0.30838000  0.11973000  0.76024000  1.0
  O  O73  1  0.19162000  0.61974000  0.73977000  1.0
  O  O74  1  0.69162000  0.88027000  0.23976000  1.0
  O  O75  1  0.80840000  0.38026000  0.26023000  1.0
