# generated using pymatgen
data_Ag2H6C6SN4O5
_symmetry_space_group_name_H-M   'P 1'
_cell_length_a   8.38935000
_cell_length_b   8.56128000
_cell_length_c   8.86114000
_cell_angle_alpha   88.28720000
_cell_angle_beta   74.29660000
_cell_angle_gamma   67.31720000
_symmetry_Int_Tables_number   1
_chemical_formula_structural   Ag2H6C6SN4O5
_chemical_formula_sum   'Ag4 H12 C12 S2 N8 O10'
_cell_volume   563.30425731
_cell_formula_units_Z   2
loop_
 _symmetry_equiv_pos_site_id
 _symmetry_equiv_pos_as_xyz
  1  'x, y, z'
loop_
 _atom_site_type_symbol
 _atom_site_label
 _atom_site_symmetry_multiplicity
 _atom_site_fract_x
 _atom_site_fract_y
 _atom_site_fract_z
 _atom_site_occupancy
  Ag  Ag0  1  0.07572000  0.20268000  0.92080000  1.0
  Ag  Ag1  1  0.92428000  0.79733000  0.07921000  1.0
  Ag  Ag2  1  0.68264000  0.57332000  0.14822000  1.0
  Ag  Ag3  1  0.31736000  0.42669000  0.85178000  1.0
  H  H4  1  0.50830000  0.94231000  0.17267000  1.0
  H  H5  1  0.49170000  0.05769000  0.82733000  1.0
  H  H6  1  0.42919000  0.86446000  0.06890000  1.0
  H  H7  1  0.57081000  0.13554000  0.93110000  1.0
  H  H8  1  0.11193000  0.08153000  0.56589000  1.0
  H  H9  1  0.88806000  0.91847000  0.43412000  1.0
  H  H10  1  0.30180000  0.55747000  0.49911000  1.0
  H  H11  1  0.69820000  0.44253000  0.50089000  1.0
  H  H12  1  0.08470000  0.09609000  0.26657000  1.0
  H  H13  1  0.91530000  0.90390000  0.73343000  1.0
  H  H14  1  0.28384000  0.56666000  0.19730000  1.0
  H  H15  1  0.71617000  0.43334000  0.80270000  1.0
  C  C16  1  0.14780000  0.19120000  0.54055000  1.0
  C  C17  1  0.85220000  0.80880000  0.45945000  1.0
  C  C18  1  0.16973000  0.25611000  0.39098000  1.0
  C  C19  1  0.83027000  0.74389000  0.60902000  1.0
  C  C20  1  0.22320000  0.39391000  0.37251000  1.0
  C  C21  1  0.77679000  0.60609000  0.62750000  1.0
  C  C22  1  0.25388000  0.45509000  0.50394000  1.0
  C  C23  1  0.74612000  0.54491000  0.49606000  1.0
  C  C24  1  0.13396000  0.19735000  0.26105000  1.0
  C  C25  1  0.86604000  0.80264000  0.73895000  1.0
  C  C26  1  0.24131000  0.46105000  0.22388000  1.0
  C  C27  1  0.75869000  0.53895000  0.77613000  1.0
  S  S28  1  0.69493000  0.19967000  0.15994000  1.0
  S  S29  1  0.30507000  0.80033000  0.84006000  1.0
  N  N30  1  0.16800000  0.26089000  0.66132000  1.0
  N  N31  1  0.83200000  0.73911000  0.33868000  1.0
  N  N32  1  0.22322000  0.39313000  0.64235000  1.0
  N  N33  1  0.77678000  0.60687000  0.35765000  1.0
  N  N34  1  0.14876000  0.26914000  0.12696000  1.0
  N  N35  1  0.85124000  0.73086000  0.87304000  1.0
  N  N36  1  0.20558000  0.40044000  0.10750000  1.0
  N  N37  1  0.79443000  0.59956000  0.89250000  1.0
  O  O38  1  0.59757000  0.35100000  0.27831000  1.0
  O  O39  1  0.40243000  0.64900000  0.72169000  1.0
  O  O40  1  0.76262000  0.25654000  0.00207000  1.0
  O  O41  1  0.23738000  0.74346000  0.99793000  1.0
  O  O42  1  0.56780000  0.12152000  0.14366000  1.0
  O  O43  1  0.43220000  0.87848000  0.85634000  1.0
  O  O44  1  0.84790000  0.07421000  0.21082000  1.0
  O  O45  1  0.15210000  0.92579000  0.78918000  1.0
  O  O46  1  0.45201000  0.85946000  0.17332000  1.0
  O  O47  1  0.54799000  0.14054000  0.82667000  1.0
