# generated using pymatgen
data_ZnH5C2N11O3
_symmetry_space_group_name_H-M   'P 1'
_cell_length_a   6.70862000
_cell_length_b   10.23080000
_cell_length_c   14.00200000
_cell_angle_alpha   90.00000000
_cell_angle_beta   102.16800000
_cell_angle_gamma   90.00000000
_symmetry_Int_Tables_number   1
_chemical_formula_structural   ZnH5C2N11O3
_chemical_formula_sum   'Zn4 H20 C8 N44 O12'
_cell_volume   939.43044203
_cell_formula_units_Z   4
loop_
 _symmetry_equiv_pos_site_id
 _symmetry_equiv_pos_as_xyz
  1  'x, y, z'
loop_
 _atom_site_type_symbol
 _atom_site_label
 _atom_site_symmetry_multiplicity
 _atom_site_fract_x
 _atom_site_fract_y
 _atom_site_fract_z
 _atom_site_occupancy
  Zn  Zn0  1  0.99080000  0.85939000  0.74180000  1.0
  Zn  Zn1  1  0.50920000  0.35939000  0.75820000  1.0
  Zn  Zn2  1  0.00920000  0.14061000  0.25820000  1.0
  Zn  Zn3  1  0.49080000  0.64061000  0.24180000  1.0
  H  H4  1  0.49007000  0.85458000  0.51142000  1.0
  H  H5  1  0.00993000  0.35458000  0.98858000  1.0
  H  H6  1  0.50993000  0.14542000  0.48858000  1.0
  H  H7  1  0.99007000  0.64542000  0.01142000  1.0
  H  H8  1  0.36884000  0.62529000  0.56347000  1.0
  H  H9  1  0.13116000  0.12529000  0.93653000  1.0
  H  H10  1  0.63116000  0.37471000  0.43653000  1.0
  H  H11  1  0.86884000  0.87471000  0.06347000  1.0
  H  H12  1  0.17702000  0.62282000  0.63445000  1.0
  H  H13  1  0.32298000  0.12282000  0.86555000  1.0
  H  H14  1  0.82298000  0.37718000  0.36555000  1.0
  H  H15  1  0.67702000  0.87718000  0.13445000  1.0
  H  H16  1  0.48458000  0.64436000  0.85002000  1.0
  H  H17  1  0.01543000  0.14436000  0.64998000  1.0
  H  H18  1  0.51542000  0.35564000  0.14998000  1.0
  H  H19  1  0.98458000  0.85564000  0.35002000  1.0
  H  H20  1  0.60345000  0.79295000  0.83132000  1.0
  H  H21  1  0.89655000  0.29295000  0.66868000  1.0
  H  H22  1  0.39655000  0.20705000  0.16868000  1.0
  H  H23  1  0.10345000  0.70705000  0.33132000  1.0
  C  C24  1  0.72017000  0.62964000  0.77963000  1.0
  C  C25  1  0.77983000  0.12964000  0.72037000  1.0
  C  C26  1  0.27983000  0.37036000  0.22038000  1.0
  C  C27  1  0.22017000  0.87036000  0.27963000  1.0
  C  C28  1  0.27672000  0.80107000  0.60019000  1.0
  C  C29  1  0.22328000  0.30107000  0.89980000  1.0
  C  C30  1  0.72328000  0.19893000  0.39980000  1.0
  C  C31  1  0.77672000  0.69893000  0.10019000  1.0
  N  N32  1  0.15769000  0.88313000  0.63976000  1.0
  N  N33  1  0.34231000  0.38313000  0.86024000  1.0
  N  N34  1  0.84231000  0.11687000  0.36024000  1.0
  N  N35  1  0.65769000  0.61687000  0.13976000  1.0
  N  N36  1  0.87561000  0.68172000  0.74383000  1.0
  N  N37  1  0.62439000  0.18172000  0.75617000  1.0
  N  N38  1  0.12439000  0.31828000  0.25617000  1.0
  N  N39  1  0.37561000  0.81828000  0.24383000  1.0
  N  N40  1  0.38810000  0.87917000  0.55340000  1.0
  N  N41  1  0.11190000  0.37917000  0.94659000  1.0
  N  N42  1  0.61190000  0.12083000  0.44659000  1.0
  N  N43  1  0.88810000  0.62083000  0.05341000  1.0
  N  N44  1  0.70852000  0.50062000  0.75629000  1.0
  N  N45  1  0.79148000  0.00062000  0.74371000  1.0
  N  N46  1  0.29148000  0.49938000  0.24371000  1.0
  N  N47  1  0.20852000  0.99938000  0.25629000  1.0
  N  N48  1  0.19944000  0.00713000  0.61424000  1.0
  N  N49  1  0.30056000  0.50713000  0.88576000  1.0
  N  N50  1  0.80056000  0.99287000  0.38576000  1.0
  N  N51  1  0.69944000  0.49287000  0.11424000  1.0
  N  N52  1  0.95851000  0.58232000  0.70031000  1.0
  N  N53  1  0.54149000  0.08232000  0.79969000  1.0
  N  N54  1  0.04149000  0.41768000  0.29969000  1.0
  N  N55  1  0.45851000  0.91768000  0.20031000  1.0
  N  N56  1  0.19087000  0.82857000  0.93895000  1.0
  N  N57  1  0.30913000  0.32857000  0.56105000  1.0
  N  N58  1  0.80913000  0.17143000  0.06105000  1.0
  N  N59  1  0.69087000  0.67144000  0.43895000  1.0
  N  N60  1  0.86093000  0.47588000  0.70754000  1.0
  N  N61  1  0.63907000  0.97588000  0.79246000  1.0
  N  N62  1  0.13907000  0.52412000  0.29246000  1.0
  N  N63  1  0.36093000  0.02412000  0.20754000  1.0
  N  N64  1  0.33629000  0.00602000  0.56247000  1.0
  N  N65  1  0.16371000  0.50602000  0.93753000  1.0
  N  N66  1  0.66371000  0.99398000  0.43753000  1.0
  N  N67  1  0.83629000  0.49398000  0.06247000  1.0
  N  N68  1  0.28796000  0.67170000  0.60731000  1.0
  N  N69  1  0.21204000  0.17170000  0.89269000  1.0
  N  N70  1  0.71204000  0.32830000  0.39269000  1.0
  N  N71  1  0.78796000  0.82830000  0.10731000  1.0
  N  N72  1  0.60463000  0.69260000  0.83152000  1.0
  N  N73  1  0.89537000  0.19260000  0.66848000  1.0
  N  N74  1  0.39537000  0.30740000  0.16848000  1.0
  N  N75  1  0.10463000  0.80740000  0.33152000  1.0
  O  O76  1  0.23846000  0.86034000  0.85622000  1.0
  O  O77  1  0.26154000  0.36034000  0.64378000  1.0
  O  O78  1  0.76154000  0.13966000  0.14378000  1.0
  O  O79  1  0.73846000  0.63966000  0.35622000  1.0
  O  O80  1  0.00569000  0.83970000  0.94517000  1.0
  O  O81  1  0.49431000  0.33971000  0.55483000  1.0
  O  O82  1  0.99431000  0.16029000  0.05483000  1.0
  O  O83  1  0.50569000  0.66030000  0.44517000  1.0
  O  O84  1  0.32568000  0.78814000  0.00678000  1.0
  O  O85  1  0.17432000  0.28815000  0.49322000  1.0
  O  O86  1  0.67432000  0.21185000  0.99322000  1.0
  O  O87  1  0.82568000  0.71186000  0.50678000  1.0
