# generated using pymatgen
data_Gd2H15(C10O9)2
_symmetry_space_group_name_H-M   'P 1'
_cell_length_a   7.41474000
_cell_length_b   11.44040000
_cell_length_c   15.92690000
_cell_angle_alpha   78.80300000
_cell_angle_beta   81.60030000
_cell_angle_gamma   80.84520000
_symmetry_Int_Tables_number   1
_chemical_formula_structural   Gd2H15(C10O9)2
_chemical_formula_sum   'Gd4 H30 C40 O36'
_cell_volume   1299.15515818
_cell_formula_units_Z   2
loop_
 _symmetry_equiv_pos_site_id
 _symmetry_equiv_pos_as_xyz
  1  'x, y, z'
loop_
 _atom_site_type_symbol
 _atom_site_label
 _atom_site_symmetry_multiplicity
 _atom_site_fract_x
 _atom_site_fract_y
 _atom_site_fract_z
 _atom_site_occupancy
  Gd  Gd0  1  0.94563000  0.05789000  0.77405000  1.0
  Gd  Gd1  1  0.05438000  0.94211000  0.22595000  1.0
  Gd  Gd2  1  0.45232000  0.26296000  0.76130000  1.0
  Gd  Gd3  1  0.54768000  0.73704000  0.23870000  1.0
  H  H4  1  0.99192000  0.21198000  0.94779000  1.0
  H  H5  1  0.00807000  0.78802000  0.05220000  1.0
  H  H6  1  0.58478000  0.73829000  0.98741000  1.0
  H  H7  1  0.41523000  0.26171000  0.01260000  1.0
  H  H8  1  0.85359000  0.24758000  0.57223000  1.0
  H  H9  1  0.14642000  0.75242000  0.42777000  1.0
  H  H10  1  0.80891000  0.86677000  0.61943000  1.0
  H  H11  1  0.19110000  0.13323000  0.38057000  1.0
  H  H12  1  0.28886000  0.97617000  0.65431000  1.0
  H  H13  1  0.71115000  0.02383000  0.34569000  1.0
  H  H14  1  0.16766000  0.87278000  0.66501000  1.0
  H  H15  1  0.83235000  0.12722000  0.33499000  1.0
  H  H16  1  0.77363000  0.81812000  0.85243000  1.0
  H  H17  1  0.22637000  0.18189000  0.14757000  1.0
  H  H18  1  0.94868000  0.82461000  0.89394000  1.0
  H  H19  1  0.05132000  0.17539000  0.10606000  1.0
  H  H20  1  0.63434000  0.45601000  0.66024000  1.0
  H  H21  1  0.36566000  0.54399000  0.33976000  1.0
  H  H22  1  0.61047000  0.38178000  0.59117000  1.0
  H  H23  1  0.38953000  0.61822000  0.40883000  1.0
  H  H24  1  0.86991000  0.38834000  0.11484000  1.0
  H  H25  1  0.13009000  0.61165000  0.88516000  1.0
  H  H26  1  0.65926000  0.55068000  0.82730000  1.0
  H  H27  1  0.34073000  0.44932000  0.17270000  1.0
  H  H28  1  0.24411000  0.49935000  0.59205000  1.0
  H  H29  1  0.75589000  0.50065000  0.40795000  1.0
  H  H30  1  0.41009000  0.19697000  0.54890000  1.0
  H  H31  1  0.58992000  0.80303000  0.45110000  1.0
  H  H32  1  0.18575000  0.94497000  0.03044000  1.0
  H  H33  1  0.81426000  0.05503000  0.96956000  1.0
  C  C34  1  0.80342000  0.39921000  0.90535000  1.0
  C  C35  1  0.19658000  0.60079000  0.09465000  1.0
  C  C36  1  0.87153000  0.35502000  0.98591000  1.0
  C  C37  1  0.12846000  0.64498000  0.01409000  1.0
  C  C38  1  0.82773000  0.42362000  0.05102000  1.0
  C  C39  1  0.17227000  0.57637000  0.94898000  1.0
  C  C40  1  0.73412000  0.54003000  0.03497000  1.0
  C  C41  1  0.26588000  0.45997000  0.96504000  1.0
  C  C42  1  0.68258000  0.58992000  0.95160000  1.0
  C  C43  1  0.31742000  0.41008000  0.04840000  1.0
  C  C44  1  0.71088000  0.51670000  0.88925000  1.0
  C  C45  1  0.28912000  0.48330000  0.11075000  1.0
  C  C46  1  0.81943000  0.31968000  0.84074000  1.0
  C  C47  1  0.18056000  0.68033000  0.15926000  1.0
  C  C48  1  0.68888000  0.60953000  0.10599000  1.0
  C  C49  1  0.31112000  0.39047000  0.89401000  1.0
  C  C50  1  0.90433000  0.40095000  0.51153000  1.0
  C  C51  1  0.09567000  0.59905000  0.48847000  1.0
  C  C52  1  0.04170000  0.40048000  0.56463000  1.0
  C  C53  1  0.95829000  0.59952000  0.43538000  1.0
  C  C54  1  0.13646000  0.50015000  0.55204000  1.0
  C  C55  1  0.86354000  0.49985000  0.44796000  1.0
  C  C56  1  0.08931000  0.29731000  0.63414000  1.0
  C  C57  1  0.91069000  0.70269000  0.36586000  1.0
  C  C58  1  0.63733000  0.91331000  0.53894000  1.0
  C  C59  1  0.36268000  0.08670000  0.46106000  1.0
  C  C60  1  0.44710000  0.11064000  0.52751000  1.0
  C  C61  1  0.55292000  0.88935000  0.47249000  1.0
  C  C62  1  0.58254000  0.02603000  0.56657000  1.0
  C  C63  1  0.41747000  0.97397000  0.43343000  1.0
  C  C64  1  0.67077000  0.05815000  0.63527000  1.0
  C  C65  1  0.32923000  0.94185000  0.36472000  1.0
  C  C66  1  0.32447000  0.96896000  0.01832000  1.0
  C  C67  1  0.67554000  0.03105000  0.98168000  1.0
  C  C68  1  0.57125000  0.04617000  0.91314000  1.0
  C  C69  1  0.42875000  0.95383000  0.08686000  1.0
  C  C70  1  0.39064000  0.01369000  0.93317000  1.0
  C  C71  1  0.60936000  0.98631000  0.06683000  1.0
  C  C72  1  0.26061000  0.02890000  0.86886000  1.0
  C  C73  1  0.73939000  0.97110000  0.13114000  1.0
  O  O74  1  0.93549000  0.22256000  0.84935000  1.0
  O  O75  1  0.06449000  0.77744000  0.15064000  1.0
  O  O76  1  0.71601000  0.34578000  0.78067000  1.0
  O  O77  1  0.28398000  0.65423000  0.21933000  1.0
  O  O78  1  0.72076000  0.56436000  0.18269000  1.0
  O  O79  1  0.27924000  0.43563000  0.81732000  1.0
  O  O80  1  0.60954000  0.72000000  0.08888000  1.0
  O  O81  1  0.39046000  0.28000000  0.91112000  1.0
  O  O82  1  0.97724000  0.24636000  0.00215000  1.0
  O  O83  1  0.02275000  0.75364000  0.99785000  1.0
  O  O84  1  0.60316000  0.70636000  0.93138000  1.0
  O  O85  1  0.39684000  0.29365000  0.06863000  1.0
  O  O86  1  0.99731000  0.20676000  0.64797000  1.0
  O  O87  1  0.00269000  0.79323000  0.35202000  1.0
  O  O88  1  0.21760000  0.30268000  0.67634000  1.0
  O  O89  1  0.78240000  0.69732000  0.32366000  1.0
  O  O90  1  0.80256000  0.30790000  0.52360000  1.0
  O  O91  1  0.19745000  0.69210000  0.47640000  1.0
  O  O92  1  0.61778000  0.15977000  0.65765000  1.0
  O  O93  1  0.38221000  0.84023000  0.34235000  1.0
  O  O94  1  0.80135000  0.98359000  0.66861000  1.0
  O  O95  1  0.19866000  0.01643000  0.33139000  1.0
  O  O96  1  0.76701000  0.82934000  0.57487000  1.0
  O  O97  1  0.23300000  0.17066000  0.42513000  1.0
  O  O98  1  0.28453000  0.09631000  0.79419000  1.0
  O  O99  1  0.71547000  0.90368000  0.20581000  1.0
  O  O100  1  0.11520000  0.97804000  0.88864000  1.0
  O  O101  1  0.88481000  0.02195000  0.11136000  1.0
  O  O102  1  0.64051000  0.09227000  0.83252000  1.0
  O  O103  1  0.35950000  0.90773000  0.16747000  1.0
  O  O104  1  0.19286000  0.93623000  0.69260000  1.0
  O  O105  1  0.80715000  0.06377000  0.30740000  1.0
  O  O106  1  0.88931000  0.85319000  0.84036000  1.0
  O  O107  1  0.11069000  0.14681000  0.15964000  1.0
  O  O108  1  0.54211000  0.42102000  0.63876000  1.0
  O  O109  1  0.45789000  0.57897000  0.36124000  1.0
