# generated using pymatgen
data_CoH14C18N2O5
_symmetry_space_group_name_H-M   'P 1'
_cell_length_a   8.29519000
_cell_length_b   10.93520000
_cell_length_c   11.30560000
_cell_angle_alpha   63.72600000
_cell_angle_beta   89.82670000
_cell_angle_gamma   89.89350000
_symmetry_Int_Tables_number   1
_chemical_formula_structural   CoH14C18N2O5
_chemical_formula_sum   'Co2 H28 C36 N4 O10'
_cell_volume   919.57189746
_cell_formula_units_Z   2
loop_
 _symmetry_equiv_pos_site_id
 _symmetry_equiv_pos_as_xyz
  1  'x, y, z'
loop_
 _atom_site_type_symbol
 _atom_site_label
 _atom_site_symmetry_multiplicity
 _atom_site_fract_x
 _atom_site_fract_y
 _atom_site_fract_z
 _atom_site_occupancy
  Co  Co0  1  0.49257000  0.35656000  0.58758000  1.0
  Co  Co1  1  0.99700000  0.64374000  0.41234000  1.0
  H  H2  1  0.35681000  0.95365000  0.53141000  1.0
  H  H3  1  0.85173000  0.04806000  0.46791000  1.0
  H  H4  1  0.22949000  0.99823000  0.31606000  1.0
  H  H5  1  0.72461000  0.00097000  0.68488000  1.0
  H  H6  1  0.04324000  0.19329000  0.20790000  1.0
  H  H7  1  0.54218000  0.80342000  0.79387000  1.0
  H  H8  1  0.00030000  0.35372000  0.30792000  1.0
  H  H9  1  0.50002000  0.64483000  0.69207000  1.0
  H  H10  1  0.61545000  0.18411000  0.47057000  1.0
  H  H11  1  0.11856000  0.81747000  0.52949000  1.0
  H  H12  1  0.62343000  0.16678000  0.26044000  1.0
  H  H13  1  0.12256000  0.83406000  0.73966000  1.0
  H  H14  1  0.40032000  0.56718000  0.07925000  1.0
  H  H15  1  0.90006000  0.43346000  0.91909000  1.0
  H  H16  1  0.40674000  0.56751000  0.29780000  1.0
  H  H17  1  0.91185000  0.43335000  0.70052000  1.0
  H  H18  1  0.67773000  0.20736000  0.84802000  1.0
  H  H19  1  0.17805000  0.79108000  0.15173000  1.0
  H  H20  1  0.69581000  0.20853000  0.06550000  1.0
  H  H21  1  0.19463000  0.79118000  0.93352000  1.0
  H  H22  1  0.29193000  0.48957000  0.94690000  1.0
  H  H23  1  0.79105000  0.51015000  0.05409000  1.0
  H  H24  1  0.29131000  0.47344000  0.73428000  1.0
  H  H25  1  0.79097000  0.52622000  0.26705000  1.0
  H  H26  1  0.83594000  0.35527000  0.55010000  1.0
  H  H27  1  0.33932000  0.64361000  0.44801000  1.0
  H  H28  1  0.75790000  0.21044000  0.63866000  1.0
  H  H29  1  0.25939000  0.78898000  0.36925000  1.0
  C  C30  1  0.25548000  0.13120000  0.53880000  1.0
  C  C31  1  0.75253000  0.87014000  0.46039000  1.0
  C  C32  1  0.27861000  0.04198000  0.48131000  1.0
  C  C33  1  0.77468000  0.95894000  0.51834000  1.0
  C  C34  1  0.20721000  0.06605000  0.36167000  1.0
  C  C35  1  0.70386000  0.93327000  0.63896000  1.0
  C  C36  1  0.10383000  0.17712000  0.29908000  1.0
  C  C37  1  0.60227000  0.82101000  0.70186000  1.0
  C  C38  1  0.07844000  0.26539000  0.35573000  1.0
  C  C39  1  0.57775000  0.73341000  0.64440000  1.0
  C  C40  1  0.15646000  0.24682000  0.47290000  1.0
  C  C41  1  0.65535000  0.75340000  0.52632000  1.0
  C  C42  1  0.33854000  0.08930000  0.67073000  1.0
  C  C43  1  0.83864000  0.91137000  0.32949000  1.0
  C  C44  1  0.13757000  0.35877000  0.51400000  1.0
  C  C45  1  0.63888000  0.64175000  0.48443000  1.0
  C  C46  1  0.57236000  0.26830000  0.38069000  1.0
  C  C47  1  0.07544000  0.73272000  0.61903000  1.0
  C  C48  1  0.57455000  0.25871000  0.26251000  1.0
  C  C49  1  0.07493000  0.74205000  0.73731000  1.0
  C  C50  1  0.50792000  0.36498000  0.14984000  1.0
  C  C51  1  0.00765000  0.63546000  0.84965000  1.0
  C  C52  1  0.44915000  0.47893000  0.16328000  1.0
  C  C53  1  0.95020000  0.52168000  0.83562000  1.0
  C  C54  1  0.45291000  0.48054000  0.28542000  1.0
  C  C55  1  0.95705000  0.52015000  0.71346000  1.0
  C  C56  1  0.59585000  0.27011000  0.87314000  1.0
  C  C57  1  0.09528000  0.72925000  0.12649000  1.0
  C  C58  1  0.60588000  0.27240000  0.99481000  1.0
  C  C59  1  0.10471000  0.72739000  0.00458000  1.0
  C  C60  1  0.49942000  0.35559000  0.02401000  1.0
  C  C61  1  0.99817000  0.64443000  0.97575000  1.0
  C  C62  1  0.38281000  0.42789000  0.92869000  1.0
  C  C63  1  0.88184000  0.57192000  0.07180000  1.0
  C  C64  1  0.38098000  0.41935000  0.80975000  1.0
  C  C65  1  0.88023000  0.58028000  0.19090000  1.0
  N  N66  1  0.51084000  0.37547000  0.39449000  1.0
  N  N67  1  0.01653000  0.62521000  0.60481000  1.0
  N  N68  1  0.48822000  0.34449000  0.77988000  1.0
  N  N69  1  0.98761000  0.65500000  0.22021000  1.0
  O  O70  1  0.28228000  0.98853000  0.76698000  1.0
  O  O71  1  0.78599000  0.01196000  0.23140000  1.0
  O  O72  1  0.46970000  0.15215000  0.67359000  1.0
  O  O73  1  0.97037000  0.84638000  0.33259000  1.0
  O  O74  1  0.24782000  0.38558000  0.57575000  1.0
  O  O75  1  0.74941000  0.61580000  0.42184000  1.0
  O  O76  1  0.00680000  0.43057000  0.47786000  1.0
  O  O77  1  0.50922000  0.56874000  0.52077000  1.0
  O  O78  1  0.74925000  0.30688000  0.61648000  1.0
  O  O79  1  0.25333000  0.69500000  0.38234000  1.0
