# generated using pymatgen
data_CuH2CN2Cl
_symmetry_space_group_name_H-M   'P 1'
_cell_length_a   3.66808000
_cell_length_b   15.91230000
_cell_length_c   17.29200000
_cell_angle_alpha   89.99980000
_cell_angle_beta   89.99970000
_cell_angle_gamma   89.99920000
_symmetry_Int_Tables_number   1
_chemical_formula_structural   CuH2CN2Cl
_chemical_formula_sum   'Cu12 H24 C12 N24 Cl12'
_cell_volume   1009.29235551
_cell_formula_units_Z   12
loop_
 _symmetry_equiv_pos_site_id
 _symmetry_equiv_pos_as_xyz
  1  'x, y, z'
loop_
 _atom_site_type_symbol
 _atom_site_label
 _atom_site_symmetry_multiplicity
 _atom_site_fract_x
 _atom_site_fract_y
 _atom_site_fract_z
 _atom_site_occupancy
  Cu  Cu0  1  0.90280000  0.85216000  0.19307000  1.0
  Cu  Cu1  1  0.09721000  0.35216000  0.80693000  1.0
  Cu  Cu2  1  0.59721000  0.85216000  0.69307000  1.0
  Cu  Cu3  1  0.40278000  0.35216000  0.30693000  1.0
  Cu  Cu4  1  0.22527000  0.83833000  0.00115000  1.0
  Cu  Cu5  1  0.77473000  0.33833000  0.99885000  1.0
  Cu  Cu6  1  0.27474000  0.83832000  0.50115000  1.0
  Cu  Cu7  1  0.72527000  0.33832000  0.49885000  1.0
  Cu  Cu8  1  0.43849000  0.65043000  0.10926000  1.0
  Cu  Cu9  1  0.56150000  0.15043000  0.89074000  1.0
  Cu  Cu10  1  0.06152000  0.65043000  0.60926000  1.0
  Cu  Cu11  1  0.93850000  0.15043000  0.39074000  1.0
  H  H12  1  0.59547000  0.75806000  0.28984000  1.0
  H  H13  1  0.40455000  0.25805000  0.71017000  1.0
  H  H14  1  0.90455000  0.75806000  0.78984000  1.0
  H  H15  1  0.09545000  0.25806000  0.21016000  1.0
  H  H16  1  0.40174000  0.75393000  0.38397000  1.0
  H  H17  1  0.59827000  0.25393000  0.61604000  1.0
  H  H18  1  0.09826000  0.75394000  0.88397000  1.0
  H  H19  1  0.90172000  0.25392000  0.11603000  1.0
  H  H20  1  0.16236000  0.08919000  0.26458000  1.0
  H  H21  1  0.83767000  0.58918000  0.73542000  1.0
  H  H22  1  0.33764000  0.08919000  0.76458000  1.0
  H  H23  1  0.66234000  0.58919000  0.23541000  1.0
  H  H24  1  0.15072000  0.99871000  0.20501000  1.0
  H  H25  1  0.84927000  0.49870000  0.79500000  1.0
  H  H26  1  0.34927000  0.99871000  0.70501000  1.0
  H  H27  1  0.65068000  0.49871000  0.29498000  1.0
  H  H28  1  0.41731000  0.99102000  0.53835000  1.0
  H  H29  1  0.58272000  0.49102000  0.46164000  1.0
  H  H30  1  0.08271000  0.99102000  0.03835000  1.0
  H  H31  1  0.91728000  0.49102000  0.96164000  1.0
  H  H32  1  0.62570000  0.08461000  0.50381000  1.0
  H  H33  1  0.37432000  0.58461000  0.49619000  1.0
  H  H34  1  0.87430000  0.08461000  0.00381000  1.0
  H  H35  1  0.12569000  0.58461000  0.99618000  1.0
  C  C36  1  0.88956000  0.98841000  0.30823000  1.0
  C  C37  1  0.11045000  0.48841000  0.69177000  1.0
  C  C38  1  0.61045000  0.98842000  0.80824000  1.0
  C  C39  1  0.38954000  0.48841000  0.19177000  1.0
  C  C40  1  0.62140000  0.86634000  0.35216000  1.0
  C  C41  1  0.37861000  0.36634000  0.64784000  1.0
  C  C42  1  0.87859000  0.86634000  0.85216000  1.0
  C  C43  1  0.12141000  0.36634000  0.14784000  1.0
  C  C44  1  0.63628000  0.98452000  0.43024000  1.0
  C  C45  1  0.36371000  0.48453000  0.56977000  1.0
  C  C46  1  0.86373000  0.98452000  0.93024000  1.0
  C  C47  1  0.13628000  0.48452000  0.06976000  1.0
  N  N48  1  0.81555000  0.02929000  0.37518000  1.0
  N  N49  1  0.18447000  0.52928000  0.62482000  1.0
  N  N50  1  0.68445000  0.02929000  0.87518000  1.0
  N  N51  1  0.31553000  0.52929000  0.12480000  1.0
  N  N52  1  0.52393000  0.78683000  0.34039000  1.0
  N  N53  1  0.47606000  0.28683000  0.65961000  1.0
  N  N54  1  0.97606000  0.78683000  0.84038000  1.0
  N  N55  1  0.02393000  0.28683000  0.15962000  1.0
  N  N56  1  0.79836000  0.90723000  0.29423000  1.0
  N  N57  1  0.20164000  0.40722000  0.70577000  1.0
  N  N58  1  0.70166000  0.90723000  0.79424000  1.0
  N  N59  1  0.29835000  0.40723000  0.20576000  1.0
  N  N60  1  0.53523000  0.90264000  0.42120000  1.0
  N  N61  1  0.46478000  0.40264000  0.57880000  1.0
  N  N62  1  0.96479000  0.90265000  0.92121000  1.0
  N  N63  1  0.03519000  0.40264000  0.07879000  1.0
  N  N64  1  0.05898000  0.03113000  0.25205000  1.0
  N  N65  1  0.94103000  0.53113000  0.74795000  1.0
  N  N66  1  0.44103000  0.03112000  0.75205000  1.0
  N  N67  1  0.55897000  0.53112000  0.24795000  1.0
  N  N68  1  0.55496000  0.02300000  0.49632000  1.0
  N  N69  1  0.44506000  0.52300000  0.50368000  1.0
  N  N70  1  0.94506000  0.02300000  0.99633000  1.0
  N  N71  1  0.05494000  0.52300000  0.00368000  1.0
  Cl  Cl72  1  0.91012000  0.70845000  0.18290000  1.0
  Cl  Cl73  1  0.08988000  0.20845000  0.81710000  1.0
  Cl  Cl74  1  0.58989000  0.70845000  0.68290000  1.0
  Cl  Cl75  1  0.41013000  0.20845000  0.31710000  1.0
  Cl  Cl76  1  0.37892000  0.90055000  0.11615000  1.0
  Cl  Cl77  1  0.62109000  0.40054000  0.88385000  1.0
  Cl  Cl78  1  0.12110000  0.90054000  0.61615000  1.0
  Cl  Cl79  1  0.87891000  0.40055000  0.38385000  1.0
  Cl  Cl80  1  0.46068000  0.70906000  0.98906000  1.0
  Cl  Cl81  1  0.53932000  0.20905000  0.01094000  1.0
  Cl  Cl82  1  0.03933000  0.70905000  0.48906000  1.0
  Cl  Cl83  1  0.96068000  0.20906000  0.51094000  1.0
