# generated using pymatgen
data_CdH16C22(NO2)2
_symmetry_space_group_name_H-M   'P 1'
_cell_length_a   7.36723000
_cell_length_b   10.21020000
_cell_length_c   12.96770000
_cell_angle_alpha   85.03780000
_cell_angle_beta   77.44640000
_cell_angle_gamma   73.99100000
_symmetry_Int_Tables_number   1
_chemical_formula_structural   CdH16C22(NO2)2
_chemical_formula_sum   'Cd2 H32 C44 N4 O8'
_cell_volume   914.83069114
_cell_formula_units_Z   2
loop_
 _symmetry_equiv_pos_site_id
 _symmetry_equiv_pos_as_xyz
  1  'x, y, z'
loop_
 _atom_site_type_symbol
 _atom_site_label
 _atom_site_symmetry_multiplicity
 _atom_site_fract_x
 _atom_site_fract_y
 _atom_site_fract_z
 _atom_site_occupancy
  Cd  Cd0  1  0.25024000  0.95567000  0.51539000  1.0
  Cd  Cd1  1  0.74976000  0.04433000  0.48461000  1.0
  H  H2  1  0.44515000  0.92444000  0.27677000  1.0
  H  H3  1  0.55485000  0.07556000  0.72323000  1.0
  H  H4  1  0.61600000  0.75106000  0.14295000  1.0
  H  H5  1  0.38399000  0.24894000  0.85705000  1.0
  H  H6  1  0.46930000  0.44554000  0.37312000  1.0
  H  H7  1  0.53069000  0.55446000  0.62688000  1.0
  H  H8  1  0.29871000  0.63473000  0.49914000  1.0
  H  H9  1  0.70128000  0.36527000  0.50086000  1.0
  H  H10  1  0.66282000  0.36963000  0.20305000  1.0
  H  H11  1  0.33718000  0.63038000  0.79695000  1.0
  H  H12  1  0.69340000  0.59917000  0.03254000  1.0
  H  H13  1  0.30660000  0.40083000  0.96746000  1.0
  H  H14  1  0.81587000  0.28460000  0.02054000  1.0
  H  H15  1  0.18413000  0.71540000  0.97946000  1.0
  H  H16  1  0.84351000  0.52148000  0.85795000  1.0
  H  H17  1  0.15650000  0.47852000  0.14205000  1.0
  H  H18  1  0.01564000  0.46170000  0.68089000  1.0
  H  H19  1  0.98436000  0.53830000  0.31911000  1.0
  H  H20  1  0.17252000  0.28568000  0.54476000  1.0
  H  H21  1  0.82748000  0.71431000  0.45524000  1.0
  H  H22  1  0.07004000  0.97457000  0.75570000  1.0
  H  H23  1  0.92997000  0.02543000  0.24431000  1.0
  H  H24  1  0.90882000  0.13335000  0.90156000  1.0
  H  H25  1  0.09118000  0.86665000  0.09845000  1.0
  H  H26  1  0.02907000  0.77876000  0.82385000  1.0
  H  H27  1  0.97094000  0.22124000  0.17614000  1.0
  H  H28  1  0.81776000  0.82330000  0.00225000  1.0
  H  H29  1  0.18224000  0.17669000  0.99775000  1.0
  H  H30  1  0.46007000  0.86774000  0.02261000  1.0
  H  H31  1  0.53994000  0.13225000  0.97738000  1.0
  H  H32  1  0.32199000  0.86565000  0.86373000  1.0
  H  H33  1  0.67801000  0.13434000  0.13627000  1.0
  C  C34  1  0.45333000  0.81716000  0.29512000  1.0
  C  C35  1  0.54666000  0.18283000  0.70488000  1.0
  C  C36  1  0.54669000  0.71958000  0.22021000  1.0
  C  C37  1  0.45331000  0.28042000  0.77979000  1.0
  C  C38  1  0.55541000  0.58128000  0.24535000  1.0
  C  C39  1  0.44459000  0.41872000  0.75465000  1.0
  C  C40  1  0.46672000  0.55077000  0.34879000  1.0
  C  C41  1  0.53327000  0.44923000  0.65121000  1.0
  C  C42  1  0.37518000  0.65464000  0.41983000  1.0
  C  C43  1  0.62481000  0.34536000  0.58017000  1.0
  C  C44  1  0.64844000  0.47353000  0.17022000  1.0
  C  C45  1  0.35156000  0.52647000  0.82978000  1.0
  C  C46  1  0.71147000  0.49521000  0.06522000  1.0
  C  C47  1  0.28853000  0.50479000  0.93478000  1.0
  C  C48  1  0.79919000  0.38966000  0.99029000  1.0
  C  C49  1  0.20081000  0.61033000  0.00971000  1.0
  C  C50  1  0.86026000  0.41530000  0.88564000  1.0
  C  C51  1  0.13974000  0.58470000  0.11436000  1.0
  C  C52  1  0.95019000  0.31370000  0.80528000  1.0
  C  C53  1  0.04982000  0.68629000  0.19472000  1.0
  C  C54  1  0.02538000  0.35426000  0.70181000  1.0
  C  C55  1  0.97462000  0.64574000  0.29819000  1.0
  C  C56  1  0.11379000  0.25666000  0.62524000  1.0
  C  C57  1  0.88621000  0.74333000  0.37476000  1.0
  C  C58  1  0.05681000  0.08312000  0.74357000  1.0
  C  C59  1  0.94319000  0.91687000  0.25643000  1.0
  C  C60  1  0.96769000  0.17314000  0.82457000  1.0
  C  C61  1  0.03232000  0.82685000  0.17543000  1.0
  C  C62  1  0.59415000  0.82863000  0.75528000  1.0
  C  C63  1  0.40585000  0.17137000  0.24472000  1.0
  C  C64  1  0.79459000  0.80661000  0.74333000  1.0
  C  C65  1  0.20541000  0.19340000  0.25666000  1.0
  C  C66  1  0.87287000  0.80125000  0.83365000  1.0
  C  C67  1  0.12713000  0.19875000  0.16635000  1.0
  C  C68  1  0.75425000  0.82456000  0.93342000  1.0
  C  C69  1  0.24575000  0.17543000  0.06658000  1.0
  C  C70  1  0.55456000  0.84857000  0.94517000  1.0
  C  C71  1  0.44544000  0.15143000  0.05483000  1.0
  C  C72  1  0.47696000  0.84783000  0.85674000  1.0
  C  C73  1  0.52305000  0.15217000  0.14325000  1.0
  C  C74  1  0.93397000  0.78642000  0.63791000  1.0
  C  C75  1  0.06602000  0.21359000  0.36208000  1.0
  C  C76  1  0.49468000  0.83999000  0.66404000  1.0
  C  C77  1  0.50532000  0.16001000  0.33595000  1.0
  N  N78  1  0.36878000  0.78638000  0.39383000  1.0
  N  N79  1  0.63122000  0.21362000  0.60617000  1.0
  N  N80  1  0.13060000  0.12268000  0.64512000  1.0
  N  N81  1  0.86940000  0.87731000  0.35489000  1.0
  O  O82  1  0.33891000  0.80485000  0.67942000  1.0
  O  O83  1  0.66109000  0.19515000  0.32058000  1.0
  O  O84  1  0.56399000  0.89134000  0.57525000  1.0
  O  O85  1  0.43601000  0.10866000  0.42475000  1.0
  O  O86  1  0.96062000  0.89804000  0.58919000  1.0
  O  O87  1  0.03937000  0.10197000  0.41081000  1.0
  O  O88  1  0.01738000  0.66788000  0.60955000  1.0
  O  O89  1  0.98260000  0.33213000  0.39044000  1.0
