# generated using pymatgen
data_ZnH13C20N3O4
_symmetry_space_group_name_H-M   'P 1'
_cell_length_a   8.10582000
_cell_length_b   9.17717000
_cell_length_c   13.40140000
_cell_angle_alpha   92.14360000
_cell_angle_beta   106.38800000
_cell_angle_gamma   113.91400000
_symmetry_Int_Tables_number   1
_chemical_formula_structural   ZnH13C20N3O4
_chemical_formula_sum   'Zn2 H26 C40 N6 O8'
_cell_volume   861.11381291
_cell_formula_units_Z   2
loop_
 _symmetry_equiv_pos_site_id
 _symmetry_equiv_pos_as_xyz
  1  'x, y, z'
loop_
 _atom_site_type_symbol
 _atom_site_label
 _atom_site_symmetry_multiplicity
 _atom_site_fract_x
 _atom_site_fract_y
 _atom_site_fract_z
 _atom_site_occupancy
  Zn  Zn0  1  0.38001000  0.45458000  0.33685000  1.0
  Zn  Zn1  1  0.61999000  0.54542000  0.66315000  1.0
  H  H2  1  0.58256000  0.96222000  0.61579000  1.0
  H  H3  1  0.41744000  0.03778000  0.38421000  1.0
  H  H4  1  0.45948000  0.15171000  0.67399000  1.0
  H  H5  1  0.54051000  0.84829000  0.32600000  1.0
  H  H6  1  0.11476000  0.06126000  0.63429000  1.0
  H  H7  1  0.88523000  0.93873000  0.36571000  1.0
  H  H8  1  0.88555000  0.77707000  0.54050000  1.0
  H  H9  1  0.11445000  0.22293000  0.45950000  1.0
  H  H10  1  0.96458000  0.72502000  0.33348000  1.0
  H  H11  1  0.03542000  0.27498000  0.66652000  1.0
  H  H12  1  0.24839000  0.82672000  0.27438000  1.0
  H  H13  1  0.75161000  0.17328000  0.72562000  1.0
  H  H14  1  0.21370000  0.76225000  0.08531000  1.0
  H  H15  1  0.78630000  0.23775000  0.91469000  1.0
  H  H16  1  0.88574000  0.60028000  0.95450000  1.0
  H  H17  1  0.11425000  0.39972000  0.04550000  1.0
  H  H18  1  0.99597000  0.44026000  0.27354000  1.0
  H  H19  1  0.00403000  0.55974000  0.72646000  1.0
  H  H20  1  0.67134000  0.26372000  0.15421000  1.0
  H  H21  1  0.32866000  0.73628000  0.84579000  1.0
  H  H22  1  0.89688000  0.93614000  0.07360000  1.0
  H  H23  1  0.10312000  0.06386000  0.92640000  1.0
  H  H24  1  0.21680000  0.13344000  0.19578000  1.0
  H  H25  1  0.78320000  0.86656000  0.80422000  1.0
  H  H26  1  0.55810000  0.86057000  0.99003000  1.0
  H  H27  1  0.44190000  0.13943000  0.00997000  1.0
  C  C28  1  0.38710000  0.66848000  0.50433000  1.0
  C  C29  1  0.61290000  0.33153000  0.49567000  1.0
  C  C30  1  0.30630000  0.76492000  0.55016000  1.0
  C  C31  1  0.69370000  0.23508000  0.44984000  1.0
  C  C32  1  0.43085000  0.92263000  0.60301000  1.0
  C  C33  1  0.56915000  0.07737000  0.39699000  1.0
  C  C34  1  0.36273000  0.02794000  0.63442000  1.0
  C  C35  1  0.63727000  0.97206000  0.36558000  1.0
  C  C36  1  0.16675000  0.97728000  0.61132000  1.0
  C  C37  1  0.83325000  0.02271000  0.38868000  1.0
  C  C38  1  0.03936000  0.82055000  0.55892000  1.0
  C  C39  1  0.96064000  0.17945000  0.44108000  1.0
  C  C40  1  0.10853000  0.71262000  0.53179000  1.0
  C  C41  1  0.89147000  0.28738000  0.46821000  1.0
  C  C42  1  0.60571000  0.52356000  0.22203000  1.0
  C  C43  1  0.39429000  0.47644000  0.77797000  1.0
  C  C44  1  0.76530000  0.60844000  0.17875000  1.0
  C  C45  1  0.23471000  0.39156000  0.82125000  1.0
  C  C46  1  0.94772000  0.70258000  0.25002000  1.0
  C  C47  1  0.05228000  0.29742000  0.74998000  1.0
  C  C48  1  0.10761000  0.75887000  0.21655000  1.0
  C  C49  1  0.89239000  0.24113000  0.78345000  1.0
  C  C50  1  0.08818000  0.72159000  0.11068000  1.0
  C  C51  1  0.91182000  0.27840000  0.88932000  1.0
  C  C52  1  0.90696000  0.63071000  0.03787000  1.0
  C  C53  1  0.09303000  0.36929000  0.96212000  1.0
  C  C54  1  0.74558000  0.57760000  0.07067000  1.0
  C  C55  1  0.25441000  0.42240000  0.92933000  1.0
  C  C56  1  0.96756000  0.32874000  0.22592000  1.0
  C  C57  1  0.03244000  0.67126000  0.77409000  1.0
  C  C58  1  0.78661000  0.22906000  0.15768000  1.0
  C  C59  1  0.21339000  0.77093000  0.84232000  1.0
  C  C60  1  0.75597000  0.08553000  0.09802000  1.0
  C  C61  1  0.24404000  0.91447000  0.90198000  1.0
  C  C62  1  0.91280000  0.04790000  0.11523000  1.0
  C  C63  1  0.08721000  0.95211000  0.88477000  1.0
  C  C64  1  0.09075000  0.15537000  0.18383000  1.0
  C  C65  1  0.90925000  0.84463000  0.81617000  1.0
  C  C66  1  0.57284000  0.97945000  0.01952000  1.0
  C  C67  1  0.42717000  0.02055000  0.98048000  1.0
  N  N68  1  0.97053000  0.55300000  0.48771000  1.0
  N  N69  1  0.02947000  0.44699000  0.51229000  1.0
  N  N70  1  0.56830000  0.49167000  0.99084000  1.0
  N  N71  1  0.43170000  0.50834000  0.00916000  1.0
  N  N72  1  0.11912000  0.29529000  0.23775000  1.0
  N  N73  1  0.88088000  0.70471000  0.76225000  1.0
  O  O74  1  0.30024000  0.59930000  0.40815000  1.0
  O  O75  1  0.69976000  0.40069000  0.59185000  1.0
  O  O76  1  0.54715000  0.67429000  0.55901000  1.0
  O  O77  1  0.45285000  0.32571000  0.44099000  1.0
  O  O78  1  0.51519000  0.37211000  0.20041000  1.0
  O  O79  1  0.48481000  0.62789000  0.79959000  1.0
  O  O80  1  0.58030000  0.61227000  0.28817000  1.0
  O  O81  1  0.41970000  0.38774000  0.71183000  1.0
