# generated using pymatgen
data_ZnH16PdC24(NO2)4
_symmetry_space_group_name_H-M   'P 1'
_cell_length_a   11.90810000
_cell_length_b   11.90820000
_cell_length_c   26.55970000
_cell_angle_alpha   89.99970000
_cell_angle_beta   89.99970000
_cell_angle_gamma   92.34040000
_symmetry_Int_Tables_number   1
_chemical_formula_structural   ZnH16PdC24(NO2)4
_chemical_formula_sum   'Zn4 H64 Pd4 C96 N16 O32'
_cell_volume   3763.13102692
_cell_formula_units_Z   4
loop_
 _symmetry_equiv_pos_site_id
 _symmetry_equiv_pos_as_xyz
  1  'x, y, z'
loop_
 _atom_site_type_symbol
 _atom_site_label
 _atom_site_symmetry_multiplicity
 _atom_site_fract_x
 _atom_site_fract_y
 _atom_site_fract_z
 _atom_site_occupancy
  Zn  Zn0  1  0.74999000  0.75000000  0.16197000  1.0
  Zn  Zn1  1  0.25001000  0.25000000  0.33804000  1.0
  Zn  Zn2  1  0.25001000  0.25000000  0.83803000  1.0
  Zn  Zn3  1  0.75000000  0.75000000  0.66196000  1.0
  H  H4  1  0.13544000  0.60032000  0.83428000  1.0
  H  H5  1  0.36457000  0.89968000  0.83428000  1.0
  H  H6  1  0.10032000  0.63543000  0.66572000  1.0
  H  H7  1  0.39967000  0.86456000  0.66572000  1.0
  H  H8  1  0.86457000  0.39968000  0.16572000  1.0
  H  H9  1  0.63544000  0.10031000  0.16572000  1.0
  H  H10  1  0.89968000  0.36456000  0.33428000  1.0
  H  H11  1  0.60032000  0.13543000  0.33428000  1.0
  H  H12  1  0.99336000  0.62202000  0.76480000  1.0
  H  H13  1  0.50664000  0.87796000  0.76480000  1.0
  H  H14  1  0.12205000  0.49335000  0.73520000  1.0
  H  H15  1  0.37797000  0.00664000  0.73520000  1.0
  H  H16  1  0.00665000  0.37798000  0.23520000  1.0
  H  H17  1  0.49336000  0.12202000  0.23520000  1.0
  H  H18  1  0.87796000  0.50664000  0.26480000  1.0
  H  H19  1  0.62203000  0.99336000  0.26480000  1.0
  H  H20  1  0.98579000  0.97337000  0.80146000  1.0
  H  H21  1  0.51420000  0.52661000  0.80146000  1.0
  H  H22  1  0.47339000  0.48580000  0.69854000  1.0
  H  H23  1  0.02662000  0.01420000  0.69855000  1.0
  H  H24  1  0.01421000  0.02663000  0.19854000  1.0
  H  H25  1  0.48580000  0.47337000  0.19854000  1.0
  H  H26  1  0.52662000  0.51420000  0.30146000  1.0
  H  H27  1  0.97339000  0.98580000  0.30146000  1.0
  H  H28  1  0.12576000  0.94170000  0.87012000  1.0
  H  H29  1  0.37423000  0.55830000  0.87012000  1.0
  H  H30  1  0.44170000  0.62577000  0.62987000  1.0
  H  H31  1  0.05829000  0.87424000  0.62988000  1.0
  H  H32  1  0.87424000  0.05830000  0.12988000  1.0
  H  H33  1  0.62577000  0.44170000  0.12988000  1.0
  H  H34  1  0.55830000  0.37423000  0.37012000  1.0
  H  H35  1  0.94170000  0.12577000  0.37012000  1.0
  H  H36  1  0.42089000  0.89569000  0.96377000  1.0
  H  H37  1  0.07911000  0.60433000  0.96378000  1.0
  H  H38  1  0.39567000  0.92090000  0.53623000  1.0
  H  H39  1  0.10431000  0.57911000  0.53623000  1.0
  H  H40  1  0.57910000  0.10432000  0.03622000  1.0
  H  H41  1  0.92090000  0.39567000  0.03622000  1.0
  H  H42  1  0.60432000  0.07910000  0.46378000  1.0
  H  H43  1  0.89568000  0.42089000  0.46377000  1.0
  H  H44  1  0.55520000  0.87265000  0.03673000  1.0
  H  H45  1  0.94479000  0.62737000  0.03673000  1.0
  H  H46  1  0.37264000  0.05520000  0.46327000  1.0
  H  H47  1  0.12736000  0.44480000  0.46327000  1.0
  H  H48  1  0.44479000  0.12737000  0.96327000  1.0
  H  H49  1  0.05521000  0.37263000  0.96327000  1.0
  H  H50  1  0.62736000  0.94480000  0.53673000  1.0
  H  H51  1  0.87264000  0.55520000  0.53673000  1.0
  H  H52  1  0.44717000  0.52431000  0.04262000  1.0
  H  H53  1  0.05283000  0.97570000  0.04262000  1.0
  H  H54  1  0.02430000  0.94717000  0.45737000  1.0
  H  H55  1  0.47570000  0.55283000  0.45738000  1.0
  H  H56  1  0.55283000  0.47571000  0.95738000  1.0
  H  H57  1  0.94717000  0.02430000  0.95737000  1.0
  H  H58  1  0.97570000  0.05284000  0.54263000  1.0
  H  H59  1  0.52430000  0.44717000  0.54262000  1.0
  H  H60  1  0.31776000  0.55820000  0.97040000  1.0
  H  H61  1  0.18225000  0.94181000  0.97040000  1.0
  H  H62  1  0.05818000  0.81776000  0.52960000  1.0
  H  H63  1  0.44181000  0.68225000  0.52960000  1.0
  H  H64  1  0.68225000  0.44180000  0.02960000  1.0
  H  H65  1  0.81776000  0.05819000  0.02960000  1.0
  H  H66  1  0.94181000  0.18225000  0.47040000  1.0
  H  H67  1  0.55819000  0.31775000  0.47040000  1.0
  Pd  Pd68  1  0.25000000  0.75001000  0.90941000  1.0
  Pd  Pd69  1  0.25000000  0.75001000  0.59059000  1.0
  Pd  Pd70  1  0.75001000  0.25000000  0.09059000  1.0
  Pd  Pd71  1  0.75000000  0.25000000  0.40941000  1.0
  C  C72  1  0.09429000  0.87263000  0.84621000  1.0
  C  C73  1  0.40571000  0.62736000  0.84621000  1.0
  C  C74  1  0.37264000  0.59429000  0.65378000  1.0
  C  C75  1  0.12735000  0.90571000  0.65379000  1.0
  C  C76  1  0.90571000  0.12737000  0.15379000  1.0
  C  C77  1  0.59429000  0.37264000  0.15379000  1.0
  C  C78  1  0.62736000  0.40571000  0.34621000  1.0
  C  C79  1  0.87264000  0.09429000  0.34621000  1.0
  C  C80  1  0.01680000  0.88978000  0.80818000  1.0
  C  C81  1  0.48318000  0.61021000  0.80818000  1.0
  C  C82  1  0.38980000  0.51682000  0.69182000  1.0
  C  C83  1  0.11021000  0.98319000  0.69182000  1.0
  C  C84  1  0.98319000  0.11022000  0.19182000  1.0
  C  C85  1  0.51682000  0.38978000  0.19182000  1.0
  C  C86  1  0.61021000  0.48318000  0.30818000  1.0
  C  C87  1  0.88979000  0.01681000  0.30818000  1.0
  C  C88  1  0.98039000  0.79946000  0.77787000  1.0
  C  C89  1  0.51960000  0.70053000  0.77787000  1.0
  C  C90  1  0.29948000  0.48039000  0.72213000  1.0
  C  C91  1  0.20053000  0.01961000  0.72213000  1.0
  C  C92  1  0.01961000  0.20054000  0.22213000  1.0
  C  C93  1  0.48040000  0.29946000  0.22213000  1.0
  C  C94  1  0.70053000  0.51961000  0.27787000  1.0
  C  C95  1  0.79947000  0.98040000  0.27787000  1.0
  C  C96  1  0.89679000  0.81725000  0.73589000  1.0
  C  C97  1  0.60321000  0.68272000  0.73589000  1.0
  C  C98  1  0.31728000  0.39679000  0.76411000  1.0
  C  C99  1  0.18274000  0.10321000  0.76411000  1.0
  C  C100  1  0.10321000  0.18274000  0.26411000  1.0
  C  C101  1  0.39680000  0.31726000  0.26411000  1.0
  C  C102  1  0.68273000  0.60321000  0.23589000  1.0
  C  C103  1  0.81727000  0.89680000  0.23589000  1.0
  C  C104  1  0.02210000  0.69353000  0.78757000  1.0
  C  C105  1  0.47790000  0.80645000  0.78756000  1.0
  C  C106  1  0.19355000  0.52210000  0.71244000  1.0
  C  C107  1  0.30646000  0.97789000  0.71244000  1.0
  C  C108  1  0.97790000  0.30647000  0.21244000  1.0
  C  C109  1  0.52211000  0.19353000  0.21244000  1.0
  C  C110  1  0.80646000  0.47789000  0.28756000  1.0
  C  C111  1  0.69354000  0.02210000  0.28756000  1.0
  C  C112  1  0.09918000  0.68104000  0.82616000  1.0
  C  C113  1  0.40082000  0.81896000  0.82616000  1.0
  C  C114  1  0.18104000  0.59918000  0.67384000  1.0
  C  C115  1  0.31896000  0.90081000  0.67384000  1.0
  C  C116  1  0.90083000  0.31896000  0.17384000  1.0
  C  C117  1  0.59919000  0.18103000  0.17384000  1.0
  C  C118  1  0.81896000  0.40082000  0.32616000  1.0
  C  C119  1  0.68104000  0.09918000  0.32616000  1.0
  C  C120  1  0.36941000  0.62641000  0.98687000  1.0
  C  C121  1  0.13059000  0.87361000  0.98687000  1.0
  C  C122  1  0.12639000  0.86941000  0.51313000  1.0
  C  C123  1  0.37360000  0.63060000  0.51313000  1.0
  C  C124  1  0.63059000  0.37360000  0.01313000  1.0
  C  C125  1  0.86941000  0.12640000  0.01313000  1.0
  C  C126  1  0.87360000  0.13059000  0.48687000  1.0
  C  C127  1  0.62640000  0.36940000  0.48687000  1.0
  C  C128  1  0.44257000  0.60786000  0.02639000  1.0
  C  C129  1  0.05742000  0.89215000  0.02639000  1.0
  C  C130  1  0.10785000  0.94257000  0.47361000  1.0
  C  C131  1  0.39215000  0.55743000  0.47362000  1.0
  C  C132  1  0.55742000  0.39216000  0.97361000  1.0
  C  C133  1  0.94257000  0.10784000  0.97361000  1.0
  C  C134  1  0.89215000  0.05743000  0.52639000  1.0
  C  C135  1  0.60785000  0.44257000  0.52638000  1.0
  C  C136  1  0.51238000  0.69598000  0.04438000  1.0
  C  C137  1  0.98761000  0.80403000  0.04438000  1.0
  C  C138  1  0.19597000  0.01238000  0.45562000  1.0
  C  C139  1  0.30403000  0.48762000  0.45562000  1.0
  C  C140  1  0.48761000  0.30403000  0.95562000  1.0
  C  C141  1  0.01238000  0.19597000  0.95562000  1.0
  C  C142  1  0.80403000  0.98762000  0.54438000  1.0
  C  C143  1  0.69598000  0.51238000  0.54438000  1.0
  C  C144  1  0.50341000  0.80215000  0.02246000  1.0
  C  C145  1  0.99659000  0.69787000  0.02247000  1.0
  C  C146  1  0.30213000  0.00341000  0.47754000  1.0
  C  C147  1  0.19787000  0.49659000  0.47754000  1.0
  C  C148  1  0.49658000  0.19787000  0.97754000  1.0
  C  C149  1  0.00341000  0.30213000  0.97753000  1.0
  C  C150  1  0.69787000  0.99659000  0.52247000  1.0
  C  C151  1  0.80214000  0.50341000  0.52246000  1.0
  C  C152  1  0.42952000  0.81530000  0.98272000  1.0
  C  C153  1  0.07048000  0.68472000  0.98272000  1.0
  C  C154  1  0.31529000  0.92952000  0.51728000  1.0
  C  C155  1  0.18471000  0.57048000  0.51728000  1.0
  C  C156  1  0.57048000  0.18471000  0.01728000  1.0
  C  C157  1  0.92953000  0.31529000  0.01728000  1.0
  C  C158  1  0.68471000  0.07047000  0.48272000  1.0
  C  C159  1  0.81529000  0.42952000  0.48271000  1.0
  C  C160  1  0.60007000  0.67565000  0.08429000  1.0
  C  C161  1  0.89992000  0.82437000  0.08429000  1.0
  C  C162  1  0.17564000  0.10007000  0.41571000  1.0
  C  C163  1  0.32437000  0.39992000  0.41571000  1.0
  C  C164  1  0.39992000  0.32437000  0.91571000  1.0
  C  C165  1  0.10008000  0.17564000  0.91571000  1.0
  C  C166  1  0.82436000  0.89993000  0.58429000  1.0
  C  C167  1  0.67564000  0.60008000  0.58429000  1.0
  N  N168  1  0.36427000  0.72852000  0.96507000  1.0
  N  N169  1  0.13573000  0.77149000  0.96508000  1.0
  N  N170  1  0.22851000  0.86427000  0.53493000  1.0
  N  N171  1  0.27148000  0.63573000  0.53492000  1.0
  N  N172  1  0.63573000  0.27149000  0.03492000  1.0
  N  N173  1  0.86428000  0.22851000  0.03492000  1.0
  N  N174  1  0.77148000  0.13573000  0.46508000  1.0
  N  N175  1  0.72852000  0.36427000  0.46507000  1.0
  N  N176  1  0.13433000  0.76966000  0.85476000  1.0
  N  N177  1  0.36567000  0.73033000  0.85476000  1.0
  N  N178  1  0.26966000  0.63433000  0.64524000  1.0
  N  N179  1  0.23033000  0.86567000  0.64524000  1.0
  N  N180  1  0.86567000  0.23034000  0.14524000  1.0
  N  N181  1  0.63433000  0.26966000  0.14524000  1.0
  N  N182  1  0.73033000  0.36567000  0.35476000  1.0
  N  N183  1  0.76967000  0.13433000  0.35476000  1.0
  O  O184  1  0.88611000  0.73448000  0.70427000  1.0
  O  O185  1  0.61388000  0.76549000  0.70426000  1.0
  O  O186  1  0.23451000  0.38612000  0.79573000  1.0
  O  O187  1  0.26551000  0.11388000  0.79573000  1.0
  O  O188  1  0.11389000  0.26551000  0.29573000  1.0
  O  O189  1  0.38612000  0.23449000  0.29573000  1.0
  O  O190  1  0.76550000  0.61388000  0.20427000  1.0
  O  O191  1  0.73450000  0.88611000  0.20427000  1.0
  O  O192  1  0.84622000  0.90651000  0.73489000  1.0
  O  O193  1  0.65378000  0.59347000  0.73489000  1.0
  O  O194  1  0.40653000  0.34621000  0.76510000  1.0
  O  O195  1  0.09349000  0.15378000  0.76511000  1.0
  O  O196  1  0.15379000  0.09349000  0.26511000  1.0
  O  O197  1  0.34622000  0.40652000  0.26511000  1.0
  O  O198  1  0.59348000  0.65380000  0.23490000  1.0
  O  O199  1  0.90653000  0.84621000  0.23490000  1.0
  O  O200  1  0.62277000  0.75995000  0.11281000  1.0
  O  O201  1  0.87722000  0.74007000  0.11280000  1.0
  O  O202  1  0.25994000  0.12277000  0.38719000  1.0
  O  O203  1  0.24006000  0.37722000  0.38720000  1.0
  O  O204  1  0.37722000  0.24007000  0.88720000  1.0
  O  O205  1  0.12278000  0.25993000  0.88719000  1.0
  O  O206  1  0.74006000  0.87723000  0.61281000  1.0
  O  O207  1  0.75994000  0.62278000  0.61280000  1.0
  O  O208  1  0.64306000  0.58120000  0.08440000  1.0
  O  O209  1  0.85691000  0.91881000  0.08439000  1.0
  O  O210  1  0.08120000  0.14307000  0.41560000  1.0
  O  O211  1  0.41880000  0.35692000  0.41561000  1.0
  O  O212  1  0.35691000  0.41882000  0.91561000  1.0
  O  O213  1  0.14308000  0.08119000  0.91560000  1.0
  O  O214  1  0.91881000  0.85693000  0.58440000  1.0
  O  O215  1  0.58119000  0.64308000  0.58439000  1.0
