# generated using pymatgen
data_CdH30C28S2(NO3)2
_symmetry_space_group_name_H-M   'P 1'
_cell_length_a   10.92780000
_cell_length_b   11.77000000
_cell_length_c   12.17789418
_cell_angle_alpha   118.88690273
_cell_angle_beta   94.48992858
_cell_angle_gamma   90.01590000
_symmetry_Int_Tables_number   1
_chemical_formula_structural   CdH30C28S2(NO3)2
_chemical_formula_sum   'Cd2 H60 C56 S4 N4 O12'
_cell_volume   1365.92199530
_cell_formula_units_Z   2
loop_
 _symmetry_equiv_pos_site_id
 _symmetry_equiv_pos_as_xyz
  1  'x, y, z'
loop_
 _atom_site_type_symbol
 _atom_site_label
 _atom_site_symmetry_multiplicity
 _atom_site_fract_x
 _atom_site_fract_y
 _atom_site_fract_z
 _atom_site_occupancy
  Cd  Cd0  1  0.25000000  0.95231000  0.99996000  1.0
  Cd  Cd1  1  0.75000000  0.04769000  0.00004000  1.0
  H  H2  1  0.37816000  0.02199000  0.21866000  1.0
  H  H3  1  0.12177000  0.80341000  0.78124000  1.0
  H  H4  1  0.62184000  0.97802000  0.78134000  1.0
  H  H5  1  0.87822000  0.19659000  0.21876000  1.0
  H  H6  1  0.48889000  0.06542000  0.15939000  1.0
  H  H7  1  0.01116000  0.90620000  0.84060000  1.0
  H  H8  1  0.51111000  0.93458000  0.84061000  1.0
  H  H9  1  0.98884000  0.09380000  0.15940000  1.0
  H  H10  1  0.18595000  0.89044000  0.40986000  1.0
  H  H11  1  0.31406000  0.48063000  0.59011000  1.0
  H  H12  1  0.81405000  0.10955000  0.59014000  1.0
  H  H13  1  0.68594000  0.51937000  0.40989000  1.0
  H  H14  1  0.24312000  0.71088000  0.44843000  1.0
  H  H15  1  0.25698000  0.26238000  0.55140000  1.0
  H  H16  1  0.75688000  0.28912000  0.55157000  1.0
  H  H17  1  0.74303000  0.73762000  0.44860000  1.0
  H  H18  1  0.89266000  0.51416000  0.27490000  1.0
  H  H19  1  0.60736000  0.23944000  0.72514000  1.0
  H  H20  1  0.10734000  0.48584000  0.72510000  1.0
  H  H21  1  0.39264000  0.76056000  0.27486000  1.0
  H  H22  1  0.83112000  0.69755000  0.24187000  1.0
  H  H23  1  0.66887000  0.45590000  0.75822000  1.0
  H  H24  1  0.16888000  0.30245000  0.75813000  1.0
  H  H25  1  0.33114000  0.54410000  0.24178000  1.0
  H  H26  1  0.13219000  0.52510000  0.49009000  1.0
  H  H27  1  0.36788000  0.03518000  0.50979000  1.0
  H  H28  1  0.86781000  0.47490000  0.50991000  1.0
  H  H29  1  0.63212000  0.96483000  0.49022000  1.0
  H  H30  1  0.19354000  0.44314000  0.34298000  1.0
  H  H31  1  0.30651000  0.10011000  0.65689000  1.0
  H  H32  1  0.80646000  0.55686000  0.65702000  1.0
  H  H33  1  0.69350000  0.89989000  0.34311000  1.0
  H  H34  1  0.03699000  0.41222000  0.35406000  1.0
  H  H35  1  0.46305000  0.05818000  0.64579000  1.0
  H  H36  1  0.96301000  0.58778000  0.64594000  1.0
  H  H37  1  0.53695000  0.94182000  0.35421000  1.0
  H  H38  1  0.01723000  0.14995000  0.38788000  1.0
  H  H39  1  0.48281000  0.76216000  0.61206000  1.0
  H  H40  1  0.98277000  0.85005000  0.61211000  1.0
  H  H41  1  0.51719000  0.23784000  0.38794000  1.0
  H  H42  1  0.10448000  0.07063000  0.45795000  1.0
  H  H43  1  0.39556000  0.61278000  0.54204000  1.0
  H  H44  1  0.89552000  0.92937000  0.54205000  1.0
  H  H45  1  0.60444000  0.38722000  0.45796000  1.0
  H  H46  1  0.40931000  0.11151000  0.90646000  1.0
  H  H47  1  0.09075000  0.20497000  0.09352000  1.0
  H  H48  1  0.59070000  0.88849000  0.09354000  1.0
  H  H49  1  0.90925000  0.79503000  0.90648000  1.0
  H  H50  1  0.41436000  0.31615000  0.89999000  1.0
  H  H51  1  0.08576000  0.41603000  0.09991000  1.0
  H  H52  1  0.58564000  0.68384000  0.10000000  1.0
  H  H53  1  0.91424000  0.58396000  0.90009000  1.0
  H  H54  1  0.41704000  0.48630000  0.90364000  1.0
  H  H55  1  0.08312000  0.58245000  0.09626000  1.0
  H  H56  1  0.58295000  0.51370000  0.09636000  1.0
  H  H57  1  0.91688000  0.41755000  0.90374000  1.0
  H  H58  1  0.08866000  0.78744000  0.08816000  1.0
  H  H59  1  0.41140000  0.69938000  0.91171000  1.0
  H  H60  1  0.91134000  0.21257000  0.91185000  1.0
  H  H61  1  0.58860000  0.30062000  0.08829000  1.0
  C  C62  1  0.00317000  0.80800000  0.32358000  1.0
  C  C63  1  0.49688000  0.48460000  0.67647000  1.0
  C  C64  1  0.99683000  0.19200000  0.67642000  1.0
  C  C65  1  0.50312000  0.51540000  0.32353000  1.0
  C  C66  1  0.12021000  0.80932000  0.38059000  1.0
  C  C67  1  0.37984000  0.42880000  0.61936000  1.0
  C  C68  1  0.87979000  0.19068000  0.61941000  1.0
  C  C69  1  0.62016000  0.57120000  0.38065000  1.0
  C  C70  1  0.15290000  0.70620000  0.40127000  1.0
  C  C71  1  0.34717000  0.30495000  0.59863000  1.0
  C  C72  1  0.84711000  0.29381000  0.59874000  1.0
  C  C73  1  0.65283000  0.69505000  0.40137000  1.0
  C  C74  1  0.07336000  0.59760000  0.36403000  1.0
  C  C75  1  0.42670000  0.23363000  0.63589000  1.0
  C  C76  1  0.92664000  0.40241000  0.63597000  1.0
  C  C77  1  0.57330000  0.76637000  0.36411000  1.0
  C  C78  1  0.95780000  0.59625000  0.30434000  1.0
  C  C79  1  0.54222000  0.29200000  0.69563000  1.0
  C  C80  1  0.04221000  0.40375000  0.69566000  1.0
  C  C81  1  0.45778000  0.70799000  0.30437000  1.0
  C  C82  1  0.92287000  0.69957000  0.28485000  1.0
  C  C83  1  0.57714000  0.41485000  0.71517000  1.0
  C  C84  1  0.07714000  0.30044000  0.71515000  1.0
  C  C85  1  0.42287000  0.58516000  0.28484000  1.0
  C  C86  1  0.11035000  0.48832000  0.38859000  1.0
  C  C87  1  0.38970000  0.09978000  0.61129000  1.0
  C  C88  1  0.88965000  0.51168000  0.61141000  1.0
  C  C89  1  0.61030000  0.90022000  0.38871000  1.0
  C  C90  1  0.06505000  0.06055000  0.36799000  1.0
  C  C91  1  0.43495000  0.69268000  0.63202000  1.0
  C  C92  1  0.93494000  0.93945000  0.63201000  1.0
  C  C93  1  0.56505000  0.30732000  0.36798000  1.0
  C  C94  1  0.16439000  0.04061000  0.27919000  1.0
  C  C95  1  0.33557000  0.76148000  0.72073000  1.0
  C  C96  1  0.83561000  0.95939000  0.72081000  1.0
  C  C97  1  0.66443000  0.23851000  0.27927000  1.0
  C  C98  1  0.33815000  0.18094000  0.94773000  1.0
  C  C99  1  0.16197000  0.23314000  0.05225000  1.0
  C  C100  1  0.66185000  0.81906000  0.05227000  1.0
  C  C101  1  0.83803000  0.76686000  0.94775000  1.0
  C  C102  1  0.34095000  0.29777000  0.94555000  1.0
  C  C103  1  0.15923000  0.35217000  0.05443000  1.0
  C  C104  1  0.65905000  0.70223000  0.05445000  1.0
  C  C105  1  0.84077000  0.64783000  0.94557000  1.0
  C  C106  1  0.25009000  0.38748000  0.99999000  1.0
  C  C107  1  0.74991000  0.61252000  0.00001000  1.0
  C  C108  1  0.25010000  0.51307000  0.99998000  1.0
  C  C109  1  0.74989000  0.48693000  0.00002000  1.0
  C  C110  1  0.34254000  0.54932000  0.94771000  1.0
  C  C111  1  0.15760000  0.60145000  0.05217000  1.0
  C  C112  1  0.65746000  0.45068000  0.05228000  1.0
  C  C113  1  0.84239000  0.39856000  0.94783000  1.0
  C  C114  1  0.33969000  0.66871000  0.95051000  1.0
  C  C115  1  0.16039000  0.71803000  0.04934000  1.0
  C  C116  1  0.66031000  0.33129000  0.04949000  1.0
  C  C117  1  0.83961000  0.28197000  0.95066000  1.0
  S  S118  1  0.94358000  0.93508000  0.30073000  1.0
  S  S119  1  0.55637000  0.63456000  0.69936000  1.0
  S  S120  1  0.05642000  0.06491000  0.69926000  1.0
  S  S121  1  0.44363000  0.36544000  0.30064000  1.0
  N  N122  1  0.25006000  0.14853000  0.00003000  1.0
  N  N123  1  0.74994000  0.85147000  0.99997000  1.0
  N  N124  1  0.25002000  0.75185000  0.99991000  1.0
  N  N125  1  0.74998000  0.24815000  0.00009000  1.0
  O  O126  1  0.12687000  0.03163000  0.17236000  1.0
  O  O127  1  0.37306000  0.85938000  0.82755000  1.0
  O  O128  1  0.87312000  0.96837000  0.82764000  1.0
  O  O129  1  0.62694000  0.14062000  0.17245000  1.0
  O  O130  1  0.42340000  0.99812000  0.14196000  1.0
  O  O131  1  0.07660000  0.85627000  0.85795000  1.0
  O  O132  1  0.57660000  0.00188000  0.85804000  1.0
  O  O133  1  0.92340000  0.14373000  0.14205000  1.0
  O  O134  1  0.27402000  0.03462000  0.31572000  1.0
  O  O135  1  0.22596000  0.71889000  0.68419000  1.0
  O  O136  1  0.72598000  0.96538000  0.68428000  1.0
  O  O137  1  0.77404000  0.28110000  0.31581000  1.0
