# generated using pymatgen
data_ZnH12C21SN2O7
_symmetry_space_group_name_H-M   'P 1'
_cell_length_a   13.73150000
_cell_length_b   14.09060000
_cell_length_c   14.99000000
_cell_angle_alpha   92.53200000
_cell_angle_beta   90.25150000
_cell_angle_gamma   97.55520000
_symmetry_Int_Tables_number   1
_chemical_formula_structural   ZnH12C21SN2O7
_chemical_formula_sum   'Zn2 H24 C42 S2 N4 O14'
_cell_volume   2872.20307988
_cell_formula_units_Z   2
loop_
 _symmetry_equiv_pos_site_id
 _symmetry_equiv_pos_as_xyz
  1  'x, y, z'
loop_
 _atom_site_type_symbol
 _atom_site_label
 _atom_site_symmetry_multiplicity
 _atom_site_fract_x
 _atom_site_fract_y
 _atom_site_fract_z
 _atom_site_occupancy
  Zn  Zn0  1  0.50888000  0.60781000  0.51048000  1.0
  Zn  Zn1  1  0.48599000  0.38887000  0.48024000  1.0
  H  H2  1  0.01956000  0.55183000  0.60229000  1.0
  H  H3  1  0.60549000  0.27397000  0.57178000  1.0
  H  H4  1  0.32433000  0.85807000  0.35903000  1.0
  H  H5  1  0.69444000  0.14353000  0.63706000  1.0
  H  H6  1  0.31607000  0.02941000  0.34013000  1.0
  H  H7  1  0.70152000  0.97434000  0.65734000  1.0
  H  H8  1  0.34441000  0.59185000  0.67143000  1.0
  H  H9  1  0.69951000  0.59443000  0.33915000  1.0
  H  H10  1  0.66297000  0.84803000  0.68727000  1.0
  H  H11  1  0.61097000  0.72999000  0.77798000  1.0
  H  H12  1  0.63015000  0.65038000  0.68528000  1.0
  H  H13  1  0.97656000  0.46439000  0.41080000  1.0
  H  H14  1  0.51226000  0.68692000  0.70319000  1.0
  H  H15  1  0.35028000  0.17856000  0.31838000  1.0
  H  H16  1  0.22380000  0.14855000  0.43251000  1.0
  H  H17  1  0.21902000  0.25941000  0.37858000  1.0
  H  H18  1  0.27436000  0.26111000  0.48514000  1.0
  H  H19  1  0.60450000  0.45093000  0.75532000  1.0
  H  H20  1  0.38350000  0.54618000  0.23866000  1.0
  H  H21  1  0.24176000  0.53377000  0.94816000  1.0
  H  H22  1  0.75146000  0.48835000  0.04350000  1.0
  H  H23  1  0.27356000  0.55274000  0.10935000  1.0
  H  H24  1  0.71784000  0.46190000  0.88336000  1.0
  H  H25  1  0.40024000  0.72946000  0.43548000  1.0
  C  C26  1  0.53770000  0.52512000  0.33006000  1.0
  C  C27  1  0.65934000  0.47761000  0.92851000  1.0
  C  C28  1  0.56871000  0.82174000  0.58478000  1.0
  C  C29  1  0.42988000  0.17881000  0.43071000  1.0
  C  C30  1  0.44820000  0.78586000  0.47219000  1.0
  C  C31  1  0.55912000  0.21670000  0.53474000  1.0
  C  C32  1  0.44425000  0.88170000  0.45594000  1.0
  C  C33  1  0.57167000  0.12032000  0.54289000  1.0
  C  C34  1  0.51183000  0.95127000  0.50386000  1.0
  C  C35  1  0.50799000  0.05034000  0.49204000  1.0
  C  C36  1  0.57801000  0.92214000  0.56644000  1.0
  C  C37  1  0.45253000  0.47325000  0.66241000  1.0
  C  C38  1  0.43656000  0.07956000  0.43365000  1.0
  C  C39  1  0.37525000  0.91237000  0.39533000  1.0
  C  C40  1  0.64284000  0.08967000  0.60102000  1.0
  C  C41  1  0.67907000  0.50301000  0.53382000  1.0
  C  C42  1  0.31715000  0.49924000  0.46136000  1.0
  C  C43  1  0.37106000  0.00758000  0.38473000  1.0
  C  C44  1  0.64553000  0.99406000  0.61239000  1.0
  C  C45  1  0.21236000  0.49963000  0.45619000  1.0
  C  C46  1  0.78376000  0.51094000  0.54659000  1.0
  C  C47  1  0.02132000  0.49332000  0.46876000  1.0
  C  C48  1  0.48649000  0.50252000  0.94904000  1.0
  C  C49  1  0.97587000  0.52264000  0.54382000  1.0
  C  C50  1  0.87327000  0.51713000  0.54749000  1.0
  C  C51  1  0.12347000  0.49759000  0.46172000  1.0
  C  C52  1  0.54577000  0.46771000  0.79968000  1.0
  C  C53  1  0.44428000  0.53810000  0.19346000  1.0
  C  C54  1  0.45436000  0.47680000  0.76303000  1.0
  C  C55  1  0.53696000  0.53129000  0.22966000  1.0
  C  C56  1  0.37651000  0.49725000  0.81886000  1.0
  C  C57  1  0.61617000  0.52219000  0.17266000  1.0
  C  C58  1  0.39044000  0.50930000  0.91275000  1.0
  C  C59  1  0.50532000  0.51529000  0.04278000  1.0
  C  C60  1  0.60152000  0.51093000  0.07858000  1.0
  C  C61  1  0.59151000  0.71018000  0.70795000  1.0
  C  C62  1  0.26357000  0.22037000  0.42126000  1.0
  C  C63  1  0.56418000  0.48215000  0.89154000  1.0
  C  C64  1  0.42720000  0.53223000  0.10131000  1.0
  C  C65  1  0.31456000  0.52835000  0.97430000  1.0
  C  C66  1  0.67800000  0.49260000  0.01787000  1.0
  C  C67  1  0.33260000  0.53907000  0.06397000  1.0
  S  S68  1  0.26198000  0.50410000  0.76162000  1.0
  S  S69  1  0.74057000  0.53069000  0.21265000  1.0
  N  N70  1  0.50822000  0.75571000  0.53384000  1.0
  N  N71  1  0.49046000  0.24398000  0.48113000  1.0
  N  N72  1  0.61793000  0.79441000  0.65565000  1.0
  N  N73  1  0.35968000  0.21555000  0.37842000  1.0
  O  O74  1  0.56367000  0.60143000  0.37864000  1.0
  O  O75  1  0.18300000  0.51774000  0.82138000  1.0
  O  O76  1  0.28708000  0.60209000  0.71294000  1.0
  O  O77  1  0.77951000  0.44207000  0.19466000  1.0
  O  O78  1  0.79103000  0.61905000  0.18121000  1.0
  O  O79  1  0.73216000  0.53872000  0.31879000  1.0
  O  O80  1  0.47993000  0.40178000  0.62187000  1.0
  O  O81  1  0.50550000  0.44305000  0.35574000  1.0
  O  O82  1  0.43336000  0.54983000  0.62512000  1.0
  O  O83  1  0.63857000  0.57753000  0.55609000  1.0
  O  O84  1  0.34572000  0.41936000  0.47562000  1.0
  O  O85  1  0.63647000  0.42396000  0.50088000  1.0
  O  O86  1  0.37131000  0.57926000  0.45275000  1.0
  O  O87  1  0.25034000  0.42522000  0.69606000  1.0
