# generated using pymatgen
data_CuH16C16S2I
_symmetry_space_group_name_H-M   'P 1'
_cell_length_a   11.56100000
_cell_length_b   12.13330000
_cell_length_c   12.35340000
_cell_angle_alpha   109.63600000
_cell_angle_beta   92.16860000
_cell_angle_gamma   91.63670000
_symmetry_Int_Tables_number   1
_chemical_formula_structural   CuH16C16S2I
_chemical_formula_sum   'Cu4 H64 C64 S8 I4'
_cell_volume   1629.34002902
_cell_formula_units_Z   4
loop_
 _symmetry_equiv_pos_site_id
 _symmetry_equiv_pos_as_xyz
  1  'x, y, z'
loop_
 _atom_site_type_symbol
 _atom_site_label
 _atom_site_symmetry_multiplicity
 _atom_site_fract_x
 _atom_site_fract_y
 _atom_site_fract_z
 _atom_site_occupancy
  Cu  Cu0  1  0.06982000  0.41623000  0.48853000  1.0
  Cu  Cu1  1  0.93018000  0.58377000  0.51147000  1.0
  Cu  Cu2  1  0.43260000  0.40310000  0.94393000  1.0
  Cu  Cu3  1  0.56740000  0.59690000  0.05607000  1.0
  H  H4  1  0.54350000  0.20768000  0.27427000  1.0
  H  H5  1  0.45650000  0.79232000  0.72573000  1.0
  H  H6  1  0.60719000  0.11184000  0.41327000  1.0
  H  H7  1  0.39281000  0.88816000  0.58673000  1.0
  H  H8  1  0.81488000  0.11176000  0.46879000  1.0
  H  H9  1  0.18512000  0.88825000  0.53122000  1.0
  H  H10  1  0.89896000  0.31042000  0.24774000  1.0
  H  H11  1  0.10103000  0.68958000  0.75226000  1.0
  H  H12  1  0.69016000  0.30915000  0.19253000  1.0
  H  H13  1  0.30984000  0.69085000  0.80747000  1.0
  H  H14  1  0.12555000  0.19494000  0.54872000  1.0
  H  H15  1  0.87445000  0.80505000  0.45129000  1.0
  H  H16  1  0.97677000  0.20238000  0.57836000  1.0
  H  H17  1  0.02323000  0.79762000  0.42164000  1.0
  H  H18  1  0.08533000  0.98490000  0.40329000  1.0
  H  H19  1  0.91467000  0.01510000  0.59671000  1.0
  H  H20  1  0.27802000  0.27038000  0.33375000  1.0
  H  H21  1  0.72198000  0.72962000  0.66625000  1.0
  H  H22  1  0.35192000  0.29830000  0.68676000  1.0
  H  H23  1  0.64808000  0.70170000  0.31324000  1.0
  H  H24  1  0.40462000  0.08983000  0.62349000  1.0
  H  H25  1  0.59539000  0.91017000  0.37651000  1.0
  H  H26  1  0.39458000  0.97087000  0.41314000  1.0
  H  H27  1  0.60543000  0.02913000  0.58686000  1.0
  H  H28  1  0.33484000  0.06282000  0.26918000  1.0
  H  H29  1  0.66516000  0.93718000  0.73082000  1.0
  H  H30  1  0.32285000  0.47090000  0.39715000  1.0
  H  H31  1  0.67715000  0.52910000  0.60286000  1.0
  H  H32  1  0.29237000  0.60046000  0.51065000  1.0
  H  H33  1  0.70763000  0.39954000  0.48934000  1.0
  H  H34  1  0.47809000  0.58484000  0.62105000  1.0
  H  H35  1  0.52190000  0.41516000  0.37896000  1.0
  H  H36  1  0.19455000  0.13805000  0.77396000  1.0
  H  H37  1  0.80545000  0.86195000  0.22604000  1.0
  H  H38  1  0.14510000  0.97391000  0.84354000  1.0
  H  H39  1  0.85490000  0.02609000  0.15646000  1.0
  H  H40  1  0.10819000  0.01455000  0.05150000  1.0
  H  H41  1  0.89181000  0.98545000  0.94850000  1.0
  H  H42  1  0.12045000  0.21965000  0.18729000  1.0
  H  H43  1  0.87955000  0.78035000  0.81271000  1.0
  H  H44  1  0.17525000  0.38235000  0.12021000  1.0
  H  H45  1  0.82475000  0.61765000  0.87979000  1.0
  H  H46  1  0.19502000  0.53265000  0.07011000  1.0
  H  H47  1  0.80498000  0.46735000  0.92990000  1.0
  H  H48  1  0.20225000  0.58097000  0.95014000  1.0
  H  H49  1  0.79776000  0.41903000  0.04985000  1.0
  H  H50  1  0.00521000  0.48238000  0.87072000  1.0
  H  H51  1  0.99480000  0.51762000  0.12928000  1.0
  H  H52  1  0.51829000  0.20580000  0.07336000  1.0
  H  H53  1  0.48171000  0.79420000  0.92664000  1.0
  H  H54  1  0.37054000  0.18292000  0.02613000  1.0
  H  H55  1  0.62946000  0.81708000  0.97386000  1.0
  H  H56  1  0.40837000  0.97217000  0.89924000  1.0
  H  H57  1  0.59163000  0.02783000  0.10075000  1.0
  H  H58  1  0.59628000  0.24933000  0.70606000  1.0
  H  H59  1  0.40372000  0.75067000  0.29394000  1.0
  H  H60  1  0.80293000  0.25900000  0.66635000  1.0
  H  H61  1  0.19707000  0.74100000  0.33365000  1.0
  H  H62  1  0.95475000  0.21841000  0.79701000  1.0
  H  H63  1  0.04525000  0.78159000  0.20299000  1.0
  H  H64  1  0.89512000  0.16893000  0.96653000  1.0
  H  H65  1  0.10487000  0.83107000  0.03347000  1.0
  H  H66  1  0.68807000  0.15549000  0.00545000  1.0
  H  H67  1  0.31193000  0.84451000  0.99455000  1.0
  C  C68  1  0.63549000  0.20719000  0.29690000  1.0
  C  C69  1  0.36451000  0.79281000  0.70310000  1.0
  C  C70  1  0.67136000  0.15360000  0.37545000  1.0
  C  C71  1  0.32864000  0.84640000  0.62455000  1.0
  C  C72  1  0.78866000  0.15463000  0.40793000  1.0
  C  C73  1  0.21134000  0.84538000  0.59207000  1.0
  C  C74  1  0.87084000  0.21043000  0.36112000  1.0
  C  C75  1  0.12916000  0.78957000  0.63888000  1.0
  C  C76  1  0.83508000  0.26416000  0.28150000  1.0
  C  C77  1  0.16492000  0.73584000  0.71850000  1.0
  C  C78  1  0.71782000  0.26291000  0.25045000  1.0
  C  C79  1  0.28218000  0.73709000  0.74956000  1.0
  C  C80  1  0.03816000  0.16067000  0.51255000  1.0
  C  C81  1  0.96184000  0.83933000  0.48745000  1.0
  C  C82  1  0.03190000  0.03046000  0.47475000  1.0
  C  C83  1  0.96810000  0.96955000  0.52525000  1.0
  C  C84  1  0.30726000  0.23088000  0.39678000  1.0
  C  C85  1  0.69274000  0.76912000  0.60322000  1.0
  C  C86  1  0.30988000  0.29621000  0.51465000  1.0
  C  C87  1  0.69012000  0.70379000  0.48535000  1.0
  C  C88  1  0.34756000  0.24568000  0.59565000  1.0
  C  C89  1  0.65244000  0.75432000  0.40435000  1.0
  C  C90  1  0.37776000  0.12866000  0.55918000  1.0
  C  C91  1  0.62224000  0.87134000  0.44082000  1.0
  C  C92  1  0.37288000  0.06273000  0.44201000  1.0
  C  C93  1  0.62712000  0.93727000  0.55798000  1.0
  C  C94  1  0.33886000  0.11441000  0.36077000  1.0
  C  C95  1  0.66115000  0.88559000  0.63923000  1.0
  C  C96  1  0.33539000  0.51690000  0.49018000  1.0
  C  C97  1  0.66461000  0.48310000  0.50982000  1.0
  C  C98  1  0.45817000  0.52955000  0.53179000  1.0
  C  C99  1  0.54183000  0.47045000  0.46821000  1.0
  C  C100  1  0.18871000  0.27093000  0.94246000  1.0
  C  C101  1  0.81129000  0.72907000  0.05754000  1.0
  C  C102  1  0.17922000  0.15552000  0.86473000  1.0
  C  C103  1  0.82078000  0.84448000  0.13527000  1.0
  C  C104  1  0.15113000  0.06338000  0.90419000  1.0
  C  C105  1  0.84887000  0.93662000  0.09581000  1.0
  C  C106  1  0.13043000  0.08599000  0.02035000  1.0
  C  C107  1  0.86958000  0.91401000  0.97965000  1.0
  C  C108  1  0.13767000  0.20117000  0.09681000  1.0
  C  C109  1  0.86233000  0.79883000  0.90319000  1.0
  C  C110  1  0.16750000  0.29362000  0.05871000  1.0
  C  C111  1  0.83251000  0.70638000  0.94129000  1.0
  C  C112  1  0.16543000  0.51201000  0.97964000  1.0
  C  C113  1  0.83457000  0.48799000  0.02036000  1.0
  C  C114  1  0.03725000  0.49807000  0.95934000  1.0
  C  C115  1  0.96275000  0.50193000  0.04066000  1.0
  C  C116  1  0.45835000  0.15492000  0.00179000  1.0
  C  C117  1  0.54165000  0.84508000  0.99821000  1.0
  C  C118  1  0.46549000  0.02569000  0.97161000  1.0
  C  C119  1  0.53451000  0.97431000  0.02839000  1.0
  C  C120  1  0.62793000  0.20129000  0.85800000  1.0
  C  C121  1  0.37207000  0.79871000  0.14200000  1.0
  C  C122  1  0.66155000  0.22859000  0.76152000  1.0
  C  C123  1  0.33844000  0.77141000  0.23848000  1.0
  C  C124  1  0.77837000  0.23363000  0.73934000  1.0
  C  C125  1  0.22163000  0.76637000  0.26066000  1.0
  C  C126  1  0.86305000  0.21164000  0.81242000  1.0
  C  C127  1  0.13695000  0.78836000  0.18758000  1.0
  C  C128  1  0.82936000  0.18383000  0.90786000  1.0
  C  C129  1  0.17064000  0.81617000  0.09214000  1.0
  C  C130  1  0.71228000  0.17776000  0.93089000  1.0
  C  C131  1  0.28772000  0.82224000  0.06911000  1.0
  S  S132  1  0.02172000  0.21996000  0.39574000  1.0
  S  S133  1  0.97828000  0.78004000  0.60426000  1.0
  S  S134  1  0.25327000  0.43809000  0.56772000  1.0
  S  S135  1  0.74673000  0.56191000  0.43228000  1.0
  S  S136  1  0.23624000  0.38225000  0.88947000  1.0
  S  S137  1  0.76376000  0.61775000  0.11053000  1.0
  S  S138  1  0.47764000  0.20578000  0.88007000  1.0
  S  S139  1  0.52235000  0.79421000  0.11993000  1.0
  I  I140  1  0.06622000  0.52235000  0.33742000  1.0
  I  I141  1  0.93378000  0.47765000  0.66258000  1.0
  I  I142  1  0.53721000  0.52102000  0.83166000  1.0
  I  I143  1  0.46279000  0.47898000  0.16834000  1.0
