# generated using pymatgen
data_Zn8H39C67NO27
_symmetry_space_group_name_H-M   'P 1'
_cell_length_a   18.46660361
_cell_length_b   18.47279095
_cell_length_c   18.49300000
_cell_angle_alpha   60.03757483
_cell_angle_beta   60.18287870
_cell_angle_gamma   60.06915267
_symmetry_Int_Tables_number   1
_chemical_formula_structural   Zn8H39C67NO27
_chemical_formula_sum   'Zn8 H39 C67 N1 O27'
_cell_volume   4470.53289413
_cell_formula_units_Z   1
loop_
 _symmetry_equiv_pos_site_id
 _symmetry_equiv_pos_as_xyz
  1  'x, y, z'
loop_
 _atom_site_type_symbol
 _atom_site_label
 _atom_site_symmetry_multiplicity
 _atom_site_fract_x
 _atom_site_fract_y
 _atom_site_fract_z
 _atom_site_occupancy
  Zn  Zn0  1  0.45661000  0.95524000  0.13036000  1.0
  Zn  Zn1  1  0.45495000  0.12854000  0.95817000  1.0
  Zn  Zn2  1  0.45706000  0.95474000  0.95686000  1.0
  Zn  Zn3  1  0.62973000  0.95645000  0.95602000  1.0
  Zn  Zn4  1  0.04273000  0.54206000  0.37009000  1.0
  Zn  Zn5  1  0.04271000  0.54280000  0.54286000  1.0
  Zn  Zn6  1  0.04080000  0.36938000  0.54393000  1.0
  Zn  Zn7  1  0.86862000  0.54372000  0.54246000  1.0
  H  H8  1  0.60579000  0.02845000  0.29733000  1.0
  H  H9  1  0.97034000  0.74279000  0.66054000  1.0
  H  H10  1  0.87029000  0.74221000  0.85329000  1.0
  H  H11  1  0.70857000  0.72173000  0.09951000  1.0
  H  H12  1  0.87363000  0.83881000  0.75747000  1.0
  H  H13  1  0.58348000  0.31939000  0.79543000  1.0
  H  H14  1  0.67847000  0.41452000  0.70145000  1.0
  H  H15  1  0.96457000  0.12965000  0.65563000  1.0
  H  H16  1  0.96431000  0.13004000  0.75193000  1.0
  H  H17  1  0.86841000  0.03275000  0.75186000  1.0
  H  H18  1  0.86790000  0.03333000  0.84815000  1.0
  H  H19  1  0.20105000  0.70185000  0.18217000  1.0
  H  H20  1  0.30102000  0.08542000  0.79298000  1.0
  H  H21  1  0.20619000  0.18139000  0.69729000  1.0
  H  H22  1  0.24264000  0.47022000  0.65985000  1.0
  H  H23  1  0.79862000  0.56756000  0.10463000  1.0
  H  H24  1  0.14788000  0.46384000  0.75748000  1.0
  H  H25  1  0.30638000  0.08550000  0.31842000  1.0
  H  H26  1  0.21047000  0.18020000  0.41375000  1.0
  H  H27  1  0.14211000  0.46376000  0.13327000  1.0
  H  H28  1  0.23822000  0.46939000  0.12794000  1.0
  H  H29  1  0.23852000  0.36813000  0.03631000  1.0
  H  H30  1  0.15418000  0.74838000  0.46772000  1.0
  H  H31  1  0.33464000  0.37351000  0.03098000  1.0
  H  H32  1  0.89429000  0.47171000  0.20065000  1.0
  H  H33  1  0.89940000  0.53071000  0.29071000  1.0
  H  H34  1  0.79263000  0.77902000  0.39740000  1.0
  H  H35  1  0.70162000  0.93280000  0.39310000  1.0
  H  H36  1  0.60158000  0.96974000  0.20641000  1.0
  H  H37  1  0.29571000  0.79738000  0.08710000  1.0
  H  H38  1  0.35796000  0.44010000  0.74725000  1.0
  H  H39  1  0.17032000  0.37929000  0.89798000  1.0
  H  H40  1  0.26668000  0.32020000  0.91392000  1.0
  H  H41  1  0.25063000  0.65203000  0.46740000  1.0
  H  H42  1  0.25052000  0.84512000  0.37148000  1.0
  H  H43  1  0.34690000  0.74881000  0.37103000  1.0
  H  H44  1  0.58754000  0.80148000  0.79227000  1.0
  H  H45  1  0.68249000  0.70800000  0.69578000  1.0
  H  H46  1  0.96638000  0.64617000  0.75635000  1.0
  C  C47  1  0.63503000  0.13920000  0.86131000  1.0
  C  C48  1  0.70056000  0.90609000  0.35283000  1.0
  C  C49  1  0.64611000  0.96042000  0.29844000  1.0
  C  C50  1  0.36054000  0.86164000  0.13809000  1.0
  C  C51  1  0.64400000  0.92772000  0.24744000  1.0
  C  C52  1  0.27636000  0.77592000  0.28746000  1.0
  C  C53  1  0.30397000  0.80453000  0.19541000  1.0
  C  C54  1  0.27530000  0.77622000  0.15886000  1.0
  C  C55  1  0.22232000  0.72265000  0.21209000  1.0
  C  C56  1  0.19463000  0.69400000  0.30530000  1.0
  C  C57  1  0.22316000  0.72225000  0.34082000  1.0
  C  C58  1  0.85716000  0.57281000  0.24952000  1.0
  C  C59  1  0.22023000  0.71838000  0.42600000  1.0
  C  C60  1  0.28055000  0.77903000  0.36563000  1.0
  C  C61  1  0.78815000  0.77336000  0.77915000  1.0
  C  C62  1  0.36179000  0.13700000  0.13918000  1.0
  C  C63  1  0.69605000  0.80373000  0.80511000  1.0
  C  C64  1  0.65936000  0.77868000  0.77341000  1.0
  C  C65  1  0.71255000  0.72631000  0.71935000  1.0
  C  C66  1  0.80584000  0.69544000  0.69372000  1.0
  C  C67  1  0.84149000  0.72058000  0.72518000  1.0
  C  C68  1  0.92674000  0.71349000  0.72543000  1.0
  C  C69  1  0.80539000  0.66181000  0.24906000  1.0
  C  C70  1  0.86635000  0.77347000  0.78630000  1.0
  C  C71  1  0.78416000  0.16013000  0.77757000  1.0
  C  C72  1  0.69201000  0.19586000  0.80481000  1.0
  C  C73  1  0.65531000  0.28929000  0.77584000  1.0
  C  C74  1  0.63867000  0.85939000  0.86300000  1.0
  C  C75  1  0.70858000  0.34261000  0.72302000  1.0
  C  C76  1  0.80193000  0.30585000  0.69570000  1.0
  C  C77  1  0.83753000  0.21360000  0.72450000  1.0
  C  C78  1  0.92284000  0.13535000  0.72164000  1.0
  C  C79  1  0.86248000  0.07475000  0.78187000  1.0
  C  C80  1  0.75008000  0.71711000  0.19371000  1.0
  C  C81  1  0.27542000  0.28579000  0.77761000  1.0
  C  C82  1  0.30523000  0.19367000  0.80433000  1.0
  C  C83  1  0.27904000  0.15729000  0.77353000  1.0
  C  C84  1  0.22599000  0.21112000  0.71977000  1.0
  C  C85  1  0.19604000  0.30446000  0.69334000  1.0
  C  C86  1  0.36047000  0.13655000  0.86287000  1.0
  C  C87  1  0.22251000  0.33966000  0.72401000  1.0
  C  C88  1  0.21446000  0.42524000  0.72436000  1.0
  C  C89  1  0.27553000  0.36386000  0.78602000  1.0
  C  C90  1  0.27206000  0.28629000  0.16030000  1.0
  C  C91  1  0.80466000  0.69646000  0.30229000  1.0
  C  C92  1  0.30497000  0.19416000  0.19561000  1.0
  C  C93  1  0.28140000  0.15732000  0.28870000  1.0
  C  C94  1  0.22771000  0.21038000  0.34210000  1.0
  C  C95  1  0.19436000  0.30368000  0.30579000  1.0
  C  C96  1  0.21848000  0.33949000  0.21387000  1.0
  C  C97  1  0.20964000  0.42493000  0.13606000  1.0
  C  C98  1  0.63904000  0.86136000  0.13740000  1.0
  C  C99  1  0.27013000  0.36478000  0.07541000  1.0
  C  C100  1  0.86191000  0.63903000  0.63653000  1.0
  C  C101  1  0.13653000  0.35995000  0.36311000  1.0
  C  C102  1  0.75157000  0.78363000  0.30286000  1.0
  C  C103  1  0.13806000  0.63690000  0.36163000  1.0
  C  C104  1  0.85853000  0.36295000  0.63888000  1.0
  C  C105  1  0.13823000  0.36116000  0.63722000  1.0
  C  C106  1  0.86162000  0.63880000  0.36016000  1.0
  C  C107  1  0.74972000  0.68039000  0.14180000  1.0
  C  C108  1  0.80031000  0.59444000  0.14436000  1.0
  C  C109  1  0.85462000  0.54001000  0.19889000  1.0
  C  C110  1  0.36320000  0.38102000  0.73963000  1.0
  C  C111  1  0.69623000  0.83890000  0.24753000  1.0
  C  C112  1  0.69687000  0.80420000  0.19442000  1.0
  C  C113  1  0.75163000  0.82032000  0.35497000  1.0
  N  N114  1  0.23515000  0.37510000  0.87180000  1.0
  O  O115  1  0.49968000  0.99862000  0.00050000  1.0
  O  O116  1  0.94221000  0.32265000  0.61668000  1.0
  O  O117  1  0.11698000  0.44486000  0.61514000  1.0
  O  O118  1  0.67545000  0.05555000  0.88161000  1.0
  O  O119  1  0.82161000  0.61592000  0.44335000  1.0
  O  O120  1  0.11463000  0.32191000  0.61634000  1.0
  O  O121  1  0.94508000  0.61762000  0.32103000  1.0
  O  O122  1  0.11737000  0.61311000  0.32234000  1.0
  O  O123  1  0.81957000  0.44678000  0.61691000  1.0
  O  O124  1  0.94558000  0.61401000  0.61770000  1.0
  O  O125  1  0.11568000  0.32063000  0.44668000  1.0
  O  O126  1  0.38796000  0.05327000  0.17813000  1.0
  O  O127  1  0.38259000  0.88359000  0.17794000  1.0
  O  O128  1  0.37964000  0.17707000  0.05573000  1.0
  O  O129  1  0.55508000  0.88150000  0.88471000  1.0
  O  O130  1  0.37423000  0.17645000  0.89257000  1.0
  O  O131  1  0.67823000  0.88597000  0.05410000  1.0
  O  O132  1  0.38874000  0.05320000  0.87922000  1.0
  O  O133  1  0.55580000  0.88019000  0.17733000  1.0
  O  O134  1  0.43204000  0.33783000  0.69768000  1.0
  O  O135  1  0.67847000  0.88020000  0.88629000  1.0
  O  O136  1  0.55126000  0.17812000  0.88505000  1.0
  O  O137  1  0.38227000  0.88397000  0.05450000  1.0
  O  O138  1  0.99869000  0.49953000  0.49994000  1.0
  O  O139  1  0.82230000  0.62036000  0.61112000  1.0
  O  O140  1  0.11226000  0.44367000  0.32310000  1.0
  O  O141  1  0.11490000  0.61647000  0.44523000  1.0
