# generated using pymatgen
data_HgPH12C13I2O
_symmetry_space_group_name_H-M   'P 1'
_cell_length_a   8.99583000
_cell_length_b   13.65470000
_cell_length_c   13.65480000
_cell_angle_alpha   99.79450000
_cell_angle_beta   100.52000000
_cell_angle_gamma   100.51800000
_symmetry_Int_Tables_number   1
_chemical_formula_structural   HgPH12C13I2O
_chemical_formula_sum   'Hg4 P4 H48 C52 I8 O4'
_cell_volume   1585.07583776
_cell_formula_units_Z   4
loop_
 _symmetry_equiv_pos_site_id
 _symmetry_equiv_pos_as_xyz
  1  'x, y, z'
loop_
 _atom_site_type_symbol
 _atom_site_label
 _atom_site_symmetry_multiplicity
 _atom_site_fract_x
 _atom_site_fract_y
 _atom_site_fract_z
 _atom_site_occupancy
  Hg  Hg0  1  0.75001000  0.83356000  0.16645000  1.0
  Hg  Hg1  1  0.24999000  0.16645000  0.83356000  1.0
  Hg  Hg2  1  0.49998000  0.00000000  0.00000000  1.0
  Hg  Hg3  1  0.00000000  0.00001000  0.99999000  1.0
  P  P4  1  0.70470000  0.53366000  0.12658000  1.0
  P  P5  1  0.79531000  0.87342000  0.46634000  1.0
  P  P6  1  0.29529000  0.46634000  0.87341000  1.0
  P  P7  1  0.20470000  0.12659000  0.53366000  1.0
  H  H8  1  0.63653000  0.49667000  0.94530000  1.0
  H  H9  1  0.86346000  0.05471000  0.50334000  1.0
  H  H10  1  0.36346000  0.50334000  0.05470000  1.0
  H  H11  1  0.13655000  0.94530000  0.49667000  1.0
  H  H12  1  0.54400000  0.39471000  0.99272000  1.0
  H  H13  1  0.95600000  0.00728000  0.60529000  1.0
  H  H14  1  0.45599000  0.60529000  0.00729000  1.0
  H  H15  1  0.04401000  0.99272000  0.39472000  1.0
  H  H16  1  0.63841000  0.32239000  0.16546000  1.0
  H  H17  1  0.86159000  0.83453000  0.67760000  1.0
  H  H18  1  0.36160000  0.67761000  0.83453000  1.0
  H  H19  1  0.13841000  0.16547000  0.32240000  1.0
  H  H20  1  0.51609000  0.25394000  0.29510000  1.0
  H  H21  1  0.98390000  0.70489000  0.74606000  1.0
  H  H22  1  0.48393000  0.74606000  0.70490000  1.0
  H  H23  1  0.01606000  0.29510000  0.25394000  1.0
  H  H24  1  0.41809000  0.36683000  0.41868000  1.0
  H  H25  1  0.08191000  0.58131000  0.63317000  1.0
  H  H26  1  0.58192000  0.63316000  0.58131000  1.0
  H  H27  1  0.91807000  0.41869000  0.36683000  1.0
  H  H28  1  0.45666000  0.55250000  0.41950000  1.0
  H  H29  1  0.04336000  0.58050000  0.44751000  1.0
  H  H30  1  0.54334000  0.44750000  0.58049000  1.0
  H  H31  1  0.95665000  0.41951000  0.55250000  1.0
  H  H32  1  0.58821000  0.62363000  0.29208000  1.0
  H  H33  1  0.91180000  0.70792000  0.37638000  1.0
  H  H34  1  0.41178000  0.37637000  0.70791000  1.0
  H  H35  1  0.08821000  0.29209000  0.62363000  1.0
  H  H36  1  0.78592000  0.34684000  0.01903000  1.0
  H  H37  1  0.71406000  0.98096000  0.65316000  1.0
  H  H38  1  0.21406000  0.65316000  0.98097000  1.0
  H  H39  1  0.28595000  0.01904000  0.34684000  1.0
  H  H40  1  0.03476000  0.29198000  0.03607000  1.0
  H  H41  1  0.46521000  0.96392000  0.70800000  1.0
  H  H42  1  0.96521000  0.70801000  0.96394000  1.0
  H  H43  1  0.53480000  0.03608000  0.29201000  1.0
  H  H44  1  0.27141000  0.40190000  0.15593000  1.0
  H  H45  1  0.22858000  0.84404000  0.59808000  1.0
  H  H46  1  0.72858000  0.59810000  0.84406000  1.0
  H  H47  1  0.77143000  0.15595000  0.40193000  1.0
  H  H48  1  0.26320000  0.57393000  0.24838000  1.0
  H  H49  1  0.23682000  0.75160000  0.42604000  1.0
  H  H50  1  0.73680000  0.42607000  0.75161000  1.0
  H  H51  1  0.76319000  0.24839000  0.57396000  1.0
  H  H52  1  0.01332000  0.63114000  0.22933000  1.0
  H  H53  1  0.48671000  0.77068000  0.36886000  1.0
  H  H54  1  0.98668000  0.36887000  0.77066000  1.0
  H  H55  1  0.51330000  0.22933000  0.63114000  1.0
  C  C56  1  0.57303000  0.47828000  0.00373000  1.0
  C  C57  1  0.92698000  0.99628000  0.52173000  1.0
  C  C58  1  0.42696000  0.52173000  0.99628000  1.0
  C  C59  1  0.07303000  0.00372000  0.47827000  1.0
  C  C60  1  0.61776000  0.47768000  0.21972000  1.0
  C  C61  1  0.88225000  0.78028000  0.52231000  1.0
  C  C62  1  0.38224000  0.52231000  0.78027000  1.0
  C  C63  1  0.11776000  0.21973000  0.47769000  1.0
  C  C64  1  0.59848000  0.37347000  0.22058000  1.0
  C  C65  1  0.90152000  0.77942000  0.62653000  1.0
  C  C66  1  0.40152000  0.62652000  0.77941000  1.0
  C  C67  1  0.09848000  0.22059000  0.37348000  1.0
  C  C68  1  0.52896000  0.33445000  0.29328000  1.0
  C  C69  1  0.97104000  0.70672000  0.66555000  1.0
  C  C70  1  0.47105000  0.66555000  0.70672000  1.0
  C  C71  1  0.02894000  0.29328000  0.33445000  1.0
  C  C72  1  0.47629000  0.39856000  0.36407000  1.0
  C  C73  1  0.02372000  0.63593000  0.60144000  1.0
  C  C74  1  0.52372000  0.60143000  0.63593000  1.0
  C  C75  1  0.97627000  0.36407000  0.39856000  1.0
  C  C76  1  0.49728000  0.50245000  0.36413000  1.0
  C  C77  1  0.00273000  0.63587000  0.49756000  1.0
  C  C78  1  0.50272000  0.49755000  0.63586000  1.0
  C  C79  1  0.99727000  0.36414000  0.50245000  1.0
  C  C80  1  0.56904000  0.54246000  0.29263000  1.0
  C  C81  1  0.93097000  0.70737000  0.45755000  1.0
  C  C82  1  0.43095000  0.45754000  0.70736000  1.0
  C  C83  1  0.06904000  0.29264000  0.54246000  1.0
  C  C84  1  0.88306000  0.49120000  0.12627000  1.0
  C  C85  1  0.61694000  0.87372000  0.50880000  1.0
  C  C86  1  0.11693000  0.50880000  0.87372000  1.0
  C  C87  1  0.38307000  0.12627000  0.49120000  1.0
  C  C88  1  0.88959000  0.39672000  0.07019000  1.0
  C  C89  1  0.61040000  0.92980000  0.60328000  1.0
  C  C90  1  0.11039000  0.60328000  0.92981000  1.0
  C  C91  1  0.38961000  0.07020000  0.39672000  1.0
  C  C92  1  0.02999000  0.36559000  0.07976000  1.0
  C  C93  1  0.47000000  0.92023000  0.63440000  1.0
  C  C94  1  0.96999000  0.63441000  0.92024000  1.0
  C  C95  1  0.53001000  0.07976000  0.36560000  1.0
  C  C96  1  0.16327000  0.42824000  0.14576000  1.0
  C  C97  1  0.33672000  0.85423000  0.57175000  1.0
  C  C98  1  0.83671000  0.57176000  0.85424000  1.0
  C  C99  1  0.66328000  0.14576000  0.42826000  1.0
  C  C100  1  0.15802000  0.52404000  0.19925000  1.0
  C  C101  1  0.34199000  0.80074000  0.47594000  1.0
  C  C102  1  0.84197000  0.47596000  0.80075000  1.0
  C  C103  1  0.65802000  0.19925000  0.52406000  1.0
  C  C104  1  0.01847000  0.55586000  0.18954000  1.0
  C  C105  1  0.48155000  0.81045000  0.44413000  1.0
  C  C106  1  0.98152000  0.44414000  0.81045000  1.0
  C  C107  1  0.51847000  0.18954000  0.55587000  1.0
  I  I108  1  0.44296000  0.81415000  0.13268000  1.0
  I  I109  1  0.05705000  0.86734000  0.18585000  1.0
  I  I110  1  0.55703000  0.18585000  0.86734000  1.0
  I  I111  1  0.94295000  0.13266000  0.81415000  1.0
  I  I112  1  0.75323000  0.10552000  0.14075000  1.0
  I  I113  1  0.74676000  0.85925000  0.89448000  1.0
  I  I114  1  0.24676000  0.89448000  0.85925000  1.0
  I  I115  1  0.25325000  0.14075000  0.10551000  1.0
  O  O116  1  0.73182000  0.64779000  0.15358000  1.0
  O  O117  1  0.76818000  0.84643000  0.35221000  1.0
  O  O118  1  0.26818000  0.35222000  0.84643000  1.0
  O  O119  1  0.23182000  0.15358000  0.64779000  1.0
