# generated using pymatgen
data_CuH5C6BrN
_symmetry_space_group_name_H-M   'P 1'
_cell_length_a   3.80977000
_cell_length_b   10.80120000
_cell_length_c   14.89300000
_cell_angle_alpha   90.00030000
_cell_angle_beta   90.00190000
_cell_angle_gamma   86.49990000
_symmetry_Int_Tables_number   1
_chemical_formula_structural   CuH5C6BrN
_chemical_formula_sum   'Cu4 H20 C24 Br4 N4'
_cell_volume   611.70510530
_cell_formula_units_Z   4
loop_
 _symmetry_equiv_pos_site_id
 _symmetry_equiv_pos_as_xyz
  1  'x, y, z'
loop_
 _atom_site_type_symbol
 _atom_site_label
 _atom_site_symmetry_multiplicity
 _atom_site_fract_x
 _atom_site_fract_y
 _atom_site_fract_z
 _atom_site_occupancy
  Cu  Cu0  1  0.25858000  0.45389000  0.55601000  1.0
  Cu  Cu1  1  0.74138000  0.04611000  0.05602000  1.0
  Cu  Cu2  1  0.74140000  0.54610000  0.44399000  1.0
  Cu  Cu3  1  0.25856000  0.95389000  0.94399000  1.0
  H  H4  1  0.02385000  0.64540000  0.68470000  1.0
  H  H5  1  0.97615000  0.85459000  0.18471000  1.0
  H  H6  1  0.97616000  0.35459000  0.31529000  1.0
  H  H7  1  0.02385000  0.14541000  0.81529000  1.0
  H  H8  1  0.06978000  0.68250000  0.85019000  1.0
  H  H9  1  0.93022000  0.81750000  0.35020000  1.0
  H  H10  1  0.93023000  0.31751000  0.14980000  1.0
  H  H11  1  0.06978000  0.18250000  0.64980000  1.0
  H  H12  1  0.66641000  0.32991000  0.86947000  1.0
  H  H13  1  0.33362000  0.17010000  0.36947000  1.0
  H  H14  1  0.33361000  0.67009000  0.13053000  1.0
  H  H15  1  0.66638000  0.82990000  0.63054000  1.0
  H  H16  1  0.59891000  0.30904000  0.70468000  1.0
  H  H17  1  0.40111000  0.19096000  0.20469000  1.0
  H  H18  1  0.40109000  0.69095000  0.29532000  1.0
  H  H19  1  0.59888000  0.80904000  0.79532000  1.0
  H  H20  1  0.25753000  0.61970000  0.99291000  1.0
  H  H21  1  0.74247000  0.88030000  0.49292000  1.0
  H  H22  1  0.74249000  0.38031000  0.00708000  1.0
  H  H23  1  0.25752000  0.11970000  0.50709000  1.0
  C  C24  1  0.16341000  0.57811000  0.72856000  1.0
  C  C25  1  0.83659000  0.92188000  0.22857000  1.0
  C  C26  1  0.83660000  0.42188000  0.27143000  1.0
  C  C27  1  0.16340000  0.07812000  0.77143000  1.0
  C  C28  1  0.19106000  0.59826000  0.82005000  1.0
  C  C29  1  0.80895000  0.90174000  0.32006000  1.0
  C  C30  1  0.80896000  0.40174000  0.17994000  1.0
  C  C31  1  0.19105000  0.09826000  0.67994000  1.0
  C  C32  1  0.37514000  0.51027000  0.87499000  1.0
  C  C33  1  0.62487000  0.98973000  0.37499000  1.0
  C  C34  1  0.62488000  0.48973000  0.12501000  1.0
  C  C35  1  0.37513000  0.01027000  0.62501000  1.0
  C  C36  1  0.52175000  0.40294000  0.83182000  1.0
  C  C37  1  0.47827000  0.09706000  0.33182000  1.0
  C  C38  1  0.47827000  0.59706000  0.16818000  1.0
  C  C39  1  0.52172000  0.90294000  0.66818000  1.0
  C  C40  1  0.48381000  0.39013000  0.73991000  1.0
  C  C41  1  0.51620000  0.10987000  0.23992000  1.0
  C  C42  1  0.51620000  0.60987000  0.26009000  1.0
  C  C43  1  0.48379000  0.89013000  0.76009000  1.0
  C  C44  1  0.40422000  0.53536000  0.97023000  1.0
  C  C45  1  0.59580000  0.96465000  0.47024000  1.0
  C  C46  1  0.59581000  0.46465000  0.02976000  1.0
  C  C47  1  0.40419000  0.03535000  0.52977000  1.0
  Br  Br48  1  0.20903000  0.67490000  0.49823000  1.0
  Br  Br49  1  0.79097000  0.82510000  0.99823000  1.0
  Br  Br50  1  0.79097000  0.32510000  0.50177000  1.0
  Br  Br51  1  0.20901000  0.17490000  0.00178000  1.0
  N  N52  1  0.30720000  0.47555000  0.68756000  1.0
  N  N53  1  0.69281000  0.02445000  0.18756000  1.0
  N  N54  1  0.69281000  0.52444000  0.31244000  1.0
  N  N55  1  0.30718000  0.97556000  0.81244000  1.0
