# generated using pymatgen
data_Zr3H23C25N5O16
_symmetry_space_group_name_H-M   'P 1'
_cell_length_a   14.67952637
_cell_length_b   14.77849695
_cell_length_c   14.77960000
_cell_angle_alpha   90.30869346
_cell_angle_beta   119.72409664
_cell_angle_gamma   119.69750101
_symmetry_Int_Tables_number   1
_chemical_formula_structural   Zr3H23C25N5O16
_chemical_formula_sum   'Zr6 H46 C50 N10 O32'
_cell_volume   2280.85578009
_cell_formula_units_Z   2
loop_
 _symmetry_equiv_pos_site_id
 _symmetry_equiv_pos_as_xyz
  1  'x, y, z'
loop_
 _atom_site_type_symbol
 _atom_site_label
 _atom_site_symmetry_multiplicity
 _atom_site_fract_x
 _atom_site_fract_y
 _atom_site_fract_z
 _atom_site_occupancy
  Zr  Zr0  1  0.49702000  0.88269000  0.37713000  1.0
  Zr  Zr1  1  0.50203000  0.12355000  0.61823000  1.0
  Zr  Zr2  1  0.74013000  0.12081000  0.61547000  1.0
  Zr  Zr3  1  0.25957000  0.88517000  0.38015000  1.0
  Zr  Zr4  1  0.49970000  0.12187000  0.37931000  1.0
  Zr  Zr5  1  0.49998000  0.88458000  0.61652000  1.0
  H  H6  1  0.68657000  0.09474000  0.40120000  1.0
  H  H7  1  0.31283000  0.09963000  0.40676000  1.0
  H  H8  1  0.68968000  0.09634000  0.77946000  1.0
  H  H9  1  0.31029000  0.72157000  0.40464000  1.0
  H  H10  1  0.49438000  0.14038000  0.08733000  1.0
  H  H11  1  0.50407000  0.86586000  0.90762000  1.0
  H  H12  1  0.49489000  0.59329000  0.63476000  1.0
  H  H13  1  0.50532000  0.41341000  0.36099000  1.0
  H  H14  1  0.95162000  0.86274000  0.08841000  1.0
  H  H15  1  0.04730000  0.13893000  0.90326000  1.0
  H  H16  1  0.95287000  0.59652000  0.36062000  1.0
  H  H17  1  0.04733000  0.41181000  0.63754000  1.0
  H  H18  1  0.05840000  0.07941000  0.38014000  1.0
  H  H19  1  0.17123000  0.17027000  0.51852000  1.0
  H  H20  1  0.00859000  0.16728000  0.51460000  1.0
  H  H21  1  0.89689000  0.07540000  0.37672000  1.0
  H  H22  1  0.05015000  0.09243000  0.67328000  1.0
  H  H23  1  0.96764000  0.94882000  0.64831000  1.0
  H  H24  1  0.21193000  0.09416000  0.67548000  1.0
  H  H25  1  0.12783000  0.95035000  0.64988000  1.0
  H  H26  1  0.93699000  0.87426000  0.34022000  1.0
  H  H27  1  0.96461000  0.81830000  0.44812000  1.0
  H  H28  1  0.80533000  0.81651000  0.45020000  1.0
  H  H29  1  0.77514000  0.86887000  0.33947000  1.0
  H  H30  1  0.23195000  0.59407000  0.09303000  1.0
  H  H31  1  0.76737000  0.40771000  0.90675000  1.0
  H  H32  1  0.47711000  0.16621000  0.83740000  1.0
  H  H33  1  0.46769000  0.21064000  0.93910000  1.0
  H  H34  1  0.48590000  0.82179000  0.13981000  1.0
  H  H35  1  0.48377000  0.77132000  0.03216000  1.0
  H  H36  1  0.51247000  0.36081000  0.67896000  1.0
  H  H37  1  0.51480000  0.46863000  0.72936000  1.0
  H  H38  1  0.52342000  0.66371000  0.33508000  1.0
  H  H39  1  0.53346000  0.56220000  0.29133000  1.0
  H  H40  1  0.67532000  0.81637000  0.83653000  1.0
  H  H41  1  0.73339000  0.76471000  0.93933000  1.0
  H  H42  1  0.32449000  0.16809000  0.13811000  1.0
  H  H43  1  0.26643000  0.21264000  0.02767000  1.0
  H  H44  1  0.67504000  0.36226000  0.33089000  1.0
  H  H45  1  0.73361000  0.47193000  0.28565000  1.0
  H  H46  1  0.32417000  0.66270000  0.68355000  1.0
  H  H47  1  0.26596000  0.56006000  0.73526000  1.0
  H  H48  1  0.03033000  0.36099000  0.84529000  1.0
  H  H49  1  0.18539000  0.46996000  0.94986000  1.0
  H  H50  1  0.96905000  0.65550000  0.13985000  1.0
  H  H51  1  0.81402000  0.55117000  0.03074000  1.0
  C  C52  1  0.49246000  0.99726000  0.18939000  1.0
  C  C53  1  0.50656000  0.31133000  0.50391000  1.0
  C  C54  1  0.49604000  0.00380000  0.80064000  1.0
  C  C55  1  0.50345000  0.70025000  0.49697000  1.0
  C  C56  1  0.80354000  0.99630000  0.49865000  1.0
  C  C57  1  0.18938000  0.69963000  0.19131000  1.0
  C  C58  1  0.19446000  0.00106000  0.50344000  1.0
  C  C59  1  0.80992000  0.30942000  0.80114000  1.0
  C  C60  1  0.80194000  0.30912000  0.49636000  1.0
  C  C61  1  0.80195000  0.99515000  0.79728000  1.0
  C  C62  1  0.19806000  0.70292000  0.50554000  1.0
  C  C63  1  0.19720000  0.00400000  0.19183000  1.0
  C  C64  1  0.49749000  0.00670000  0.90144000  1.0
  C  C65  1  0.49603000  0.99703000  0.09108000  1.0
  C  C66  1  0.49598000  0.08813000  0.95201000  1.0
  C  C67  1  0.50049000  0.91713000  0.04194000  1.0
  C  C68  1  0.49512000  0.07976000  0.04585000  1.0
  C  C69  1  0.50058000  0.92507000  0.94777000  1.0
  C  C70  1  0.50308000  0.40967000  0.50404000  1.0
  C  C71  1  0.50199000  0.59945000  0.49422000  1.0
  C  C72  1  0.49845000  0.45885000  0.58374000  1.0
  C  C73  1  0.50382000  0.54890000  0.41302000  1.0
  C  C74  1  0.49860000  0.55314000  0.57575000  1.0
  C  C75  1  0.50443000  0.45496000  0.42144000  1.0
  C  C76  1  0.89977000  0.99458000  0.89903000  1.0
  C  C77  1  0.09932000  0.00579000  0.09144000  1.0
  C  C78  1  0.86857000  0.91389000  0.95109000  1.0
  C  C79  1  0.13044000  0.08742000  0.04027000  1.0
  C  C80  1  0.97080000  0.92271000  0.04605000  1.0
  C  C81  1  0.02813000  0.07822000  0.94487000  1.0
  C  C82  1  0.90000000  0.40889000  0.49416000  1.0
  C  C83  1  0.10004000  0.60077000  0.50547000  1.0
  C  C84  1  0.86923000  0.45976000  0.41213000  1.0
  C  C85  1  0.13090000  0.54858000  0.58612000  1.0
  C  C86  1  0.97177000  0.55497000  0.42147000  1.0
  C  C87  1  0.02843000  0.45401000  0.57734000  1.0
  C  C88  1  0.07839000  0.09055000  0.46312000  1.0
  C  C89  1  0.97041000  0.08832000  0.46086000  1.0
  C  C90  1  0.90709000  0.99404000  0.50021000  1.0
  C  C91  1  0.01161000  0.01402000  0.61849000  1.0
  C  C92  1  0.11840000  0.01519000  0.61978000  1.0
  C  C93  1  0.08802000  0.99682000  0.50266000  1.0
  C  C94  1  0.95776000  0.88586000  0.42332000  1.0
  C  C95  1  0.85115000  0.88368000  0.42301000  1.0
  C  C96  1  0.91058000  0.40708000  0.90342000  1.0
  C  C97  1  0.08872000  0.59735000  0.09368000  1.0
  C  C98  1  0.04448000  0.45803000  0.95684000  1.0
  C  C99  1  0.95484000  0.54396000  0.04275000  1.0
  C  C100  1  0.12897000  0.55246000  0.05031000  1.0
  C  C101  1  0.87034000  0.45047000  0.94832000  1.0
  N  N102  1  0.49916000  0.17472000  0.91516000  1.0
  N  N103  1  0.50932000  0.83670000  0.08483000  1.0
  N  N104  1  0.48916000  0.41587000  0.66398000  1.0
  N  N105  1  0.50152000  0.58602000  0.32679000  1.0
  N  N106  1  0.74454000  0.83115000  0.91484000  1.0
  N  N107  1  0.25401000  0.17510000  0.08156000  1.0
  N  N108  1  0.74582000  0.41843000  0.32405000  1.0
  N  N109  1  0.25485000  0.58448000  0.66879000  1.0
  N  N110  1  0.09279000  0.41684000  0.92271000  1.0
  N  N111  1  0.90655000  0.57809000  0.08398000  1.0
  O  O112  1  0.49087000  0.91992000  0.23021000  1.0
  O  O113  1  0.50802000  0.27045000  0.58116000  1.0
  O  O114  1  0.49562000  0.08002000  0.75866000  1.0
  O  O115  1  0.50336000  0.74189000  0.42048000  1.0
  O  O116  1  0.84143000  0.07568000  0.57361000  1.0
  O  O117  1  0.15405000  0.74208000  0.23261000  1.0
  O  O118  1  0.15977000  0.92662000  0.42578000  1.0
  O  O119  1  0.84531000  0.26818000  0.75868000  1.0
  O  O120  1  0.68337000  0.26743000  0.42021000  1.0
  O  O121  1  0.68334000  0.91919000  0.75565000  1.0
  O  O122  1  0.31667000  0.74484000  0.58187000  1.0
  O  O123  1  0.31576000  0.08036000  0.23386000  1.0
  O  O124  1  0.83915000  0.07073000  0.75658000  1.0
  O  O125  1  0.16083000  0.74370000  0.43004000  1.0
  O  O126  1  0.15994000  0.92821000  0.23242000  1.0
  O  O127  1  0.83910000  0.26870000  0.57239000  1.0
  O  O128  1  0.68666000  0.92155000  0.42196000  1.0
  O  O129  1  0.69267000  0.27030000  0.76029000  1.0
  O  O130  1  0.31048000  0.07914000  0.57891000  1.0
  O  O131  1  0.30661000  0.74049000  0.23039000  1.0
  O  O132  1  0.50356000  0.74046000  0.57395000  1.0
  O  O133  1  0.49244000  0.07409000  0.22964000  1.0
  O  O134  1  0.50676000  0.27116000  0.42718000  1.0
  O  O135  1  0.49641000  0.92704000  0.76075000  1.0
  O  O136  1  0.36355000  0.80165000  0.43080000  1.0
  O  O137  1  0.63625000  0.07018000  0.69935000  1.0
  O  O138  1  0.36604000  0.07222000  0.43260000  1.0
  O  O139  1  0.63342000  0.06869000  0.42865000  1.0
  O  O140  1  0.60046000  0.15117000  0.54767000  1.0
  O  O141  1  0.39898000  0.95350000  0.34970000  1.0
  O  O142  1  0.40087000  0.95504000  0.54837000  1.0
  O  O143  1  0.59885000  0.95285000  0.54588000  1.0
