# generated using pymatgen
data_ZnFeH18C30S2N2(OF3)4
_symmetry_space_group_name_H-M   'P 1'
_cell_length_a   8.36465000
_cell_length_b   10.14870000
_cell_length_c   10.67480000
_cell_angle_alpha   94.50430000
_cell_angle_beta   112.18200000
_cell_angle_gamma   98.75640000
_symmetry_Int_Tables_number   1
_chemical_formula_structural   ZnFeH18C30S2N2(OF3)4
_chemical_formula_sum   'Zn1 Fe1 H18 C30 S2 N2 O4 F12'
_cell_volume   820.12986119
_cell_formula_units_Z   1
loop_
 _symmetry_equiv_pos_site_id
 _symmetry_equiv_pos_as_xyz
  1  'x, y, z'
loop_
 _atom_site_type_symbol
 _atom_site_label
 _atom_site_symmetry_multiplicity
 _atom_site_fract_x
 _atom_site_fract_y
 _atom_site_fract_z
 _atom_site_occupancy
  Zn  Zn0  1  0.50000000  0.50000000  0.50000000  1.0
  Fe  Fe1  1  0.00000000  0.00000000  0.00000000  1.0
  H  H2  1  0.65651000  0.52545000  0.81188000  1.0
  H  H3  1  0.34349000  0.47454000  0.18812000  1.0
  H  H4  1  0.60410000  0.41189000  0.99431000  1.0
  H  H5  1  0.39590000  0.58811000  0.00568000  1.0
  H  H6  1  0.18231000  0.12538000  0.67632000  1.0
  H  H7  1  0.81769000  0.87462000  0.32368000  1.0
  H  H8  1  0.25568000  0.24840000  0.50666000  1.0
  H  H9  1  0.74433000  0.75159000  0.49334000  1.0
  H  H10  1  0.16813000  0.88547000  0.84853000  1.0
  H  H11  1  0.83186000  0.11453000  0.15147000  1.0
  H  H12  1  0.81110000  0.81801000  0.75453000  1.0
  H  H13  1  0.18890000  0.18199000  0.24547000  1.0
  H  H14  1  0.68967000  0.04361000  0.79322000  1.0
  H  H15  1  0.31033000  0.95639000  0.20679000  1.0
  H  H16  1  0.97041000  0.25087000  0.91186000  1.0
  H  H17  1  0.02959000  0.74913000  0.08814000  1.0
  H  H18  1  0.97275000  0.30880000  0.63172000  1.0
  H  H19  1  0.02724000  0.69120000  0.36827000  1.0
  C  C20  1  0.55511000  0.43472000  0.78591000  1.0
  C  C21  1  0.44489000  0.56528000  0.21409000  1.0
  C  C22  1  0.52577000  0.37091000  0.88746000  1.0
  C  C23  1  0.47422000  0.62909000  0.11254000  1.0
  C  C24  1  0.38784000  0.25841000  0.85078000  1.0
  C  C25  1  0.61216000  0.74158000  0.14921000  1.0
  C  C26  1  0.28970000  0.21265000  0.71086000  1.0
  C  C27  1  0.71030000  0.78735000  0.28913000  1.0
  C  C28  1  0.33009000  0.28147000  0.61595000  1.0
  C  C29  1  0.66992000  0.71853000  0.38405000  1.0
  C  C30  1  0.13075000  0.09522000  0.89769000  1.0
  C  C31  1  0.86925000  0.90478000  0.10231000  1.0
  C  C32  1  0.07871000  0.95295000  0.84653000  1.0
  C  C33  1  0.92129000  0.04705000  0.15346000  1.0
  C  C34  1  0.89099000  0.91844000  0.79684000  1.0
  C  C35  1  0.10901000  0.08155000  0.20316000  1.0
  C  C36  1  0.82658000  0.03817000  0.81738000  1.0
  C  C37  1  0.17342000  0.96183000  0.18263000  1.0
  C  C38  1  0.97368000  0.14762000  0.87971000  1.0
  C  C39  1  0.02632000  0.85238000  0.12029000  1.0
  C  C40  1  0.71932000  0.14641000  0.42369000  1.0
  C  C41  1  0.28068000  0.85359000  0.57631000  1.0
  C  C42  1  0.71149000  0.28998000  0.47958000  1.0
  C  C43  1  0.28850000  0.71002000  0.52042000  1.0
  C  C44  1  0.86198000  0.35912000  0.59281000  1.0
  C  C45  1  0.13802000  0.64089000  0.40719000  1.0
  C  C46  1  0.87757000  0.48798000  0.65863000  1.0
  C  C47  1  0.12242000  0.51203000  0.34137000  1.0
  C  C48  1  0.05118000  0.54698000  0.78295000  1.0
  C  C49  1  0.94882000  0.45302000  0.21705000  1.0
  S  S50  1  0.34682000  0.18750000  0.98268000  1.0
  S  S51  1  0.65317000  0.81250000  0.01732000  1.0
  N  N52  1  0.45903000  0.39191000  0.65130000  1.0
  N  N53  1  0.54098000  0.60809000  0.34870000  1.0
  O  O54  1  0.56704000  0.32545000  0.41963000  1.0
  O  O55  1  0.43296000  0.67454000  0.58037000  1.0
  O  O56  1  0.76976000  0.56719000  0.63183000  1.0
  O  O57  1  0.23024000  0.43281000  0.36818000  1.0
  F  F58  1  0.62454000  0.11594000  0.28670000  1.0
  F  F59  1  0.37546000  0.88406000  0.71330000  1.0
  F  F60  1  0.65036000  0.05303000  0.48428000  1.0
  F  F61  1  0.34964000  0.94697000  0.51572000  1.0
  F  F62  1  0.88703000  0.12910000  0.44809000  1.0
  F  F63  1  0.11297000  0.87090000  0.55192000  1.0
  F  F64  1  0.15448000  0.64479000  0.75059000  1.0
  F  F65  1  0.84553000  0.35520000  0.24941000  1.0
  F  F66  1  0.15033000  0.45339000  0.83270000  1.0
  F  F67  1  0.84965000  0.54661000  0.16729000  1.0
  F  F68  1  0.01858000  0.60504000  0.88812000  1.0
  F  F69  1  0.98143000  0.39497000  0.11189000  1.0
