# generated using pymatgen
data_CoH14(C11N6)2
_symmetry_space_group_name_H-M   'P 1'
_cell_length_a   8.69736000
_cell_length_b   16.08810000
_cell_length_c   16.08992717
_cell_angle_alpha   116.80281881
_cell_angle_beta   100.37421589
_cell_angle_gamma   100.39000000
_symmetry_Int_Tables_number   1
_chemical_formula_structural   CoH14(C11N6)2
_chemical_formula_sum   'Co3 H42 C66 N36'
_cell_volume   1886.89334098
_cell_formula_units_Z   3
loop_
 _symmetry_equiv_pos_site_id
 _symmetry_equiv_pos_as_xyz
  1  'x, y, z'
loop_
 _atom_site_type_symbol
 _atom_site_label
 _atom_site_symmetry_multiplicity
 _atom_site_fract_x
 _atom_site_fract_y
 _atom_site_fract_z
 _atom_site_occupancy
  Co  Co0  1  1.00000000  0.50000000  0.50000000  1.0
  Co  Co1  1  0.50000000  0.50000000  0.00000000  1.0
  Co  Co2  1  0.50000000  0.00000000  0.50000000  1.0
  H  H3  1  0.27760000  0.36906333  0.03573000  1.0
  H  H4  1  0.24196000  0.96444000  0.33356000  1.0
  H  H5  1  0.90839000  0.66647000  0.63086000  1.0
  H  H6  1  0.72241000  0.63093667  0.96427000  1.0
  H  H7  1  0.75804000  0.03556000  0.66644000  1.0
  H  H8  1  0.09160000  0.33353000  0.36914000  1.0
  H  H9  1  0.20060000  0.37328000  0.17901000  1.0
  H  H10  1  0.02178000  0.82134000  0.19450000  1.0
  H  H11  1  0.82771000  0.80565000  0.62679000  1.0
  H  H12  1  0.79941000  0.62673000  0.82099000  1.0
  H  H13  1  0.97822000  0.17866000  0.80550000  1.0
  H  H14  1  0.17228000  0.19435000  0.37321000  1.0
  H  H15  1  0.59617000  0.64031000  0.36296000  1.0
  H  H16  1  0.23267000  0.63693000  0.27731000  1.0
  H  H17  1  0.95547000  0.72260000  0.35951000  1.0
  H  H18  1  0.40383000  0.35968000  0.63704000  1.0
  H  H19  1  0.76732000  0.36306000  0.72268000  1.0
  H  H20  1  0.04453000  0.27740000  0.64050000  1.0
  H  H21  1  0.65268000  0.62940000  0.21242000  1.0
  H  H22  1  0.43968000  0.78741000  0.41705000  1.0
  H  H23  1  0.02292000  0.58299000  0.37045000  1.0
  H  H24  1  0.34732000  0.37060000  0.78758000  1.0
  H  H25  1  0.56031000  0.21258000  0.58294000  1.0
  H  H26  1  0.97708000  0.41701000  0.62955000  1.0
  H  H27  1  0.60676000  0.70128000  0.66724000  1.0
  H  H28  1  0.93991000  0.33319000  0.03435000  1.0
  H  H29  1  0.90512000  0.96564000  0.29862000  1.0
  H  H30  1  0.39325000  0.29873000  0.33277000  1.0
  H  H31  1  0.06008000  0.66680000  0.96564000  1.0
  H  H32  1  0.09488000  0.03435000  0.70138000  1.0
  H  H33  1  0.38208000  0.73241000  0.88286000  1.0
  H  H34  1  0.50016000  0.11718000  0.84970000  1.0
  H  H35  1  0.64997000  0.15035000  0.26734000  1.0
  H  H36  1  0.61793000  0.26760000  0.11715000  1.0
  H  H37  1  0.49983000  0.88282000  0.15029000  1.0
  H  H38  1  0.35002000  0.84965000  0.73266000  1.0
  H  H39  1  0.11402000  0.61591000  0.75173000  1.0
  H  H40  1  0.36282000  0.24806000  0.86392000  1.0
  H  H41  1  0.49811000  0.13583000  0.38383000  1.0
  H  H42  1  0.88598000  0.38410000  0.24827000  1.0
  H  H43  1  0.63717000  0.75194000  0.13607000  1.0
  H  H44  1  0.50189000  0.86417000  0.61617000  1.0
  C  C45  1  0.34419000  0.42842000  0.10942000  1.0
  C  C46  1  0.23470000  0.89072000  0.31925000  1.0
  C  C47  1  0.91571000  0.68083000  0.57150000  1.0
  C  C48  1  0.65581000  0.57159000  0.89058000  1.0
  C  C49  1  0.76530000  0.10928000  0.68075000  1.0
  C  C50  1  0.08430000  0.31918000  0.42851000  1.0
  C  C51  1  0.30214000  0.43107000  0.18929000  1.0
  C  C52  1  0.11284000  0.81093000  0.24200000  1.0
  C  C53  1  0.87137000  0.75817000  0.56896000  1.0
  C  C54  1  0.69786000  0.56892000  0.81070000  1.0
  C  C55  1  0.88716000  0.18907000  0.75800000  1.0
  C  C56  1  0.12863000  0.24184000  0.43105000  1.0
  C  C57  1  0.39028000  0.50911000  0.28311000  1.0
  C  C58  1  0.10687000  0.71701000  0.22610000  1.0
  C  C59  1  0.88116000  0.77399000  0.49089000  1.0
  C  C60  1  0.60973000  0.49089000  0.71689000  1.0
  C  C61  1  0.89313000  0.28298000  0.77389000  1.0
  C  C62  1  0.11883000  0.22600000  0.50911000  1.0
  C  C63  1  0.52305000  0.57939000  0.29145000  1.0
  C  C64  1  0.23112000  0.70851000  0.28797000  1.0
  C  C65  1  0.94344000  0.71207000  0.42052000  1.0
  C  C66  1  0.47695000  0.42062000  0.70855000  1.0
  C  C67  1  0.76888000  0.29149000  0.71203000  1.0
  C  C68  1  0.05656000  0.28793000  0.57949000  1.0
  C  C69  1  0.55510000  0.57324000  0.20800000  1.0
  C  C70  1  0.34657000  0.79191000  0.36535000  1.0
  C  C71  1  0.98150000  0.63470000  0.42662000  1.0
  C  C72  1  0.44490000  0.42676000  0.79200000  1.0
  C  C73  1  0.65343000  0.20809000  0.63465000  1.0
  C  C74  1  0.01850000  0.36531000  0.57339000  1.0
  C  C75  1  0.33952000  0.52137000  0.36797000  1.0
  C  C76  1  0.97124000  0.63226000  0.15344000  1.0
  C  C77  1  0.81780000  0.84653000  0.47868000  1.0
  C  C78  1  0.66049000  0.47862000  0.63203000  1.0
  C  C79  1  0.02876000  0.36774000  0.84656000  1.0
  C  C80  1  0.18219000  0.15347000  0.52132000  1.0
  C  C81  1  0.32784000  0.57469000  0.51130000  1.0
  C  C82  1  0.81630000  0.48890000  0.06339000  1.0
  C  C83  1  0.75263000  0.93651000  0.42530000  1.0
  C  C84  1  0.67216000  0.42531000  0.48870000  1.0
  C  C85  1  0.18370000  0.51110000  0.93661000  1.0
  C  C86  1  0.24737000  0.06349000  0.57470000  1.0
  C  C87  1  0.34991000  0.62026000  0.61501000  1.0
  C  C88  1  0.73499000  0.38513000  0.00528000  1.0
  C  C89  1  0.72919000  0.99457000  0.37958000  1.0
  C  C90  1  0.65010000  0.37975000  0.38500000  1.0
  C  C91  1  0.26501000  0.61487000  0.99472000  1.0
  C  C92  1  0.27080000  0.00543000  0.62042000  1.0
  C  C93  1  0.49750000  0.68379000  0.68787000  1.0
  C  C94  1  0.81004000  0.31244000  0.99620000  1.0
  C  C95  1  0.81332000  0.00374000  0.31599000  1.0
  C  C96  1  0.50250000  0.31620000  0.31213000  1.0
  C  C97  1  0.18995000  0.68755000  0.00379000  1.0
  C  C98  1  0.18668000  0.99626000  0.68401000  1.0
  C  C99  1  0.37342000  0.69979000  0.80551000  1.0
  C  C100  1  0.56865000  0.19458000  0.89444000  1.0
  C  C101  1  0.67367000  0.10554000  0.29995000  1.0
  C  C102  1  0.62658000  0.30020000  0.19449000  1.0
  C  C103  1  0.43134000  0.80541000  0.10555000  1.0
  C  C104  1  0.32633000  0.89446000  0.70005000  1.0
  C  C105  1  0.22547000  0.63606000  0.73403000  1.0
  C  C106  1  0.49191000  0.26592000  0.90194000  1.0
  C  C107  1  0.58932000  0.09791000  0.36370000  1.0
  C  C108  1  0.77453000  0.36394000  0.26597000  1.0
  C  C109  1  0.50808000  0.73409000  0.09806000  1.0
  C  C110  1  0.41068000  0.90209000  0.63630000  1.0
  N  N111  1  0.46586000  0.49972000  0.11741000  1.0
  N  N112  1  0.34811000  0.88258000  0.38253000  1.0
  N  N113  1  0.96578000  0.61751000  0.50010000  1.0
  N  N114  1  0.53414000  0.50028000  0.88259000  1.0
  N  N115  1  0.65189000  0.11742000  0.61747000  1.0
  N  N116  1  0.03423000  0.38249000  0.49991000  1.0
  N  N117  1  0.43319000  0.58344000  0.46191000  1.0
  N  N118  1  0.97091000  0.53829000  0.12158000  1.0
  N  N119  1  0.84913000  0.87836000  0.41650000  1.0
  N  N120  1  0.56682000  0.41655000  0.53809000  1.0
  N  N121  1  0.02908000  0.46170000  0.87841000  1.0
  N  N122  1  0.15088000  0.12165000  0.58351000  1.0
  N  N123  1  0.17792000  0.51201000  0.45046000  1.0
  N  N124  1  0.72731000  0.54975000  0.06149000  1.0
  N  N125  1  0.66565000  0.93840000  0.48811000  1.0
  N  N126  1  0.82208000  0.48799000  0.54954000  1.0
  N  N127  1  0.27269000  0.45025000  0.93851000  1.0
  N  N128  1  0.33435000  0.06159000  0.51189000  1.0
  N  N129  1  0.18379000  0.47649000  0.35849000  1.0
  N  N130  1  0.82512000  0.64178000  0.11797000  1.0
  N  N131  1  0.70716000  0.88197000  0.52371000  1.0
  N  N132  1  0.81621000  0.52352000  0.64151000  1.0
  N  N133  1  0.17489000  0.35821000  0.88203000  1.0
  N  N134  1  0.29284000  0.11803000  0.47629000  1.0
  N  N135  1  0.21315000  0.59671000  0.63905000  1.0
  N  N136  1  0.57431000  0.36096000  0.95753000  1.0
  N  N137  1  0.61620000  0.04229000  0.40314000  1.0
  N  N138  1  0.78686000  0.40329000  0.36095000  1.0
  N  N139  1  0.42568000  0.63904000  0.04247000  1.0
  N  N140  1  0.38380000  0.95771000  0.59686000  1.0
  N  N141  1  0.50971000  0.72396000  0.78276000  1.0
  N  N142  1  0.72764000  0.21750000  0.94148000  1.0
  N  N143  1  0.78564000  0.05852000  0.27580000  1.0
  N  N144  1  0.49029000  0.27603000  0.21724000  1.0
  N  N145  1  0.27234000  0.78250000  0.05851000  1.0
  N  N146  1  0.21436000  0.94148000  0.72420000  1.0
