# generated using pymatgen
data_CdH4C6(SN2)2
_symmetry_space_group_name_H-M   'P 1'
_cell_length_a   9.71680000
_cell_length_b   13.22840000
_cell_length_c   15.42790000
_cell_angle_alpha   90.00030000
_cell_angle_beta   90.00060000
_cell_angle_gamma   77.67300000
_symmetry_Int_Tables_number   1
_chemical_formula_structural   CdH4C6(SN2)2
_chemical_formula_sum   'Cd8 H32 C48 S16 N32'
_cell_volume   1937.34758928
_cell_formula_units_Z   8
loop_
 _symmetry_equiv_pos_site_id
 _symmetry_equiv_pos_as_xyz
  1  'x, y, z'
loop_
 _atom_site_type_symbol
 _atom_site_label
 _atom_site_symmetry_multiplicity
 _atom_site_fract_x
 _atom_site_fract_y
 _atom_site_fract_z
 _atom_site_occupancy
  Cd  Cd0  1  0.18003000  0.38608000  0.26865000  1.0
  Cd  Cd1  1  0.31997000  0.11392000  0.76865000  1.0
  Cd  Cd2  1  0.81997000  0.61391000  0.73135000  1.0
  Cd  Cd3  1  0.68003000  0.88609000  0.23135000  1.0
  Cd  Cd4  1  0.48889000  0.51622000  0.26657000  1.0
  Cd  Cd5  1  0.01110000  0.98378000  0.76656000  1.0
  Cd  Cd6  1  0.51111000  0.48378000  0.73344000  1.0
  Cd  Cd7  1  0.98889000  0.01622000  0.23344000  1.0
  H  H8  1  0.34685000  0.72972000  0.35934000  1.0
  H  H9  1  0.15315000  0.77028000  0.85934000  1.0
  H  H10  1  0.65315000  0.27028000  0.64066000  1.0
  H  H11  1  0.84685000  0.22972000  0.14066000  1.0
  H  H12  1  0.11502000  0.83646000  0.41438000  1.0
  H  H13  1  0.38498000  0.66353000  0.91438000  1.0
  H  H14  1  0.88499000  0.16354000  0.58562000  1.0
  H  H15  1  0.61502000  0.33647000  0.08562000  1.0
  H  H16  1  0.90705000  0.74879000  0.41809000  1.0
  H  H17  1  0.59295000  0.75121000  0.91809000  1.0
  H  H18  1  0.09296000  0.25121000  0.58191000  1.0
  H  H19  1  0.40704000  0.24880000  0.08191000  1.0
  H  H20  1  0.94671000  0.56529000  0.36166000  1.0
  H  H21  1  0.55330000  0.93471000  0.86166000  1.0
  H  H22  1  0.05330000  0.43471000  0.63834000  1.0
  H  H23  1  0.44670000  0.06530000  0.13834000  1.0
  H  H24  1  0.71041000  0.34785000  0.36940000  1.0
  H  H25  1  0.78959000  0.15216000  0.86940000  1.0
  H  H26  1  0.28959000  0.65216000  0.63059000  1.0
  H  H27  1  0.21041000  0.84784000  0.13059000  1.0
  H  H28  1  0.73873000  0.17960000  0.45414000  1.0
  H  H29  1  0.76127000  0.32040000  0.95414000  1.0
  H  H30  1  0.26127000  0.82040000  0.54586000  1.0
  H  H31  1  0.23872000  0.67960000  0.04586000  1.0
  H  H32  1  0.51783000  0.11191000  0.48187000  1.0
  H  H33  1  0.98217000  0.38808000  0.98187000  1.0
  H  H34  1  0.48217000  0.88809000  0.51813000  1.0
  H  H35  1  0.01782000  0.61191000  0.01813000  1.0
  H  H36  1  0.29240000  0.20865000  0.41196000  1.0
  H  H37  1  0.20760000  0.29134000  0.91196000  1.0
  H  H38  1  0.70760000  0.79134000  0.58804000  1.0
  H  H39  1  0.79239000  0.70866000  0.08804000  1.0
  C  C40  1  0.98167000  0.23870000  0.34712000  1.0
  C  C41  1  0.51833000  0.26130000  0.84712000  1.0
  C  C42  1  0.01833000  0.76130000  0.65288000  1.0
  C  C43  1  0.48167000  0.73870000  0.15288000  1.0
  C  C44  1  0.82338000  0.45228000  0.19335000  1.0
  C  C45  1  0.67661000  0.04772000  0.69335000  1.0
  C  C46  1  0.17662000  0.54771000  0.80665000  1.0
  C  C47  1  0.32338000  0.95229000  0.30665000  1.0
  C  C48  1  0.32923000  0.45338000  0.09896000  1.0
  C  C49  1  0.17077000  0.04663000  0.59896000  1.0
  C  C50  1  0.67078000  0.54662000  0.90105000  1.0
  C  C51  1  0.82923000  0.95338000  0.40105000  1.0
  C  C52  1  0.17338000  0.17133000  0.15497000  1.0
  C  C53  1  0.32661000  0.32866000  0.65497000  1.0
  C  C54  1  0.82662000  0.82866000  0.84503000  1.0
  C  C55  1  0.67339000  0.67134000  0.34503000  1.0
  C  C56  1  0.25177000  0.69860000  0.36272000  1.0
  C  C57  1  0.24823000  0.80140000  0.86272000  1.0
  C  C58  1  0.74823000  0.30140000  0.63728000  1.0
  C  C59  1  0.75177000  0.19860000  0.13728000  1.0
  C  C60  1  0.12376000  0.75673000  0.39328000  1.0
  C  C61  1  0.37624000  0.74327000  0.89328000  1.0
  C  C62  1  0.87625000  0.24327000  0.60672000  1.0
  C  C63  1  0.62375000  0.25673000  0.10673000  1.0
  C  C64  1  0.01009000  0.70917000  0.39503000  1.0
  C  C65  1  0.48991000  0.79083000  0.89503000  1.0
  C  C66  1  0.98991000  0.29083000  0.60497000  1.0
  C  C67  1  0.51008000  0.20918000  0.10497000  1.0
  C  C68  1  0.03150000  0.60757000  0.36427000  1.0
  C  C69  1  0.46851000  0.89242000  0.86427000  1.0
  C  C70  1  0.96851000  0.39242000  0.63573000  1.0
  C  C71  1  0.53149000  0.10758000  0.13573000  1.0
  C  C72  1  0.62215000  0.31087000  0.38194000  1.0
  C  C73  1  0.87785000  0.18913000  0.88194000  1.0
  C  C74  1  0.37785000  0.68913000  0.61806000  1.0
  C  C75  1  0.12215000  0.81087000  0.11806000  1.0
  C  C76  1  0.63636000  0.21936000  0.42967000  1.0
  C  C77  1  0.86364000  0.28064000  0.92967000  1.0
  C  C78  1  0.36364000  0.78064000  0.57033000  1.0
  C  C79  1  0.13636000  0.71936000  0.07033000  1.0
  C  C80  1  0.51634000  0.18122000  0.44346000  1.0
  C  C81  1  0.98366000  0.31877000  0.94346000  1.0
  C  C82  1  0.48367000  0.81877000  0.55654000  1.0
  C  C83  1  0.01633000  0.68123000  0.05654000  1.0
  C  C84  1  0.39106000  0.23484000  0.40548000  1.0
  C  C85  1  0.10894000  0.26516000  0.90548000  1.0
  C  C86  1  0.60894000  0.76516000  0.59452000  1.0
  C  C87  1  0.89106000  0.73484000  0.09452000  1.0
  S  S88  1  0.00967000  0.34309000  0.39418000  1.0
  S  S89  1  0.49033000  0.15691000  0.89418000  1.0
  S  S90  1  0.99033000  0.65691000  0.60582000  1.0
  S  S91  1  0.50967000  0.84308000  0.10582000  1.0
  S  S92  1  0.97479000  0.46351000  0.15379000  1.0
  S  S93  1  0.52521000  0.03649000  0.65379000  1.0
  S  S94  1  0.02521000  0.53648000  0.84621000  1.0
  S  S95  1  0.47479000  0.96352000  0.34621000  1.0
  S  S96  1  0.32168000  0.45754000  0.99567000  1.0
  S  S97  1  0.17831000  0.04247000  0.49567000  1.0
  S  S98  1  0.67831000  0.54246000  0.00433000  1.0
  S  S99  1  0.82169000  0.95754000  0.50433000  1.0
  S  S100  1  0.11658000  0.08936000  0.09274000  1.0
  S  S101  1  0.38341000  0.41063000  0.59274000  1.0
  S  S102  1  0.88341000  0.91064000  0.90726000  1.0
  S  S103  1  0.61660000  0.58936000  0.40726000  1.0
  N  N104  1  0.95790000  0.16378000  0.31410000  1.0
  N  N105  1  0.54209000  0.33622000  0.81410000  1.0
  N  N106  1  0.04209000  0.83622000  0.68590000  1.0
  N  N107  1  0.45791000  0.66378000  0.18590000  1.0
  N  N108  1  0.71080000  0.44401000  0.21782000  1.0
  N  N109  1  0.78920000  0.05599000  0.71781000  1.0
  N  N110  1  0.28920000  0.55599000  0.78218000  1.0
  N  N111  1  0.21080000  0.94402000  0.28219000  1.0
  N  N112  1  0.33643000  0.44842000  0.17671000  1.0
  N  N113  1  0.16357000  0.05158000  0.67671000  1.0
  N  N114  1  0.66358000  0.55158000  0.82329000  1.0
  N  N115  1  0.83643000  0.94842000  0.32329000  1.0
  N  N116  1  0.21793000  0.22904000  0.20039000  1.0
  N  N117  1  0.28206000  0.27096000  0.70038000  1.0
  N  N118  1  0.78207000  0.77096000  0.79962000  1.0
  N  N119  1  0.71794000  0.72904000  0.29962000  1.0
  N  N120  1  0.15648000  0.55591000  0.33577000  1.0
  N  N121  1  0.34353000  0.94409000  0.83577000  1.0
  N  N122  1  0.84353000  0.44409000  0.66423000  1.0
  N  N123  1  0.65647000  0.05591000  0.16423000  1.0
  N  N124  1  0.26676000  0.60094000  0.33555000  1.0
  N  N125  1  0.23324000  0.89906000  0.83555000  1.0
  N  N126  1  0.73325000  0.39906000  0.66445000  1.0
  N  N127  1  0.76675000  0.10094000  0.16445000  1.0
  N  N128  1  0.38450000  0.32028000  0.35836000  1.0
  N  N129  1  0.11550000  0.17972000  0.85836000  1.0
  N  N130  1  0.61550000  0.67972000  0.64164000  1.0
  N  N131  1  0.88450000  0.82028000  0.14164000  1.0
  N  N132  1  0.49938000  0.35909000  0.34788000  1.0
  N  N133  1  0.00062000  0.14091000  0.84788000  1.0
  N  N134  1  0.50063000  0.64091000  0.65211000  1.0
  N  N135  1  0.99938000  0.85909000  0.15212000  1.0
