# generated using pymatgen
data_CsKH2C11(NO)4
_symmetry_space_group_name_H-M   'P 1'
_cell_length_a   8.36608000
_cell_length_b   9.29227000
_cell_length_c   10.61880000
_cell_angle_alpha   115.25300000
_cell_angle_beta   100.86200000
_cell_angle_gamma   104.34900000
_symmetry_Int_Tables_number   1
_chemical_formula_structural   CsKH2C11(NO)4
_chemical_formula_sum   'Cs2 K2 H4 C22 N8 O8'
_cell_volume   681.33936714
_cell_formula_units_Z   2
loop_
 _symmetry_equiv_pos_site_id
 _symmetry_equiv_pos_as_xyz
  1  'x, y, z'
loop_
 _atom_site_type_symbol
 _atom_site_label
 _atom_site_symmetry_multiplicity
 _atom_site_fract_x
 _atom_site_fract_y
 _atom_site_fract_z
 _atom_site_occupancy
  Cs  Cs0  1  0.86990000  0.19736000  0.60052000  1.0
  Cs  Cs1  1  0.13010000  0.80263000  0.39948000  1.0
  K  K2  1  0.41291000  0.37575000  0.78937000  1.0
  K  K3  1  0.58710000  0.62425000  0.21064000  1.0
  H  H4  1  0.12672000  0.42887000  0.98623000  1.0
  H  H5  1  0.87329000  0.57114000  0.01377000  1.0
  H  H6  1  0.15421000  0.58275000  0.95735000  1.0
  H  H7  1  0.84579000  0.41725000  0.04265000  1.0
  C  C8  1  0.07206000  0.89503000  0.84642000  1.0
  C  C9  1  0.92794000  0.10497000  0.15358000  1.0
  C  C10  1  0.16809000  0.89870000  0.97850000  1.0
  C  C11  1  0.83190000  0.10130000  0.02150000  1.0
  C  C12  1  0.32753000  0.05294000  0.05701000  1.0
  C  C13  1  0.67247000  0.94706000  0.94299000  1.0
  C  C14  1  0.33019000  0.14553000  0.97615000  1.0
  C  C15  1  0.66981000  0.85447000  0.02386000  1.0
  C  C16  1  0.17228000  0.04093000  0.83901000  1.0
  C  C17  1  0.82772000  0.95907000  0.16099000  1.0
  C  C18  1  0.91057000  0.77074000  0.74249000  1.0
  C  C19  1  0.08943000  0.22926000  0.25752000  1.0
  C  C20  1  0.82029000  0.62765000  0.75173000  1.0
  C  C21  1  0.17971000  0.37235000  0.24827000  1.0
  C  C22  1  0.82515000  0.78122000  0.62033000  1.0
  C  C23  1  0.17485000  0.21878000  0.37967000  1.0
  C  C24  1  0.45734000  0.10207000  0.18679000  1.0
  C  C25  1  0.54266000  0.89793000  0.81321000  1.0
  C  C26  1  0.45491000  0.99843000  0.25329000  1.0
  C  C27  1  0.54509000  0.00157000  0.74672000  1.0
  C  C28  1  0.60713000  0.25630000  0.26080000  1.0
  C  C29  1  0.39286000  0.74369000  0.73919000  1.0
  N  N30  1  0.73804000  0.50570000  0.75201000  1.0
  N  N31  1  0.26196000  0.49430000  0.24799000  1.0
  N  N32  1  0.74988000  0.78553000  0.51787000  1.0
  N  N33  1  0.25012000  0.21448000  0.48213000  1.0
  N  N34  1  0.46782000  0.92002000  0.31413000  1.0
  N  N35  1  0.53218000  0.07999000  0.68587000  1.0
  N  N36  1  0.73585000  0.37894000  0.32933000  1.0
  N  N37  1  0.26417000  0.62107000  0.67067000  1.0
  O  O38  1  0.12199000  0.79078000  0.01873000  1.0
  O  O39  1  0.87800000  0.20922000  0.98127000  1.0
  O  O40  1  0.44271000  0.28412000  0.00958000  1.0
  O  O41  1  0.55729000  0.71588000  0.99043000  1.0
  O  O42  1  0.13992000  0.07520000  0.73731000  1.0
  O  O43  1  0.86008000  0.92480000  0.26269000  1.0
  O  O44  1  0.15234000  0.46502000  0.91610000  1.0
  O  O45  1  0.84765000  0.53497000  0.08389000  1.0
