# generated using pymatgen
data_TbCuH16C16(NO)8
_symmetry_space_group_name_H-M   'P 1'
_cell_length_a   9.24199000
_cell_length_b   10.86500000
_cell_length_c   10.86510000
_cell_angle_alpha   88.04760000
_cell_angle_beta   72.69220000
_cell_angle_gamma   72.69210000
_symmetry_Int_Tables_number   1
_chemical_formula_structural   TbCuH16C16(NO)8
_chemical_formula_sum   'Tb2 Cu2 H32 C32 N16 O16'
_cell_volume   992.67029133
_cell_formula_units_Z   2
loop_
 _symmetry_equiv_pos_site_id
 _symmetry_equiv_pos_as_xyz
  1  'x, y, z'
loop_
 _atom_site_type_symbol
 _atom_site_label
 _atom_site_symmetry_multiplicity
 _atom_site_fract_x
 _atom_site_fract_y
 _atom_site_fract_z
 _atom_site_occupancy
  Tb  Tb0  1  0.25000000  0.03280000  0.96720000  1.0
  Tb  Tb1  1  0.75000000  0.96720000  0.03280000  1.0
  Cu  Cu2  1  0.50000000  0.00000000  0.50000000  1.0
  Cu  Cu3  1  0.00000000  0.50000000  0.00000000  1.0
  H  H4  1  0.56671000  0.74835000  0.36400000  1.0
  H  H5  1  0.93329000  0.63600000  0.25165000  1.0
  H  H6  1  0.43329000  0.25166000  0.63600000  1.0
  H  H7  1  0.06671000  0.36400000  0.74835000  1.0
  H  H8  1  0.43465000  0.63906000  0.55303000  1.0
  H  H9  1  0.06536000  0.44696000  0.36094000  1.0
  H  H10  1  0.56536000  0.36094000  0.44697000  1.0
  H  H11  1  0.93464000  0.55304000  0.63906000  1.0
  H  H12  1  0.14461000  0.67706000  0.61452000  1.0
  H  H13  1  0.35540000  0.38548000  0.32294000  1.0
  H  H14  1  0.85540000  0.32294000  0.38547000  1.0
  H  H15  1  0.64460000  0.61452000  0.67706000  1.0
  H  H16  1  0.11568000  0.93089000  0.30246000  1.0
  H  H17  1  0.38431000  0.69754000  0.06911000  1.0
  H  H18  1  0.88431000  0.06911000  0.69754000  1.0
  H  H19  1  0.61569000  0.30246000  0.93089000  1.0
  H  H20  1  0.11054000  0.92807000  0.79078000  1.0
  H  H21  1  0.38946000  0.20922000  0.07194000  1.0
  H  H22  1  0.88945000  0.07193000  0.20922000  1.0
  H  H23  1  0.61055000  0.79078000  0.92806000  1.0
  H  H24  1  0.18453000  0.02751000  0.70672000  1.0
  H  H25  1  0.31546000  0.29328000  0.97249000  1.0
  H  H26  1  0.81546000  0.97249000  0.29328000  1.0
  H  H27  1  0.68454000  0.70672000  0.02751000  1.0
  H  H28  1  0.41663000  0.76385000  0.83461000  1.0
  H  H29  1  0.08337000  0.16538000  0.23615000  1.0
  H  H30  1  0.58338000  0.23615000  0.16538000  1.0
  H  H31  1  0.91662000  0.83462000  0.76385000  1.0
  H  H32  1  0.53499000  0.84478000  0.77284000  1.0
  H  H33  1  0.96501000  0.22715000  0.15522000  1.0
  H  H34  1  0.46501000  0.15522000  0.22715000  1.0
  H  H35  1  0.03499000  0.77285000  0.84478000  1.0
  C  C36  1  0.43129000  0.91077000  0.21279000  1.0
  C  C37  1  0.06871000  0.78721000  0.08923000  1.0
  C  C38  1  0.56872000  0.08924000  0.78721000  1.0
  C  C39  1  0.93128000  0.21279000  0.91077000  1.0
  C  C40  1  0.34849000  0.84600000  0.32316000  1.0
  C  C41  1  0.15151000  0.67684000  0.15400000  1.0
  C  C42  1  0.65151000  0.15401000  0.67684000  1.0
  C  C43  1  0.84849000  0.32316000  0.84600000  1.0
  C  C44  1  0.43884000  0.76427000  0.39398000  1.0
  C  C45  1  0.06116000  0.60602000  0.23573000  1.0
  C  C46  1  0.56115000  0.23574000  0.60602000  1.0
  C  C47  1  0.93884000  0.39398000  0.76427000  1.0
  C  C48  1  0.36540000  0.70291000  0.49775000  1.0
  C  C49  1  0.13461000  0.50225000  0.29709000  1.0
  C  C50  1  0.63460000  0.29710000  0.50225000  1.0
  C  C51  1  0.86540000  0.49775000  0.70291000  1.0
  C  C52  1  0.20174000  0.72465000  0.53290000  1.0
  C  C53  1  0.29826000  0.46710000  0.27535000  1.0
  C  C54  1  0.79826000  0.27535000  0.46710000  1.0
  C  C55  1  0.70174000  0.53290000  0.72465000  1.0
  C  C56  1  0.10945000  0.80816000  0.46431000  1.0
  C  C57  1  0.39055000  0.53569000  0.19184000  1.0
  C  C58  1  0.89055000  0.19185000  0.53569000  1.0
  C  C59  1  0.60945000  0.46431000  0.80816000  1.0
  C  C60  1  0.18449000  0.86737000  0.35804000  1.0
  C  C61  1  0.31551000  0.64196000  0.13263000  1.0
  C  C62  1  0.81551000  0.13263000  0.64196000  1.0
  C  C63  1  0.68449000  0.35804000  0.86738000  1.0
  C  C64  1  0.93701000  0.83408000  0.50704000  1.0
  C  C65  1  0.56299000  0.49296000  0.16593000  1.0
  C  C66  1  0.06299000  0.16592000  0.49296000  1.0
  C  C67  1  0.43701000  0.50704000  0.83408000  1.0
  N  N68  1  0.83592000  0.89003000  0.43964000  1.0
  N  N69  1  0.66409000  0.56036000  0.10997000  1.0
  N  N70  1  0.16408000  0.10997000  0.56036000  1.0
  N  N71  1  0.33591000  0.43964000  0.89004000  1.0
  N  N72  1  0.69155000  0.89712000  0.52027000  1.0
  N  N73  1  0.80845000  0.47973000  0.10288000  1.0
  N  N74  1  0.30845000  0.10288000  0.47973000  1.0
  N  N75  1  0.19155000  0.52027000  0.89712000  1.0
  N  N76  1  0.70313000  0.84637000  0.63133000  1.0
  N  N77  1  0.79687000  0.36867000  0.15363000  1.0
  N  N78  1  0.29687000  0.15363000  0.36867000  1.0
  N  N79  1  0.20313000  0.63133000  0.84637000  1.0
  N  N80  1  0.85583000  0.80701000  0.62568000  1.0
  N  N81  1  0.64417000  0.37432000  0.19299000  1.0
  N  N82  1  0.14417000  0.19299000  0.37432000  1.0
  N  N83  1  0.35583000  0.62568000  0.80701000  1.0
  O  O84  1  0.56981000  0.91199000  0.20901000  1.0
  O  O85  1  0.93019000  0.79099000  0.08802000  1.0
  O  O86  1  0.43020000  0.08801000  0.79099000  1.0
  O  O87  1  0.06980000  0.20900000  0.91199000  1.0
  O  O88  1  0.36282000  0.96149000  0.12957000  1.0
  O  O89  1  0.13719000  0.87043000  0.03850000  1.0
  O  O90  1  0.63719000  0.03851000  0.87043000  1.0
  O  O91  1  0.86280000  0.12957000  0.96150000  1.0
  O  O92  1  0.19724000  0.96832000  0.77717000  1.0
  O  O93  1  0.30276000  0.22283000  0.03168000  1.0
  O  O94  1  0.80275000  0.03168000  0.22283000  1.0
  O  O95  1  0.69724000  0.77717000  0.96832000  1.0
  O  O96  1  0.46232000  0.82982000  0.85680000  1.0
  O  O97  1  0.03768000  0.14319000  0.17018000  1.0
  O  O98  1  0.53768000  0.17018000  0.14320000  1.0
  O  O99  1  0.96232000  0.85680000  0.82982000  1.0
