# generated using pymatgen
data_ZnH14C20N3O4F
_symmetry_space_group_name_H-M   'P 1'
_cell_length_a   10.98640000
_cell_length_b   15.86810000
_cell_length_c   17.15780000
_cell_angle_alpha   87.17810000
_cell_angle_beta   87.97740000
_cell_angle_gamma   86.16690000
_symmetry_Int_Tables_number   1
_chemical_formula_structural   ZnH14C20N3O4F
_chemical_formula_sum   'Zn2 H28 C40 N6 O8 F2'
_cell_volume   2979.32814522
_cell_formula_units_Z   2
loop_
 _symmetry_equiv_pos_site_id
 _symmetry_equiv_pos_as_xyz
  1  'x, y, z'
loop_
 _atom_site_type_symbol
 _atom_site_label
 _atom_site_symmetry_multiplicity
 _atom_site_fract_x
 _atom_site_fract_y
 _atom_site_fract_z
 _atom_site_occupancy
  Zn  Zn0  1  0.49354000  0.58853000  0.50102000  1.0
  Zn  Zn1  1  0.51154000  0.41283000  0.49709000  1.0
  H  H2  1  0.90061000  0.44461000  0.39452000  1.0
  H  H3  1  0.49232000  0.65974000  0.24887000  1.0
  H  H4  1  0.62112000  0.36167000  0.73881000  1.0
  H  H5  1  0.62064000  0.39848000  0.10910000  1.0
  H  H6  1  0.66300000  0.35900000  0.88264000  1.0
  H  H7  1  0.59905000  0.39462000  0.25603000  1.0
  H  H8  1  0.62166000  0.72640000  0.42542000  1.0
  H  H9  1  0.62375000  0.88550000  0.43074000  1.0
  H  H10  1  0.34996000  0.71523000  0.59809000  1.0
  H  H11  1  0.76051000  0.54867000  0.64030000  1.0
  H  H12  1  0.36759000  0.11642000  0.56605000  1.0
  H  H13  1  0.34247000  0.87389000  0.61232000  1.0
  H  H14  1  0.37138000  0.27644000  0.56975000  1.0
  H  H15  1  0.08672000  0.59180000  0.75973000  1.0
  H  H16  1  0.21300000  0.55290000  0.64450000  1.0
  H  H17  1  0.12855000  0.44202000  0.39675000  1.0
  H  H18  1  0.45848000  0.59913000  0.89968000  1.0
  H  H19  1  0.51299000  0.66405000  0.10147000  1.0
  H  H20  1  0.71755000  0.19605000  0.28408000  1.0
  H  H21  1  0.83706000  0.19329000  0.35105000  1.0
  H  H22  1  0.82815000  0.10941000  0.28734000  1.0
  H  H23  1  0.75734000  0.06424000  0.42102000  1.0
  H  H24  1  0.64479000  0.05959000  0.35283000  1.0
  H  H25  1  0.81049000  0.73091000  0.75260000  1.0
  H  H26  1  0.69134000  0.67118000  0.72147000  1.0
  H  H27  1  0.70193000  0.69065000  0.82205000  1.0
  H  H28  1  0.77944000  0.54277000  0.79706000  1.0
  H  H29  1  0.89799000  0.60100000  0.82879000  1.0
  C  C30  1  0.52164000  0.52139000  0.34724000  1.0
  C  C31  1  0.92999000  0.52561000  0.57398000  1.0
  C  C32  1  0.87459000  0.49765000  0.50676000  1.0
  C  C33  1  0.94494000  0.46745000  0.44459000  1.0
  C  C34  1  0.07310000  0.46614000  0.44577000  1.0
  C  C35  1  0.13042000  0.49642000  0.50826000  1.0
  C  C36  1  0.54246000  0.52659000  0.26032000  1.0
  C  C37  1  0.58117000  0.45314000  0.22115000  1.0
  C  C38  1  0.59337000  0.45512000  0.14042000  1.0
  C  C39  1  0.56604000  0.53154000  0.09738000  1.0
  C  C40  1  0.53243000  0.60577000  0.13650000  1.0
  C  C41  1  0.73830000  0.49929000  0.50349000  1.0
  C  C42  1  0.52086000  0.60331000  0.21755000  1.0
  C  C43  1  0.49570000  0.54764000  0.86453000  1.0
  C  C44  1  0.47390000  0.54712000  0.78589000  1.0
  C  C45  1  0.56556000  0.47929000  0.89927000  1.0
  C  C46  1  0.51881000  0.48126000  0.73879000  1.0
  C  C47  1  0.58665000  0.41315000  0.77501000  1.0
  C  C48  1  0.61018000  0.41168000  0.85426000  1.0
  C  C49  1  0.43524000  0.23845000  0.53374000  1.0
  C  C50  1  0.43362000  0.15164000  0.53140000  1.0
  C  C51  1  0.51916000  0.10871000  0.48223000  1.0
  C  C52  1  0.50295000  0.48473000  0.65223000  1.0
  C  C53  1  0.60525000  0.15235000  0.43532000  1.0
  C  C54  1  0.59787000  0.23980000  0.44475000  1.0
  C  C55  1  0.56159000  0.84953000  0.46786000  1.0
  C  C56  1  0.56070000  0.76252000  0.46482000  1.0
  C  C57  1  0.48096000  0.89065000  0.52111000  1.0
  C  C58  1  0.40807000  0.75586000  0.56227000  1.0
  C  C59  1  0.40408000  0.84296000  0.56985000  1.0
  C  C60  1  0.26658000  0.49720000  0.50406000  1.0
  C  C61  1  0.85976000  0.54952000  0.64128000  1.0
  C  C62  1  0.91372000  0.57242000  0.70808000  1.0
  C  C63  1  0.04281000  0.57367000  0.70748000  1.0
  C  C64  1  0.11413000  0.55159000  0.64297000  1.0
  C  C65  1  0.06061000  0.52597000  0.57450000  1.0
  C  C66  1  0.69655000  0.10462000  0.38294000  1.0
  C  C67  1  0.77385000  0.15435000  0.32331000  1.0
  C  C68  1  0.83733000  0.59512000  0.77992000  1.0
  C  C69  1  0.75557000  0.67679000  0.76835000  1.0
  N  N70  1  0.56049000  0.53947000  0.01537000  1.0
  N  N71  1  0.58760000  0.47209000  0.97996000  1.0
  N  N72  1  0.51775000  0.28170000  0.49066000  1.0
  N  N73  1  0.52214000  0.02037000  0.47408000  1.0
  N  N74  1  0.47547000  0.97910000  0.53108000  1.0
  N  N75  1  0.48484000  0.71693000  0.51079000  1.0
  O  O76  1  0.49035000  0.58977000  0.38084000  1.0
  O  O77  1  0.53644000  0.44821000  0.38068000  1.0
  O  O78  1  0.68168000  0.57069000  0.48966000  1.0
  O  O79  1  0.69083000  0.42854000  0.51458000  1.0
  O  O80  1  0.51290000  0.55724000  0.61839000  1.0
  O  O81  1  0.48615000  0.41630000  0.61996000  1.0
  O  O82  1  0.31261000  0.56714000  0.51487000  1.0
  O  O83  1  0.32624000  0.42797000  0.48864000  1.0
  F  F84  1  0.67657000  0.28851000  0.40507000  1.0
  F  F85  1  0.40230000  0.61276000  0.75426000  1.0
