# generated using pymatgen
data_CuH14C11I(BrN2)2
_symmetry_space_group_name_H-M   'P 1'
_cell_length_a   4.26226000
_cell_length_b   8.92500000
_cell_length_c   20.27090000
_cell_angle_alpha   89.99980000
_cell_angle_beta   89.99980000
_cell_angle_gamma   94.31410000
_symmetry_Int_Tables_number   1
_chemical_formula_structural   CuH14C11I(BrN2)2
_chemical_formula_sum   'Cu2 H28 C22 I2 Br4 N8'
_cell_volume   768.93377998
_cell_formula_units_Z   2
loop_
 _symmetry_equiv_pos_site_id
 _symmetry_equiv_pos_as_xyz
  1  'x, y, z'
loop_
 _atom_site_type_symbol
 _atom_site_label
 _atom_site_symmetry_multiplicity
 _atom_site_fract_x
 _atom_site_fract_y
 _atom_site_fract_z
 _atom_site_occupancy
  Cu  Cu0  1  0.02185000  0.58694000  0.25000000  1.0
  Cu  Cu1  1  0.97815000  0.41306000  0.75000000  1.0
  H  H2  1  0.78332000  0.64809000  0.38860000  1.0
  H  H3  1  0.21668000  0.35190000  0.88860000  1.0
  H  H4  1  0.21667000  0.35191000  0.61140000  1.0
  H  H5  1  0.78332000  0.64809000  0.11140000  1.0
  H  H6  1  0.78915000  0.55361000  0.46641000  1.0
  H  H7  1  0.21085000  0.44638000  0.96641000  1.0
  H  H8  1  0.21085000  0.44638000  0.53359000  1.0
  H  H9  1  0.78915000  0.55361000  0.03359000  1.0
  H  H10  1  0.45840000  0.52591000  0.41378000  1.0
  H  H11  1  0.54159000  0.47408000  0.91378000  1.0
  H  H12  1  0.54159000  0.47409000  0.58622000  1.0
  H  H13  1  0.45840000  0.52591000  0.08622000  1.0
  H  H14  1  0.98725000  0.96510000  0.31523000  1.0
  H  H15  1  0.01276000  0.03490000  0.81524000  1.0
  H  H16  1  0.01275000  0.03490000  0.68477000  1.0
  H  H17  1  0.98725000  0.96510000  0.18476000  1.0
  H  H18  1  0.05635000  0.97612000  0.40131000  1.0
  H  H19  1  0.94365000  0.02388000  0.90131000  1.0
  H  H20  1  0.94364000  0.02388000  0.59869000  1.0
  H  H21  1  0.05635000  0.97612000  0.09868000  1.0
  H  H22  1  0.36882000  0.02116000  0.34520000  1.0
  H  H23  1  0.63118000  0.97884000  0.84520000  1.0
  H  H24  1  0.63117000  0.97884000  0.65481000  1.0
  H  H25  1  0.36883000  0.02116000  0.15480000  1.0
  H  H26  1  0.49052000  0.37203000  0.25000000  1.0
  H  H27  1  0.50949000  0.62796000  0.75000000  1.0
  H  H28  1  0.40092000  0.17117000  0.25000000  1.0
  H  H29  1  0.59908000  0.82883000  0.75000000  1.0
  C  C30  1  0.71624000  0.54287000  0.41457000  1.0
  C  C31  1  0.28376000  0.45713000  0.91457000  1.0
  C  C32  1  0.28376000  0.45713000  0.58543000  1.0
  C  C33  1  0.71624000  0.54287000  0.08543000  1.0
  C  C34  1  0.86072000  0.41582000  0.38215000  1.0
  C  C35  1  0.13928000  0.58418000  0.88215000  1.0
  C  C36  1  0.13928000  0.58418000  0.61785000  1.0
  C  C37  1  0.86072000  0.41582000  0.11785000  1.0
  C  C38  1  0.87044000  0.26542000  0.40352000  1.0
  C  C39  1  0.12955000  0.73458000  0.90352000  1.0
  C  C40  1  0.12955000  0.73458000  0.59648000  1.0
  C  C41  1  0.87045000  0.26542000  0.09648000  1.0
  C  C42  1  0.03496000  0.18860000  0.35655000  1.0
  C  C43  1  0.96505000  0.81140000  0.85655000  1.0
  C  C44  1  0.96505000  0.81141000  0.64345000  1.0
  C  C45  1  0.03496000  0.18860000  0.14345000  1.0
  C  C46  1  0.11678000  0.03039000  0.35402000  1.0
  C  C47  1  0.88322000  0.96961000  0.85402000  1.0
  C  C48  1  0.88321000  0.96961000  0.64598000  1.0
  C  C49  1  0.11679000  0.03039000  0.14598000  1.0
  C  C50  1  0.30149000  0.28073000  0.25000000  1.0
  C  C51  1  0.69852000  0.71927000  0.75000000  1.0
  I  I52  1  0.55210000  0.75274000  0.25000000  1.0
  I  I53  1  0.44791000  0.24726000  0.75000000  1.0
  Br  Br54  1  0.69663000  0.18287000  0.48179000  1.0
  Br  Br55  1  0.30337000  0.81712000  0.98179000  1.0
  Br  Br56  1  0.30335000  0.81713000  0.51821000  1.0
  Br  Br57  1  0.69663000  0.18287000  0.01821000  1.0
  N  N58  1  0.01331000  0.43174000  0.32417000  1.0
  N  N59  1  0.98669000  0.56826000  0.82417000  1.0
  N  N60  1  0.98669000  0.56827000  0.67583000  1.0
  N  N61  1  0.01331000  0.43174000  0.17583000  1.0
  N  N62  1  0.11693000  0.29413000  0.30944000  1.0
  N  N63  1  0.88307000  0.70587000  0.80944000  1.0
  N  N64  1  0.88307000  0.70587000  0.69056000  1.0
  N  N65  1  0.11694000  0.29413000  0.19056000  1.0
