# generated using pymatgen
data_CdH18C20(N5Cl)2
_symmetry_space_group_name_H-M   'P 1'
_cell_length_a   4.01464000
_cell_length_b   14.84810000
_cell_length_c   20.91970000
_cell_angle_alpha   108.28300000
_cell_angle_beta   90.01980000
_cell_angle_gamma   97.76660000
_symmetry_Int_Tables_number   1
_chemical_formula_structural   CdH18C20(N5Cl)2
_chemical_formula_sum   'Cd2 H36 C40 N20 Cl4'
_cell_volume   1171.99444097
_cell_formula_units_Z   2
loop_
 _symmetry_equiv_pos_site_id
 _symmetry_equiv_pos_as_xyz
  1  'x, y, z'
loop_
 _atom_site_type_symbol
 _atom_site_label
 _atom_site_symmetry_multiplicity
 _atom_site_fract_x
 _atom_site_fract_y
 _atom_site_fract_z
 _atom_site_occupancy
  Cd  Cd0  1  0.00000000  0.00000000  0.00000000  1.0
  Cd  Cd1  1  0.00000000  0.00000000  0.50000000  1.0
  H  H2  1  0.37610000  0.22836000  0.08467000  1.0
  H  H3  1  0.14820000  0.77151000  0.41525000  1.0
  H  H4  1  0.62390000  0.77164000  0.91533000  1.0
  H  H5  1  0.85180000  0.22849000  0.58474000  1.0
  H  H6  1  0.23101000  0.39140000  0.05743000  1.0
  H  H7  1  0.84051000  0.60847000  0.44254000  1.0
  H  H8  1  0.76898000  0.60860000  0.94257000  1.0
  H  H9  1  0.15949000  0.39153000  0.55747000  1.0
  H  H10  1  0.73154000  0.13936000  0.91109000  1.0
  H  H11  1  0.59289000  0.86049000  0.58877000  1.0
  H  H12  1  0.26846000  0.86064000  0.08891000  1.0
  H  H13  1  0.40712000  0.13951000  0.41123000  1.0
  H  H14  1  0.58332000  0.29930000  0.90906000  1.0
  H  H15  1  0.28425000  0.70062000  0.59071000  1.0
  H  H16  1  0.41667000  0.70070000  0.09094000  1.0
  H  H17  1  0.71576000  0.29938000  0.40929000  1.0
  H  H18  1  0.73570000  0.40512000  0.97806000  1.0
  H  H19  1  0.33112000  0.59472000  0.52176000  1.0
  H  H20  1  0.26429000  0.59488000  0.02193000  1.0
  H  H21  1  0.66887000  0.40528000  0.47824000  1.0
  H  H22  1  0.84442000  0.18525000  0.79767000  1.0
  H  H23  1  0.65773000  0.81458000  0.70235000  1.0
  H  H24  1  0.15555000  0.81475000  0.20233000  1.0
  H  H25  1  0.34226000  0.18542000  0.29766000  1.0
  H  H26  1  0.08359000  0.15286000  0.68418000  1.0
  H  H27  1  0.92961000  0.84713000  0.81584000  1.0
  H  H28  1  0.91640000  0.84714000  0.31582000  1.0
  H  H29  1  0.07039000  0.15286000  0.18417000  1.0
  H  H30  1  0.46309000  0.27619000  0.65459000  1.0
  H  H31  1  0.18699000  0.72403000  0.84549000  1.0
  H  H32  1  0.53693000  0.72380000  0.34541000  1.0
  H  H33  1  0.81301000  0.27596000  0.15451000  1.0
  H  H34  1  0.63232000  0.43947000  0.73690000  1.0
  H  H35  1  0.19323000  0.56068000  0.76327000  1.0
  H  H36  1  0.36770000  0.56053000  0.26310000  1.0
  H  H37  1  0.80676000  0.43931000  0.23673000  1.0
  C  C38  1  0.22432000  0.23520000  0.04403000  1.0
  C  C39  1  0.98954000  0.76465000  0.45585000  1.0
  C  C40  1  0.77569000  0.76480000  0.95596000  1.0
  C  C41  1  0.01047000  0.23535000  0.54415000  1.0
  C  C42  1  0.15654000  0.31585000  0.03073000  1.0
  C  C43  1  0.84150000  0.68402000  0.46922000  1.0
  C  C44  1  0.84347000  0.68415000  0.96927000  1.0
  C  C45  1  0.15850000  0.31598000  0.53078000  1.0
  C  C46  1  0.89663000  0.18520000  0.95321000  1.0
  C  C47  1  0.71217000  0.81465000  0.54668000  1.0
  C  C48  1  0.10339000  0.81480000  0.04678000  1.0
  C  C49  1  0.28783000  0.18535000  0.45332000  1.0
  C  C50  1  0.80581000  0.34214000  0.93953000  1.0
  C  C51  1  0.46401000  0.65772000  0.56033000  1.0
  C  C52  1  0.19419000  0.65786000  0.06047000  1.0
  C  C53  1  0.53600000  0.34228000  0.43967000  1.0
  C  C54  1  0.11207000  0.33211000  0.83125000  1.0
  C  C55  1  0.77953000  0.66782000  0.66880000  1.0
  C  C56  1  0.88792000  0.66790000  0.16875000  1.0
  C  C57  1  0.22046000  0.33217000  0.33121000  1.0
  C  C58  1  0.01724000  0.24013000  0.78552000  1.0
  C  C59  1  0.77645000  0.75980000  0.71447000  1.0
  C  C60  1  0.98274000  0.75987000  0.21447000  1.0
  C  C61  1  0.22355000  0.24019000  0.28553000  1.0
  C  C62  1  0.15025000  0.22284000  0.72220000  1.0
  C  C63  1  0.92657000  0.77715000  0.77784000  1.0
  C  C64  1  0.84976000  0.77715000  0.27780000  1.0
  C  C65  1  0.07344000  0.22285000  0.22216000  1.0
  C  C66  1  0.36788000  0.29423000  0.70506000  1.0
  C  C67  1  0.07344000  0.70588000  0.79502000  1.0
  C  C68  1  0.63213000  0.70577000  0.29495000  1.0
  C  C69  1  0.92657000  0.29412000  0.20498000  1.0
  C  C70  1  0.46251000  0.38513000  0.75025000  1.0
  C  C71  1  0.07781000  0.61499000  0.74985000  1.0
  C  C72  1  0.53750000  0.61486000  0.24974000  1.0
  C  C73  1  0.92219000  0.38501000  0.25015000  1.0
  C  C74  1  0.33186000  0.40363000  0.81462000  1.0
  C  C75  1  0.92804000  0.59636000  0.68548000  1.0
  C  C76  1  0.66815000  0.59637000  0.18538000  1.0
  C  C77  1  0.07194000  0.40364000  0.31452000  1.0
  N  N78  1  0.06013000  0.15498000  0.99576000  1.0
  N  N79  1  0.90565000  0.84488000  0.50413000  1.0
  N  N80  1  0.93989000  0.84502000  0.00423000  1.0
  N  N81  1  0.09436000  0.15512000  0.49587000  1.0
  N  N82  1  0.95063000  0.28295000  0.97246000  1.0
  N  N83  1  0.66852000  0.71691000  0.52748000  1.0
  N  N84  1  0.04936000  0.71705000  0.02754000  1.0
  N  N85  1  0.33149000  0.28310000  0.47253000  1.0
  N  N86  1  0.03366000  0.37702000  0.89628000  1.0
  N  N87  1  0.65645000  0.62289000  0.60374000  1.0
  N  N88  1  0.96631000  0.62299000  0.10372000  1.0
  N  N89  1  0.34354000  0.37711000  0.39626000  1.0
  N  N90  1  0.19620000  0.46927000  0.91820000  1.0
  N  N91  1  0.72720000  0.53068000  0.58186000  1.0
  N  N92  1  0.80379000  0.53073000  0.08180000  1.0
  N  N93  1  0.27280000  0.46933000  0.41814000  1.0
  N  N94  1  0.37435000  0.48555000  0.87000000  1.0
  N  N95  1  0.88886000  0.51442000  0.63012000  1.0
  N  N96  1  0.62565000  0.51445000  0.13000000  1.0
  N  N97  1  0.11113000  0.48558000  0.36988000  1.0
  Cl  Cl98  1  0.48535000  0.95401000  0.90779000  1.0
  Cl  Cl99  1  0.53162000  0.04599000  0.59220000  1.0
  Cl  Cl100  1  0.51466000  0.04600000  0.09221000  1.0
  Cl  Cl101  1  0.46837000  0.95401000  0.40780000  1.0
