# generated using pymatgen
data_SmAsH6C7NO9
_symmetry_space_group_name_H-M   'P 1'
_cell_length_a   7.05526000
_cell_length_b   7.63838000
_cell_length_c   21.23200000
_cell_angle_alpha   89.99990000
_cell_angle_beta   89.99980000
_cell_angle_gamma   107.56000000
_symmetry_Int_Tables_number   1
_chemical_formula_structural   SmAsH6C7NO9
_chemical_formula_sum   'Sm4 As4 H24 C28 N4 O36'
_cell_volume   1090.89018167
_cell_formula_units_Z   4
loop_
 _symmetry_equiv_pos_site_id
 _symmetry_equiv_pos_as_xyz
  1  'x, y, z'
loop_
 _atom_site_type_symbol
 _atom_site_label
 _atom_site_symmetry_multiplicity
 _atom_site_fract_x
 _atom_site_fract_y
 _atom_site_fract_z
 _atom_site_occupancy
  Sm  Sm0  1  0.77424000  0.58263000  0.04263000  1.0
  Sm  Sm1  1  0.72576000  0.91737000  0.54263000  1.0
  Sm  Sm2  1  0.22577000  0.41737000  0.95737000  1.0
  Sm  Sm3  1  0.27423000  0.08262000  0.45737000  1.0
  As  As4  1  0.75395000  0.48130000  0.89063000  1.0
  As  As5  1  0.74606000  0.01871000  0.39062000  1.0
  As  As6  1  0.24607000  0.51871000  0.10938000  1.0
  As  As7  1  0.25393000  0.98129000  0.60938000  1.0
  H  H8  1  0.71012000  0.86207000  0.86516000  1.0
  H  H9  1  0.78990000  0.63794000  0.36516000  1.0
  H  H10  1  0.28990000  0.13794000  0.13484000  1.0
  H  H11  1  0.21010000  0.36207000  0.63484000  1.0
  H  H12  1  0.69939000  0.03406000  0.76726000  1.0
  H  H13  1  0.80063000  0.46595000  0.26726000  1.0
  H  H14  1  0.30063000  0.96595000  0.23274000  1.0
  H  H15  1  0.19937000  0.53405000  0.73274000  1.0
  H  H16  1  0.78521000  0.41143000  0.75569000  1.0
  H  H17  1  0.71479000  0.08857000  0.25569000  1.0
  H  H18  1  0.21479000  0.58857000  0.24431000  1.0
  H  H19  1  0.28521000  0.91143000  0.74431000  1.0
  H  H20  1  0.78400000  0.19519000  0.89175000  1.0
  H  H21  1  0.71600000  0.30481000  0.39175000  1.0
  H  H22  1  0.21600000  0.80480000  0.10825000  1.0
  H  H23  1  0.28399000  0.69519000  0.60825000  1.0
  H  H24  1  0.67905000  0.18966000  0.07895000  1.0
  H  H25  1  0.82095000  0.31034000  0.57895000  1.0
  H  H26  1  0.32095000  0.81034000  0.92105000  1.0
  H  H27  1  0.17905000  0.68966000  0.42105000  1.0
  H  H28  1  0.49530000  0.20033000  0.03733000  1.0
  H  H29  1  0.00470000  0.29967000  0.53733000  1.0
  H  H30  1  0.50470000  0.79968000  0.96267000  1.0
  H  H31  1  0.99530000  0.70032000  0.46267000  1.0
  C  C32  1  0.74949000  0.62481000  0.81670000  1.0
  C  C33  1  0.75052000  0.87519000  0.31670000  1.0
  C  C34  1  0.25052000  0.37519000  0.18330000  1.0
  C  C35  1  0.24948000  0.12481000  0.68330000  1.0
  C  C36  1  0.72438000  0.80211000  0.81957000  1.0
  C  C37  1  0.77564000  0.69789000  0.31957000  1.0
  C  C38  1  0.27564000  0.19789000  0.18043000  1.0
  C  C39  1  0.22436000  0.30211000  0.68043000  1.0
  C  C40  1  0.71779000  0.89758000  0.76509000  1.0
  C  C41  1  0.78222000  0.60242000  0.26509000  1.0
  C  C42  1  0.28222000  0.10242000  0.23491000  1.0
  C  C43  1  0.21778000  0.39758000  0.73491000  1.0
  C  C44  1  0.73263000  0.82498000  0.70341000  1.0
  C  C45  1  0.76738000  0.67503000  0.20341000  1.0
  C  C46  1  0.26738000  0.17502000  0.29659000  1.0
  C  C47  1  0.23262000  0.32498000  0.79659000  1.0
  C  C48  1  0.75882000  0.64397000  0.70348000  1.0
  C  C49  1  0.74118000  0.85603000  0.20348000  1.0
  C  C50  1  0.24118000  0.35603000  0.29652000  1.0
  C  C51  1  0.25882000  0.14397000  0.79652000  1.0
  C  C52  1  0.76609000  0.54698000  0.75929000  1.0
  C  C53  1  0.73392000  0.95302000  0.25929000  1.0
  C  C54  1  0.23392000  0.45302000  0.24071000  1.0
  C  C55  1  0.26608000  0.04698000  0.74071000  1.0
  C  C56  1  0.08560000  0.00344000  0.02345000  1.0
  C  C57  1  0.41440000  0.49656000  0.52345000  1.0
  C  C58  1  0.91440000  0.99656000  0.97655000  1.0
  C  C59  1  0.58559000  0.50344000  0.47655000  1.0
  N  N60  1  0.77598000  0.55228000  0.64702000  1.0
  N  N61  1  0.72402000  0.94772000  0.14702000  1.0
  N  N62  1  0.22402000  0.44772000  0.35298000  1.0
  N  N63  1  0.27598000  0.05228000  0.85298000  1.0
  O  O64  1  0.95657000  0.54354000  0.93932000  1.0
  O  O65  1  0.54343000  0.95647000  0.43932000  1.0
  O  O66  1  0.04343000  0.45647000  0.06068000  1.0
  O  O67  1  0.45656000  0.04353000  0.56068000  1.0
  O  O68  1  0.57009000  0.48106000  0.94286000  1.0
  O  O69  1  0.92990000  0.01895000  0.44286000  1.0
  O  O70  1  0.42991000  0.51894000  0.05714000  1.0
  O  O71  1  0.07009000  0.98105000  0.55714000  1.0
  O  O72  1  0.72534000  0.26094000  0.85954000  1.0
  O  O73  1  0.77466000  0.23907000  0.35954000  1.0
  O  O74  1  0.27466000  0.73907000  0.14046000  1.0
  O  O75  1  0.22533000  0.76093000  0.64046000  1.0
  O  O76  1  0.77252000  0.38647000  0.64991000  1.0
  O  O77  1  0.72748000  0.11353000  0.14991000  1.0
  O  O78  1  0.22748000  0.61353000  0.35009000  1.0
  O  O79  1  0.27253000  0.88647000  0.85009000  1.0
  O  O80  1  0.79664000  0.63311000  0.59492000  1.0
  O  O81  1  0.70335000  0.86688000  0.09492000  1.0
  O  O82  1  0.20335000  0.36688000  0.40508000  1.0
  O  O83  1  0.29665000  0.13311000  0.90508000  1.0
  O  O84  1  0.71853000  0.91719000  0.65410000  1.0
  O  O85  1  0.78147000  0.58281000  0.15410000  1.0
  O  O86  1  0.28147000  0.08281000  0.34590000  1.0
  O  O87  1  0.21853000  0.41719000  0.84590000  1.0
  O  O88  1  0.07166000  0.85784000  0.05418000  1.0
  O  O89  1  0.42833000  0.64215000  0.55418000  1.0
  O  O90  1  0.92834000  0.14216000  0.94582000  1.0
  O  O91  1  0.57165000  0.35784000  0.44582000  1.0
  O  O92  1  0.22344000  0.15326000  0.02815000  1.0
  O  O93  1  0.27655000  0.34673000  0.52815000  1.0
  O  O94  1  0.77656000  0.84674000  0.97185000  1.0
  O  O95  1  0.72344000  0.65326000  0.47185000  1.0
  O  O96  1  0.64078000  0.25019000  0.04159000  1.0
  O  O97  1  0.85921000  0.24980000  0.54159000  1.0
  O  O98  1  0.35922000  0.74981000  0.95841000  1.0
  O  O99  1  0.14078000  0.75019000  0.45841000  1.0
