# generated using pymatgen
data_LaP2H8(CO2)4
_symmetry_space_group_name_H-M   'P 1'
_cell_length_a   5.99777000
_cell_length_b   9.22946000
_cell_length_c   10.02356955
_cell_angle_alpha   77.50129254
_cell_angle_beta   73.26855476
_cell_angle_gamma   73.26200000
_symmetry_Int_Tables_number   1
_chemical_formula_structural   LaP2H8(CO2)4
_chemical_formula_sum   'La2 P4 H16 C8 O16'
_cell_volume   503.44154767
_cell_formula_units_Z   2
loop_
 _symmetry_equiv_pos_site_id
 _symmetry_equiv_pos_as_xyz
  1  'x, y, z'
loop_
 _atom_site_type_symbol
 _atom_site_label
 _atom_site_symmetry_multiplicity
 _atom_site_fract_x
 _atom_site_fract_y
 _atom_site_fract_z
 _atom_site_occupancy
  La  La0  1  0.30419000  0.81975000  0.48038000  1.0
  La  La1  1  0.69580000  0.18026000  0.51962000  1.0
  P  P2  1  0.80833000  0.73644000  0.63537000  1.0
  P  P3  1  0.19168000  0.26356000  0.36463000  1.0
  P  P4  1  0.39188000  0.93479000  0.80545000  1.0
  P  P5  1  0.60811000  0.06521000  0.19455000  1.0
  H  H6  1  0.76452000  0.80380000  0.86071000  1.0
  H  H7  1  0.23548000  0.19620000  0.13929000  1.0
  H  H8  1  0.28308000  0.63455000  0.81484000  1.0
  H  H9  1  0.71692000  0.36545000  0.18516000  1.0
  H  H10  1  0.82534000  0.59336000  0.03386000  1.0
  H  H11  1  0.17465000  0.40664000  0.96614000  1.0
  H  H12  1  0.12918000  0.88007000  0.99985000  1.0
  H  H13  1  0.87083000  0.11993000  0.00015000  1.0
  H  H14  1  0.98705000  0.91935000  0.27760000  1.0
  H  H15  1  0.01295000  0.08065000  0.72240000  1.0
  H  H16  1  0.25342000  0.84586000  0.20247000  1.0
  H  H17  1  0.74658000  0.15415000  0.79754000  1.0
  H  H18  1  0.42628000  0.50851000  0.36921000  1.0
  H  H19  1  0.57371000  0.49149000  0.63079000  1.0
  H  H20  1  0.67758000  0.53749000  0.35617000  1.0
  H  H21  1  0.32242000  0.46252000  0.64383000  1.0
  C  C22  1  0.64354000  0.76832000  0.81652000  1.0
  C  C23  1  0.35647000  0.23168000  0.18347000  1.0
  C  C24  1  0.56692000  0.63010000  0.91047000  1.0
  C  C25  1  0.43308000  0.36991000  0.08953000  1.0
  C  C26  1  0.37975000  0.57669000  0.89579000  1.0
  C  C27  1  0.62025000  0.42331000  0.10422000  1.0
  C  C28  1  0.68411000  0.55199000  0.01694000  1.0
  C  C29  1  0.31588000  0.44801000  0.98307000  1.0
  O  O30  1  0.65058000  0.67480000  0.57633000  1.0
  O  O31  1  0.34942000  0.32520000  0.42368000  1.0
  O  O32  1  0.23497000  0.90797000  0.72128000  1.0
  O  O33  1  0.76503000  0.09202000  0.27872000  1.0
  O  O34  1  0.06271000  0.63636000  0.63118000  1.0
  O  O35  1  0.93730000  0.36364000  0.36882000  1.0
  O  O36  1  0.83712000  0.89758000  0.55465000  1.0
  O  O37  1  0.16289000  0.10242000  0.44535000  1.0
  O  O38  1  0.24256000  0.94546000  0.96671000  1.0
  O  O39  1  0.75745000  0.05455000  0.03328000  1.0
  O  O40  1  0.47540000  0.08114000  0.75489000  1.0
  O  O41  1  0.52459000  0.91886000  0.24510000  1.0
  O  O42  1  0.11631000  0.82325000  0.27752000  1.0
  O  O43  1  0.88368000  0.17675000  0.72248000  1.0
  O  O44  1  0.50967000  0.59086000  0.35587000  1.0
  O  O45  1  0.49032000  0.40914000  0.64413000  1.0
