# generated using pymatgen
data_CuH7C15NO4
_symmetry_space_group_name_H-M   'P 1'
_cell_length_a   18.27780000
_cell_length_b   18.27780000
_cell_length_c   26.46120000
_cell_angle_alpha   69.79890000
_cell_angle_beta   69.79890000
_cell_angle_gamma   60.00030000
_symmetry_Int_Tables_number   1
_chemical_formula_structural   CuH7C15NO4
_chemical_formula_sum   'Cu12 H84 C180 N12 O48'
_cell_volume   7020.84694655
_cell_formula_units_Z   12
loop_
 _symmetry_equiv_pos_site_id
 _symmetry_equiv_pos_as_xyz
  1  'x, y, z'
loop_
 _atom_site_type_symbol
 _atom_site_label
 _atom_site_symmetry_multiplicity
 _atom_site_fract_x
 _atom_site_fract_y
 _atom_site_fract_z
 _atom_site_occupancy
  Cu  Cu0  1  0.75973000  0.31551000  0.20849000  1.0
  Cu  Cu1  1  0.31551000  0.71626000  0.20849000  1.0
  Cu  Cu2  1  0.71625000  0.75974000  0.20850000  1.0
  Cu  Cu3  1  0.78374000  0.18449000  0.29151000  1.0
  Cu  Cu4  1  0.74026000  0.78375000  0.29151000  1.0
  Cu  Cu5  1  0.18449000  0.74027000  0.29151000  1.0
  Cu  Cu6  1  0.24027000  0.68449000  0.79151000  1.0
  Cu  Cu7  1  0.68449000  0.28374000  0.79151000  1.0
  Cu  Cu8  1  0.28375000  0.24026000  0.79150000  1.0
  Cu  Cu9  1  0.21626000  0.81552000  0.70849000  1.0
  Cu  Cu10  1  0.25974000  0.21625000  0.70849000  1.0
  Cu  Cu11  1  0.81551000  0.25973000  0.70849000  1.0
  H  H12  1  0.83995000  0.28095000  0.58784000  1.0
  H  H13  1  0.28093000  0.29127000  0.58784000  1.0
  H  H14  1  0.29126000  0.83995000  0.58784000  1.0
  H  H15  1  0.20873000  0.21907000  0.91216000  1.0
  H  H16  1  0.66004000  0.20874000  0.91216000  1.0
  H  H17  1  0.21905000  0.66005000  0.91216000  1.0
  H  H18  1  0.16005000  0.71905000  0.41216000  1.0
  H  H19  1  0.71907000  0.70873000  0.41216000  1.0
  H  H20  1  0.70874000  0.16004000  0.41216000  1.0
  H  H21  1  0.79127000  0.78093000  0.08784000  1.0
  H  H22  1  0.33996000  0.79126000  0.08784000  1.0
  H  H23  1  0.78095000  0.33995000  0.08784000  1.0
  H  H24  1  0.01126000  0.23492000  0.67662000  1.0
  H  H25  1  0.23496000  0.07718000  0.67662000  1.0
  H  H26  1  0.07717000  0.01126000  0.67662000  1.0
  H  H27  1  0.42282000  0.26504000  0.82338000  1.0
  H  H28  1  0.48874000  0.42283000  0.82338000  1.0
  H  H29  1  0.26508000  0.48874000  0.82338000  1.0
  H  H30  1  0.98874000  0.76508000  0.32338000  1.0
  H  H31  1  0.76504000  0.92282000  0.32338000  1.0
  H  H32  1  0.92283000  0.98874000  0.32338000  1.0
  H  H33  1  0.57718000  0.73496000  0.17662000  1.0
  H  H34  1  0.51126000  0.57717000  0.17662000  1.0
  H  H35  1  0.73492000  0.51126000  0.17662000  1.0
  H  H36  1  0.11307000  0.26915000  0.59068000  1.0
  H  H37  1  0.26917000  0.02710000  0.59068000  1.0
  H  H38  1  0.02708000  0.11307000  0.59068000  1.0
  H  H39  1  0.47290000  0.23083000  0.90932000  1.0
  H  H40  1  0.38693000  0.47291000  0.90933000  1.0
  H  H41  1  0.23085000  0.38693000  0.90932000  1.0
  H  H42  1  0.88693000  0.73085000  0.40932000  1.0
  H  H43  1  0.73083000  0.97290000  0.40931000  1.0
  H  H44  1  0.97292000  0.88693000  0.40932000  1.0
  H  H45  1  0.52710000  0.76917000  0.09068000  1.0
  H  H46  1  0.61307000  0.52708000  0.09067000  1.0
  H  H47  1  0.76915000  0.61307000  0.09068000  1.0
  H  H48  1  0.07389000  0.31222000  0.49924000  1.0
  H  H49  1  0.31224000  0.11462000  0.49923000  1.0
  H  H50  1  0.11464000  0.07391000  0.49922000  1.0
  H  H51  1  0.38538000  0.18776000  0.00077000  1.0
  H  H52  1  0.42609000  0.38536000  0.00078000  1.0
  H  H53  1  0.18778000  0.42611000  0.00077000  1.0
  H  H54  1  0.92611000  0.68778000  0.50076000  1.0
  H  H55  1  0.68776000  0.88538000  0.50077000  1.0
  H  H56  1  0.88536000  0.92609000  0.50078000  1.0
  H  H57  1  0.61463000  0.81224000  0.99923000  1.0
  H  H58  1  0.57391000  0.61464000  0.99922000  1.0
  H  H59  1  0.81222000  0.57389000  0.99924000  1.0
  H  H60  1  0.86874000  0.27317000  0.39018000  1.0
  H  H61  1  0.27319000  0.46789000  0.39019000  1.0
  H  H62  1  0.46788000  0.86875000  0.39019000  1.0
  H  H63  1  0.03211000  0.22681000  0.10981000  1.0
  H  H64  1  0.63125000  0.03212000  0.10981000  1.0
  H  H65  1  0.22683000  0.63126000  0.10982000  1.0
  H  H66  1  0.13126000  0.72683000  0.60982000  1.0
  H  H67  1  0.72681000  0.53211000  0.60981000  1.0
  H  H68  1  0.53212000  0.13125000  0.60981000  1.0
  H  H69  1  0.96789000  0.77319000  0.89019000  1.0
  H  H70  1  0.36875000  0.96788000  0.89019000  1.0
  H  H71  1  0.77317000  0.36874000  0.89018000  1.0
  H  H72  1  0.76832000  0.49563000  0.26385000  1.0
  H  H73  1  0.49561000  0.47221000  0.26382000  1.0
  H  H74  1  0.47218000  0.76835000  0.26384000  1.0
  H  H75  1  0.02779000  0.00439000  0.23618000  1.0
  H  H76  1  0.73165000  0.02782000  0.23616000  1.0
  H  H77  1  0.00437000  0.73168000  0.23615000  1.0
  H  H78  1  0.23168000  0.50437000  0.73615000  1.0
  H  H79  1  0.50439000  0.52779000  0.73618000  1.0
  H  H80  1  0.52782000  0.23165000  0.73616000  1.0
  H  H81  1  0.97221000  0.99561000  0.76382000  1.0
  H  H82  1  0.26835000  0.97218000  0.76384000  1.0
  H  H83  1  0.99563000  0.26832000  0.76385000  1.0
  H  H84  1  0.84066000  0.52193000  0.39241000  1.0
  H  H85  1  0.52196000  0.24501000  0.39238000  1.0
  H  H86  1  0.24496000  0.84069000  0.39239000  1.0
  H  H87  1  0.25499000  0.97804000  0.10762000  1.0
  H  H88  1  0.65931000  0.25504000  0.10761000  1.0
  H  H89  1  0.97807000  0.65934000  0.10759000  1.0
  H  H90  1  0.15934000  0.47807000  0.60759000  1.0
  H  H91  1  0.47804000  0.75499000  0.60762000  1.0
  H  H92  1  0.75504000  0.15931000  0.60761000  1.0
  H  H93  1  0.74500000  0.02196000  0.89238000  1.0
  H  H94  1  0.34069000  0.74497000  0.89239000  1.0
  H  H95  1  0.02193000  0.34066000  0.89241000  1.0
  C  C96  1  0.90143000  0.27846000  0.58655000  1.0
  C  C97  1  0.27846000  0.23357000  0.58655000  1.0
  C  C98  1  0.23356000  0.90143000  0.58654000  1.0
  C  C99  1  0.26643000  0.22153000  0.91345000  1.0
  C  C100  1  0.59857000  0.26644000  0.91346000  1.0
  C  C101  1  0.22154000  0.59857000  0.91346000  1.0
  C  C102  1  0.09857000  0.72154000  0.41345000  1.0
  C  C103  1  0.72154000  0.76643000  0.41345000  1.0
  C  C104  1  0.76644000  0.09857000  0.41346000  1.0
  C  C105  1  0.73357000  0.77846000  0.08655000  1.0
  C  C106  1  0.40143000  0.73356000  0.08654000  1.0
  C  C107  1  0.77846000  0.40143000  0.08655000  1.0
  C  C108  1  0.99731000  0.25257000  0.63605000  1.0
  C  C109  1  0.25265000  0.11404000  0.63606000  1.0
  C  C110  1  0.11403000  0.99730000  0.63605000  1.0
  C  C111  1  0.38596000  0.24734000  0.86394000  1.0
  C  C112  1  0.50270000  0.38597000  0.86396000  1.0
  C  C113  1  0.24743000  0.50269000  0.86395000  1.0
  C  C114  1  0.00269000  0.74743000  0.36395000  1.0
  C  C115  1  0.74734000  0.88596000  0.36394000  1.0
  C  C116  1  0.88597000  0.00270000  0.36396000  1.0
  C  C117  1  0.61404000  0.75266000  0.13606000  1.0
  C  C118  1  0.49730000  0.61403000  0.13604000  1.0
  C  C119  1  0.75257000  0.49731000  0.13605000  1.0
  C  C120  1  0.05347000  0.27205000  0.58808000  1.0
  C  C121  1  0.27214000  0.08636000  0.58809000  1.0
  C  C122  1  0.08637000  0.05347000  0.58807000  1.0
  C  C123  1  0.41364000  0.22786000  0.91191000  1.0
  C  C124  1  0.44653000  0.41363000  0.91193000  1.0
  C  C125  1  0.22795000  0.44653000  0.91192000  1.0
  C  C126  1  0.94653000  0.72795000  0.41192000  1.0
  C  C127  1  0.72786000  0.91364000  0.41191000  1.0
  C  C128  1  0.91363000  0.94653000  0.41193000  1.0
  C  C129  1  0.58636000  0.77214000  0.08809000  1.0
  C  C130  1  0.55347000  0.58637000  0.08807000  1.0
  C  C131  1  0.77205000  0.55347000  0.08808000  1.0
  C  C132  1  0.03169000  0.29604000  0.53744000  1.0
  C  C133  1  0.29611000  0.13479000  0.53744000  1.0
  C  C134  1  0.13481000  0.03171000  0.53743000  1.0
  C  C135  1  0.36521000  0.20389000  0.96256000  1.0
  C  C136  1  0.46829000  0.36519000  0.96257000  1.0
  C  C137  1  0.20396000  0.46831000  0.96256000  1.0
  C  C138  1  0.96831000  0.70396000  0.46256000  1.0
  C  C139  1  0.70389000  0.86521000  0.46256000  1.0
  C  C140  1  0.86519000  0.96829000  0.46257000  1.0
  C  C141  1  0.63479000  0.79611000  0.03744000  1.0
  C  C142  1  0.53171000  0.63481000  0.03743000  1.0
  C  C143  1  0.79604000  0.53169000  0.03744000  1.0
  C  C144  1  0.95340000  0.30020000  0.53588000  1.0
  C  C145  1  0.30021000  0.21052000  0.53588000  1.0
  C  C146  1  0.21053000  0.95342000  0.53588000  1.0
  C  C147  1  0.28948000  0.19979000  0.96412000  1.0
  C  C148  1  0.54658000  0.28947000  0.96413000  1.0
  C  C149  1  0.19980000  0.54660000  0.96412000  1.0
  C  C150  1  0.04660000  0.69980000  0.46412000  1.0
  C  C151  1  0.69979000  0.78948000  0.46412000  1.0
  C  C152  1  0.78947000  0.04657000  0.46413000  1.0
  C  C153  1  0.71052000  0.80021000  0.03588000  1.0
  C  C154  1  0.45342000  0.71053000  0.03587000  1.0
  C  C155  1  0.80021000  0.45340000  0.03588000  1.0
  C  C156  1  0.92443000  0.32833000  0.48625000  1.0
  C  C157  1  0.32828000  0.26105000  0.48626000  1.0
  C  C158  1  0.26103000  0.92441000  0.48626000  1.0
  C  C159  1  0.23895000  0.17172000  0.01374000  1.0
  C  C160  1  0.57559000  0.23896000  0.01374000  1.0
  C  C161  1  0.17167000  0.57557000  0.01375000  1.0
  C  C162  1  0.07557000  0.67167000  0.51375000  1.0
  C  C163  1  0.67172000  0.73895000  0.51374000  1.0
  C  C164  1  0.73897000  0.07559000  0.51374000  1.0
  C  C165  1  0.76105000  0.82828000  0.98626000  1.0
  C  C166  1  0.42441000  0.76104000  0.98626000  1.0
  C  C167  1  0.82833000  0.42443000  0.98625000  1.0
  C  C168  1  0.89505000  0.35614000  0.44497000  1.0
  C  C169  1  0.35613000  0.30382000  0.44494000  1.0
  C  C170  1  0.30383000  0.89504000  0.44497000  1.0
  C  C171  1  0.19618000  0.14387000  0.05506000  1.0
  C  C172  1  0.60496000  0.19617000  0.05503000  1.0
  C  C173  1  0.14387000  0.60495000  0.05503000  1.0
  C  C174  1  0.10495000  0.64386000  0.55503000  1.0
  C  C175  1  0.64387000  0.69618000  0.55506000  1.0
  C  C176  1  0.69618000  0.10496000  0.55503000  1.0
  C  C177  1  0.80382000  0.85613000  0.94494000  1.0
  C  C178  1  0.39504000  0.80383000  0.94497000  1.0
  C  C179  1  0.85614000  0.39505000  0.94497000  1.0
  C  C180  1  0.86026000  0.39266000  0.39683000  1.0
  C  C181  1  0.39267000  0.35022000  0.39680000  1.0
  C  C182  1  0.35022000  0.86027000  0.39683000  1.0
  C  C183  1  0.14978000  0.10733000  0.10320000  1.0
  C  C184  1  0.63973000  0.14978000  0.10318000  1.0
  C  C185  1  0.10734000  0.63974000  0.10317000  1.0
  C  C186  1  0.13974000  0.60734000  0.60317000  1.0
  C  C187  1  0.60733000  0.64978000  0.60320000  1.0
  C  C188  1  0.64978000  0.13973000  0.60317000  1.0
  C  C189  1  0.85022000  0.89267000  0.89680000  1.0
  C  C190  1  0.36027000  0.85022000  0.89682000  1.0
  C  C191  1  0.89266000  0.36026000  0.89683000  1.0
  C  C192  1  0.85052000  0.34170000  0.37226000  1.0
  C  C193  1  0.34170000  0.43547000  0.37224000  1.0
  C  C194  1  0.43547000  0.85057000  0.37226000  1.0
  C  C195  1  0.06452000  0.15830000  0.12776000  1.0
  C  C196  1  0.64943000  0.06453000  0.12775000  1.0
  C  C197  1  0.15830000  0.64948000  0.12774000  1.0
  C  C198  1  0.14948000  0.65830000  0.62774000  1.0
  C  C199  1  0.65830000  0.56453000  0.62776000  1.0
  C  C200  1  0.56453000  0.14943000  0.62775000  1.0
  C  C201  1  0.93547000  0.84170000  0.87223000  1.0
  C  C202  1  0.35057000  0.93547000  0.87225000  1.0
  C  C203  1  0.84170000  0.35052000  0.87226000  1.0
  C  C204  1  0.81765000  0.37904000  0.32436000  1.0
  C  C205  1  0.37903000  0.47893000  0.32435000  1.0
  C  C206  1  0.47892000  0.81768000  0.32436000  1.0
  C  C207  1  0.02107000  0.12097000  0.17565000  1.0
  C  C208  1  0.68232000  0.02108000  0.17564000  1.0
  C  C209  1  0.12096000  0.68236000  0.17564000  1.0
  C  C210  1  0.18236000  0.62096000  0.67564000  1.0
  C  C211  1  0.62097000  0.52107000  0.67565000  1.0
  C  C212  1  0.52108000  0.18232000  0.67564000  1.0
  C  C213  1  0.97893000  0.87903000  0.82435000  1.0
  C  C214  1  0.31769000  0.97892000  0.82436000  1.0
  C  C215  1  0.87904000  0.31764000  0.82436000  1.0
  C  C216  1  0.79353000  0.46690000  0.30119000  1.0
  C  C217  1  0.46689000  0.43838000  0.30116000  1.0
  C  C218  1  0.43836000  0.79355000  0.30119000  1.0
  C  C219  1  0.06162000  0.03311000  0.19884000  1.0
  C  C220  1  0.70645000  0.06164000  0.19881000  1.0
  C  C221  1  0.03310000  0.70647000  0.19881000  1.0
  C  C222  1  0.20647000  0.53310000  0.69880000  1.0
  C  C223  1  0.53311000  0.56162000  0.69884000  1.0
  C  C224  1  0.56164000  0.20645000  0.69881000  1.0
  C  C225  1  0.93838000  0.96689000  0.80116000  1.0
  C  C226  1  0.29355000  0.93837000  0.80118000  1.0
  C  C227  1  0.96690000  0.29353000  0.80119000  1.0
  C  C228  1  0.80074000  0.51852000  0.32593000  1.0
  C  C229  1  0.51851000  0.35485000  0.32589000  1.0
  C  C230  1  0.35483000  0.80075000  0.32591000  1.0
  C  C231  1  0.14515000  0.98150000  0.17411000  1.0
  C  C232  1  0.69925000  0.14517000  0.17409000  1.0
  C  C233  1  0.98148000  0.69926000  0.17407000  1.0
  C  C234  1  0.19926000  0.48148000  0.67407000  1.0
  C  C235  1  0.48149000  0.64515000  0.67411000  1.0
  C  C236  1  0.64517000  0.19925000  0.67409000  1.0
  C  C237  1  0.85485000  0.01850000  0.82589000  1.0
  C  C238  1  0.30075000  0.85483000  0.82591000  1.0
  C  C239  1  0.01852000  0.30074000  0.82593000  1.0
  C  C240  1  0.83442000  0.48163000  0.37347000  1.0
  C  C241  1  0.48166000  0.31049000  0.37344000  1.0
  C  C242  1  0.31045000  0.83443000  0.37345000  1.0
  C  C243  1  0.18951000  0.01835000  0.12656000  1.0
  C  C244  1  0.66557000  0.18955000  0.12655000  1.0
  C  C245  1  0.01837000  0.66558000  0.12653000  1.0
  C  C246  1  0.16558000  0.51837000  0.62653000  1.0
  C  C247  1  0.51834000  0.68951000  0.62656000  1.0
  C  C248  1  0.68955000  0.16557000  0.62655000  1.0
  C  C249  1  0.81049000  0.98165000  0.87344000  1.0
  C  C250  1  0.33443000  0.81045000  0.87345000  1.0
  C  C251  1  0.98163000  0.33442000  0.87347000  1.0
  C  C252  1  0.80573000  0.32742000  0.29708000  1.0
  C  C253  1  0.32741000  0.56977000  0.29709000  1.0
  C  C254  1  0.56975000  0.80578000  0.29709000  1.0
  C  C255  1  0.93023000  0.17258000  0.20291000  1.0
  C  C256  1  0.69422000  0.93025000  0.20291000  1.0
  C  C257  1  0.17258000  0.69427000  0.20293000  1.0
  C  C258  1  0.19427000  0.67259000  0.70292000  1.0
  C  C259  1  0.67259000  0.43023000  0.70291000  1.0
  C  C260  1  0.43025000  0.19422000  0.70291000  1.0
  C  C261  1  0.06977000  0.82742000  0.79708000  1.0
  C  C262  1  0.30578000  0.06975000  0.79709000  1.0
  C  C263  1  0.82742000  0.30573000  0.79707000  1.0
  C  C264  1  0.77220000  0.61290000  0.30017000  1.0
  C  C265  1  0.61288000  0.31476000  0.30016000  1.0
  C  C266  1  0.31476000  0.77220000  0.30014000  1.0
  C  C267  1  0.18524000  0.88712000  0.19985000  1.0
  C  C268  1  0.72780000  0.18524000  0.19986000  1.0
  C  C269  1  0.88710000  0.72780000  0.19984000  1.0
  C  C270  1  0.22780000  0.38710000  0.69983000  1.0
  C  C271  1  0.38712000  0.68525000  0.69984000  1.0
  C  C272  1  0.68525000  0.22780000  0.69986000  1.0
  C  C273  1  0.81476000  0.11288000  0.80015000  1.0
  C  C274  1  0.27220000  0.81477000  0.80014000  1.0
  C  C275  1  0.11290000  0.27220000  0.80016000  1.0
  N  N276  1  0.92269000  0.25550000  0.63518000  1.0
  N  N277  1  0.25553000  0.18664000  0.63518000  1.0
  N  N278  1  0.18661000  0.92268000  0.63518000  1.0
  N  N279  1  0.31336000  0.24447000  0.86482000  1.0
  N  N280  1  0.57732000  0.31339000  0.86482000  1.0
  N  N281  1  0.24450000  0.57731000  0.86482000  1.0
  N  N282  1  0.07731000  0.74451000  0.36482000  1.0
  N  N283  1  0.74447000  0.81336000  0.36482000  1.0
  N  N284  1  0.81339000  0.07732000  0.36482000  1.0
  N  N285  1  0.68664000  0.75553000  0.13518000  1.0
  N  N286  1  0.42268000  0.68661000  0.13518000  1.0
  N  N287  1  0.75550000  0.42269000  0.13518000  1.0
  O  O288  1  0.78809000  0.36552000  0.24930000  1.0
  O  O289  1  0.36553000  0.59709000  0.24932000  1.0
  O  O290  1  0.59708000  0.78811000  0.24932000  1.0
  O  O291  1  0.90291000  0.13447000  0.25068000  1.0
  O  O292  1  0.71188000  0.90292000  0.25068000  1.0
  O  O293  1  0.13448000  0.71191000  0.25070000  1.0
  O  O294  1  0.21191000  0.63448000  0.75070000  1.0
  O  O295  1  0.63447000  0.40291000  0.75068000  1.0
  O  O296  1  0.40292000  0.21189000  0.75068000  1.0
  O  O297  1  0.09709000  0.86553000  0.74932000  1.0
  O  O298  1  0.28812000  0.09708000  0.74932000  1.0
  O  O299  1  0.86552000  0.28809000  0.74930000  1.0
  O  O300  1  0.81262000  0.25212000  0.32295000  1.0
  O  O301  1  0.25211000  0.61228000  0.32297000  1.0
  O  O302  1  0.61227000  0.81267000  0.32298000  1.0
  O  O303  1  0.88771000  0.24789000  0.17703000  1.0
  O  O304  1  0.68733000  0.88773000  0.17702000  1.0
  O  O305  1  0.24788000  0.68738000  0.17705000  1.0
  O  O306  1  0.18738000  0.74788000  0.67704000  1.0
  O  O307  1  0.74788000  0.38772000  0.67703000  1.0
  O  O308  1  0.38773000  0.18733000  0.67702000  1.0
  O  O309  1  0.11229000  0.75211000  0.82297000  1.0
  O  O310  1  0.31267000  0.11227000  0.82298000  1.0
  O  O311  1  0.75212000  0.31262000  0.82295000  1.0
  O  O312  1  0.75321000  0.63765000  0.25319000  1.0
  O  O313  1  0.63764000  0.35597000  0.25318000  1.0
  O  O314  1  0.35597000  0.75321000  0.25317000  1.0
  O  O315  1  0.14403000  0.86237000  0.24682000  1.0
  O  O316  1  0.74679000  0.14402000  0.24683000  1.0
  O  O317  1  0.86235000  0.74679000  0.24681000  1.0
  O  O318  1  0.24679000  0.36235000  0.74681000  1.0
  O  O319  1  0.36236000  0.64404000  0.74682000  1.0
  O  O320  1  0.64403000  0.24679000  0.74683000  1.0
  O  O321  1  0.85597000  0.13763000  0.75318000  1.0
  O  O322  1  0.25321000  0.85598000  0.75317000  1.0
  O  O323  1  0.13765000  0.25321000  0.75319000  1.0
  O  O324  1  0.76923000  0.66069000  0.32715000  1.0
  O  O325  1  0.66067000  0.24296000  0.32715000  1.0
  O  O326  1  0.24295000  0.76923000  0.32714000  1.0
  O  O327  1  0.25704000  0.83933000  0.17285000  1.0
  O  O328  1  0.73077000  0.25704000  0.17286000  1.0
  O  O329  1  0.83931000  0.73077000  0.17285000  1.0
  O  O330  1  0.23077000  0.33932000  0.67285000  1.0
  O  O331  1  0.33934000  0.75704000  0.67285000  1.0
  O  O332  1  0.75705000  0.23077000  0.67286000  1.0
  O  O333  1  0.74296000  0.16067000  0.82715000  1.0
  O  O334  1  0.26923000  0.74296000  0.82714000  1.0
  O  O335  1  0.16069000  0.26923000  0.82715000  1.0
