# generated using pymatgen
data_NdH4C3O8
_symmetry_space_group_name_H-M   'P 1'
_cell_length_a   8.60399000
_cell_length_b   9.56478000
_cell_length_c   16.69070000
_cell_angle_alpha   90.00020000
_cell_angle_beta   90.00000000
_cell_angle_gamma   89.99990000
_symmetry_Int_Tables_number   1
_chemical_formula_structural   NdH4C3O8
_chemical_formula_sum   'Nd8 H32 C24 O64'
_cell_volume   1373.56568755
_cell_formula_units_Z   8
loop_
 _symmetry_equiv_pos_site_id
 _symmetry_equiv_pos_as_xyz
  1  'x, y, z'
loop_
 _atom_site_type_symbol
 _atom_site_label
 _atom_site_symmetry_multiplicity
 _atom_site_fract_x
 _atom_site_fract_y
 _atom_site_fract_z
 _atom_site_occupancy
  Nd  Nd0  1  0.62537000  0.74632000  0.14093000  1.0
  Nd  Nd1  1  0.87463000  0.25368000  0.64093000  1.0
  Nd  Nd2  1  0.12537000  0.75368000  0.85907000  1.0
  Nd  Nd3  1  0.37463000  0.24632000  0.35907000  1.0
  Nd  Nd4  1  0.86811000  0.73622000  0.36437000  1.0
  Nd  Nd5  1  0.63190000  0.26378000  0.86437000  1.0
  Nd  Nd6  1  0.36811000  0.76378000  0.63563000  1.0
  Nd  Nd7  1  0.13189000  0.23622000  0.13563000  1.0
  H  H8  1  0.64110000  0.90854000  0.98126000  1.0
  H  H9  1  0.85890000  0.09146000  0.48126000  1.0
  H  H10  1  0.14110000  0.59146000  0.01874000  1.0
  H  H11  1  0.35890000  0.40854000  0.51874000  1.0
  H  H12  1  0.38233000  0.92367000  0.21232000  1.0
  H  H13  1  0.11766000  0.07633000  0.71232000  1.0
  H  H14  1  0.88233000  0.57633000  0.78768000  1.0
  H  H15  1  0.61766000  0.42367000  0.28768000  1.0
  H  H16  1  0.51544000  0.60225000  0.37585000  1.0
  H  H17  1  0.98456000  0.39776000  0.87585000  1.0
  H  H18  1  0.01544000  0.89775000  0.62415000  1.0
  H  H19  1  0.48456000  0.10224000  0.12415000  1.0
  H  H20  1  0.59221000  0.61998000  0.46068000  1.0
  H  H21  1  0.90780000  0.38002000  0.96068000  1.0
  H  H22  1  0.09221000  0.88002000  0.53932000  1.0
  H  H23  1  0.40779000  0.11998000  0.03932000  1.0
  H  H24  1  0.84144000  0.58947000  0.52474000  1.0
  H  H25  1  0.65856000  0.41053000  0.02474000  1.0
  H  H26  1  0.34144000  0.91053000  0.47526000  1.0
  H  H27  1  0.15856000  0.08948000  0.97526000  1.0
  H  H28  1  0.81546000  0.74738000  0.54600000  1.0
  H  H29  1  0.68454000  0.25262000  0.04600000  1.0
  H  H30  1  0.31546000  0.75262000  0.45400000  1.0
  H  H31  1  0.18454000  0.24738000  0.95400000  1.0
  H  H32  1  0.27776000  0.87191000  0.14049000  1.0
  H  H33  1  0.22224000  0.12809000  0.64050000  1.0
  H  H34  1  0.77776000  0.62809000  0.85951000  1.0
  H  H35  1  0.72224000  0.37191000  0.35950000  1.0
  H  H36  1  0.52687000  0.77805000  0.96247000  1.0
  H  H37  1  0.97313000  0.22195000  0.46247000  1.0
  H  H38  1  0.02687000  0.72195000  0.03753000  1.0
  H  H39  1  0.47313000  0.27805000  0.53753000  1.0
  C  C40  1  0.36041000  0.50713000  0.10278000  1.0
  C  C41  1  0.13958000  0.49286000  0.60278000  1.0
  C  C42  1  0.86041000  0.99287000  0.89722000  1.0
  C  C43  1  0.63958000  0.00714000  0.39722000  1.0
  C  C44  1  0.41610000  0.45858000  0.18670000  1.0
  C  C45  1  0.08390000  0.54142000  0.68670000  1.0
  C  C46  1  0.91610000  0.04142000  0.81330000  1.0
  C  C47  1  0.58390000  0.95858000  0.31330000  1.0
  C  C48  1  0.86566000  0.48511000  0.10432000  1.0
  C  C49  1  0.63435000  0.51488000  0.60432000  1.0
  C  C50  1  0.36566000  0.01489000  0.89568000  1.0
  C  C51  1  0.13435000  0.98512000  0.39568000  1.0
  C  C52  1  0.91659000  0.51628000  0.19177000  1.0
  C  C53  1  0.58341000  0.48372000  0.69177000  1.0
  C  C54  1  0.41659000  0.98373000  0.80824000  1.0
  C  C55  1  0.08341000  0.01628000  0.30823000  1.0
  C  C56  1  0.94600000  0.93602000  0.11538000  1.0
  C  C57  1  0.55400000  0.06398000  0.61538000  1.0
  C  C58  1  0.44599000  0.56398000  0.88462000  1.0
  C  C59  1  0.05400000  0.43602000  0.38462000  1.0
  C  C60  1  0.81575000  0.04436000  0.13312000  1.0
  C  C61  1  0.68425000  0.95564000  0.63311000  1.0
  C  C62  1  0.31575000  0.45564000  0.86689000  1.0
  C  C63  1  0.18425000  0.54436000  0.36688000  1.0
  O  O64  1  0.42574000  0.61269000  0.07342000  1.0
  O  O65  1  0.07427000  0.38731000  0.57343000  1.0
  O  O66  1  0.92574000  0.88731000  0.92658000  1.0
  O  O67  1  0.57427000  0.11269000  0.42657000  1.0
  O  O68  1  0.52248000  0.53061000  0.21844000  1.0
  O  O69  1  0.97752000  0.46940000  0.71844000  1.0
  O  O70  1  0.02248000  0.96939000  0.78156000  1.0
  O  O71  1  0.47752000  0.03060000  0.28156000  1.0
  O  O72  1  0.74538000  0.54555000  0.07719000  1.0
  O  O73  1  0.75461000  0.45445000  0.57719000  1.0
  O  O74  1  0.24538000  0.95445000  0.92282000  1.0
  O  O75  1  0.25462000  0.04555000  0.42281000  1.0
  O  O76  1  0.84444000  0.61494000  0.22811000  1.0
  O  O77  1  0.65556000  0.38506000  0.72811000  1.0
  O  O78  1  0.34444000  0.88505000  0.77189000  1.0
  O  O79  1  0.15556000  0.11494000  0.27189000  1.0
  O  O80  1  0.90312000  0.81029000  0.10579000  1.0
  O  O81  1  0.59688000  0.18971000  0.60578000  1.0
  O  O82  1  0.40311000  0.68972000  0.89421000  1.0
  O  O83  1  0.09688000  0.31029000  0.39421000  1.0
  O  O84  1  0.67660000  0.00047000  0.13334000  1.0
  O  O85  1  0.82340000  0.99953000  0.63334000  1.0
  O  O86  1  0.17660000  0.49953000  0.86666000  1.0
  O  O87  1  0.32340000  0.50047000  0.36666000  1.0
  O  O88  1  0.58835000  0.82674000  0.00445000  1.0
  O  O89  1  0.91166000  0.17326000  0.50445000  1.0
  O  O90  1  0.08835000  0.67326000  0.99555000  1.0
  O  O91  1  0.41166000  0.32674000  0.49555000  1.0
  O  O92  1  0.36405000  0.84368000  0.17564000  1.0
  O  O93  1  0.13595000  0.15632000  0.67565000  1.0
  O  O94  1  0.86405000  0.65632000  0.82435000  1.0
  O  O95  1  0.63595000  0.34368000  0.32435000  1.0
  O  O96  1  0.25179000  0.43899000  0.06943000  1.0
  O  O97  1  0.24821000  0.56101000  0.56944000  1.0
  O  O98  1  0.75178000  0.06100000  0.93056000  1.0
  O  O99  1  0.74821000  0.93899000  0.43056000  1.0
  O  O100  1  0.35233000  0.35005000  0.21709000  1.0
  O  O101  1  0.14767000  0.64995000  0.71709000  1.0
  O  O102  1  0.85233000  0.14995000  0.78291000  1.0
  O  O103  1  0.64767000  0.85005000  0.28291000  1.0
  O  O104  1  0.61193000  0.63235000  0.40251000  1.0
  O  O105  1  0.88807000  0.36764000  0.90251000  1.0
  O  O106  1  0.11193000  0.86765000  0.59750000  1.0
  O  O107  1  0.38807000  0.13236000  0.09749000  1.0
  O  O108  1  0.87241000  0.68618000  0.50938000  1.0
  O  O109  1  0.62759000  0.31382000  0.00938000  1.0
  O  O110  1  0.37241000  0.81382000  0.49062000  1.0
  O  O111  1  0.12759000  0.18618000  0.99062000  1.0
  O  O112  1  0.94501000  0.39744000  0.06548000  1.0
  O  O113  1  0.55499000  0.60256000  0.56548000  1.0
  O  O114  1  0.44501000  0.10256000  0.93452000  1.0
  O  O115  1  0.05499000  0.89744000  0.43452000  1.0
  O  O116  1  0.02344000  0.44022000  0.21887000  1.0
  O  O117  1  0.47656000  0.55978000  0.71887000  1.0
  O  O118  1  0.52344000  0.05979000  0.78113000  1.0
  O  O119  1  0.97655000  0.94021000  0.28113000  1.0
  O  O120  1  0.08374000  0.98145000  0.10997000  1.0
  O  O121  1  0.41625000  0.01855000  0.60996000  1.0
  O  O122  1  0.58374000  0.51855000  0.89004000  1.0
  O  O123  1  0.91625000  0.48145000  0.39004000  1.0
  O  O124  1  0.85609000  0.16986000  0.14396000  1.0
  O  O125  1  0.64391000  0.83014000  0.64396000  1.0
  O  O126  1  0.35608000  0.33014000  0.85603000  1.0
  O  O127  1  0.14391000  0.66986000  0.35604000  1.0
