# generated using pymatgen
data_H6Pb2C3S2(O3F)2
_symmetry_space_group_name_H-M   'P 1'
_cell_length_a   4.61374000
_cell_length_b   8.85702000
_cell_length_c   12.41211061
_cell_angle_alpha   77.79118869
_cell_angle_beta   79.29638367
_cell_angle_gamma   89.96260000
_symmetry_Int_Tables_number   1
_chemical_formula_structural   H6Pb2C3S2(O3F)2
_chemical_formula_sum   'H12 Pb4 C6 S4 O12 F4'
_cell_volume   486.71760285
_cell_formula_units_Z   2
loop_
 _symmetry_equiv_pos_site_id
 _symmetry_equiv_pos_as_xyz
  1  'x, y, z'
loop_
 _atom_site_type_symbol
 _atom_site_label
 _atom_site_symmetry_multiplicity
 _atom_site_fract_x
 _atom_site_fract_y
 _atom_site_fract_z
 _atom_site_occupancy
  H  H0  1  0.33917000  0.17137000  0.89224000  1.0
  H  H1  1  0.23110000  0.32859000  0.10761000  1.0
  H  H2  1  0.66084000  0.82863000  0.10776000  1.0
  H  H3  1  0.76890000  0.67141000  0.89239000  1.0
  H  H4  1  0.34493000  0.37494000  0.88377000  1.0
  H  H5  1  0.22870000  0.12501000  0.11621000  1.0
  H  H6  1  0.65507000  0.62506000  0.11623000  1.0
  H  H7  1  0.77130000  0.87499000  0.88379000  1.0
  H  H8  1  0.82187000  0.35118000  0.99495000  1.0
  H  H9  1  0.81732000  0.14874000  0.00481000  1.0
  H  H10  1  0.17814000  0.64882000  0.00504000  1.0
  H  H11  1  0.18268000  0.85126000  0.99519000  1.0
  Pb  Pb12  1  0.71212000  0.09393000  0.60247000  1.0
  Pb  Pb13  1  0.31424000  0.40580000  0.39781000  1.0
  Pb  Pb14  1  0.28788000  0.90607000  0.39753000  1.0
  Pb  Pb15  1  0.68576000  0.59420000  0.60219000  1.0
  C  C16  1  0.20084000  0.27197000  0.89494000  1.0
  C  C17  1  0.09560000  0.22800000  0.10494000  1.0
  C  C18  1  0.79916000  0.72803000  0.10506000  1.0
  C  C19  1  0.90440000  0.77200000  0.89506000  1.0
  C  C20  1  0.96047000  0.24998000  0.99993000  1.0
  C  C21  1  0.03953000  0.75002000  0.00007000  1.0
  S  S22  1  0.04828000  0.29989000  0.77058000  1.0
  S  S23  1  0.81902000  0.20019000  0.22938000  1.0
  S  S24  1  0.95172000  0.70011000  0.22942000  1.0
  S  S25  1  0.18099000  0.79981000  0.77062000  1.0
  O  O26  1  0.86216000  0.16041000  0.78036000  1.0
  O  O27  1  0.64272000  0.33971000  0.21991000  1.0
  O  O28  1  0.13784000  0.83958000  0.21964000  1.0
  O  O29  1  0.35727000  0.66028000  0.78010000  1.0
  O  O30  1  0.87175000  0.43956000  0.76945000  1.0
  O  O31  1  0.64141000  0.06062000  0.23045000  1.0
  O  O32  1  0.12826000  0.56044000  0.23055000  1.0
  O  O33  1  0.35859000  0.93938000  0.76955000  1.0
  O  O34  1  0.29946000  0.32145000  0.67435000  1.0
  O  O35  1  0.97456000  0.17827000  0.32548000  1.0
  O  O36  1  0.70055000  0.67855000  0.32565000  1.0
  O  O37  1  0.02545000  0.82173000  0.67451000  1.0
  F  F38  1  0.78952000  0.37692000  0.49695000  1.0
  F  F39  1  0.28600000  0.12271000  0.50310000  1.0
  F  F40  1  0.21048000  0.62308000  0.50305000  1.0
  F  F41  1  0.71399000  0.87728000  0.49690000  1.0
