# generated using pymatgen
data_Yb2CuH16C24(N2O5)4
_symmetry_space_group_name_H-M   'P 1'
_cell_length_a   6.00716000
_cell_length_b   12.07510000
_cell_length_c   21.63490000
_cell_angle_alpha   90.00040000
_cell_angle_beta   90.00010000
_cell_angle_gamma   87.48480000
_symmetry_Int_Tables_number   1
_chemical_formula_structural   Yb2CuH16C24(N2O5)4
_chemical_formula_sum   'Yb4 Cu2 H32 C48 N16 O40'
_cell_volume   1567.82011847
_cell_formula_units_Z   2
loop_
 _symmetry_equiv_pos_site_id
 _symmetry_equiv_pos_as_xyz
  1  'x, y, z'
loop_
 _atom_site_type_symbol
 _atom_site_label
 _atom_site_symmetry_multiplicity
 _atom_site_fract_x
 _atom_site_fract_y
 _atom_site_fract_z
 _atom_site_occupancy
  Yb  Yb0  1  0.48070000  0.56363000  0.34238000  1.0
  Yb  Yb1  1  0.01931000  0.93637000  0.84239000  1.0
  Yb  Yb2  1  0.51930000  0.43636000  0.65762000  1.0
  Yb  Yb3  1  0.98070000  0.06363000  0.15761000  1.0
  Cu  Cu4  1  0.99999000  0.00000000  0.50000000  1.0
  Cu  Cu5  1  0.49999000  0.50001000  0.00000000  1.0
  H  H6  1  0.61955000  0.34064000  0.36844000  1.0
  H  H7  1  0.88046000  0.15936000  0.86844000  1.0
  H  H8  1  0.38046000  0.65936000  0.63156000  1.0
  H  H9  1  0.11955000  0.84064000  0.13156000  1.0
  H  H10  1  0.43669000  0.35119000  0.42172000  1.0
  H  H11  1  0.06331000  0.14881000  0.92172000  1.0
  H  H12  1  0.56331000  0.64880000  0.57828000  1.0
  H  H13  1  0.93669000  0.85119000  0.07828000  1.0
  H  H14  1  0.71279000  0.64958000  0.45394000  1.0
  H  H15  1  0.78720000  0.85042000  0.95395000  1.0
  H  H16  1  0.28722000  0.35041000  0.54606000  1.0
  H  H17  1  0.21281000  0.14959000  0.04605000  1.0
  H  H18  1  0.89485000  0.57951000  0.41080000  1.0
  H  H19  1  0.60516000  0.92049000  0.91081000  1.0
  H  H20  1  0.10516000  0.42049000  0.58919000  1.0
  H  H21  1  0.39485000  0.07951000  0.08919000  1.0
  H  H22  1  0.50189000  0.08267000  0.31427000  1.0
  H  H23  1  0.99811000  0.41734000  0.81428000  1.0
  H  H24  1  0.49807000  0.91732000  0.68573000  1.0
  H  H25  1  0.00188000  0.58268000  0.18573000  1.0
  H  H26  1  0.81673000  0.12433000  0.38694000  1.0
  H  H27  1  0.68326000  0.37568000  0.88695000  1.0
  H  H28  1  0.18325000  0.87568000  0.61305000  1.0
  H  H29  1  0.31672000  0.62433000  0.11306000  1.0
  H  H30  1  0.96516000  0.73323000  0.35042000  1.0
  H  H31  1  0.53484000  0.76676000  0.85043000  1.0
  H  H32  1  0.03485000  0.26678000  0.64958000  1.0
  H  H33  1  0.46518000  0.23324000  0.14957000  1.0
  H  H34  1  0.12561000  0.89519000  0.29352000  1.0
  H  H35  1  0.37439000  0.60480000  0.79353000  1.0
  H  H36  1  0.87439000  0.10481000  0.70648000  1.0
  H  H37  1  0.62559000  0.39520000  0.20647000  1.0
  C  C38  1  0.29389000  0.78898000  0.42454000  1.0
  C  C39  1  0.20610000  0.71102000  0.92456000  1.0
  C  C40  1  0.70611000  0.21102000  0.57546000  1.0
  C  C41  1  0.79388000  0.28898000  0.07545000  1.0
  C  C42  1  0.45909000  0.87741000  0.41250000  1.0
  C  C43  1  0.04092000  0.62259000  0.91251000  1.0
  C  C44  1  0.54089000  0.12259000  0.58750000  1.0
  C  C45  1  0.95909000  0.37741000  0.08750000  1.0
  C  C46  1  0.53833000  0.02952000  0.35405000  1.0
  C  C47  1  0.96166000  0.47048000  0.85406000  1.0
  C  C48  1  0.46164000  0.97047000  0.64595000  1.0
  C  C49  1  0.03834000  0.52953000  0.14595000  1.0
  C  C50  1  0.71468000  0.05314000  0.39346000  1.0
  C  C51  1  0.78532000  0.44686000  0.89347000  1.0
  C  C52  1  0.28531000  0.94686000  0.60653000  1.0
  C  C53  1  0.21467000  0.55315000  0.10653000  1.0
  C  C54  1  0.63708000  0.89786000  0.45198000  1.0
  C  C55  1  0.86293000  0.60214000  0.95200000  1.0
  C  C56  1  0.36291000  0.10214000  0.54802000  1.0
  C  C57  1  0.13708000  0.39787000  0.04801000  1.0
  C  C58  1  0.70356000  0.83275000  0.50927000  1.0
  C  C59  1  0.79642000  0.66726000  0.00929000  1.0
  C  C60  1  0.29642000  0.16725000  0.49073000  1.0
  C  C61  1  0.20357000  0.33276000  0.99072000  1.0
  C  C62  1  0.36451000  0.72770000  0.22722000  1.0
  C  C63  1  0.13550000  0.77229000  0.72722000  1.0
  C  C64  1  0.63550000  0.27230000  0.77278000  1.0
  C  C65  1  0.86451000  0.22770000  0.27278000  1.0
  C  C66  1  0.56547000  0.78660000  0.25000000  1.0
  C  C67  1  0.93453000  0.71339000  0.75000000  1.0
  C  C68  1  0.43454000  0.21340000  0.75000000  1.0
  C  C69  1  0.06546000  0.28660000  0.24999000  1.0
  C  C70  1  0.87581000  0.77432000  0.31251000  1.0
  C  C71  1  0.62420000  0.72567000  0.81251000  1.0
  C  C72  1  0.12422000  0.22568000  0.68749000  1.0
  C  C73  1  0.37579000  0.27432000  0.18748000  1.0
  C  C74  1  0.96185000  0.86519000  0.28190000  1.0
  C  C75  1  0.53814000  0.63480000  0.78190000  1.0
  C  C76  1  0.03816000  0.13480000  0.71810000  1.0
  C  C77  1  0.46184000  0.36520000  0.21809000  1.0
  C  C78  1  0.63905000  0.88571000  0.22489000  1.0
  C  C79  1  0.86095000  0.61428000  0.72489000  1.0
  C  C80  1  0.36096000  0.11428000  0.77511000  1.0
  C  C81  1  0.13904000  0.38572000  0.27510000  1.0
  C  C82  1  0.50228000  0.96619000  0.18509000  1.0
  C  C83  1  0.99772000  0.53380000  0.68509000  1.0
  C  C84  1  0.49773000  0.03381000  0.81490000  1.0
  C  C85  1  0.00228000  0.46619000  0.31490000  1.0
  N  N86  1  0.76036000  0.98642000  0.44128000  1.0
  N  N87  1  0.73964000  0.51358000  0.94130000  1.0
  N  N88  1  0.23962000  0.01357000  0.55871000  1.0
  N  N89  1  0.26037000  0.48643000  0.05871000  1.0
  N  N90  1  0.41275000  0.94252000  0.36310000  1.0
  N  N91  1  0.08724000  0.55748000  0.86311000  1.0
  N  N92  1  0.58721000  0.05748000  0.63690000  1.0
  N  N93  1  0.91276000  0.44252000  0.13690000  1.0
  N  N94  1  0.68374000  0.73255000  0.29443000  1.0
  N  N95  1  0.81626000  0.76745000  0.79443000  1.0
  N  N96  1  0.31628000  0.26745000  0.70558000  1.0
  N  N97  1  0.18373000  0.23255000  0.20557000  1.0
  N  N98  1  0.84523000  0.91883000  0.23759000  1.0
  N  N99  1  0.65478000  0.58116000  0.73759000  1.0
  N  N100  1  0.15479000  0.08116000  0.76241000  1.0
  N  N101  1  0.34522000  0.41883000  0.26241000  1.0
  O  O102  1  0.32217000  0.69626000  0.39673000  1.0
  O  O103  1  0.17785000  0.80374000  0.89675000  1.0
  O  O104  1  0.67783000  0.30374000  0.60327000  1.0
  O  O105  1  0.82216000  0.19626000  0.10327000  1.0
  O  O106  1  0.13158000  0.81709000  0.45768000  1.0
  O  O107  1  0.36845000  0.68290000  0.95769000  1.0
  O  O108  1  0.86840000  0.18290000  0.54232000  1.0
  O  O109  1  0.63158000  0.31710000  0.04232000  1.0
  O  O110  1  0.63314000  0.73661000  0.51602000  1.0
  O  O111  1  0.86686000  0.76340000  0.01603000  1.0
  O  O112  1  0.36685000  0.26338000  0.48398000  1.0
  O  O113  1  0.13314000  0.23662000  0.98398000  1.0
  O  O114  1  0.82585000  0.88405000  0.54724000  1.0
  O  O115  1  0.67413000  0.61596000  0.04725000  1.0
  O  O116  1  0.17413000  0.11594000  0.45276000  1.0
  O  O117  1  0.32588000  0.38406000  0.95276000  1.0
  O  O118  1  0.30669000  0.64659000  0.26089000  1.0
  O  O119  1  0.19333000  0.85341000  0.76089000  1.0
  O  O120  1  0.69334000  0.35341000  0.73911000  1.0
  O  O121  1  0.80668000  0.14659000  0.23911000  1.0
  O  O122  1  0.27534000  0.75711000  0.17738000  1.0
  O  O123  1  0.22466000  0.74290000  0.67738000  1.0
  O  O124  1  0.72466000  0.24289000  0.82263000  1.0
  O  O125  1  0.77534000  0.25710000  0.32262000  1.0
  O  O126  1  0.29989000  0.98600000  0.19922000  1.0
  O  O127  1  0.20011000  0.51401000  0.69922000  1.0
  O  O128  1  0.70013000  0.01400000  0.80078000  1.0
  O  O129  1  0.79988000  0.48600000  0.30077000  1.0
  O  O130  1  0.60757000  0.01444000  0.14263000  1.0
  O  O131  1  0.89244000  0.48555000  0.64263000  1.0
  O  O132  1  0.39245000  0.98556000  0.85736000  1.0
  O  O133  1  0.10755000  0.51444000  0.35736000  1.0
  O  O134  1  0.51529000  0.39378000  0.38986000  1.0
  O  O135  1  0.98470000  0.10622000  0.88987000  1.0
  O  O136  1  0.48471000  0.60622000  0.61014000  1.0
  O  O137  1  0.01532000  0.89378000  0.11013000  1.0
  O  O138  1  0.73741000  0.60403000  0.41620000  1.0
  O  O139  1  0.76260000  0.89597000  0.91621000  1.0
  O  O140  1  0.26260000  0.39597000  0.58380000  1.0
  O  O141  1  0.23741000  0.10403000  0.08379000  1.0
