# generated using pymatgen
data_MgH9(C5O)3
_symmetry_space_group_name_H-M   'P 1'
_cell_length_a   6.89198000
_cell_length_b   42.42570000
_cell_length_c   42.42620000
_cell_angle_alpha   119.71000000
_cell_angle_beta   93.10120000
_cell_angle_gamma   93.10640000
_symmetry_Int_Tables_number   1
_chemical_formula_structural   MgH9(C5O)3
_chemical_formula_sum   'Mg6 H54 C90 O18'
_cell_volume   10711.75037510
_cell_formula_units_Z   6
loop_
 _symmetry_equiv_pos_site_id
 _symmetry_equiv_pos_as_xyz
  1  'x, y, z'
loop_
 _atom_site_type_symbol
 _atom_site_label
 _atom_site_symmetry_multiplicity
 _atom_site_fract_x
 _atom_site_fract_y
 _atom_site_fract_z
 _atom_site_occupancy
  Mg  Mg0  1  0.88638000  0.69003000  0.33085000  1.0
  Mg  Mg1  1  0.36098000  0.31094000  0.67076000  1.0
  Mg  Mg2  1  0.19632000  0.64083000  0.30999000  1.0
  Mg  Mg3  1  0.05002000  0.35982000  0.68906000  1.0
  Mg  Mg4  1  0.55554000  0.66915000  0.35917000  1.0
  Mg  Mg5  1  0.69021000  0.32925000  0.64018000  1.0
  H  H6  1  0.43082000  0.59502000  0.20743000  1.0
  H  H7  1  0.41597000  0.57023000  0.14458000  1.0
  H  H8  1  0.24867000  0.56023000  0.09672000  1.0
  H  H9  1  0.05823000  0.52983000  0.03735000  1.0
  H  H10  1  0.96706000  0.52680000  0.98658000  1.0
  H  H11  1  0.77083000  0.49612000  0.92769000  1.0
  H  H12  1  0.57354000  0.45492000  0.87894000  1.0
  H  H13  1  0.81733000  0.41042000  0.79172000  1.0
  H  H14  1  0.97272000  0.59381000  0.16078000  1.0
  H  H15  1  0.14286000  0.62858000  0.22279000  1.0
  H  H16  1  0.80092000  0.55878000  0.10836000  1.0
  H  H17  1  0.17253000  0.41316000  0.88530000  1.0
  H  H18  1  0.36934000  0.44384000  0.94447000  1.0
  H  H19  1  0.92206000  0.41189000  0.84434000  1.0
  H  H20  1  0.10101000  0.38122000  0.77742000  1.0
  H  H21  1  0.27244000  0.42085000  0.83934000  1.0
  H  H22  1  0.57767000  0.48819000  0.98443000  1.0
  H  H23  1  0.76742000  0.51756000  0.04422000  1.0
  H  H24  1  0.83582000  0.61238000  0.40498000  1.0
  H  H25  1  0.84568000  0.57437000  0.42975000  1.0
  H  H26  1  0.68838000  0.53650000  0.43979000  1.0
  H  H27  1  0.52832000  0.50753000  0.47019000  1.0
  H  H28  1  0.44017000  0.45979000  0.47320000  1.0
  H  H29  1  0.27451000  0.43156000  0.50387000  1.0
  H  H30  1  0.11832000  0.42402000  0.54509000  1.0
  H  H31  1  0.40679000  0.38129000  0.58957000  1.0
  H  H32  1  0.37911000  0.56699000  0.40622000  1.0
  H  H33  1  0.51438000  0.59424000  0.37143000  1.0
  H  H34  1  0.24202000  0.54962000  0.44125000  1.0
  H  H35  1  0.75911000  0.47214000  0.58684000  1.0
  H  H36  1  0.92533000  0.50063000  0.55617000  1.0
  H  H37  1  0.50988000  0.43246000  0.58811000  1.0
  H  H38  1  0.71967000  0.39619000  0.61879000  1.0
  H  H39  1  0.85148000  0.41849000  0.57916000  1.0
  H  H40  1  0.08948000  0.49623000  0.51180000  1.0
  H  H41  1  0.24981000  0.52669000  0.48245000  1.0
  H  H42  1  0.22337000  0.79259000  0.38759000  1.0
  H  H43  1  0.27123000  0.85541000  0.42564000  1.0
  H  H44  1  0.15185000  0.90330000  0.46351000  1.0
  H  H45  1  0.02085000  0.96267000  0.49246000  1.0
  H  H46  1  0.98046000  0.01342000  0.54021000  1.0
  H  H47  1  0.84309000  0.07232000  0.56843000  1.0
  H  H48  1  0.69447000  0.12106000  0.57596000  1.0
  H  H49  1  0.02561000  0.20827000  0.61869000  1.0
  H  H50  1  0.81192000  0.83925000  0.43305000  1.0
  H  H51  1  0.92001000  0.77723000  0.40579000  1.0
  H  H52  1  0.69241000  0.89163000  0.45040000  1.0
  H  H53  1  0.28712000  0.11471000  0.52785000  1.0
  H  H54  1  0.42480000  0.05554000  0.49935000  1.0
  H  H55  1  0.07762000  0.15566000  0.56755000  1.0
  H  H56  1  0.32365000  0.22259000  0.60380000  1.0
  H  H57  1  0.43310000  0.16067000  0.58150000  1.0
  H  H58  1  0.59334000  0.01557000  0.50376000  1.0
  H  H59  1  0.72316000  0.95575000  0.47331000  1.0
  C  C60  1  0.88661000  0.63274000  0.25061000  1.0
  C  C61  1  0.58748000  0.60237000  0.21016000  1.0
  C  C62  1  0.68545000  0.59174000  0.17891000  1.0
  C  C63  1  0.57400000  0.57266000  0.14340000  1.0
  C  C64  1  0.64304000  0.55820000  0.11020000  1.0
  C  C65  1  0.52415000  0.54093000  0.07540000  1.0
  C  C66  1  0.32208000  0.54401000  0.07230000  1.0
  C  C67  1  0.21436000  0.52708000  0.03859000  1.0
  C  C68  1  0.30118000  0.50613000  0.00600000  1.0
  C  C69  1  0.18407000  0.48780000  0.97044000  1.0
  C  C70  1  0.01159000  0.50146000  0.96468000  1.0
  C  C71  1  0.90034000  0.48410000  0.93125000  1.0
  C  C72  1  0.95550000  0.45193000  0.90169000  1.0
  C  C73  1  0.23945000  0.45576000  0.94093000  1.0
  C  C74  1  0.66039000  0.43678000  0.85738000  1.0
  C  C75  1  0.66091000  0.40328000  0.78945000  1.0
  C  C76  1  0.56690000  0.38146000  0.75419000  1.0
  C  C77  1  0.68638000  0.37053000  0.72320000  1.0
  C  C78  1  0.50322000  0.50337000  0.00896000  1.0
  C  C79  1  0.61121000  0.52038000  0.04276000  1.0
  C  C80  1  0.88951000  0.60135000  0.18430000  1.0
  C  C81  1  0.98614000  0.62095000  0.21887000  1.0
  C  C82  1  0.68114000  0.62242000  0.24568000  1.0
  C  C83  1  0.12804000  0.43837000  0.90749000  1.0
  C  C84  1  0.84564000  0.43266000  0.86603000  1.0
  C  C85  1  0.56081000  0.41667000  0.82072000  1.0
  C  C86  1  0.36034000  0.37191000  0.74960000  1.0
  C  C87  1  0.25888000  0.38746000  0.78117000  1.0
  C  C88  1  0.35549000  0.40940000  0.81550000  1.0
  C  C89  1  0.56118000  0.63166000  0.27633000  1.0
  C  C90  1  0.25386000  0.61787000  0.36726000  1.0
  C  C91  1  0.98514000  0.60777000  0.39762000  1.0
  C  C92  1  0.09378000  0.58717000  0.40826000  1.0
  C  C93  1  0.00127000  0.57074000  0.42734000  1.0
  C  C94  1  0.08474000  0.55204000  0.44183000  1.0
  C  C95  1  0.98314000  0.53450000  0.45910000  1.0
  C  C96  1  0.77799000  0.52830000  0.45601000  1.0
  C  C97  1  0.68721000  0.51153000  0.47294000  1.0
  C  C98  1  0.79498000  0.49988000  0.49388000  1.0
  C  C99  1  0.69613000  0.48266000  0.51222000  1.0
  C  C100  1  0.50998000  0.46323000  0.49856000  1.0
  C  C101  1  0.41600000  0.44717000  0.51591000  1.0
  C  C102  1  0.50327000  0.44979000  0.54808000  1.0
  C  C103  1  0.78348000  0.48518000  0.54426000  1.0
  C  C104  1  0.22334000  0.42060000  0.56322000  1.0
  C  C105  1  0.25746000  0.38614000  0.59669000  1.0
  C  C106  1  0.18527000  0.37269000  0.61851000  1.0
  C  C107  1  0.31574000  0.35266000  0.62946000  1.0
  C  C108  1  0.99979000  0.50559000  0.49663000  1.0
  C  C109  1  0.09076000  0.52241000  0.47964000  1.0
  C  C110  1  0.28826000  0.58296000  0.39867000  1.0
  C  C111  1  0.36527000  0.59794000  0.37907000  1.0
  C  C112  1  0.05873000  0.62325000  0.37758000  1.0
  C  C113  1  0.68938000  0.46913000  0.56164000  1.0
  C  C114  1  0.41269000  0.43339000  0.56735000  1.0
  C  C115  1  0.14393000  0.40402000  0.58332000  1.0
  C  C116  1  0.98829000  0.37767000  0.62808000  1.0
  C  C117  1  0.87128000  0.39370000  0.61254000  1.0
  C  C118  1  0.94591000  0.40608000  0.59059000  1.0
  C  C119  1  0.92949000  0.64466000  0.36834000  1.0
  C  C120  1  0.63597000  0.74941000  0.38213000  1.0
  C  C121  1  0.37729000  0.78985000  0.39222000  1.0
  C  C122  1  0.50647000  0.82110000  0.41284000  1.0
  C  C123  1  0.43045000  0.85661000  0.42927000  1.0
  C  C124  1  0.53269000  0.88980000  0.44798000  1.0
  C  C125  1  0.44866000  0.92461000  0.46552000  1.0
  C  C126  1  0.24969000  0.92771000  0.47170000  1.0
  C  C127  1  0.17573000  0.96142000  0.48846000  1.0
  C  C128  1  0.29517000  0.99401000  0.50011000  1.0
  C  C129  1  0.21354000  0.02956000  0.51733000  1.0
  C  C130  1  0.04685000  0.03532000  0.53676000  1.0
  C  C131  1  0.96900000  0.06875000  0.55283000  1.0
  C  C132  1  0.05370000  0.09830000  0.55022000  1.0
  C  C133  1  0.29841000  0.05908000  0.51481000  1.0
  C  C134  1  0.80290000  0.14262000  0.57938000  1.0
  C  C135  1  0.87147000  0.21055000  0.61383000  1.0
  C  C136  1  0.81273000  0.24581000  0.62728000  1.0
  C  C137  1  0.96323000  0.27680000  0.64734000  1.0
  C  C138  1  0.49428000  0.99104000  0.49440000  1.0
  C  C139  1  0.56840000  0.95723000  0.47760000  1.0
  C  C140  1  0.70516000  0.81573000  0.41708000  1.0
  C  C141  1  0.76721000  0.78115000  0.40209000  1.0
  C  C142  1  0.43545000  0.75434000  0.37674000  1.0
  C  C143  1  0.22043000  0.09251000  0.53086000  1.0
  C  C144  1  0.97951000  0.13397000  0.56662000  1.0
  C  C145  1  0.74005000  0.17928000  0.59594000  1.0
  C  C146  1  0.61077000  0.25040000  0.62231000  1.0
  C  C147  1  0.47774000  0.21885000  0.60628000  1.0
  C  C148  1  0.53999000  0.18451000  0.59389000  1.0
  C  C149  1  0.28486000  0.72368000  0.35534000  1.0
  O  O150  1  0.98862000  0.65300000  0.28324000  1.0
  O  O151  1  0.86458000  0.38286000  0.72796000  1.0
  O  O152  1  0.60499000  0.34789000  0.69082000  1.0
  O  O153  1  0.38247000  0.61943000  0.27094000  1.0
  O  O154  1  0.64249000  0.65293000  0.30907000  1.0
  O  O155  1  0.25909000  0.34968000  0.71729000  1.0
  O  O156  1  0.33558000  0.63024000  0.34700000  1.0
  O  O157  1  0.48163000  0.34510000  0.61714000  1.0
  O  O158  1  0.25706000  0.34295000  0.65213000  1.0
  O  O159  1  0.76303000  0.65151000  0.38059000  1.0
  O  O160  1  0.98949000  0.65614000  0.34707000  1.0
  O  O161  1  0.90933000  0.36761000  0.65033000  1.0
  O  O162  1  0.70535000  0.71678000  0.36974000  1.0
  O  O163  1  0.13664000  0.27204000  0.65491000  1.0
  O  O164  1  0.91423000  0.30918000  0.65705000  1.0
  O  O165  1  0.11155000  0.72906000  0.34848000  1.0
  O  O166  1  0.33340000  0.69094000  0.34388000  1.0
  O  O167  1  0.54187000  0.28273000  0.63240000  1.0
