# generated using pymatgen
data_AgH8C12N5O4
_symmetry_space_group_name_H-M   'P 1'
_cell_length_a   8.46512000
_cell_length_b   8.51935000
_cell_length_c   9.84514000
_cell_angle_alpha   74.73420000
_cell_angle_beta   78.45920000
_cell_angle_gamma   69.94160000
_symmetry_Int_Tables_number   1
_chemical_formula_structural   AgH8C12N5O4
_chemical_formula_sum   'Ag2 H16 C24 N10 O8'
_cell_volume   638.66861472
_cell_formula_units_Z   2
loop_
 _symmetry_equiv_pos_site_id
 _symmetry_equiv_pos_as_xyz
  1  'x, y, z'
loop_
 _atom_site_type_symbol
 _atom_site_label
 _atom_site_symmetry_multiplicity
 _atom_site_fract_x
 _atom_site_fract_y
 _atom_site_fract_z
 _atom_site_occupancy
  Ag  Ag0  1  0.42346000  0.70513000  0.53437000  1.0
  Ag  Ag1  1  0.57654000  0.29487000  0.46563000  1.0
  H  H2  1  0.14566000  0.62637000  0.42008000  1.0
  H  H3  1  0.85434000  0.37363000  0.57992000  1.0
  H  H4  1  0.03279000  0.67199000  0.19182000  1.0
  H  H5  1  0.96721000  0.32801000  0.80818000  1.0
  H  H6  1  0.38953000  0.94950000  0.98806000  1.0
  H  H7  1  0.61047000  0.05050000  0.01194000  1.0
  H  H8  1  0.48039000  0.90111000  0.22669000  1.0
  H  H9  1  0.51960000  0.09889000  0.77331000  1.0
  H  H10  1  0.53911000  0.63717000  0.83577000  1.0
  H  H11  1  0.46089000  0.36283000  0.16423000  1.0
  H  H12  1  0.76789000  0.67308000  0.93985000  1.0
  H  H13  1  0.23211000  0.32692000  0.06015000  1.0
  H  H14  1  0.95174000  0.88960000  0.51169000  1.0
  H  H15  1  0.04826000  0.11040000  0.48830000  1.0
  H  H16  1  0.71873000  0.84399000  0.42745000  1.0
  H  H17  1  0.28127000  0.15601000  0.57255000  1.0
  C  C18  1  0.19511000  0.69831000  0.32200000  1.0
  C  C19  1  0.80489000  0.30169000  0.67800000  1.0
  C  C20  1  0.13560000  0.72054000  0.19442000  1.0
  C  C21  1  0.86441000  0.27946000  0.80559000  1.0
  C  C22  1  0.20787000  0.80990000  0.07091000  1.0
  C  C23  1  0.79213000  0.19009000  0.92909000  1.0
  C  C24  1  0.33375000  0.87681000  0.08174000  1.0
  C  C25  1  0.66625000  0.12319000  0.91826000  1.0
  C  C26  1  0.38314000  0.85083000  0.21403000  1.0
  C  C27  1  0.61686000  0.14917000  0.78597000  1.0
  C  C28  1  0.15469000  0.83384000  0.93390000  1.0
  C  C29  1  0.84531000  0.16616000  0.06610000  1.0
  C  C30  1  0.01208000  0.81749000  0.78429000  1.0
  C  C31  1  0.98792000  0.18251000  0.21571000  1.0
  C  C32  1  0.63383000  0.69240000  0.76858000  1.0
  C  C33  1  0.36617000  0.30760000  0.23142000  1.0
  C  C34  1  0.76259000  0.71088000  0.82552000  1.0
  C  C35  1  0.23742000  0.28912000  0.17448000  1.0
  C  C36  1  0.88083000  0.78288000  0.73299000  1.0
  C  C37  1  0.11917000  0.21711000  0.26701000  1.0
  C  C38  1  0.86538000  0.83090000  0.58762000  1.0
  C  C39  1  0.13462000  0.16910000  0.41239000  1.0
  C  C40  1  0.73326000  0.80752000  0.54001000  1.0
  C  C41  1  0.26674000  0.19249000  0.45999000  1.0
  N  N42  1  0.31653000  0.76178000  0.33290000  1.0
  N  N43  1  0.68346000  0.23822000  0.66710000  1.0
  N  N44  1  0.21292000  0.90825000  0.80856000  1.0
  N  N45  1  0.78708000  0.09175000  0.19144000  1.0
  N  N46  1  0.12153000  0.89685000  0.71186000  1.0
  N  N47  1  0.87848000  0.10315000  0.28814000  1.0
  N  N48  1  0.61798000  0.73984000  0.62875000  1.0
  N  N49  1  0.38202000  0.26016000  0.37125000  1.0
  N  N50  1  0.27621000  0.44000000  0.76323000  1.0
  N  N51  1  0.72379000  0.56000000  0.23677000  1.0
  O  O52  1  0.02695000  0.77387000  0.92594000  1.0
  O  O53  1  0.97306000  0.22613000  0.07406000  1.0
  O  O54  1  0.26178000  0.49094000  0.63022000  1.0
  O  O55  1  0.73822000  0.50906000  0.36978000  1.0
  O  O56  1  0.34861000  0.50908000  0.82072000  1.0
  O  O57  1  0.65139000  0.49092000  0.17928000  1.0
  O  O58  1  0.21933000  0.32030000  0.83476000  1.0
  O  O59  1  0.78066000  0.67970000  0.16524000  1.0
