# generated using pymatgen
data_CuH17C20N3O4
_symmetry_space_group_name_H-M   'P 1'
_cell_length_a   12.69880000
_cell_length_b   13.10060000
_cell_length_c   14.40480000
_cell_angle_alpha   89.99980000
_cell_angle_beta   89.99990000
_cell_angle_gamma   105.62200000
_symmetry_Int_Tables_number   1
_chemical_formula_structural   CuH17C20N3O4
_chemical_formula_sum   'Cu4 H68 C80 N12 O16'
_cell_volume   2307.88467944
_cell_formula_units_Z   4
loop_
 _symmetry_equiv_pos_site_id
 _symmetry_equiv_pos_as_xyz
  1  'x, y, z'
loop_
 _atom_site_type_symbol
 _atom_site_label
 _atom_site_symmetry_multiplicity
 _atom_site_fract_x
 _atom_site_fract_y
 _atom_site_fract_z
 _atom_site_occupancy
  Cu  Cu0  1  0.20017000  0.14455000  0.54885000  1.0
  Cu  Cu1  1  0.29985000  0.85546000  0.04891000  1.0
  Cu  Cu2  1  0.79984000  0.85545000  0.45109000  1.0
  Cu  Cu3  1  0.70016000  0.14454000  0.95116000  1.0
  H  H4  1  0.25838000  0.27585000  0.08863000  1.0
  H  H5  1  0.24161000  0.72413000  0.58865000  1.0
  H  H6  1  0.74162000  0.72414000  0.91135000  1.0
  H  H7  1  0.75838000  0.27584000  0.41137000  1.0
  H  H8  1  0.33496000  0.30646000  0.98506000  1.0
  H  H9  1  0.16503000  0.69353000  0.48508000  1.0
  H  H10  1  0.66503000  0.69354000  0.01492000  1.0
  H  H11  1  0.83496000  0.30646000  0.51494000  1.0
  H  H12  1  0.09316000  0.30248000  0.00890000  1.0
  H  H13  1  0.40683000  0.69753000  0.50891000  1.0
  H  H14  1  0.90683000  0.69753000  0.99108000  1.0
  H  H15  1  0.59317000  0.30248000  0.49109000  1.0
  H  H16  1  0.16381000  0.32875000  0.90370000  1.0
  H  H17  1  0.33617000  0.67126000  0.40371000  1.0
  H  H18  1  0.83618000  0.67126000  0.09628000  1.0
  H  H19  1  0.66382000  0.32875000  0.59629000  1.0
  H  H20  1  0.05877000  0.47736000  0.94149000  1.0
  H  H21  1  0.44124000  0.52265000  0.44148000  1.0
  H  H22  1  0.94124000  0.52265000  0.05851000  1.0
  H  H23  1  0.55877000  0.47735000  0.55850000  1.0
  H  H24  1  0.40686000  0.66286000  0.08634000  1.0
  H  H25  1  0.09314000  0.33713000  0.58633000  1.0
  H  H26  1  0.59314000  0.33714000  0.91367000  1.0
  H  H27  1  0.90687000  0.66286000  0.41366000  1.0
  H  H28  1  0.10885000  0.67099000  0.97615000  1.0
  H  H29  1  0.39114000  0.32901000  0.47613000  1.0
  H  H30  1  0.89114000  0.32902000  0.02386000  1.0
  H  H31  1  0.60885000  0.67099000  0.52384000  1.0
  H  H32  1  0.36711000  0.46744000  0.06186000  1.0
  H  H33  1  0.13289000  0.53256000  0.56187000  1.0
  H  H34  1  0.63289000  0.53256000  0.93813000  1.0
  H  H35  1  0.86712000  0.46744000  0.43813000  1.0
  H  H36  1  0.18546000  0.09041000  0.15553000  1.0
  H  H37  1  0.31457000  0.90961000  0.65560000  1.0
  H  H38  1  0.81458000  0.90962000  0.84440000  1.0
  H  H39  1  0.68545000  0.09040000  0.34448000  1.0
  H  H40  1  0.26767000  0.11376000  0.00969000  1.0
  H  H41  1  0.23230000  0.88623000  0.50971000  1.0
  H  H42  1  0.73230000  0.88624000  0.99029000  1.0
  H  H43  1  0.76768000  0.11375000  0.49031000  1.0
  H  H44  1  0.12849000  0.12202000  0.01040000  1.0
  H  H45  1  0.37149000  0.87798000  0.51043000  1.0
  H  H46  1  0.87149000  0.87798000  0.98958000  1.0
  H  H47  1  0.62849000  0.12202000  0.48960000  1.0
  H  H48  1  0.03106000  0.11336000  0.86686000  1.0
  H  H49  1  0.46893000  0.88666000  0.36690000  1.0
  H  H50  1  0.96892000  0.88666000  0.13310000  1.0
  H  H51  1  0.53106000  0.11337000  0.63313000  1.0
  H  H52  1  0.35927000  0.10612000  0.23988000  1.0
  H  H53  1  0.14071000  0.89377000  0.73998000  1.0
  H  H54  1  0.64072000  0.89378000  0.76002000  1.0
  H  H55  1  0.85927000  0.10612000  0.26013000  1.0
  H  H56  1  0.01773000  0.09611000  0.24112000  1.0
  H  H57  1  0.48233000  0.90402000  0.74125000  1.0
  H  H58  1  0.98233000  0.90402000  0.75875000  1.0
  H  H59  1  0.51772000  0.09611000  0.25889000  1.0
  H  H60  1  0.38238000  0.17746000  0.86162000  1.0
  H  H61  1  0.11760000  0.82251000  0.36163000  1.0
  H  H62  1  0.61760000  0.82249000  0.13837000  1.0
  H  H63  1  0.88238000  0.17746000  0.63839000  1.0
  H  H64  1  0.37125000  0.17325000  0.68661000  1.0
  H  H65  1  0.12875000  0.82676000  0.18663000  1.0
  H  H66  1  0.62874000  0.82674000  0.31337000  1.0
  H  H67  1  0.87125000  0.17324000  0.81340000  1.0
  H  H68  1  0.03480000  0.11197000  0.69168000  1.0
  H  H69  1  0.46521000  0.88803000  0.19173000  1.0
  H  H70  1  0.96520000  0.88804000  0.30828000  1.0
  H  H71  1  0.53479000  0.11197000  0.80831000  1.0
  C  C72  1  0.20805000  0.45447000  0.99979000  1.0
  C  C73  1  0.29195000  0.54553000  0.49979000  1.0
  C  C74  1  0.79195000  0.54553000  0.00020000  1.0
  C  C75  1  0.70805000  0.45447000  0.50020000  1.0
  C  C76  1  0.25168000  0.27309000  0.01243000  1.0
  C  C77  1  0.24831000  0.72691000  0.51245000  1.0
  C  C78  1  0.74831000  0.72691000  0.98755000  1.0
  C  C79  1  0.75169000  0.27308000  0.48757000  1.0
  C  C80  1  0.17525000  0.33760000  0.97957000  1.0
  C  C81  1  0.32474000  0.66240000  0.47958000  1.0
  C  C82  1  0.82474000  0.66240000  0.02042000  1.0
  C  C83  1  0.67526000  0.33760000  0.52042000  1.0
  C  C84  1  0.13657000  0.51504000  0.97493000  1.0
  C  C85  1  0.36343000  0.48497000  0.47492000  1.0
  C  C86  1  0.86343000  0.48497000  0.02507000  1.0
  C  C87  1  0.63658000  0.51504000  0.52506000  1.0
  C  C88  1  0.32941000  0.61804000  0.05579000  1.0
  C  C89  1  0.17059000  0.38196000  0.55578000  1.0
  C  C90  1  0.67059000  0.38196000  0.94422000  1.0
  C  C91  1  0.82941000  0.61804000  0.44421000  1.0
  C  C92  1  0.16434000  0.62293000  0.99333000  1.0
  C  C93  1  0.33566000  0.37707000  0.49332000  1.0
  C  C94  1  0.83566000  0.37708000  0.00668000  1.0
  C  C95  1  0.66434000  0.62293000  0.50666000  1.0
  C  C96  1  0.30706000  0.50892000  0.04119000  1.0
  C  C97  1  0.19294000  0.49108000  0.54119000  1.0
  C  C98  1  0.69293000  0.49108000  0.95881000  1.0
  C  C99  1  0.80707000  0.50892000  0.45880000  1.0
  C  C100  1  0.00603000  0.11309000  0.44103000  1.0
  C  C101  1  0.49400000  0.88700000  0.94112000  1.0
  C  C102  1  0.99398000  0.88699000  0.55886000  1.0
  C  C103  1  0.50603000  0.11310000  0.05897000  1.0
  C  C104  1  0.18779000  0.09849000  0.23076000  1.0
  C  C105  1  0.31222000  0.90152000  0.73084000  1.0
  C  C106  1  0.81222000  0.90152000  0.76916000  1.0
  C  C107  1  0.68778000  0.09849000  0.26925000  1.0
  C  C108  1  0.21071000  0.15627000  0.98190000  1.0
  C  C109  1  0.28927000  0.84372000  0.48193000  1.0
  C  C110  1  0.78927000  0.84373000  0.01807000  1.0
  C  C111  1  0.71071000  0.15627000  0.51810000  1.0
  C  C112  1  0.10833000  0.12800000  0.82925000  1.0
  C  C113  1  0.39166000  0.87201000  0.32929000  1.0
  C  C114  1  0.89165000  0.87201000  0.17072000  1.0
  C  C115  1  0.60833000  0.12800000  0.67075000  1.0
  C  C116  1  0.28562000  0.10663000  0.27832000  1.0
  C  C117  1  0.21438000  0.89330000  0.77840000  1.0
  C  C118  1  0.71439000  0.89330000  0.72160000  1.0
  C  C119  1  0.78561000  0.10664000  0.22169000  1.0
  C  C120  1  0.09283000  0.10018000  0.27907000  1.0
  C  C121  1  0.40719000  0.89989000  0.77915000  1.0
  C  C122  1  0.90720000  0.89989000  0.72084000  1.0
  C  C123  1  0.59282000  0.10018000  0.22094000  1.0
  C  C124  1  0.09812000  0.10891000  0.37553000  1.0
  C  C125  1  0.40190000  0.89115000  0.87562000  1.0
  C  C126  1  0.90191000  0.89114000  0.62438000  1.0
  C  C127  1  0.59811000  0.10891000  0.12448000  1.0
  C  C128  1  0.30378000  0.16450000  0.82627000  1.0
  C  C129  1  0.19621000  0.83549000  0.32630000  1.0
  C  C130  1  0.69620000  0.83548000  0.17370000  1.0
  C  C131  1  0.80378000  0.16449000  0.67373000  1.0
  C  C132  1  0.20716000  0.14787000  0.87827000  1.0
  C  C133  1  0.29283000  0.85213000  0.37830000  1.0
  C  C134  1  0.79282000  0.85212000  0.12170000  1.0
  C  C135  1  0.70716000  0.14787000  0.62173000  1.0
  C  C136  1  0.28520000  0.11521000  0.37473000  1.0
  C  C137  1  0.21481000  0.88474000  0.87480000  1.0
  C  C138  1  0.71481000  0.88473000  0.62520000  1.0
  C  C139  1  0.78519000  0.11521000  0.12528000  1.0
  C  C140  1  0.38140000  0.12639000  0.43977000  1.0
  C  C141  1  0.11859000  0.87352000  0.93984000  1.0
  C  C142  1  0.61859000  0.87351000  0.56016000  1.0
  C  C143  1  0.88139000  0.12639000  0.06024000  1.0
  C  C144  1  0.29872000  0.16181000  0.73008000  1.0
  C  C145  1  0.20128000  0.83819000  0.23011000  1.0
  C  C146  1  0.70127000  0.83818000  0.26990000  1.0
  C  C147  1  0.79872000  0.16180000  0.76992000  1.0
  C  C148  1  0.10936000  0.12680000  0.73286000  1.0
  C  C149  1  0.39064000  0.87321000  0.23290000  1.0
  C  C150  1  0.89063000  0.87321000  0.26710000  1.0
  C  C151  1  0.60936000  0.12680000  0.76714000  1.0
  N  N152  1  0.25947000  0.67473000  0.03324000  1.0
  N  N153  1  0.24053000  0.32527000  0.53322000  1.0
  N  N154  1  0.74052000  0.32527000  0.96678000  1.0
  N  N155  1  0.75948000  0.67473000  0.46676000  1.0
  N  N156  1  0.20293000  0.14352000  0.68390000  1.0
  N  N157  1  0.29707000  0.85650000  0.18394000  1.0
  N  N158  1  0.79706000  0.85649000  0.31607000  1.0
  N  N159  1  0.70293000  0.14351000  0.81611000  1.0
  N  N160  1  0.19276000  0.11587000  0.41920000  1.0
  N  N161  1  0.30725000  0.88414000  0.91927000  1.0
  N  N162  1  0.80725000  0.88413000  0.58072000  1.0
  N  N163  1  0.69275000  0.11587000  0.08081000  1.0
  O  O164  1  0.91224000  0.10219000  0.40981000  1.0
  O  O165  1  0.58780000  0.89799000  0.90992000  1.0
  O  O166  1  0.08782000  0.89799000  0.59008000  1.0
  O  O167  1  0.41222000  0.10220000  0.09020000  1.0
  O  O168  1  0.47294000  0.12751000  0.40828000  1.0
  O  O169  1  0.02704000  0.87229000  0.90835000  1.0
  O  O170  1  0.52703000  0.87229000  0.59166000  1.0
  O  O171  1  0.97294000  0.12752000  0.09173000  1.0
  O  O172  1  0.35905000  0.13615000  0.52701000  1.0
  O  O173  1  0.14099000  0.86383000  0.02709000  1.0
  O  O174  1  0.64098000  0.86383000  0.47291000  1.0
  O  O175  1  0.85903000  0.13614000  0.97300000  1.0
  O  O176  1  0.03439000  0.12846000  0.52775000  1.0
  O  O177  1  0.46561000  0.87156000  0.02784000  1.0
  O  O178  1  0.96561000  0.87156000  0.47216000  1.0
  O  O179  1  0.53439000  0.12847000  0.97225000  1.0
