# generated using pymatgen
data_CdH7C8SN3O4
_symmetry_space_group_name_H-M   'P 1'
_cell_length_a   7.80559000
_cell_length_b   8.21583000
_cell_length_c   16.65910000
_cell_angle_alpha   90.00000000
_cell_angle_beta   90.00010000
_cell_angle_gamma   96.38480000
_symmetry_Int_Tables_number   1
_chemical_formula_structural   CdH7C8SN3O4
_chemical_formula_sum   'Cd4 H28 C32 S4 N12 O16'
_cell_volume   1061.71168142
_cell_formula_units_Z   4
loop_
 _symmetry_equiv_pos_site_id
 _symmetry_equiv_pos_as_xyz
  1  'x, y, z'
loop_
 _atom_site_type_symbol
 _atom_site_label
 _atom_site_symmetry_multiplicity
 _atom_site_fract_x
 _atom_site_fract_y
 _atom_site_fract_z
 _atom_site_occupancy
  Cd  Cd0  1  0.62002000  0.05434000  0.64201000  1.0
  Cd  Cd1  1  0.87998000  0.94566000  0.14200000  1.0
  Cd  Cd2  1  0.37997000  0.94566000  0.35799000  1.0
  Cd  Cd3  1  0.12002000  0.05434000  0.85799000  1.0
  H  H4  1  0.67378000  0.67139000  0.75631000  1.0
  H  H5  1  0.82622000  0.32861000  0.25631000  1.0
  H  H6  1  0.32622000  0.32861000  0.24369000  1.0
  H  H7  1  0.17378000  0.67140000  0.74369000  1.0
  H  H8  1  0.53093000  0.64907000  0.67414000  1.0
  H  H9  1  0.96907000  0.35093000  0.17414000  1.0
  H  H10  1  0.46907000  0.35093000  0.32586000  1.0
  H  H11  1  0.03093000  0.64907000  0.82586000  1.0
  H  H12  1  0.80183000  0.45711000  0.80093000  1.0
  H  H13  1  0.69817000  0.54289000  0.30093000  1.0
  H  H14  1  0.19817000  0.54289000  0.19907000  1.0
  H  H15  1  0.30183000  0.45712000  0.69907000  1.0
  H  H16  1  0.82316000  0.28618000  0.73998000  1.0
  H  H17  1  0.67684000  0.71382000  0.23997000  1.0
  H  H18  1  0.17684000  0.71382000  0.26002000  1.0
  H  H19  1  0.32316000  0.28618000  0.76002000  1.0
  H  H20  1  0.62027000  0.79252000  0.49950000  1.0
  H  H21  1  0.87973000  0.20749000  0.99950000  1.0
  H  H22  1  0.37973000  0.20748000  0.50050000  1.0
  H  H23  1  0.12027000  0.79251000  0.00049000  1.0
  H  H24  1  0.82214000  0.62263000  0.42917000  1.0
  H  H25  1  0.67786000  0.37739000  0.92918000  1.0
  H  H26  1  0.17785000  0.37737000  0.57083000  1.0
  H  H27  1  0.32214000  0.62262000  0.07082000  1.0
  H  H28  1  0.12817000  0.63718000  0.47783000  1.0
  H  H29  1  0.37183000  0.36283000  0.97783000  1.0
  H  H30  1  0.87182000  0.36282000  0.52217000  1.0
  H  H31  1  0.62817000  0.63718000  0.02218000  1.0
  C  C32  1  0.75328000  0.79251000  0.51869000  1.0
  C  C33  1  0.74672000  0.20749000  0.01869000  1.0
  C  C34  1  0.24672000  0.20749000  0.48131000  1.0
  C  C35  1  0.25328000  0.79250000  0.98131000  1.0
  C  C36  1  0.86646000  0.69906000  0.48007000  1.0
  C  C37  1  0.63355000  0.30095000  0.98007000  1.0
  C  C38  1  0.13354000  0.30093000  0.51992000  1.0
  C  C39  1  0.36645000  0.69906000  0.01993000  1.0
  C  C40  1  0.03502000  0.70568000  0.50799000  1.0
  C  C41  1  0.46498000  0.29432000  0.00800000  1.0
  C  C42  1  0.96498000  0.29431000  0.49201000  1.0
  C  C43  1  0.53502000  0.70569000  0.99201000  1.0
  C  C44  1  0.08664000  0.80205000  0.57494000  1.0
  C  C45  1  0.41336000  0.19795000  0.07494000  1.0
  C  C46  1  0.91336000  0.19795000  0.42506000  1.0
  C  C47  1  0.58664000  0.80205000  0.92506000  1.0
  C  C48  1  0.96406000  0.89157000  0.61073000  1.0
  C  C49  1  0.53594000  0.10843000  0.11073000  1.0
  C  C50  1  0.03593000  0.10843000  0.38927000  1.0
  C  C51  1  0.46406000  0.89157000  0.88927000  1.0
  C  C52  1  0.27189000  0.80963000  0.60359000  1.0
  C  C53  1  0.22811000  0.19037000  0.10359000  1.0
  C  C54  1  0.72811000  0.19036000  0.39642000  1.0
  C  C55  1  0.77189000  0.80963000  0.89642000  1.0
  C  C56  1  0.99983000  0.99108000  0.68626000  1.0
  C  C57  1  0.50018000  0.00891000  0.18626000  1.0
  C  C58  1  0.00018000  0.00891000  0.31374000  1.0
  C  C59  1  0.49983000  0.99109000  0.81374000  1.0
  C  C60  1  0.66836000  0.45411000  0.69654000  1.0
  C  C61  1  0.83163000  0.54590000  0.19654000  1.0
  C  C62  1  0.33164000  0.54589000  0.30346000  1.0
  C  C63  1  0.16836000  0.45411000  0.80346000  1.0
  S  S64  1  0.59001000  0.34972000  0.61160000  1.0
  S  S65  1  0.90999000  0.65028000  0.11159000  1.0
  S  S66  1  0.40999000  0.65028000  0.38840000  1.0
  S  S67  1  0.09001000  0.34972000  0.88840000  1.0
  N  N68  1  0.80239000  0.88786000  0.58160000  1.0
  N  N69  1  0.69762000  0.11215000  0.08159000  1.0
  N  N70  1  0.19761000  0.11214000  0.41840000  1.0
  N  N71  1  0.30238000  0.88786000  0.91840000  1.0
  N  N72  1  0.62831000  0.60600000  0.70702000  1.0
  N  N73  1  0.87169000  0.39399000  0.20702000  1.0
  N  N74  1  0.37169000  0.39400000  0.29298000  1.0
  N  N75  1  0.12831000  0.60600000  0.79298000  1.0
  N  N76  1  0.76546000  0.38963000  0.75127000  1.0
  N  N77  1  0.73455000  0.61037000  0.25126000  1.0
  N  N78  1  0.23454000  0.61037000  0.24873000  1.0
  N  N79  1  0.26546000  0.38963000  0.74873000  1.0
  O  O80  1  0.91965000  0.11419000  0.69743000  1.0
  O  O81  1  0.58035000  0.88581000  0.19743000  1.0
  O  O82  1  0.08035000  0.88581000  0.30257000  1.0
  O  O83  1  0.41966000  0.11419000  0.80257000  1.0
  O  O84  1  0.10645000  0.93727000  0.73485000  1.0
  O  O85  1  0.39355000  0.06273000  0.23485000  1.0
  O  O86  1  0.89355000  0.06273000  0.26515000  1.0
  O  O87  1  0.60645000  0.93727000  0.76515000  1.0
  O  O88  1  0.36815000  0.93925000  0.58425000  1.0
  O  O89  1  0.13185000  0.06075000  0.08424000  1.0
  O  O90  1  0.63185000  0.06075000  0.41576000  1.0
  O  O91  1  0.86815000  0.93926000  0.91576000  1.0
  O  O92  1  0.31674000  0.68638000  0.64000000  1.0
  O  O93  1  0.18326000  0.31361000  0.14000000  1.0
  O  O94  1  0.68326000  0.31362000  0.36000000  1.0
  O  O95  1  0.81674000  0.68639000  0.86001000  1.0
