# generated using pymatgen
data_Zn4H72C94N16O3
_symmetry_space_group_name_H-M   'P 1'
_cell_length_a   18.86720000
_cell_length_b   18.87710000
_cell_length_c   20.41010000
_cell_angle_alpha   105.44100000
_cell_angle_beta   107.49400000
_cell_angle_gamma   112.02500000
_symmetry_Int_Tables_number   1
_chemical_formula_structural   Zn4H72C94N16O3
_chemical_formula_sum   'Zn4 H72 C94 N16 O3'
_cell_volume   5806.68220538
_cell_formula_units_Z   1
loop_
 _symmetry_equiv_pos_site_id
 _symmetry_equiv_pos_as_xyz
  1  'x, y, z'
loop_
 _atom_site_type_symbol
 _atom_site_label
 _atom_site_symmetry_multiplicity
 _atom_site_fract_x
 _atom_site_fract_y
 _atom_site_fract_z
 _atom_site_occupancy
  Zn  Zn0  1  0.89059000  0.89560000  0.50150000  1.0
  Zn  Zn1  1  0.10887000  0.12055000  0.50004000  1.0
  Zn  Zn2  1  0.09989000  0.00519000  0.59263000  1.0
  Zn  Zn3  1  0.90143000  0.00365000  0.39994000  1.0
  H  H4  1  0.85634000  0.79119000  0.61105000  1.0
  H  H5  1  0.45097000  0.21613000  0.55353000  1.0
  H  H6  1  0.57517000  0.26971000  0.52742000  1.0
  H  H7  1  0.13736000  0.29318000  0.46979000  1.0
  H  H8  1  0.79876000  0.20175000  0.54495000  1.0
  H  H9  1  0.78292000  0.05637000  0.67574000  1.0
  H  H10  1  0.68468000  0.03945000  0.73411000  1.0
  H  H11  1  0.55664000  0.04405000  0.73756000  1.0
  H  H12  1  0.13966000  0.75005000  0.43112000  1.0
  H  H13  1  0.86371000  0.61819000  0.32767000  1.0
  H  H14  1  0.78259000  0.46334000  0.28116000  1.0
  H  H15  1  0.31770000  0.19839000  0.53671000  1.0
  H  H16  1  0.78127000  0.33260000  0.28321000  1.0
  H  H17  1  0.86048000  0.26231000  0.32771000  1.0
  H  H18  1  0.09915000  0.12583000  0.74214000  1.0
  H  H19  1  0.13616000  0.39180000  0.42578000  1.0
  H  H20  1  0.21621000  0.53878000  0.44322000  1.0
  H  H21  1  0.21752000  0.67004000  0.44311000  1.0
  H  H22  1  0.56093000  0.80411000  0.17978000  1.0
  H  H23  1  0.12738000  0.23986000  0.84728000  1.0
  H  H24  1  0.14538000  0.39068000  0.72106000  1.0
  H  H25  1  0.30483000  0.59103000  0.97843000  1.0
  H  H26  1  0.14018000  0.87622000  0.49047000  1.0
  H  H27  1  0.40296000  0.52729000  0.18004000  1.0
  H  H28  1  0.20094000  0.36820000  0.96507000  1.0
  H  H29  1  0.54417000  0.63396000  0.28694000  1.0
  H  H30  1  0.86658000  0.14313000  0.49240000  1.0
  H  H31  1  0.30476000  0.47224000  0.05595000  1.0
  H  H32  1  0.42120000  0.69798000  0.07343000  1.0
  H  H33  1  0.13471000  0.86850000  0.80349000  1.0
  H  H34  1  0.96562000  0.77297000  0.18606000  1.0
  H  H35  1  0.12824000  0.87964000  0.01701000  1.0
  H  H36  1  0.86657000  0.70850000  0.81663000  1.0
  H  H37  1  0.89449000  0.87273000  0.25001000  1.0
  H  H38  1  0.97890000  0.72666000  0.06684000  1.0
  H  H39  1  0.85961000  0.74404000  0.70811000  1.0
  H  H40  1  0.10459000  0.27509000  0.61282000  1.0
  H  H41  1  0.94542000  0.72983000  0.94377000  1.0
  H  H42  1  0.14151000  0.83438000  0.91226000  1.0
  H  H43  1  0.85922000  0.00400000  0.63083000  1.0
  H  H44  1  0.86304000  0.13907000  0.33312000  1.0
  H  H45  1  0.13243000  0.94037000  0.72917000  1.0
  H  H46  1  0.69983000  0.16379000  0.42927000  1.0
  H  H47  1  0.61481000  0.18386000  0.39482000  1.0
  H  H48  1  0.16873000  0.02907000  0.38861000  1.0
  H  H49  1  0.71574000  0.24677000  0.39962000  1.0
  H  H50  1  0.69552000  0.32591000  0.50613000  1.0
  H  H51  1  0.78302000  0.31020000  0.54155000  1.0
  H  H52  1  0.36515000  0.59330000  0.89194000  1.0
  H  H53  1  0.31768000  0.53776000  0.79176000  1.0
  H  H54  1  0.33313000  0.64138000  0.83334000  1.0
  H  H55  1  0.17933000  0.53233000  0.78154000  1.0
  H  H56  1  0.22480000  0.58841000  0.88069000  1.0
  H  H57  1  0.05942000  0.07226000  0.28138000  1.0
  H  H58  1  0.05771000  0.07352000  0.19395000  1.0
  H  H59  1  0.86324000  0.74152000  0.36709000  1.0
  H  H60  1  0.19976000  0.20759000  0.26559000  1.0
  H  H61  1  0.12465000  0.22066000  0.29682000  1.0
  H  H62  1  0.20442000  0.20446000  0.35317000  1.0
  H  H63  1  0.12028000  0.07737000  0.11861000  1.0
  H  H64  1  0.07171000  0.98229000  0.03430000  1.0
  H  H65  1  0.20572000  0.03452000  0.01835000  1.0
  H  H66  1  0.16900000  0.10914000  0.02387000  1.0
  H  H67  1  0.25691000  0.12805000  0.10426000  1.0
  H  H68  1  0.74857000  0.80385000  0.50981000  1.0
  H  H69  1  0.77845000  0.73324000  0.46248000  1.0
  H  H70  1  0.70746000  0.88085000  0.25484000  1.0
  H  H71  1  0.64501000  0.60918000  0.44072000  1.0
  H  H72  1  0.71201000  0.67641000  0.53921000  1.0
  H  H73  1  0.61873000  0.68056000  0.49089000  1.0
  H  H74  1  0.29941000  0.03803000  0.65509000  1.0
  H  H75  1  0.43960000  0.07425000  0.68829000  1.0
  C  C76  1  0.92394000  0.83360000  0.63150000  1.0
  C  C77  1  0.93095000  0.78563000  0.40347000  1.0
  C  C78  1  0.71444000  0.85652000  0.29763000  1.0
  C  C79  1  0.07046000  0.24440000  0.43851000  1.0
  C  C80  1  0.29056000  0.07478000  0.62368000  1.0
  C  C81  1  0.65318000  0.78628000  0.29874000  1.0
  C  C82  1  0.34797000  0.12749000  0.60437000  1.0
  C  C83  1  0.00231000  0.77465000  0.41130000  1.0
  C  C84  1  0.03758000  0.93468000  0.29153000  1.0
  C  C85  1  0.47217000  0.10802000  0.66108000  1.0
  C  C86  1  0.43421000  0.14264000  0.61849000  1.0
  C  C87  1  0.99936000  0.24691000  0.39341000  1.0
  C  C88  1  0.47884000  0.18791000  0.58610000  1.0
  C  C89  1  0.55698000  0.19453000  0.59112000  1.0
  C  C90  1  0.59216000  0.15429000  0.63018000  1.0
  C  C91  1  0.09839000  0.15198000  0.70072000  1.0
  C  C92  1  0.55001000  0.11267000  0.66742000  1.0
  C  C93  1  0.60122000  0.23685000  0.55522000  1.0
  C  C94  1  0.67247000  0.23554000  0.55246000  1.0
  C  C95  1  0.70514000  0.18963000  0.58724000  1.0
  C  C96  1  0.66576000  0.15199000  0.62817000  1.0
  C  C97  1  0.69788000  0.10729000  0.66351000  1.0
  C  C98  1  0.10892000  0.23180000  0.70667000  1.0
  C  C99  1  0.65818000  0.07123000  0.70528000  1.0
  C  C100  1  0.58734000  0.07367000  0.70713000  1.0
  C  C101  1  0.77035000  0.17583000  0.57818000  1.0
  C  C102  1  0.79596000  0.12437000  0.60580000  1.0
  C  C103  1  0.87014000  0.10244000  0.52067000  1.0
  C  C104  1  0.76242000  0.09457000  0.65180000  1.0
  C  C105  1  0.07850000  0.69157000  0.40388000  1.0
  C  C106  1  0.00191000  0.69450000  0.38355000  1.0
  C  C107  1  0.92412000  0.61776000  0.34569000  1.0
  C  C108  1  0.92139000  0.54035000  0.33593000  1.0
  C  C109  1  0.84629000  0.09278000  0.57823000  1.0
  C  C110  1  0.99986000  0.53918000  0.36374000  1.0
  C  C111  1  0.07916000  0.61559000  0.39504000  1.0
  C  C112  1  0.84252000  0.46277000  0.30440000  1.0
  C  C113  1  0.84180000  0.39049000  0.30556000  1.0
  C  C114  1  0.91989000  0.38893000  0.33743000  1.0
  C  C115  1  0.10143000  0.22823000  0.63492000  1.0
  C  C116  1  0.99909000  0.46392000  0.36430000  1.0
  C  C117  1  0.07776000  0.46377000  0.39526000  1.0
  C  C118  1  0.15631000  0.53971000  0.42143000  1.0
  C  C119  1  0.15703000  0.61233000  0.42133000  1.0
  C  C120  1  0.70038000  0.78611000  0.36728000  1.0
  C  C121  1  0.92125000  0.31802000  0.34574000  1.0
  C  C122  1  0.99840000  0.31848000  0.37905000  1.0
  C  C123  1  0.07563000  0.39092000  0.40140000  1.0
  C  C124  1  0.56544000  0.72658000  0.24091000  1.0
  C  C125  1  0.52680000  0.74320000  0.18024000  1.0
  C  C126  1  0.44718000  0.68316000  0.12011000  1.0
  C  C127  1  0.86631000  0.03155000  0.59121000  1.0
  C  C128  1  0.40124000  0.60266000  0.11713000  1.0
  C  C129  1  0.43762000  0.58848000  0.18013000  1.0
  C  C130  1  0.51734000  0.64845000  0.24049000  1.0
  C  C131  1  0.29978000  0.15629000  0.56331000  1.0
  C  C132  1  0.18986000  0.37389000  0.91158000  1.0
  C  C133  1  0.14800000  0.30094000  0.84481000  1.0
  C  C134  1  0.15789000  0.38520000  0.77482000  1.0
  C  C135  1  0.20000000  0.45959000  0.84156000  1.0
  C  C136  1  0.22207000  0.45518000  0.91277000  1.0
  C  C137  1  0.32492000  0.53212000  0.05090000  1.0
  C  C138  1  0.28392000  0.53111000  0.98318000  1.0
  C  C139  1  0.93072000  0.16618000  0.36941000  1.0
  C  C140  1  0.13545000  0.30524000  0.77461000  1.0
  C  C141  1  0.99691000  0.81367000  0.74945000  1.0
  C  C142  1  0.07207000  0.85454000  0.46622000  1.0
  C  C143  1  0.07546000  0.83452000  0.80655000  1.0
  C  C144  1  0.07940000  0.81511000  0.86801000  1.0
  C  C145  1  0.00463000  0.77364000  0.87547000  1.0
  C  C146  1  0.92567000  0.74365000  0.81374000  1.0
  C  C147  1  0.92188000  0.76396000  0.75256000  1.0
  C  C148  1  0.01414000  0.79365000  0.10593000  1.0
  C  C149  1  0.00629000  0.81963000  0.17257000  1.0
  C  C150  1  0.10565000  0.96513000  0.20766000  1.0
  C  C151  1  0.06455000  0.90921000  0.69152000  1.0
  C  C152  1  0.11550000  0.93859000  0.14145000  1.0
  C  C153  1  0.95942000  0.91674000  0.29439000  1.0
  C  C154  1  0.06782000  0.85250000  0.08823000  1.0
  C  C155  1  0.00591000  0.77286000  0.94703000  1.0
  C  C156  1  0.07122000  0.83294000  0.01565000  1.0
  C  C157  1  0.05066000  0.90541000  0.22429000  1.0
  C  C158  1  0.99479000  0.84758000  0.69291000  1.0
  C  C159  1  0.71283000  0.27702000  0.50957000  1.0
  C  C160  1  0.68437000  0.21432000  0.42867000  1.0
  C  C161  1  0.22673000  0.54288000  0.83556000  1.0
  C  C162  1  0.31587000  0.58131000  0.83844000  1.0
  C  C163  1  0.10009000  0.09246000  0.25361000  1.0
  C  C164  1  0.09951000  0.99700000  0.36502000  1.0
  C  C165  1  0.16096000  0.18690000  0.29457000  1.0
  C  C166  1  0.13323000  0.03338000  0.08286000  1.0
  C  C167  1  0.19506000  0.07894000  0.05583000  1.0
  C  C168  1  0.72383000  0.73985000  0.46626000  1.0
  C  C169  1  0.67159000  0.67247000  0.48531000  1.0
  N  N170  1  0.94962000  0.88260000  0.59670000  1.0
  N  N171  1  0.08697000  0.10621000  0.63159000  1.0
  N  N172  1  0.90019000  0.04998000  0.50072000  1.0
  N  N173  1  0.08888000  0.15308000  0.59125000  1.0
  N  N174  1  0.89782000  0.00649000  0.54416000  1.0
  N  N175  1  0.95899000  0.11989000  0.39775000  1.0
  N  N176  1  0.03728000  0.92972000  0.63434000  1.0
  N  N177  1  0.78162000  0.84997000  0.40310000  1.0
  N  N178  1  0.22074000  0.12356000  0.55887000  1.0
  N  N179  1  0.04350000  0.90716000  0.48994000  1.0
  N  N180  1  0.97453000  0.96635000  0.36387000  1.0
  N  N181  1  0.06054000  0.01513000  0.40722000  1.0
  N  N182  1  0.95680000  0.86477000  0.45130000  1.0
  N  N183  1  0.79022000  0.89419000  0.35893000  1.0
  N  N184  1  0.21507000  0.07268000  0.59642000  1.0
  N  N185  1  0.04608000  0.16879000  0.44081000  1.0
  O  O186  1  0.15086000  0.05074000  0.25480000  1.0
  O  O187  1  0.17111000  0.99743000  0.12702000  1.0
  O  O188  1  0.66847000  0.72926000  0.39408000  1.0
