# generated using pymatgen
data_CdH18C26S(NO3)2
_symmetry_space_group_name_H-M   'P 1'
_cell_length_a   16.43380000
_cell_length_b   16.81490000
_cell_length_c   21.83110000
_cell_angle_alpha   90.00000000
_cell_angle_beta   90.00000000
_cell_angle_gamma   116.43400000
_symmetry_Int_Tables_number   1
_chemical_formula_structural   CdH18C26S(NO3)2
_chemical_formula_sum   'Cd8 H144 C208 S8 N16 O48'
_cell_volume   5401.92008496
_cell_formula_units_Z   8
loop_
 _symmetry_equiv_pos_site_id
 _symmetry_equiv_pos_as_xyz
  1  'x, y, z'
loop_
 _atom_site_type_symbol
 _atom_site_label
 _atom_site_symmetry_multiplicity
 _atom_site_fract_x
 _atom_site_fract_y
 _atom_site_fract_z
 _atom_site_occupancy
  Cd  Cd0  1  0.42512000  0.22870000  0.22825000  1.0
  Cd  Cd1  1  0.07488000  0.27130000  0.72825000  1.0
  Cd  Cd2  1  0.57489000  0.77130000  0.77175000  1.0
  Cd  Cd3  1  0.92511000  0.72870000  0.27175000  1.0
  Cd  Cd4  1  0.69504000  0.30273000  0.29305000  1.0
  Cd  Cd5  1  0.80496000  0.19727000  0.79305000  1.0
  Cd  Cd6  1  0.30496000  0.69727000  0.70695000  1.0
  Cd  Cd7  1  0.19504000  0.80273000  0.20695000  1.0
  H  H8  1  0.42573000  0.41637000  0.24917000  1.0
  H  H9  1  0.07427000  0.08363000  0.74917000  1.0
  H  H10  1  0.57427000  0.58363000  0.75083000  1.0
  H  H11  1  0.92573000  0.91637000  0.25083000  1.0
  H  H12  1  0.44452000  0.52499000  0.33352000  1.0
  H  H13  1  0.05549000  0.97501000  0.83352000  1.0
  H  H14  1  0.55549000  0.47501000  0.66648000  1.0
  H  H15  1  0.94452000  0.02499000  0.16648000  1.0
  H  H16  1  0.42982000  0.32302000  0.46178000  1.0
  H  H17  1  0.07018000  0.17698000  0.96178000  1.0
  H  H18  1  0.57019000  0.67698000  0.53822000  1.0
  H  H19  1  0.92982000  0.82302000  0.03822000  1.0
  H  H20  1  0.41956000  0.22789000  0.37352000  1.0
  H  H21  1  0.08044000  0.27211000  0.87352000  1.0
  H  H22  1  0.58044000  0.77211000  0.62648000  1.0
  H  H23  1  0.91956000  0.72789000  0.12648000  1.0
  H  H24  1  0.45886000  0.55923000  0.44024000  1.0
  H  H25  1  0.04115000  0.94077000  0.94024000  1.0
  H  H26  1  0.54115000  0.44077000  0.55976000  1.0
  H  H27  1  0.95886000  0.05923000  0.05976000  1.0
  H  H28  1  0.39244000  0.39587000  0.52292000  1.0
  H  H29  1  0.10756000  0.10413000  0.02292000  1.0
  H  H30  1  0.60756000  0.60413000  0.47708000  1.0
  H  H31  1  0.89244000  0.89587000  0.97708000  1.0
  H  H32  1  0.33683000  0.68944000  0.56308000  1.0
  H  H33  1  0.16317000  0.81056000  0.06308000  1.0
  H  H34  1  0.66317000  0.31056000  0.43692000  1.0
  H  H35  1  0.83683000  0.18944000  0.93693000  1.0
  H  H36  1  0.39167000  0.61329000  0.48983000  1.0
  H  H37  1  0.10833000  0.88671000  0.98983000  1.0
  H  H38  1  0.60833000  0.38671000  0.51017000  1.0
  H  H39  1  0.89167000  0.11329000  0.01017000  1.0
  H  H40  1  0.34355000  0.41403000  0.62940000  1.0
  H  H41  1  0.15645000  0.08597000  0.12940000  1.0
  H  H42  1  0.65645000  0.58597000  0.37060000  1.0
  H  H43  1  0.84355000  0.91403000  0.87060000  1.0
  H  H44  1  0.28457000  0.49566000  0.69529000  1.0
  H  H45  1  0.21543000  0.00433000  0.19529000  1.0
  H  H46  1  0.71543000  0.50433000  0.30471000  1.0
  H  H47  1  0.78457000  0.99566000  0.80471000  1.0
  H  H48  1  0.43807000  0.04737000  0.19571000  1.0
  H  H49  1  0.06193000  0.45263000  0.69571000  1.0
  H  H50  1  0.56193000  0.95263000  0.80429000  1.0
  H  H51  1  0.93807000  0.54737000  0.30429000  1.0
  H  H52  1  0.41554000  0.94475000  0.10849000  1.0
  H  H53  1  0.08446000  0.55525000  0.60849000  1.0
  H  H54  1  0.58446000  0.05525000  0.89151000  1.0
  H  H55  1  0.91554000  0.44475000  0.39151000  1.0
  H  H56  1  0.37392000  0.13314000  0.99302000  1.0
  H  H57  1  0.12608000  0.36686000  0.49302000  1.0
  H  H58  1  0.62608000  0.86686000  0.00698000  1.0
  H  H59  1  0.87392000  0.63314000  0.50698000  1.0
  H  H60  1  0.40169000  0.22873000  0.08434000  1.0
  H  H61  1  0.09831000  0.27127000  0.58434000  1.0
  H  H62  1  0.59831000  0.77127000  0.91566000  1.0
  H  H63  1  0.90169000  0.72873000  0.41566000  1.0
  H  H64  1  0.37800000  0.90575000  0.00419000  1.0
  H  H65  1  0.12199000  0.59424000  0.50419000  1.0
  H  H66  1  0.62200000  0.09425000  0.99581000  1.0
  H  H67  1  0.87800000  0.40575000  0.49581000  1.0
  H  H68  1  0.36710000  0.04697000  0.91888000  1.0
  H  H69  1  0.13290000  0.45303000  0.41888000  1.0
  H  H70  1  0.63290000  0.95303000  0.08111000  1.0
  H  H71  1  0.86710000  0.54697000  0.58112000  1.0
  H  H72  1  0.29683000  0.70407000  0.85121000  1.0
  H  H73  1  0.20317000  0.79593000  0.35121000  1.0
  H  H74  1  0.70317000  0.29593000  0.14879000  1.0
  H  H75  1  0.79683000  0.20407000  0.64879000  1.0
  H  H76  1  0.31596000  0.80276000  0.93974000  1.0
  H  H77  1  0.18404000  0.69724000  0.43974000  1.0
  H  H78  1  0.68404000  0.19724000  0.06026000  1.0
  H  H79  1  0.81596000  0.30276000  0.56026000  1.0
  H  H80  1  0.37047000  0.01549000  0.81042000  1.0
  H  H81  1  0.12953000  0.48451000  0.31042000  1.0
  H  H82  1  0.62953000  0.98451000  0.18958000  1.0
  H  H83  1  0.87047000  0.51549000  0.68958000  1.0
  H  H84  1  0.34638000  0.90584000  0.72659000  1.0
  H  H85  1  0.15362000  0.59416000  0.22659000  1.0
  H  H86  1  0.65362000  0.09416000  0.27341000  1.0
  H  H87  1  0.84638000  0.40584000  0.77341000  1.0
  H  H88  1  0.10281000  0.18374000  0.21919000  1.0
  H  H89  1  0.39719000  0.31625000  0.71919000  1.0
  H  H90  1  0.89719000  0.81626000  0.78081000  1.0
  H  H91  1  0.60281000  0.68374000  0.28081000  1.0
  H  H92  1  0.97634000  0.20604000  0.16844000  1.0
  H  H93  1  0.52366000  0.29395000  0.66844000  1.0
  H  H94  1  0.02366000  0.79396000  0.83156000  1.0
  H  H95  1  0.47634000  0.70604000  0.33156000  1.0
  H  H96  1  0.16109000  0.35615000  0.02479000  1.0
  H  H97  1  0.33891000  0.14385000  0.52479000  1.0
  H  H98  1  0.83891000  0.64385000  0.97521000  1.0
  H  H99  1  0.66109000  0.85615000  0.47521000  1.0
  H  H100  1  0.28786000  0.33849000  0.07832000  1.0
  H  H101  1  0.21214000  0.16151000  0.57832000  1.0
  H  H102  1  0.71214000  0.66151000  0.92168000  1.0
  H  H103  1  0.78786000  0.83849000  0.42168000  1.0
  H  H104  1  0.87828000  0.45777000  0.20624000  1.0
  H  H105  1  0.62172000  0.04223000  0.70624000  1.0
  H  H106  1  0.12172000  0.54223000  0.79376000  1.0
  H  H107  1  0.37828000  0.95777000  0.29376000  1.0
  H  H108  1  0.87530000  0.32158000  0.15874000  1.0
  H  H109  1  0.62470000  0.17842000  0.65874000  1.0
  H  H110  1  0.12470000  0.67842000  0.84126000  1.0
  H  H111  1  0.37530000  0.82158000  0.34126000  1.0
  H  H112  1  0.08676000  0.48498000  0.03306000  1.0
  H  H113  1  0.41324000  0.01502000  0.53306000  1.0
  H  H114  1  0.91324000  0.51502000  0.96694000  1.0
  H  H115  1  0.58676000  0.98498000  0.46694000  1.0
  H  H116  1  0.09565000  0.62165000  0.08583000  1.0
  H  H117  1  0.40435000  0.87835000  0.58583000  1.0
  H  H118  1  0.90435000  0.37835000  0.91417000  1.0
  H  H119  1  0.59565000  0.12165000  0.41417000  1.0
  H  H120  1  0.82000000  0.17468000  0.44017000  1.0
  H  H121  1  0.68000000  0.32532000  0.94017000  1.0
  H  H122  1  0.18000000  0.82532000  0.55983000  1.0
  H  H123  1  0.32000000  0.67468000  0.05983000  1.0
  H  H124  1  0.93979000  0.13914000  0.48841000  1.0
  H  H125  1  0.56021000  0.36086000  0.98841000  1.0
  H  H126  1  0.06021000  0.86086000  0.51159000  1.0
  H  H127  1  0.43979000  0.63914000  0.01159000  1.0
  H  H128  1  0.12774000  0.28833000  0.34597000  1.0
  H  H129  1  0.37226000  0.21167000  0.84597000  1.0
  H  H130  1  0.87226000  0.71167000  0.65403000  1.0
  H  H131  1  0.62774000  0.78833000  0.15403000  1.0
  H  H132  1  0.00732000  0.32420000  0.29937000  1.0
  H  H133  1  0.49268000  0.17580000  0.79937000  1.0
  H  H134  1  0.99268000  0.67580000  0.70063000  1.0
  H  H135  1  0.50732000  0.82420000  0.20063000  1.0
  H  H136  1  0.00529000  0.88405000  0.37645000  1.0
  H  H137  1  0.49471000  0.61595000  0.87645000  1.0
  H  H138  1  0.99471000  0.11595000  0.62355000  1.0
  H  H139  1  0.50528000  0.38405000  0.12355000  1.0
  H  H140  1  0.99874000  0.00166000  0.44116000  1.0
  H  H141  1  0.50126000  0.49834000  0.94116000  1.0
  H  H142  1  0.00126000  0.99834000  0.55884000  1.0
  H  H143  1  0.49874000  0.50166000  0.05884000  1.0
  H  H144  1  0.25660000  0.19127000  0.36763000  1.0
  H  H145  1  0.24340000  0.30873000  0.86763000  1.0
  H  H146  1  0.74340000  0.80873000  0.63237000  1.0
  H  H147  1  0.75660000  0.69127000  0.13237000  1.0
  H  H148  1  0.26764000  0.06915000  0.30755000  1.0
  H  H149  1  0.23236000  0.43085000  0.80755000  1.0
  H  H150  1  0.73236000  0.93085000  0.69245000  1.0
  H  H151  1  0.76764000  0.56915000  0.19245000  1.0
  C  C152  1  0.42781000  0.39955000  0.29723000  1.0
  C  C153  1  0.07219000  0.10045000  0.79723000  1.0
  C  C154  1  0.57219000  0.60045000  0.70277000  1.0
  C  C155  1  0.92781000  0.89955000  0.20277000  1.0
  C  C156  1  0.43703000  0.45873000  0.34427000  1.0
  C  C157  1  0.06297000  0.04127000  0.84427000  1.0
  C  C158  1  0.56297000  0.54127000  0.65573000  1.0
  C  C159  1  0.93703000  0.95873000  0.15573000  1.0
  C  C160  1  0.44037000  0.43409000  0.40515000  1.0
  C  C161  1  0.05963000  0.06591000  0.90515000  1.0
  C  C162  1  0.55963000  0.56591000  0.59485000  1.0
  C  C163  1  0.94037000  0.93409000  0.09485000  1.0
  C  C164  1  0.42951000  0.34781000  0.41577000  1.0
  C  C165  1  0.07049000  0.15219000  0.91577000  1.0
  C  C166  1  0.57049000  0.65219000  0.58423000  1.0
  C  C167  1  0.92951000  0.84781000  0.08423000  1.0
  C  C168  1  0.42276000  0.29331000  0.36647000  1.0
  C  C169  1  0.07725000  0.20669000  0.86647000  1.0
  C  C170  1  0.57725000  0.70669000  0.63353000  1.0
  C  C171  1  0.92276000  0.79331000  0.13353000  1.0
  C  C172  1  0.46760000  0.50128000  0.45530000  1.0
  C  C173  1  0.03240000  0.99872000  0.95530000  1.0
  C  C174  1  0.53240000  0.49872000  0.54470000  1.0
  C  C175  1  0.96760000  0.00128000  0.04470000  1.0
  C  C176  1  0.43064000  0.46847000  0.52038000  1.0
  C  C177  1  0.06936000  0.03153000  0.02038000  1.0
  C  C178  1  0.56936000  0.53153000  0.47962000  1.0
  C  C179  1  0.93064000  0.96847000  0.97962000  1.0
  C  C180  1  0.33799000  0.62728000  0.57576000  1.0
  C  C181  1  0.16201000  0.87272000  0.07577000  1.0
  C  C182  1  0.66201000  0.37272000  0.42424000  1.0
  C  C183  1  0.83799000  0.12728000  0.92424000  1.0
  C  C184  1  0.37037000  0.58418000  0.53503000  1.0
  C  C185  1  0.12963000  0.91582000  0.03503000  1.0
  C  C186  1  0.62963000  0.41582000  0.46497000  1.0
  C  C187  1  0.87037000  0.08418000  0.96497000  1.0
  C  C188  1  0.37827000  0.50855000  0.55410000  1.0
  C  C189  1  0.12173000  0.99145000  0.05410000  1.0
  C  C190  1  0.62173000  0.49145000  0.44590000  1.0
  C  C191  1  0.87827000  0.00855000  0.94590000  1.0
  C  C192  1  0.34307000  0.47453000  0.61207000  1.0
  C  C193  1  0.15693000  0.02548000  0.11207000  1.0
  C  C194  1  0.65693000  0.52548000  0.38794000  1.0
  C  C195  1  0.84307000  0.97453000  0.88794000  1.0
  C  C196  1  0.31043000  0.52032000  0.64971000  1.0
  C  C197  1  0.18957000  0.97968000  0.14971000  1.0
  C  C198  1  0.68957000  0.47968000  0.35029000  1.0
  C  C199  1  0.81043000  0.02032000  0.85029000  1.0
  C  C200  1  0.42605000  0.06459000  0.14961000  1.0
  C  C201  1  0.07395000  0.43541000  0.64961000  1.0
  C  C202  1  0.57395000  0.93541000  0.85039000  1.0
  C  C203  1  0.92605000  0.56459000  0.35039000  1.0
  C  C204  1  0.41301000  0.00758000  0.10059000  1.0
  C  C205  1  0.08699000  0.49242000  0.60059000  1.0
  C  C206  1  0.58699000  0.99242000  0.89941000  1.0
  C  C207  1  0.91301000  0.50758000  0.39941000  1.0
  C  C208  1  0.39413000  0.03021000  0.04214000  1.0
  C  C209  1  0.10587000  0.46979000  0.54214000  1.0
  C  C210  1  0.60587000  0.96979000  0.95786000  1.0
  C  C211  1  0.89413000  0.53021000  0.45786000  1.0
  C  C212  1  0.39036000  0.11185000  0.03643000  1.0
  C  C213  1  0.10964000  0.38815000  0.53643000  1.0
  C  C214  1  0.60964000  0.88815000  0.96357000  1.0
  C  C215  1  0.89035000  0.61185000  0.46357000  1.0
  C  C216  1  0.40514000  0.16556000  0.08747000  1.0
  C  C217  1  0.09486000  0.33444000  0.58747000  1.0
  C  C218  1  0.59486000  0.83444000  0.91253000  1.0
  C  C219  1  0.90514000  0.66556000  0.41253000  1.0
  C  C220  1  0.37778000  0.96860000  0.99156000  1.0
  C  C221  1  0.12222000  0.53140000  0.49156000  1.0
  C  C222  1  0.62222000  0.03140000  0.00844000  1.0
  C  C223  1  0.87778000  0.46860000  0.50844000  1.0
  C  C224  1  0.36397000  0.98305000  0.93240000  1.0
  C  C225  1  0.13602000  0.51696000  0.43240000  1.0
  C  C226  1  0.63603000  0.01696000  0.06760000  1.0
  C  C227  1  0.86397000  0.48304000  0.56760000  1.0
  C  C228  1  0.31420000  0.77392000  0.84427000  1.0
  C  C229  1  0.18580000  0.72609000  0.34427000  1.0
  C  C230  1  0.68580000  0.22608000  0.15573000  1.0
  C  C231  1  0.81420000  0.27392000  0.65573000  1.0
  C  C232  1  0.32581000  0.82978000  0.89352000  1.0
  C  C233  1  0.17419000  0.67022000  0.39352000  1.0
  C  C234  1  0.67419000  0.17022000  0.10648000  1.0
  C  C235  1  0.82581000  0.32978000  0.60648000  1.0
  C  C236  1  0.34776000  0.91957000  0.88301000  1.0
  C  C237  1  0.15224000  0.58043000  0.38301000  1.0
  C  C238  1  0.65224000  0.08043000  0.11699000  1.0
  C  C239  1  0.84776000  0.41957000  0.61699000  1.0
  C  C240  1  0.35413000  0.94680000  0.82152000  1.0
  C  C241  1  0.14587000  0.55320000  0.32152000  1.0
  C  C242  1  0.64587000  0.05320000  0.17848000  1.0
  C  C243  1  0.85413000  0.44680000  0.67848000  1.0
  C  C244  1  0.34121000  0.88628000  0.77464000  1.0
  C  C245  1  0.15879000  0.61372000  0.27464000  1.0
  C  C246  1  0.65879000  0.11372000  0.22536000  1.0
  C  C247  1  0.84121000  0.38628000  0.72536000  1.0
  C  C248  1  0.27772000  0.24774000  0.18150000  1.0
  C  C249  1  0.22228000  0.25226000  0.68150000  1.0
  C  C250  1  0.72228000  0.75226000  0.81849000  1.0
  C  C251  1  0.77772000  0.74774000  0.31850000  1.0
  C  C252  1  0.20217000  0.26105000  0.15184000  1.0
  C  C253  1  0.29783000  0.23895000  0.65184000  1.0
  C  C254  1  0.79783000  0.73895000  0.84816000  1.0
  C  C255  1  0.70217000  0.76105000  0.34816000  1.0
  C  C256  1  0.11462000  0.22265000  0.17727000  1.0
  C  C257  1  0.38538000  0.27735000  0.67727000  1.0
  C  C258  1  0.88538000  0.77736000  0.82273000  1.0
  C  C259  1  0.61462000  0.72265000  0.32273000  1.0
  C  C260  1  0.04465000  0.23434000  0.14908000  1.0
  C  C261  1  0.45535000  0.26566000  0.64908000  1.0
  C  C262  1  0.95535000  0.76566000  0.85092000  1.0
  C  C263  1  0.54465000  0.73434000  0.35092000  1.0
  C  C264  1  0.06291000  0.28272000  0.09437000  1.0
  C  C265  1  0.43709000  0.21728000  0.59437000  1.0
  C  C266  1  0.93709000  0.71728000  0.90563000  1.0
  C  C267  1  0.56291000  0.78272000  0.40563000  1.0
  C  C268  1  0.14951000  0.32016000  0.06797000  1.0
  C  C269  1  0.35049000  0.17984000  0.56797000  1.0
  C  C270  1  0.85049000  0.67984000  0.93203000  1.0
  C  C271  1  0.64951000  0.82016000  0.43203000  1.0
  C  C272  1  0.21947000  0.31004000  0.09740000  1.0
  C  C273  1  0.28053000  0.18996000  0.59740000  1.0
  C  C274  1  0.78053000  0.68996000  0.90260000  1.0
  C  C275  1  0.71947000  0.81004000  0.40260000  1.0
  C  C276  1  0.98991000  0.62940000  0.17837000  1.0
  C  C277  1  0.51009000  0.87060000  0.67837000  1.0
  C  C278  1  0.01009000  0.37060000  0.82163000  1.0
  C  C279  1  0.48991000  0.12940000  0.32163000  1.0
  C  C280  1  0.98746000  0.54747000  0.14874000  1.0
  C  C281  1  0.51254000  0.95253000  0.64874000  1.0
  C  C282  1  0.01254000  0.45253000  0.85126000  1.0
  C  C283  1  0.48746000  0.04747000  0.35126000  1.0
  C  C284  1  0.92517000  0.46335000  0.16946000  1.0
  C  C285  1  0.57482000  0.03665000  0.66946000  1.0
  C  C286  1  0.07482000  0.53665000  0.83054000  1.0
  C  C287  1  0.42517000  0.96335000  0.33054000  1.0
  C  C288  1  0.92242000  0.38723000  0.14239000  1.0
  C  C289  1  0.57758000  0.11277000  0.64239000  1.0
  C  C290  1  0.07758000  0.61277000  0.85761000  1.0
  C  C291  1  0.42242000  0.88723000  0.35761000  1.0
  C  C292  1  0.98040000  0.39637000  0.09321000  1.0
  C  C293  1  0.51960000  0.10363000  0.59321000  1.0
  C  C294  1  0.01960000  0.60363000  0.90679000  1.0
  C  C295  1  0.48040000  0.89637000  0.40679000  1.0
  C  C296  1  0.04310000  0.47991000  0.07194000  1.0
  C  C297  1  0.45690000  0.02009000  0.57194000  1.0
  C  C298  1  0.95690000  0.52009000  0.92806000  1.0
  C  C299  1  0.54310000  0.97991000  0.42806000  1.0
  C  C300  1  0.04722000  0.55560000  0.10058000  1.0
  C  C301  1  0.45278000  0.94440000  0.60058000  1.0
  C  C302  1  0.95278000  0.44440000  0.89942000  1.0
  C  C303  1  0.54722000  0.05560000  0.39942000  1.0
  C  C304  1  0.83638000  0.27423000  0.34013000  1.0
  C  C305  1  0.66362000  0.22577000  0.84013000  1.0
  C  C306  1  0.16362000  0.72577000  0.65988000  1.0
  C  C307  1  0.33638000  0.77423000  0.15988000  1.0
  C  C308  1  0.90767000  0.25179000  0.36761000  1.0
  C  C309  1  0.59233000  0.24821000  0.86761000  1.0
  C  C310  1  0.09233000  0.74821000  0.63239000  1.0
  C  C311  1  0.40767000  0.75179000  0.13239000  1.0
  C  C312  1  0.88781000  0.19918000  0.42045000  1.0
  C  C313  1  0.61219000  0.30082000  0.92045000  1.0
  C  C314  1  0.11219000  0.80082000  0.57955000  1.0
  C  C315  1  0.38781000  0.69918000  0.07955000  1.0
  C  C316  1  0.95352000  0.17887000  0.44678000  1.0
  C  C317  1  0.54648000  0.32113000  0.94678000  1.0
  C  C318  1  0.04648000  0.82113000  0.55322000  1.0
  C  C319  1  0.45352000  0.67887000  0.05322000  1.0
  C  C320  1  0.03917000  0.21156000  0.41936000  1.0
  C  C321  1  0.46083000  0.28843000  0.91936000  1.0
  C  C322  1  0.96083000  0.78844000  0.58063000  1.0
  C  C323  1  0.53917000  0.71156000  0.08063000  1.0
  C  C324  1  0.06018000  0.26363000  0.36623000  1.0
  C  C325  1  0.43981000  0.23637000  0.86623000  1.0
  C  C326  1  0.93981000  0.73637000  0.63377000  1.0
  C  C327  1  0.56019000  0.76363000  0.13377000  1.0
  C  C328  1  0.99395000  0.28370000  0.34060000  1.0
  C  C329  1  0.50605000  0.21630000  0.84060000  1.0
  C  C330  1  0.00605000  0.71630000  0.65940000  1.0
  C  C331  1  0.49395000  0.78370000  0.15940000  1.0
  C  C332  1  0.14390000  0.89839000  0.30005000  1.0
  C  C333  1  0.35610000  0.60161000  0.80005000  1.0
  C  C334  1  0.85610000  0.10161000  0.69995000  1.0
  C  C335  1  0.64390000  0.39839000  0.19995000  1.0
  C  C336  1  0.13761000  0.96951000  0.33842000  1.0
  C  C337  1  0.36239000  0.53049000  0.83842000  1.0
  C  C338  1  0.86239000  0.03049000  0.66158000  1.0
  C  C339  1  0.63761000  0.46951000  0.16158000  1.0
  C  C340  1  0.06140000  0.95055000  0.37555000  1.0
  C  C341  1  0.43860000  0.54945000  0.87555000  1.0
  C  C342  1  0.93860000  0.04945000  0.62445000  1.0
  C  C343  1  0.56140000  0.45055000  0.12445000  1.0
  C  C344  1  0.05685000  0.01708000  0.41120000  1.0
  C  C345  1  0.44314000  0.48292000  0.91121000  1.0
  C  C346  1  0.94315000  0.98292000  0.58880000  1.0
  C  C347  1  0.55686000  0.51708000  0.08880000  1.0
  C  C348  1  0.12819000  0.10305000  0.40783000  1.0
  C  C349  1  0.37181000  0.39695000  0.90783000  1.0
  C  C350  1  0.87181000  0.89695000  0.59217000  1.0
  C  C351  1  0.62819000  0.60305000  0.09217000  1.0
  C  C352  1  0.20326000  0.12343000  0.36993000  1.0
  C  C353  1  0.29674000  0.37657000  0.86993000  1.0
  C  C354  1  0.79674000  0.87657000  0.63007000  1.0
  C  C355  1  0.70326000  0.62343000  0.13007000  1.0
  C  C356  1  0.20863000  0.05578000  0.33607000  1.0
  C  C357  1  0.29137000  0.44422000  0.83607000  1.0
  C  C358  1  0.79137000  0.94422000  0.66393000  1.0
  C  C359  1  0.70863000  0.55578000  0.16393000  1.0
  S  S360  1  0.12439000  0.18832000  0.45381000  1.0
  S  S361  1  0.37560000  0.31168000  0.95381000  1.0
  S  S362  1  0.87561000  0.81168000  0.54619000  1.0
  S  S363  1  0.62440000  0.68832000  0.04619000  1.0
  S  S364  1  0.97495000  0.29913000  0.05775000  1.0
  S  S365  1  0.52505000  0.20087000  0.55775000  1.0
  S  S366  1  0.02505000  0.70087000  0.94225000  1.0
  S  S367  1  0.47495000  0.79913000  0.44225000  1.0
  N  N368  1  0.42292000  0.31884000  0.30815000  1.0
  N  N369  1  0.07708000  0.18116000  0.80815000  1.0
  N  N370  1  0.57708000  0.68116000  0.69185000  1.0
  N  N371  1  0.92292000  0.81884000  0.19185000  1.0
  N  N372  1  0.31110000  0.59782000  0.63296000  1.0
  N  N373  1  0.18890000  0.90218000  0.13296000  1.0
  N  N374  1  0.68890000  0.40218000  0.36704000  1.0
  N  N375  1  0.81110000  0.09782000  0.86704000  1.0
  N  N376  1  0.42229000  0.14248000  0.14343000  1.0
  N  N377  1  0.07771000  0.35752000  0.64343000  1.0
  N  N378  1  0.57771000  0.85752000  0.85657000  1.0
  N  N379  1  0.92229000  0.64248000  0.35657000  1.0
  N  N380  1  0.32218000  0.80109000  0.78556000  1.0
  N  N381  1  0.17782000  0.69891000  0.28556000  1.0
  N  N382  1  0.67782000  0.19891000  0.21444000  1.0
  N  N383  1  0.82218000  0.30109000  0.71444000  1.0
  O  O384  1  0.25731000  0.18254000  0.21769000  1.0
  O  O385  1  0.24269000  0.31745000  0.71769000  1.0
  O  O386  1  0.74269000  0.81746000  0.78231000  1.0
  O  O387  1  0.75731000  0.68254000  0.28231000  1.0
  O  O388  1  0.35909000  0.30261000  0.16738000  1.0
  O  O389  1  0.14091000  0.19739000  0.66738000  1.0
  O  O390  1  0.64091000  0.69739000  0.83262000  1.0
  O  O391  1  0.85909000  0.80261000  0.33262000  1.0
  O  O392  1  0.92299000  0.61670000  0.21373000  1.0
  O  O393  1  0.57701000  0.88330000  0.71373000  1.0
  O  O394  1  0.07701000  0.38330000  0.78627000  1.0
  O  O395  1  0.42299000  0.11670000  0.28627000  1.0
  O  O396  1  0.05496000  0.70414000  0.16629000  1.0
  O  O397  1  0.44504000  0.79585000  0.66629000  1.0
  O  O398  1  0.94504000  0.29585000  0.83371000  1.0
  O  O399  1  0.55496000  0.20414000  0.33371000  1.0
  O  O400  1  0.85918000  0.33081000  0.29703000  1.0
  O  O401  1  0.64082000  0.16919000  0.79703000  1.0
  O  O402  1  0.14082000  0.66919000  0.70297000  1.0
  O  O403  1  0.35918000  0.83081000  0.20297000  1.0
  O  O404  1  0.75616000  0.23502000  0.36236000  1.0
  O  O405  1  0.74384000  0.26498000  0.86236000  1.0
  O  O406  1  0.24384000  0.76498000  0.63764000  1.0
  O  O407  1  0.25616000  0.73502000  0.13764000  1.0
  O  O408  1  0.07426000  0.82484000  0.29211000  1.0
  O  O409  1  0.42574000  0.67516000  0.79211000  1.0
  O  O410  1  0.92574000  0.17516000  0.70789000  1.0
  O  O411  1  0.57426000  0.32484000  0.20789000  1.0
  O  O412  1  0.22122000  0.91529000  0.27675000  1.0
  O  O413  1  0.27878000  0.58471000  0.77675000  1.0
  O  O414  1  0.77878000  0.08471000  0.72325000  1.0
  O  O415  1  0.72122000  0.41529000  0.22325000  1.0
  O  O416  1  0.88877000  0.22507000  0.07446000  1.0
  O  O417  1  0.61123000  0.27493000  0.57446000  1.0
  O  O418  1  0.11123000  0.77493000  0.92554000  1.0
  O  O419  1  0.38877000  0.72507000  0.42554000  1.0
  O  O420  1  0.99979000  0.31816000  0.99367000  1.0
  O  O421  1  0.50021000  0.18184000  0.49367000  1.0
  O  O422  1  0.00021000  0.68184000  0.00633000  1.0
  O  O423  1  0.49979000  0.81816000  0.50633000  1.0
  O  O424  1  0.09129000  0.15134000  0.51416000  1.0
  O  O425  1  0.40871000  0.34866000  0.01416000  1.0
  O  O426  1  0.90871000  0.84866000  0.48584000  1.0
  O  O427  1  0.59129000  0.65134000  0.98584000  1.0
  O  O428  1  0.21058000  0.26741000  0.44807000  1.0
  O  O429  1  0.28942000  0.23258000  0.94807000  1.0
  O  O430  1  0.78942000  0.73259000  0.55193000  1.0
  O  O431  1  0.71058000  0.76741000  0.05193000  1.0
