# generated using pymatgen
data_MnH16C24(NO2)2
_symmetry_space_group_name_H-M   'P 1'
_cell_length_a   6.80294000
_cell_length_b   11.48640000
_cell_length_c   13.92560000
_cell_angle_alpha   65.65400000
_cell_angle_beta   81.91170000
_cell_angle_gamma   89.97340000
_symmetry_Int_Tables_number   1
_chemical_formula_structural   MnH16C24(NO2)2
_chemical_formula_sum   'Mn2 H32 C48 N4 O8'
_cell_volume   979.53572070
_cell_formula_units_Z   2
loop_
 _symmetry_equiv_pos_site_id
 _symmetry_equiv_pos_as_xyz
  1  'x, y, z'
loop_
 _atom_site_type_symbol
 _atom_site_label
 _atom_site_symmetry_multiplicity
 _atom_site_fract_x
 _atom_site_fract_y
 _atom_site_fract_z
 _atom_site_occupancy
  Mn  Mn0  1  0.74996000  0.37803000  0.00001000  1.0
  Mn  Mn1  1  0.25003000  0.62197000  0.99999000  1.0
  H  H2  1  0.68265000  0.29960000  0.64863000  1.0
  H  H3  1  0.81744000  0.94825000  0.35140000  1.0
  H  H4  1  0.31736000  0.70040000  0.35137000  1.0
  H  H5  1  0.18256000  0.05175000  0.64860000  1.0
  H  H6  1  0.69287000  0.42545000  0.75992000  1.0
  H  H7  1  0.80739000  0.18534000  0.24015000  1.0
  H  H8  1  0.30713000  0.57455000  0.24008000  1.0
  H  H9  1  0.19261000  0.81466000  0.75985000  1.0
  H  H10  1  0.70882000  0.06111000  0.73618000  1.0
  H  H11  1  0.79096000  0.79729000  0.26385000  1.0
  H  H12  1  0.29118000  0.93890000  0.26382000  1.0
  H  H13  1  0.20904000  0.20271000  0.73615000  1.0
  H  H14  1  0.66290000  0.99881000  0.59677000  1.0
  H  H15  1  0.83716000  0.59555000  0.40350000  1.0
  H  H16  1  0.33710000  0.00119000  0.40323000  1.0
  H  H17  1  0.16283000  0.40445000  0.59651000  1.0
  H  H18  1  0.73116000  0.86220000  0.90629000  1.0
  H  H19  1  0.76852000  0.76850000  0.09376000  1.0
  H  H20  1  0.26885000  0.13780000  0.09371000  1.0
  H  H21  1  0.23148000  0.23150000  0.90624000  1.0
  H  H22  1  0.19389000  0.80609000  0.55899000  1.0
  H  H23  1  0.30638000  0.36567000  0.44041000  1.0
  H  H24  1  0.80611000  0.19391000  0.44101000  1.0
  H  H25  1  0.69362000  0.63433000  0.55959000  1.0
  H  H26  1  0.93636000  0.68916000  0.70055000  1.0
  H  H27  1  0.56377000  0.39024000  0.29918000  1.0
  H  H28  1  0.06365000  0.31084000  0.29945000  1.0
  H  H29  1  0.43623000  0.60976000  0.70082000  1.0
  H  H30  1  0.60387000  0.84202000  0.75851000  1.0
  H  H31  1  0.89669000  0.60045000  0.24143000  1.0
  H  H32  1  0.39613000  0.15799000  0.24149000  1.0
  H  H33  1  0.10331000  0.39954000  0.75858000  1.0
  C  C34  1  0.73864000  0.14021000  0.94450000  1.0
  C  C35  1  0.76165000  0.08472000  0.05551000  1.0
  C  C36  1  0.26135000  0.85979000  0.05550000  1.0
  C  C37  1  0.23834000  0.91528000  0.94448000  1.0
  C  C38  1  0.73027000  0.05962000  0.89026000  1.0
  C  C39  1  0.76976000  0.94990000  0.10975000  1.0
  C  C40  1  0.26973000  0.94038000  0.10974000  1.0
  C  C41  1  0.23024000  0.05010000  0.89025000  1.0
  C  C42  1  0.64869000  0.64543000  0.86337000  1.0
  C  C43  1  0.85155000  0.50883000  0.13652000  1.0
  C  C44  1  0.35132000  0.35457000  0.13663000  1.0
  C  C45  1  0.14845000  0.49117000  0.86348000  1.0
  C  C46  1  0.69911000  0.25067000  0.73250000  1.0
  C  C47  1  0.80096000  0.98317000  0.26751000  1.0
  C  C48  1  0.30090000  0.74933000  0.26750000  1.0
  C  C49  1  0.19904000  0.01683000  0.73249000  1.0
  C  C50  1  0.70449000  0.32198000  0.79371000  1.0
  C  C51  1  0.79570000  0.11570000  0.20632000  1.0
  C  C52  1  0.29551000  0.67802000  0.20629000  1.0
  C  C53  1  0.20430000  0.88430000  0.79368000  1.0
  C  C54  1  0.71224000  0.11950000  0.78098000  1.0
  C  C55  1  0.78768000  0.90046000  0.21904000  1.0
  C  C56  1  0.28777000  0.88050000  0.21902000  1.0
  C  C57  1  0.21232000  0.09954000  0.78096000  1.0
  C  C58  1  0.84828000  0.77286000  0.68627000  1.0
  C  C59  1  0.65195000  0.45950000  0.31354000  1.0
  C  C60  1  0.15172000  0.22714000  0.31374000  1.0
  C  C61  1  0.34804000  0.54049000  0.68647000  1.0
  C  C62  1  0.69400000  0.76179000  0.76323000  1.0
  C  C63  1  0.80641000  0.52509000  0.23667000  1.0
  C  C64  1  0.30601000  0.23821000  0.23677000  1.0
  C  C65  1  0.19359000  0.47491000  0.76333000  1.0
  C  C66  1  0.81168000  0.99902000  0.55531000  1.0
  C  C67  1  0.68838000  0.55432000  0.44486000  1.0
  C  C68  1  0.18832000  0.00098000  0.44469000  1.0
  C  C69  1  0.31162000  0.44568000  0.55514000  1.0
  C  C70  1  0.91857000  0.88716000  0.59099000  1.0
  C  C71  1  0.58160000  0.47849000  0.40886000  1.0
  C  C72  1  0.08143000  0.11284000  0.40902000  1.0
  C  C73  1  0.41840000  0.52151000  0.59114000  1.0
  C  C74  1  0.74056000  0.92450000  0.94717000  1.0
  C  C75  1  0.75920000  0.87167000  0.05285000  1.0
  C  C76  1  0.25944000  0.07550000  0.05283000  1.0
  C  C77  1  0.24080000  0.12833000  0.94715000  1.0
  C  C78  1  0.10832000  0.89120000  0.53245000  1.0
  C  C79  1  0.39180000  0.42402000  0.46721000  1.0
  C  C80  1  0.89168000  0.10879000  0.46755000  1.0
  C  C81  1  0.60820000  0.57598000  0.53280000  1.0
  N  N82  1  0.72496000  0.26852000  0.89624000  1.0
  N  N83  1  0.77538000  0.16478000  0.10376000  1.0
  N  N84  1  0.27504000  0.73148000  0.10376000  1.0
  N  N85  1  0.22462000  0.83522000  0.89624000  1.0
  O  O86  1  0.71564000  0.54048000  0.86543000  1.0
  O  O87  1  0.78452000  0.40598000  0.13449000  1.0
  O  O88  1  0.28436000  0.45952000  0.13458000  1.0
  O  O89  1  0.21548000  0.59402000  0.86551000  1.0
  O  O90  1  0.55006000  0.65781000  0.94376000  1.0
  O  O91  1  0.94992000  0.60157000  0.05610000  1.0
  O  O92  1  0.44994000  0.34219000  0.05625000  1.0
  O  O93  1  0.05007000  0.39843000  0.94391000  1.0
