# generated using pymatgen
data_NiMo8H42C48(N8O13)2
_symmetry_space_group_name_H-M   'P 1'
_cell_length_a   12.02350000
_cell_length_b   12.20560000
_cell_length_c   12.47110000
_cell_angle_alpha   71.08240000
_cell_angle_beta   88.07010000
_cell_angle_gamma   65.79360000
_symmetry_Int_Tables_number   1
_chemical_formula_structural   NiMo8H42C48(N8O13)2
_chemical_formula_sum   'Ni1 Mo8 H42 C48 N16 O26'
_cell_volume   1568.61641674
_cell_formula_units_Z   1
loop_
 _symmetry_equiv_pos_site_id
 _symmetry_equiv_pos_as_xyz
  1  'x, y, z'
loop_
 _atom_site_type_symbol
 _atom_site_label
 _atom_site_symmetry_multiplicity
 _atom_site_fract_x
 _atom_site_fract_y
 _atom_site_fract_z
 _atom_site_occupancy
  Ni  Ni0  1  0.50000000  0.50000000  0.00000000  1.0
  Mo  Mo1  1  0.93215000  0.97838000  0.39097000  1.0
  Mo  Mo2  1  0.06785000  0.02162000  0.60903000  1.0
  Mo  Mo3  1  0.68203000  0.26271000  0.33610000  1.0
  Mo  Mo4  1  0.31798000  0.73729000  0.66390000  1.0
  Mo  Mo5  1  0.79216000  0.98447000  0.62365000  1.0
  Mo  Mo6  1  0.20785000  0.01553000  0.37635000  1.0
  Mo  Mo7  1  0.95024000  0.27154000  0.27815000  1.0
  Mo  Mo8  1  0.04976000  0.72846000  0.72185000  1.0
  H  H9  1  0.33698000  0.45319000  0.84724000  1.0
  H  H10  1  0.66302000  0.54680000  0.15275000  1.0
  H  H11  1  0.40214000  0.34212000  0.20474000  1.0
  H  H12  1  0.59787000  0.65788000  0.79526000  1.0
  H  H13  1  0.22706000  0.26613000  0.15323000  1.0
  H  H14  1  0.77294000  0.73387000  0.84677000  1.0
  H  H15  1  0.30373000  0.29409000  0.78932000  1.0
  H  H16  1  0.69626000  0.70590000  0.21067000  1.0
  H  H17  1  0.14380000  0.32916000  0.64581000  1.0
  H  H18  1  0.85619000  0.67084000  0.35419000  1.0
  H  H19  1  0.87163000  0.42001000  0.87663000  1.0
  H  H20  1  0.12836000  0.57999000  0.12337000  1.0
  H  H21  1  0.02964000  0.38813000  0.01761000  1.0
  H  H22  1  0.97036000  0.61186000  0.98239000  1.0
  H  H23  1  0.99955000  0.28472000  0.57494000  1.0
  H  H24  1  0.00044000  0.71528000  0.42505000  1.0
  H  H25  1  0.79528000  0.38556000  0.45093000  1.0
  H  H26  1  0.20471000  0.61444000  0.54906000  1.0
  H  H27  1  0.75228000  0.56552000  0.70331000  1.0
  H  H28  1  0.24771000  0.43448000  0.29669000  1.0
  H  H29  1  0.23789000  0.71439000  0.93055000  1.0
  H  H30  1  0.76211000  0.28561000  0.06945000  1.0
  H  H31  1  0.48117000  0.56791000  0.23075000  1.0
  H  H32  1  0.51883000  0.43209000  0.76924000  1.0
  H  H33  1  0.27827000  0.78172000  0.23889000  1.0
  H  H34  1  0.72174000  0.21828000  0.76111000  1.0
  H  H35  1  0.03857000  0.81976000  0.93052000  1.0
  H  H36  1  0.96143000  0.18024000  0.06948000  1.0
  H  H37  1  0.15285000  0.98662000  0.13900000  1.0
  H  H38  1  0.84716000  0.01338000  0.86101000  1.0
  H  H39  1  0.64953000  0.16490000  0.12098000  1.0
  H  H40  1  0.35048000  0.83509000  0.87902000  1.0
  H  H41  1  0.54753000  0.05747000  0.45196000  1.0
  H  H42  1  0.45247000  0.94254000  0.54804000  1.0
  H  H43  1  0.47133000  0.94656000  0.32258000  1.0
  H  H44  1  0.52867000  0.05345000  0.67743000  1.0
  H  H45  1  0.70164000  0.00416000  0.02960000  1.0
  H  H46  1  0.29836000  0.99584000  0.97041000  1.0
  H  H47  1  0.35437000  0.02321000  0.14636000  1.0
  H  H48  1  0.64563000  0.97678000  0.85364000  1.0
  H  H49  1  0.62840000  0.56211000  0.52155000  1.0
  H  H50  1  0.37160000  0.43789000  0.47845000  1.0
  C  C51  1  0.33757000  0.40732000  0.93744000  1.0
  C  C52  1  0.66243000  0.59267000  0.06256000  1.0
  C  C53  1  0.36181000  0.35425000  0.12303000  1.0
  C  C54  1  0.63819000  0.64575000  0.87697000  1.0
  C  C55  1  0.27642000  0.31538000  0.09847000  1.0
  C  C56  1  0.72359000  0.68461000  0.90153000  1.0
  C  C57  1  0.17557000  0.34487000  0.90962000  1.0
  C  C58  1  0.82443000  0.65512000  0.09038000  1.0
  C  C59  1  0.20854000  0.32306000  0.80726000  1.0
  C  C60  1  0.79146000  0.67694000  0.19273000  1.0
  C  C61  1  0.11896000  0.34225000  0.72701000  1.0
  C  C62  1  0.88103000  0.65775000  0.27298000  1.0
  C  C63  1  0.99714000  0.38171000  0.75083000  1.0
  C  C64  1  0.00285000  0.61829000  0.24916000  1.0
  C  C65  1  0.96602000  0.39326000  0.85667000  1.0
  C  C66  1  0.03397000  0.60674000  0.14333000  1.0
  C  C67  1  0.05554000  0.37500000  0.93662000  1.0
  C  C68  1  0.94445000  0.62500000  0.06338000  1.0
  C  C69  1  0.91581000  0.36121000  0.58314000  1.0
  C  C70  1  0.08418000  0.63879000  0.41686000  1.0
  C  C71  1  0.78259000  0.50668000  0.65015000  1.0
  C  C72  1  0.21740000  0.49332000  0.34985000  1.0
  C  C73  1  0.27726000  0.70289000  0.01267000  1.0
  C  C74  1  0.72274000  0.29711000  0.98733000  1.0
  C  C75  1  0.40174000  0.63220000  0.16839000  1.0
  C  C76  1  0.59827000  0.36779000  0.83161000  1.0
  C  C77  1  0.30029000  0.73583000  0.17463000  1.0
  C  C78  1  0.69971000  0.26416000  0.82537000  1.0
  C  C79  1  0.10880000  0.89061000  0.03876000  1.0
  C  C80  1  0.89121000  0.10939000  0.96124000  1.0
  C  C81  1  0.02251000  0.89832000  0.96108000  1.0
  C  C82  1  0.97750000  0.10168000  0.03892000  1.0
  C  C83  1  0.08662000  0.99189000  0.07797000  1.0
  C  C84  1  0.91339000  0.00811000  0.92203000  1.0
  C  C85  1  0.61533000  0.11844000  0.19490000  1.0
  C  C86  1  0.38467000  0.88156000  0.80510000  1.0
  C  C87  1  0.55788000  0.06222000  0.36444000  1.0
  C  C88  1  0.44212000  0.93779000  0.63556000  1.0
  C  C89  1  0.52158000  0.00572000  0.30263000  1.0
  C  C90  1  0.47841000  0.99429000  0.69737000  1.0
  C  C91  1  0.53038000  0.01805000  0.09769000  1.0
  C  C92  1  0.46962000  0.98195000  0.90232000  1.0
  C  C93  1  0.61240000  0.00465000  0.01562000  1.0
  C  C94  1  0.38760000  0.99535000  0.98438000  1.0
  C  C95  1  0.41805000  0.01297000  0.08230000  1.0
  C  C96  1  0.58195000  0.98702000  0.91770000  1.0
  C  C97  1  0.72337000  0.50621000  0.55868000  1.0
  C  C98  1  0.27662000  0.49379000  0.44132000  1.0
  N  N99  1  0.80827000  0.41551000  0.51908000  1.0
  N  N100  1  0.19173000  0.58450000  0.48092000  1.0
  N  N101  1  0.39858000  0.41160000  0.02165000  1.0
  N  N102  1  0.60142000  0.58840000  0.97834000  1.0
  N  N103  1  0.26314000  0.34839000  0.98061000  1.0
  N  N104  1  0.73686000  0.65160000  0.01939000  1.0
  N  N105  1  0.90262000  0.41458000  0.66484000  1.0
  N  N106  1  0.09737000  0.58542000  0.33516000  1.0
  N  N107  1  0.38662000  0.61404000  0.06680000  1.0
  N  N108  1  0.61338000  0.38596000  0.93320000  1.0
  N  N109  1  0.22240000  0.77961000  0.07561000  1.0
  N  N110  1  0.77760000  0.22039000  0.92439000  1.0
  N  N111  1  0.61500000  0.13273000  0.29614000  1.0
  N  N112  1  0.38500000  0.86727000  0.70386000  1.0
  N  N113  1  0.55922000  0.04164000  0.19527000  1.0
  N  N114  1  0.44078000  0.95836000  0.80473000  1.0
  O  O115  1  0.86110000  0.89437000  0.35865000  1.0
  O  O116  1  0.13890000  0.10564000  0.64135000  1.0
  O  O117  1  0.08098000  0.91388000  0.35204000  1.0
  O  O118  1  0.91902000  0.08612000  0.64796000  1.0
  O  O119  1  0.86054000  0.14222000  0.27750000  1.0
  O  O120  1  0.13947000  0.85778000  0.72250000  1.0
  O  O121  1  0.62509000  0.35428000  0.19413000  1.0
  O  O122  1  0.37492000  0.64572000  0.80587000  1.0
  O  O123  1  0.56445000  0.32436000  0.41175000  1.0
  O  O124  1  0.43555000  0.67564000  0.58825000  1.0
  O  O125  1  0.77685000  0.09210000  0.46705000  1.0
  O  O126  1  0.22315000  0.90790000  0.53295000  1.0
  O  O127  1  0.68779000  0.08757000  0.68505000  1.0
  O  O128  1  0.31221000  0.91243000  0.31496000  1.0
  O  O129  1  0.71975000  0.89642000  0.60292000  1.0
  O  O130  1  0.28025000  0.10358000  0.39708000  1.0
  O  O131  1  0.90522000  0.85173000  0.75546000  1.0
  O  O132  1  0.09478000  0.14827000  0.24454000  1.0
  O  O133  1  0.97227000  0.89939000  0.55607000  1.0
  O  O134  1  0.02773000  0.10061000  0.44393000  1.0
  O  O135  1  0.00954000  0.35402000  0.32878000  1.0
  O  O136  1  0.99046000  0.64598000  0.67122000  1.0
  O  O137  1  0.79548000  0.32821000  0.35634000  1.0
  O  O138  1  0.20452000  0.67179000  0.64366000  1.0
  O  O139  1  0.88826000  0.36576000  0.13877000  1.0
  O  O140  1  0.11175000  0.63424000  0.86123000  1.0
