# generated using pymatgen
data_Zr3H62(C9O2)8
_symmetry_space_group_name_H-M   'P 1'
_cell_length_a   23.36910000
_cell_length_b   23.36915597
_cell_length_c   23.36908532
_cell_angle_alpha   59.99974155
_cell_angle_beta   59.99973767
_cell_angle_gamma   89.99961761
_symmetry_Int_Tables_number   1
_chemical_formula_structural   Zr3H62(C9O2)8
_chemical_formula_sum   'Zr6 H124 C144 O32'
_cell_volume   9024.22180336
_cell_formula_units_Z   2
loop_
 _symmetry_equiv_pos_site_id
 _symmetry_equiv_pos_as_xyz
  1  'x, y, z'
loop_
 _atom_site_type_symbol
 _atom_site_label
 _atom_site_symmetry_multiplicity
 _atom_site_fract_x
 _atom_site_fract_y
 _atom_site_fract_z
 _atom_site_occupancy
  Zr  Zr0  1  0.42434000  0.57566000  0.00000000  1.0
  Zr  Zr1  1  0.57566000  0.42434000  1.00000000  1.0
  Zr  Zr2  1  0.42434000  0.42434000  0.15132000  1.0
  Zr  Zr3  1  0.57566000  0.57566000  0.84868000  1.0
  Zr  Zr4  1  0.57566000  0.57566000  0.00000000  1.0
  Zr  Zr5  1  0.42434000  0.42434000  0.00000000  1.0
  H  H6  1  0.44261000  0.85420000  0.19022000  1.0
  H  H7  1  0.63294000  0.14592000  0.80957000  1.0
  H  H8  1  0.40747000  0.76179000  0.00133000  1.0
  H  H9  1  0.40822000  0.86983000  0.99956000  1.0
  H  H10  1  0.04442000  0.63283000  0.80978000  1.0
  H  H11  1  0.95549000  0.44251000  0.19043000  1.0
  H  H12  1  0.76312000  0.40880000  0.99867000  1.0
  H  H13  1  0.86938000  0.40778000  0.00045000  1.0
  H  H14  1  0.36717000  0.95558000  0.19022000  1.0
  H  H15  1  0.55749000  0.04451000  0.80957000  1.0
  H  H16  1  0.59120000  0.23688000  0.00133000  1.0
  H  H17  1  0.59221000  0.13061000  0.99956000  1.0
  H  H18  1  0.14580000  0.55739000  0.80978000  1.0
  H  H19  1  0.85408000  0.36706000  0.19043000  1.0
  H  H20  1  0.23821000  0.59253000  0.99867000  1.0
  H  H21  1  0.13016000  0.59177000  0.00045000  1.0
  H  H22  1  0.14580000  0.63283000  0.41159000  1.0
  H  H23  1  0.85408000  0.44251000  0.51298000  1.0
  H  H24  1  0.23821000  0.40880000  0.35432000  1.0
  H  H25  1  0.13016000  0.40778000  0.46161000  1.0
  H  H26  1  0.36717000  0.85420000  0.58841000  1.0
  H  H27  1  0.55749000  0.14592000  0.48702000  1.0
  H  H28  1  0.59120000  0.76179000  0.64568000  1.0
  H  H29  1  0.59221000  0.86983000  0.53840000  1.0
  H  H30  1  0.04442000  0.55739000  0.58841000  1.0
  H  H31  1  0.95549000  0.36706000  0.48702000  1.0
  H  H32  1  0.76312000  0.59253000  0.64568000  1.0
  H  H33  1  0.86938000  0.59177000  0.53840000  1.0
  H  H34  1  0.44261000  0.95558000  0.41159000  1.0
  H  H35  1  0.63294000  0.04451000  0.51298000  1.0
  H  H36  1  0.40747000  0.23688000  0.35432000  1.0
  H  H37  1  0.40822000  0.13061000  0.46161000  1.0
  H  H38  1  0.36717000  0.55739000  0.48703000  1.0
  H  H39  1  0.55749000  0.36706000  0.58843000  1.0
  H  H40  1  0.59120000  0.59253000  0.17059000  1.0
  H  H41  1  0.59222000  0.59178000  0.27761000  1.0
  H  H42  1  0.14579000  0.95557000  0.48704000  1.0
  H  H43  1  0.85408000  0.04451000  0.58843000  1.0
  H  H44  1  0.23821000  0.23688000  0.17059000  1.0
  H  H45  1  0.13017000  0.13061000  0.27761000  1.0
  H  H46  1  0.44261000  0.63283000  0.51297000  1.0
  H  H47  1  0.63294000  0.44251000  0.41157000  1.0
  H  H48  1  0.40748000  0.40881000  0.82940000  1.0
  H  H49  1  0.40822000  0.40778000  0.72239000  1.0
  H  H50  1  0.04442000  0.85420000  0.51297000  1.0
  H  H51  1  0.95549000  0.14592000  0.41157000  1.0
  H  H52  1  0.76312000  0.76179000  0.82941000  1.0
  H  H53  1  0.86939000  0.86983000  0.72239000  1.0
  H  H54  1  0.44261000  0.63283000  0.41159000  1.0
  H  H55  1  0.63294000  0.44251000  0.51298000  1.0
  H  H56  1  0.40747000  0.40880000  0.35432000  1.0
  H  H57  1  0.40822000  0.40778000  0.46161000  1.0
  H  H58  1  0.04442000  0.85420000  0.58841000  1.0
  H  H59  1  0.95549000  0.14592000  0.48702000  1.0
  H  H60  1  0.76312000  0.76179000  0.64568000  1.0
  H  H61  1  0.86938000  0.86983000  0.53840000  1.0
  H  H62  1  0.36717000  0.55739000  0.58841000  1.0
  H  H63  1  0.55749000  0.36706000  0.48702000  1.0
  H  H64  1  0.59120000  0.59253000  0.64568000  1.0
  H  H65  1  0.59221000  0.59177000  0.53840000  1.0
  H  H66  1  0.14580000  0.95558000  0.41159000  1.0
  H  H67  1  0.85408000  0.04451000  0.51298000  1.0
  H  H68  1  0.23821000  0.23688000  0.35432000  1.0
  H  H69  1  0.13016000  0.13061000  0.46161000  1.0
  H  H70  1  0.14580000  0.55739000  0.48703000  1.0
  H  H71  1  0.85408000  0.36706000  0.58843000  1.0
  H  H72  1  0.23821000  0.59253000  0.17059000  1.0
  H  H73  1  0.13016000  0.59177000  0.27762000  1.0
  H  H74  1  0.36717000  0.95558000  0.48703000  1.0
  H  H75  1  0.55749000  0.04451000  0.58843000  1.0
  H  H76  1  0.59120000  0.23688000  0.17059000  1.0
  H  H77  1  0.59222000  0.13061000  0.27761000  1.0
  H  H78  1  0.04442000  0.63283000  0.51297000  1.0
  H  H79  1  0.95549000  0.44251000  0.41157000  1.0
  H  H80  1  0.76312000  0.40880000  0.82941000  1.0
  H  H81  1  0.86938000  0.40778000  0.72239000  1.0
  H  H82  1  0.44261000  0.85420000  0.51297000  1.0
  H  H83  1  0.63294000  0.14592000  0.41157000  1.0
  H  H84  1  0.40747000  0.76179000  0.82941000  1.0
  H  H85  1  0.40822000  0.86983000  0.72239000  1.0
  H  H86  1  0.36717000  0.85420000  0.19022000  1.0
  H  H87  1  0.55749000  0.14592000  0.80957000  1.0
  H  H88  1  0.59120000  0.76179000  0.00133000  1.0
  H  H89  1  0.59222000  0.86983000  0.99956000  1.0
  H  H90  1  0.14579000  0.63283000  0.80978000  1.0
  H  H91  1  0.85408000  0.44251000  0.19043000  1.0
  H  H92  1  0.23821000  0.40880000  0.99867000  1.0
  H  H93  1  0.13017000  0.40778000  0.00044000  1.0
  H  H94  1  0.44261000  0.95558000  0.19022000  1.0
  H  H95  1  0.63294000  0.04451000  0.80957000  1.0
  H  H96  1  0.40747000  0.23688000  0.00133000  1.0
  H  H97  1  0.40822000  0.13061000  0.99956000  1.0
  H  H98  1  0.04442000  0.55739000  0.80978000  1.0
  H  H99  1  0.95549000  0.36706000  0.19043000  1.0
  H  H100  1  0.76312000  0.59253000  0.99867000  1.0
  H  H101  1  0.86939000  0.59178000  0.00044000  1.0
  H  H102  1  0.42754000  0.81923000  0.14493000  1.0
  H  H103  1  0.57253000  0.18084000  0.85494000  1.0
  H  H104  1  0.96417000  0.57247000  0.85506000  1.0
  H  H105  1  0.03578000  0.42747000  0.14506000  1.0
  H  H106  1  0.42754000  0.03584000  0.14493000  1.0
  H  H107  1  0.57253000  0.96422000  0.85494000  1.0
  H  H108  1  0.18078000  0.57247000  0.85506000  1.0
  H  H109  1  0.81916000  0.42747000  0.14506000  1.0
  H  H110  1  0.18078000  0.57247000  0.39169000  1.0
  H  H111  1  0.81916000  0.42747000  0.60831000  1.0
  H  H112  1  0.42754000  0.81923000  0.60830000  1.0
  H  H113  1  0.57253000  0.18084000  0.39169000  1.0
  H  H114  1  0.96417000  0.57247000  0.60830000  1.0
  H  H115  1  0.03578000  0.42747000  0.39169000  1.0
  H  H116  1  0.42754000  0.03584000  0.39169000  1.0
  H  H117  1  0.57253000  0.96422000  0.60831000  1.0
  H  H118  1  0.42754000  0.57247000  0.39169000  1.0
  H  H119  1  0.57253000  0.42747000  0.60831000  1.0
  H  H120  1  0.18078000  0.03584000  0.39169000  1.0
  H  H121  1  0.81916000  0.96422000  0.60831000  1.0
  H  H122  1  0.42754000  0.57247000  0.60830000  1.0
  H  H123  1  0.57253000  0.42747000  0.39169000  1.0
  H  H124  1  0.96417000  0.81923000  0.60830000  1.0
  H  H125  1  0.03578000  0.18084000  0.39169000  1.0
  H  H126  1  0.55949000  0.44052000  0.88103000  1.0
  H  H127  1  0.32155000  0.44052000  0.11896000  1.0
  H  H128  1  0.55948000  0.67845000  0.88104000  1.0
  H  H129  1  0.55948000  0.44052000  0.11897000  1.0
  C  C130  1  0.44758000  0.78585000  0.00114000  1.0
  C  C131  1  0.44822000  0.84593000  0.00011000  1.0
  C  C132  1  0.78699000  0.44872000  0.99886000  1.0
  C  C133  1  0.84604000  0.44833000  0.99989000  1.0
  C  C134  1  0.55128000  0.21301000  0.00114000  1.0
  C  C135  1  0.55167000  0.15396000  0.00011000  1.0
  C  C136  1  0.21415000  0.55242000  0.99886000  1.0
  C  C137  1  0.15407000  0.55178000  0.99989000  1.0
  C  C138  1  0.21415000  0.44872000  0.33827000  1.0
  C  C139  1  0.15407000  0.44833000  0.39771000  1.0
  C  C140  1  0.55128000  0.78585000  0.66173000  1.0
  C  C141  1  0.55166000  0.84592000  0.60230000  1.0
  C  C142  1  0.78699000  0.55242000  0.66173000  1.0
  C  C143  1  0.84604000  0.55178000  0.60229000  1.0
  C  C144  1  0.44758000  0.21301000  0.33827000  1.0
  C  C145  1  0.44822000  0.15396000  0.39771000  1.0
  C  C146  1  0.55128000  0.55243000  0.23456000  1.0
  C  C147  1  0.55167000  0.55178000  0.29426000  1.0
  C  C148  1  0.21416000  0.21301000  0.23456000  1.0
  C  C149  1  0.15408000  0.15396000  0.29426000  1.0
  C  C150  1  0.44758000  0.44872000  0.76543000  1.0
  C  C151  1  0.44823000  0.44834000  0.70573000  1.0
  C  C152  1  0.78699000  0.78585000  0.76544000  1.0
  C  C153  1  0.84605000  0.84593000  0.70573000  1.0
  C  C154  1  0.44758000  0.44872000  0.33827000  1.0
  C  C155  1  0.44822000  0.44833000  0.39771000  1.0
  C  C156  1  0.78699000  0.78585000  0.66173000  1.0
  C  C157  1  0.84604000  0.84593000  0.60229000  1.0
  C  C158  1  0.55128000  0.55242000  0.66173000  1.0
  C  C159  1  0.55167000  0.55178000  0.60229000  1.0
  C  C160  1  0.21415000  0.21301000  0.33827000  1.0
  C  C161  1  0.15407000  0.15396000  0.39771000  1.0
  C  C162  1  0.21416000  0.55243000  0.23456000  1.0
  C  C163  1  0.15408000  0.55178000  0.29426000  1.0
  C  C164  1  0.55128000  0.21301000  0.23457000  1.0
  C  C165  1  0.55167000  0.15396000  0.29426000  1.0
  C  C166  1  0.78700000  0.44872000  0.76543000  1.0
  C  C167  1  0.84605000  0.44834000  0.70573000  1.0
  C  C168  1  0.44758000  0.78585000  0.76543000  1.0
  C  C169  1  0.44823000  0.84593000  0.70573000  1.0
  C  C170  1  0.55128000  0.78584000  0.00115000  1.0
  C  C171  1  0.55167000  0.84593000  0.00011000  1.0
  C  C172  1  0.21416000  0.44872000  0.99885000  1.0
  C  C173  1  0.15408000  0.44834000  0.99988000  1.0
  C  C174  1  0.44758000  0.21301000  0.00114000  1.0
  C  C175  1  0.44823000  0.15396000  0.00011000  1.0
  C  C176  1  0.78700000  0.55243000  0.99885000  1.0
  C  C177  1  0.84605000  0.55178000  0.99988000  1.0
  C  C178  1  0.49839000  0.69081000  0.00322000  1.0
  C  C179  1  0.49898000  0.75521000  0.00204000  1.0
  C  C180  1  0.50003000  0.87653000  0.99995000  1.0
  C  C181  1  0.50006000  0.94032000  0.99987000  1.0
  C  C182  1  0.46295000  0.93280000  0.07411000  1.0
  C  C183  1  0.42323000  0.86138000  0.15354000  1.0
  C  C184  1  0.53717000  0.06731000  0.92566000  1.0
  C  C185  1  0.57687000  0.13873000  0.84626000  1.0
  C  C186  1  0.69402000  0.50161000  0.99679000  1.0
  C  C187  1  0.75725000  0.50102000  0.99796000  1.0
  C  C188  1  0.87648000  0.49998000  0.00005000  1.0
  C  C189  1  0.94019000  0.49994000  0.00013000  1.0
  C  C190  1  0.00691000  0.53706000  0.92589000  1.0
  C  C191  1  0.01491000  0.57677000  0.84647000  1.0
  C  C192  1  0.99297000  0.46283000  0.07434000  1.0
  C  C193  1  0.98498000  0.42313000  0.15374000  1.0
  C  C194  1  0.49838000  0.30597000  0.00322000  1.0
  C  C195  1  0.49897000  0.24275000  0.00205000  1.0
  C  C196  1  0.50002000  0.12352000  0.99995000  1.0
  C  C197  1  0.50007000  0.05981000  0.99987000  1.0
  C  C198  1  0.46295000  0.99309000  0.07411000  1.0
  C  C199  1  0.42325000  0.98509000  0.15352000  1.0
  C  C200  1  0.53717000  0.00703000  0.92566000  1.0
  C  C201  1  0.57686000  0.01501000  0.84627000  1.0
  C  C202  1  0.30918000  0.50160000  0.99679000  1.0
  C  C203  1  0.24479000  0.50102000  0.99796000  1.0
  C  C204  1  0.12347000  0.49997000  0.00005000  1.0
  C  C205  1  0.05968000  0.49994000  0.00013000  1.0
  C  C206  1  0.06721000  0.53706000  0.92588000  1.0
  C  C207  1  0.13861000  0.57677000  0.84647000  1.0
  C  C208  1  0.93269000  0.46283000  0.07434000  1.0
  C  C209  1  0.86127000  0.42313000  0.15374000  1.0
  C  C210  1  0.30918000  0.50161000  0.19242000  1.0
  C  C211  1  0.24479000  0.50102000  0.25623000  1.0
  C  C212  1  0.12347000  0.49998000  0.37650000  1.0
  C  C213  1  0.05968000  0.49993000  0.44026000  1.0
  C  C214  1  0.06721000  0.53706000  0.46985000  1.0
  C  C215  1  0.13862000  0.57677000  0.43815000  1.0
  C  C216  1  0.93269000  0.46283000  0.53014000  1.0
  C  C217  1  0.86127000  0.42313000  0.56186000  1.0
  C  C218  1  0.49838000  0.69081000  0.80759000  1.0
  C  C219  1  0.49897000  0.75520000  0.74378000  1.0
  C  C220  1  0.50002000  0.87653000  0.62350000  1.0
  C  C221  1  0.50007000  0.94032000  0.55974000  1.0
  C  C222  1  0.46295000  0.93280000  0.53014000  1.0
  C  C223  1  0.42324000  0.86138000  0.56185000  1.0
  C  C224  1  0.53717000  0.06731000  0.46986000  1.0
  C  C225  1  0.57687000  0.13873000  0.43814000  1.0
  C  C226  1  0.69402000  0.50160000  0.80759000  1.0
  C  C227  1  0.75724000  0.50102000  0.74378000  1.0
  C  C228  1  0.87648000  0.49997000  0.62350000  1.0
  C  C229  1  0.94019000  0.49994000  0.55974000  1.0
  C  C230  1  0.00692000  0.53706000  0.53014000  1.0
  C  C231  1  0.01491000  0.57676000  0.56186000  1.0
  C  C232  1  0.99297000  0.46283000  0.46986000  1.0
  C  C233  1  0.98498000  0.42313000  0.43815000  1.0
  C  C234  1  0.49839000  0.30597000  0.19242000  1.0
  C  C235  1  0.49898000  0.24275000  0.25623000  1.0
  C  C236  1  0.50003000  0.12352000  0.37650000  1.0
  C  C237  1  0.50006000  0.05981000  0.44026000  1.0
  C  C238  1  0.46295000  0.99309000  0.46985000  1.0
  C  C239  1  0.42324000  0.98509000  0.43814000  1.0
  C  C240  1  0.53717000  0.00703000  0.53014000  1.0
  C  C241  1  0.57687000  0.01501000  0.56186000  1.0
  C  C242  1  0.49840000  0.50162000  0.19241000  1.0
  C  C243  1  0.49898000  0.50102000  0.25623000  1.0
  C  C244  1  0.50003000  0.49998000  0.37650000  1.0
  C  C245  1  0.50006000  0.49993000  0.44026000  1.0
  C  C246  1  0.46295000  0.53706000  0.46985000  1.0
  C  C247  1  0.42323000  0.57676000  0.43815000  1.0
  C  C248  1  0.53717000  0.46283000  0.53014000  1.0
  C  C249  1  0.57687000  0.42313000  0.56186000  1.0
  C  C250  1  0.30919000  0.30597000  0.19241000  1.0
  C  C251  1  0.24479000  0.24275000  0.25623000  1.0
  C  C252  1  0.12347000  0.12352000  0.37650000  1.0
  C  C253  1  0.05968000  0.05981000  0.44026000  1.0
  C  C254  1  0.06721000  0.99309000  0.46985000  1.0
  C  C255  1  0.13861000  0.98508000  0.43816000  1.0
  C  C256  1  0.93269000  0.00703000  0.53014000  1.0
  C  C257  1  0.86127000  0.01501000  0.56186000  1.0
  C  C258  1  0.49838000  0.50160000  0.80759000  1.0
  C  C259  1  0.49898000  0.50102000  0.74377000  1.0
  C  C260  1  0.50002000  0.49997000  0.62350000  1.0
  C  C261  1  0.50007000  0.49994000  0.55974000  1.0
  C  C262  1  0.46295000  0.53706000  0.53014000  1.0
  C  C263  1  0.42325000  0.57677000  0.56184000  1.0
  C  C264  1  0.53717000  0.46283000  0.46986000  1.0
  C  C265  1  0.57687000  0.42313000  0.43814000  1.0
  C  C266  1  0.69403000  0.69081000  0.80759000  1.0
  C  C267  1  0.75725000  0.75521000  0.74377000  1.0
  C  C268  1  0.87648000  0.87653000  0.62350000  1.0
  C  C269  1  0.94020000  0.94032000  0.55974000  1.0
  C  C270  1  0.00692000  0.93280000  0.53014000  1.0
  C  C271  1  0.01491000  0.86138000  0.56186000  1.0
  C  C272  1  0.99297000  0.06731000  0.46986000  1.0
  C  C273  1  0.98499000  0.13873000  0.43814000  1.0
  O  O274  1  0.44980000  0.66579000  0.00310000  1.0
  O  O275  1  0.66889000  0.45290000  0.99690000  1.0
  O  O276  1  0.54710000  0.33111000  0.00310000  1.0
  O  O277  1  0.33421000  0.55020000  0.99690000  1.0
  O  O278  1  0.33421000  0.45290000  0.21599000  1.0
  O  O279  1  0.54710000  0.66579000  0.78401000  1.0
  O  O280  1  0.66889000  0.55020000  0.78401000  1.0
  O  O281  1  0.44980000  0.33111000  0.21599000  1.0
  O  O282  1  0.54708000  0.55019000  0.11871000  1.0
  O  O283  1  0.33420000  0.33110000  0.11871000  1.0
  O  O284  1  0.44981000  0.45291000  0.88129000  1.0
  O  O285  1  0.66889000  0.66579000  0.88130000  1.0
  O  O286  1  0.44980000  0.45290000  0.21599000  1.0
  O  O287  1  0.66889000  0.66579000  0.78401000  1.0
  O  O288  1  0.54710000  0.55020000  0.78401000  1.0
  O  O289  1  0.33421000  0.33111000  0.21599000  1.0
  O  O290  1  0.33420000  0.55019000  0.11871000  1.0
  O  O291  1  0.54708000  0.33110000  0.11871000  1.0
  O  O292  1  0.66889000  0.45291000  0.88130000  1.0
  O  O293  1  0.44981000  0.66580000  0.88129000  1.0
  O  O294  1  0.54708000  0.66579000  0.00311000  1.0
  O  O295  1  0.33420000  0.45291000  0.99690000  1.0
  O  O296  1  0.44981000  0.33110000  0.00310000  1.0
  O  O297  1  0.66889000  0.55019000  0.99690000  1.0
  O  O298  1  0.54255000  0.62765000  0.91490000  1.0
  O  O299  1  0.46857000  0.40569000  0.06287000  1.0
  O  O300  1  0.54255000  0.45745000  0.08510000  1.0
  O  O301  1  0.46857000  0.53144000  0.93712000  1.0
  O  O302  1  0.54255000  0.45745000  0.91490000  1.0
  O  O303  1  0.46857000  0.53144000  0.06287000  1.0
  O  O304  1  0.37235000  0.45745000  0.08510000  1.0
  O  O305  1  0.59432000  0.53144000  0.93712000  1.0
