# generated using pymatgen
data_ZnH3C4N3O2
_symmetry_space_group_name_H-M   'P 1'
_cell_length_a   13.55200000
_cell_length_b   13.55200000
_cell_length_c   23.03180000
_cell_angle_alpha   90.00000000
_cell_angle_beta   89.99990000
_cell_angle_gamma   90.00000000
_symmetry_Int_Tables_number   1
_chemical_formula_structural   ZnH3C4N3O2
_chemical_formula_sum   'Zn16 H48 C64 N48 O32'
_cell_volume   4229.94447518
_cell_formula_units_Z   16
loop_
 _symmetry_equiv_pos_site_id
 _symmetry_equiv_pos_as_xyz
  1  'x, y, z'
loop_
 _atom_site_type_symbol
 _atom_site_label
 _atom_site_symmetry_multiplicity
 _atom_site_fract_x
 _atom_site_fract_y
 _atom_site_fract_z
 _atom_site_occupancy
  Zn  Zn0  1  0.91164000  0.01989000  0.56300000  1.0
  Zn  Zn1  1  0.58836000  0.48011000  0.56300000  1.0
  Zn  Zn2  1  0.41164000  0.98011000  0.93700000  1.0
  Zn  Zn3  1  0.08836000  0.51989000  0.93700000  1.0
  Zn  Zn4  1  0.98011000  0.08836000  0.93700000  1.0
  Zn  Zn5  1  0.51989000  0.41164000  0.93700000  1.0
  Zn  Zn6  1  0.01989000  0.58836000  0.56300000  1.0
  Zn  Zn7  1  0.48011000  0.91164000  0.56300000  1.0
  Zn  Zn8  1  0.08836000  0.98011000  0.43700000  1.0
  Zn  Zn9  1  0.41164000  0.51989000  0.43700000  1.0
  Zn  Zn10  1  0.58836000  0.01989000  0.06300000  1.0
  Zn  Zn11  1  0.91164000  0.48011000  0.06300000  1.0
  Zn  Zn12  1  0.01989000  0.91164000  0.06300000  1.0
  Zn  Zn13  1  0.48011000  0.58836000  0.06300000  1.0
  Zn  Zn14  1  0.98011000  0.41164000  0.43700000  1.0
  Zn  Zn15  1  0.51989000  0.08836000  0.43700000  1.0
  H  H16  1  0.86371000  0.97906000  0.76506000  1.0
  H  H17  1  0.63630000  0.52093000  0.76506000  1.0
  H  H18  1  0.36370000  0.02093000  0.73494000  1.0
  H  H19  1  0.13629000  0.47906000  0.73494000  1.0
  H  H20  1  0.02094000  0.13629000  0.73494000  1.0
  H  H21  1  0.47906000  0.36371000  0.73494000  1.0
  H  H22  1  0.97906000  0.63629000  0.76506000  1.0
  H  H23  1  0.52094000  0.86370000  0.76506000  1.0
  H  H24  1  0.13630000  0.02093000  0.23494000  1.0
  H  H25  1  0.36371000  0.47906000  0.23494000  1.0
  H  H26  1  0.63629000  0.97906000  0.26506000  1.0
  H  H27  1  0.86370000  0.52094000  0.26506000  1.0
  H  H28  1  0.97906000  0.86370000  0.26506000  1.0
  H  H29  1  0.52094000  0.63630000  0.26506000  1.0
  H  H30  1  0.02094000  0.36371000  0.23494000  1.0
  H  H31  1  0.47906000  0.13630000  0.23494000  1.0
  H  H32  1  0.70499000  0.92439000  0.60754000  1.0
  H  H33  1  0.79501000  0.57561000  0.60754000  1.0
  H  H34  1  0.20499000  0.07561000  0.89245000  1.0
  H  H35  1  0.29501000  0.42439000  0.89246000  1.0
  H  H36  1  0.07561000  0.29501000  0.89246000  1.0
  H  H37  1  0.42439000  0.20499000  0.89246000  1.0
  H  H38  1  0.92439000  0.79501000  0.60754000  1.0
  H  H39  1  0.57561000  0.70499000  0.60754000  1.0
  H  H40  1  0.29501000  0.07561000  0.39246000  1.0
  H  H41  1  0.20499000  0.42439000  0.39246000  1.0
  H  H42  1  0.79501000  0.92439000  0.10754000  1.0
  H  H43  1  0.70499000  0.57561000  0.10754000  1.0
  H  H44  1  0.92439000  0.70499000  0.10754000  1.0
  H  H45  1  0.57561000  0.79501000  0.10754000  1.0
  H  H46  1  0.07561000  0.20499000  0.39246000  1.0
  H  H47  1  0.42439000  0.29501000  0.39246000  1.0
  H  H48  1  0.75655000  0.09916000  0.45939000  1.0
  H  H49  1  0.74345000  0.40084000  0.45939000  1.0
  H  H50  1  0.25656000  0.90084000  0.04061000  1.0
  H  H51  1  0.24344000  0.59916000  0.04061000  1.0
  H  H52  1  0.90084000  0.24345000  0.04061000  1.0
  H  H53  1  0.59916000  0.25655000  0.04061000  1.0
  H  H54  1  0.09916000  0.74344000  0.45939000  1.0
  H  H55  1  0.40084000  0.75655000  0.45939000  1.0
  H  H56  1  0.24345000  0.90084000  0.54061000  1.0
  H  H57  1  0.25656000  0.59916000  0.54061000  1.0
  H  H58  1  0.74344000  0.09916000  0.95939000  1.0
  H  H59  1  0.75655000  0.40084000  0.95939000  1.0
  H  H60  1  0.09916000  0.75655000  0.95939000  1.0
  H  H61  1  0.40084000  0.74345000  0.95939000  1.0
  H  H62  1  0.90084000  0.25656000  0.54061000  1.0
  H  H63  1  0.59916000  0.24345000  0.54061000  1.0
  C  C64  1  0.90077000  0.01221000  0.67440000  1.0
  C  C65  1  0.59923000  0.48779000  0.67440000  1.0
  C  C66  1  0.40076000  0.98779000  0.82560000  1.0
  C  C67  1  0.09923000  0.51221000  0.82560000  1.0
  C  C68  1  0.98779000  0.09923000  0.82560000  1.0
  C  C69  1  0.51221000  0.40077000  0.82560000  1.0
  C  C70  1  0.01221000  0.59923000  0.67440000  1.0
  C  C71  1  0.48779000  0.90077000  0.67440000  1.0
  C  C72  1  0.09923000  0.98779000  0.32560000  1.0
  C  C73  1  0.40077000  0.51221000  0.32560000  1.0
  C  C74  1  0.59923000  0.01222000  0.17440000  1.0
  C  C75  1  0.90076000  0.48779000  0.17440000  1.0
  C  C76  1  0.01221000  0.90076000  0.17440000  1.0
  C  C77  1  0.48779000  0.59924000  0.17440000  1.0
  C  C78  1  0.98779000  0.40077000  0.32560000  1.0
  C  C79  1  0.51221000  0.09924000  0.32560000  1.0
  C  C80  1  0.90930000  0.02691000  0.73799000  1.0
  C  C81  1  0.59070000  0.47310000  0.73799000  1.0
  C  C82  1  0.40930000  0.97309000  0.76201000  1.0
  C  C83  1  0.09071000  0.52690000  0.76201000  1.0
  C  C84  1  0.97310000  0.09071000  0.76201000  1.0
  C  C85  1  0.52690000  0.40930000  0.76201000  1.0
  C  C86  1  0.02690000  0.59070000  0.73799000  1.0
  C  C87  1  0.47309000  0.90930000  0.73799000  1.0
  C  C88  1  0.09071000  0.97310000  0.26201000  1.0
  C  C89  1  0.40930000  0.52691000  0.26201000  1.0
  C  C90  1  0.59070000  0.02691000  0.23799000  1.0
  C  C91  1  0.90929000  0.47309000  0.23799000  1.0
  C  C92  1  0.02690000  0.90929000  0.23799000  1.0
  C  C93  1  0.47310000  0.59070000  0.23799000  1.0
  C  C94  1  0.97310000  0.40929000  0.26201000  1.0
  C  C95  1  0.52690000  0.09070000  0.26201000  1.0
  C  C96  1  0.69479000  0.96612000  0.56775000  1.0
  C  C97  1  0.80521000  0.53389000  0.56775000  1.0
  C  C98  1  0.19479000  0.03388000  0.93225000  1.0
  C  C99  1  0.30521000  0.46612000  0.93225000  1.0
  C  C100  1  0.03388000  0.30521000  0.93225000  1.0
  C  C101  1  0.46612000  0.19479000  0.93225000  1.0
  C  C102  1  0.96612000  0.80521000  0.56775000  1.0
  C  C103  1  0.53389000  0.69479000  0.56775000  1.0
  C  C104  1  0.30521000  0.03388000  0.43225000  1.0
  C  C105  1  0.19479000  0.46612000  0.43225000  1.0
  C  C106  1  0.80521000  0.96611000  0.06775000  1.0
  C  C107  1  0.69479000  0.53388000  0.06775000  1.0
  C  C108  1  0.96612000  0.69479000  0.06775000  1.0
  C  C109  1  0.53389000  0.80521000  0.06775000  1.0
  C  C110  1  0.03388000  0.19479000  0.43225000  1.0
  C  C111  1  0.46612000  0.30521000  0.43225000  1.0
  C  C112  1  0.72092000  0.05548000  0.49285000  1.0
  C  C113  1  0.77908000  0.44452000  0.49285000  1.0
  C  C114  1  0.22092000  0.94452000  0.00715000  1.0
  C  C115  1  0.27908000  0.55548000  0.00715000  1.0
  C  C116  1  0.94452000  0.27908000  0.00715000  1.0
  C  C117  1  0.55548000  0.22092000  0.00715000  1.0
  C  C118  1  0.05548000  0.77908000  0.49285000  1.0
  C  C119  1  0.44452000  0.72092000  0.49285000  1.0
  C  C120  1  0.27908000  0.94452000  0.50715000  1.0
  C  C121  1  0.22092000  0.55548000  0.50715000  1.0
  C  C122  1  0.77908000  0.05548000  0.99285000  1.0
  C  C123  1  0.72092000  0.44452000  0.99285000  1.0
  C  C124  1  0.05548000  0.72092000  0.99285000  1.0
  C  C125  1  0.44452000  0.77908000  0.99285000  1.0
  C  C126  1  0.94452000  0.22092000  0.50715000  1.0
  C  C127  1  0.55548000  0.27908000  0.50715000  1.0
  N  N128  1  0.76742000  0.01402000  0.53876000  1.0
  N  N129  1  0.73258000  0.48598000  0.53876000  1.0
  N  N130  1  0.26742000  0.98598000  0.96124000  1.0
  N  N131  1  0.23258000  0.51402000  0.96124000  1.0
  N  N132  1  0.98598000  0.23258000  0.96124000  1.0
  N  N133  1  0.51402000  0.26742000  0.96124000  1.0
  N  N134  1  0.01402000  0.73258000  0.53876000  1.0
  N  N135  1  0.48598000  0.76742000  0.53876000  1.0
  N  N136  1  0.23258000  0.98598000  0.46124000  1.0
  N  N137  1  0.26742000  0.51402000  0.46124000  1.0
  N  N138  1  0.73258000  0.01402000  0.03876000  1.0
  N  N139  1  0.76742000  0.48598000  0.03876000  1.0
  N  N140  1  0.01402000  0.76742000  0.03876000  1.0
  N  N141  1  0.48598000  0.73258000  0.03876000  1.0
  N  N142  1  0.98598000  0.26742000  0.46124000  1.0
  N  N143  1  0.51402000  0.23258000  0.46124000  1.0
  N  N144  1  0.60821000  0.97782000  0.54122000  1.0
  N  N145  1  0.89179000  0.52218000  0.54122000  1.0
  N  N146  1  0.10821000  0.02218000  0.95878000  1.0
  N  N147  1  0.39179000  0.47782000  0.95878000  1.0
  N  N148  1  0.02218000  0.39179000  0.95878000  1.0
  N  N149  1  0.47782000  0.10821000  0.95878000  1.0
  N  N150  1  0.97783000  0.89179000  0.54122000  1.0
  N  N151  1  0.52218000  0.60821000  0.54122000  1.0
  N  N152  1  0.39179000  0.02218000  0.45878000  1.0
  N  N153  1  0.10821000  0.47782000  0.45878000  1.0
  N  N154  1  0.89179000  0.97782000  0.04122000  1.0
  N  N155  1  0.60821000  0.52218000  0.04122000  1.0
  N  N156  1  0.97783000  0.60821000  0.04123000  1.0
  N  N157  1  0.52218000  0.89179000  0.04122000  1.0
  N  N158  1  0.02218000  0.10821000  0.45878000  1.0
  N  N159  1  0.47782000  0.39179000  0.45878000  1.0
  N  N160  1  0.62479000  0.03530000  0.49310000  1.0
  N  N161  1  0.87521000  0.46470000  0.49310000  1.0
  N  N162  1  0.12479000  0.96470000  0.00690000  1.0
  N  N163  1  0.37521000  0.53530000  0.00690000  1.0
  N  N164  1  0.96470000  0.37521000  0.00690000  1.0
  N  N165  1  0.53530000  0.12479000  0.00690000  1.0
  N  N166  1  0.03530000  0.87521000  0.49310000  1.0
  N  N167  1  0.46470000  0.62479000  0.49310000  1.0
  N  N168  1  0.37521000  0.96470000  0.50690000  1.0
  N  N169  1  0.12479000  0.53530000  0.50690000  1.0
  N  N170  1  0.87521000  0.03530000  0.99310000  1.0
  N  N171  1  0.62479000  0.46470000  0.99310000  1.0
  N  N172  1  0.03530000  0.62479000  0.99310000  1.0
  N  N173  1  0.46470000  0.87521000  0.99310000  1.0
  N  N174  1  0.96470000  0.12479000  0.50690000  1.0
  N  N175  1  0.53530000  0.37521000  0.50690000  1.0
  O  O176  1  0.93934000  0.07813000  0.63995000  1.0
  O  O177  1  0.56066000  0.42187000  0.63995000  1.0
  O  O178  1  0.43933000  0.92187000  0.86005000  1.0
  O  O179  1  0.06067000  0.57812000  0.86005000  1.0
  O  O180  1  0.92187000  0.06066000  0.86005000  1.0
  O  O181  1  0.57813000  0.43934000  0.86005000  1.0
  O  O182  1  0.07813000  0.56066000  0.63995000  1.0
  O  O183  1  0.42187000  0.93934000  0.63995000  1.0
  O  O184  1  0.06066000  0.92188000  0.36005000  1.0
  O  O185  1  0.43934000  0.57813000  0.36005000  1.0
  O  O186  1  0.56066000  0.07813000  0.13995000  1.0
  O  O187  1  0.93933000  0.42187000  0.13995000  1.0
  O  O188  1  0.07813000  0.93933000  0.13995000  1.0
  O  O189  1  0.42187000  0.56067000  0.13995000  1.0
  O  O190  1  0.92188000  0.43934000  0.36005000  1.0
  O  O191  1  0.57812000  0.06067000  0.36005000  1.0
  O  O192  1  0.85782000  0.93647000  0.65515000  1.0
  O  O193  1  0.64219000  0.56353000  0.65515000  1.0
  O  O194  1  0.35781000  0.06353000  0.84485000  1.0
  O  O195  1  0.14219000  0.43647000  0.84485000  1.0
  O  O196  1  0.06353000  0.14218000  0.84485000  1.0
  O  O197  1  0.43647000  0.35782000  0.84485000  1.0
  O  O198  1  0.93647000  0.64218000  0.65515000  1.0
  O  O199  1  0.56353000  0.85782000  0.65515000  1.0
  O  O200  1  0.14218000  0.06353000  0.34485000  1.0
  O  O201  1  0.35782000  0.43647000  0.34485000  1.0
  O  O202  1  0.64218000  0.93647000  0.15515000  1.0
  O  O203  1  0.85781000  0.56353000  0.15515000  1.0
  O  O204  1  0.93647000  0.85781000  0.15515000  1.0
  O  O205  1  0.56353000  0.64219000  0.15515000  1.0
  O  O206  1  0.06353000  0.35782000  0.34485000  1.0
  O  O207  1  0.43647000  0.14219000  0.34485000  1.0
