# generated using pymatgen
data_CuH11C9SNO4
_symmetry_space_group_name_H-M   'P 1'
_cell_length_a   8.63222000
_cell_length_b   10.67820000
_cell_length_c   11.87790000
_cell_angle_alpha   73.33900000
_cell_angle_beta   89.99840000
_cell_angle_gamma   89.99810000
_symmetry_Int_Tables_number   1
_chemical_formula_structural   CuH11C9SNO4
_chemical_formula_sum   'Cu4 H44 C36 S4 N4 O16'
_cell_volume   1048.89937544
_cell_formula_units_Z   4
loop_
 _symmetry_equiv_pos_site_id
 _symmetry_equiv_pos_as_xyz
  1  'x, y, z'
loop_
 _atom_site_type_symbol
 _atom_site_label
 _atom_site_symmetry_multiplicity
 _atom_site_fract_x
 _atom_site_fract_y
 _atom_site_fract_z
 _atom_site_occupancy
  Cu  Cu0  1  0.47503000  0.36417000  0.59377000  1.0
  Cu  Cu1  1  0.97503000  0.13583000  0.90623000  1.0
  Cu  Cu2  1  0.52497000  0.63583000  0.40623000  1.0
  Cu  Cu3  1  0.02496000  0.86417000  0.09376000  1.0
  H  H4  1  0.48981000  0.54909000  0.20281000  1.0
  H  H5  1  0.98983000  0.95091000  0.29719000  1.0
  H  H6  1  0.51019000  0.45091000  0.79719000  1.0
  H  H7  1  0.01017000  0.04909000  0.70279000  1.0
  H  H8  1  0.40902000  0.43585000  0.05592000  1.0
  H  H9  1  0.90904000  0.06416000  0.44409000  1.0
  H  H10  1  0.59097000  0.56415000  0.94408000  1.0
  H  H11  1  0.09096000  0.93584000  0.55590000  1.0
  H  H12  1  0.25228000  0.23340000  0.11614000  1.0
  H  H13  1  0.75228000  0.26660000  0.38388000  1.0
  H  H14  1  0.74772000  0.76659000  0.88388000  1.0
  H  H15  1  0.24773000  0.73340000  0.61611000  1.0
  H  H16  1  0.16154000  0.15113000  0.32368000  1.0
  H  H17  1  0.66152000  0.34886000  0.17635000  1.0
  H  H18  1  0.83847000  0.84886000  0.67633000  1.0
  H  H19  1  0.33848000  0.65115000  0.82364000  1.0
  H  H20  1  0.14948000  0.33341000  0.52817000  1.0
  H  H21  1  0.64948000  0.16660000  0.97184000  1.0
  H  H22  1  0.85051000  0.66659000  0.47183000  1.0
  H  H23  1  0.35051000  0.83341000  0.02815000  1.0
  H  H24  1  0.13255000  0.17359000  0.51168000  1.0
  H  H25  1  0.63253000  0.32642000  0.98833000  1.0
  H  H26  1  0.86745000  0.82641000  0.48832000  1.0
  H  H27  1  0.36747000  0.67358000  0.01166000  1.0
  H  H28  1  0.28548000  0.18862000  0.67236000  1.0
  H  H29  1  0.78548000  0.31139000  0.82766000  1.0
  H  H30  1  0.71452000  0.81138000  0.32765000  1.0
  H  H31  1  0.21452000  0.68861000  0.17233000  1.0
  H  H32  1  0.50443000  0.13468000  0.50091000  1.0
  H  H33  1  0.00441000  0.36531000  0.99912000  1.0
  H  H34  1  0.49557000  0.86532000  0.49909000  1.0
  H  H35  1  0.99558000  0.63468000  0.00089000  1.0
  H  H36  1  0.34809000  0.02779000  0.56156000  1.0
  H  H37  1  0.84807000  0.47221000  0.93848000  1.0
  H  H38  1  0.65191000  0.97221000  0.43845000  1.0
  H  H39  1  0.15193000  0.52779000  0.06152000  1.0
  H  H40  1  0.57129000  0.94408000  0.68328000  1.0
  H  H41  1  0.07127000  0.55592000  0.81675000  1.0
  H  H42  1  0.42872000  0.05592000  0.31673000  1.0
  H  H43  1  0.92875000  0.44407000  0.18326000  1.0
  H  H44  1  0.45082000  0.01725000  0.76783000  1.0
  H  H45  1  0.95080000  0.48277000  0.73219000  1.0
  H  H46  1  0.54920000  0.98276000  0.23217000  1.0
  H  H47  1  0.04921000  0.51725000  0.26781000  1.0
  C  C48  1  0.36858000  0.41463000  0.34693000  1.0
  C  C49  1  0.86858000  0.08538000  0.15308000  1.0
  C  C50  1  0.63141000  0.58538000  0.65307000  1.0
  C  C51  1  0.13141000  0.91462000  0.84691000  1.0
  C  C52  1  0.41583000  0.46307000  0.22895000  1.0
  C  C53  1  0.91584000  0.03693000  0.27106000  1.0
  C  C54  1  0.58416000  0.53693000  0.77105000  1.0
  C  C55  1  0.08416000  0.96307000  0.72893000  1.0
  C  C56  1  0.37160000  0.39860000  0.14719000  1.0
  C  C57  1  0.87161000  0.10141000  0.35282000  1.0
  C  C58  1  0.62839000  0.60140000  0.85282000  1.0
  C  C59  1  0.12839000  0.89859000  0.64717000  1.0
  C  C60  1  0.28200000  0.28497000  0.18012000  1.0
  C  C61  1  0.78200000  0.21504000  0.31989000  1.0
  C  C62  1  0.71800000  0.71503000  0.81989000  1.0
  C  C63  1  0.21801000  0.78496000  0.68010000  1.0
  C  C64  1  0.23302000  0.23865000  0.29669000  1.0
  C  C65  1  0.73301000  0.26135000  0.20333000  1.0
  C  C66  1  0.76698000  0.76134000  0.70332000  1.0
  C  C67  1  0.26699000  0.73866000  0.79666000  1.0
  C  C68  1  0.27150000  0.30294000  0.37996000  1.0
  C  C69  1  0.77149000  0.19705000  0.12006000  1.0
  C  C70  1  0.72850000  0.69706000  0.62005000  1.0
  C  C71  1  0.22851000  0.80295000  0.87993000  1.0
  C  C72  1  0.21256000  0.25597000  0.50327000  1.0
  C  C73  1  0.71255000  0.24404000  0.99675000  1.0
  C  C74  1  0.78744000  0.74403000  0.49674000  1.0
  C  C75  1  0.28745000  0.75596000  0.00324000  1.0
  C  C76  1  0.42813000  0.10098000  0.57775000  1.0
  C  C77  1  0.92811000  0.39902000  0.92227000  1.0
  C  C78  1  0.57187000  0.89902000  0.42225000  1.0
  C  C79  1  0.07188000  0.60097000  0.07773000  1.0
  C  C80  1  0.52137000  0.03717000  0.68760000  1.0
  C  C81  1  0.02135000  0.46284000  0.81242000  1.0
  C  C82  1  0.47864000  0.96283000  0.31240000  1.0
  C  C83  1  0.97865000  0.53716000  0.18759000  1.0
  S  S84  1  0.68308000  0.13451000  0.70617000  1.0
  S  S85  1  0.18307000  0.36551000  0.79385000  1.0
  S  S86  1  0.31693000  0.86551000  0.29381000  1.0
  S  S87  1  0.81692000  0.63448000  0.20616000  1.0
  N  N88  1  0.33919000  0.21399000  0.59136000  1.0
  N  N89  1  0.83919000  0.28602000  0.90866000  1.0
  N  N90  1  0.66081000  0.78601000  0.40865000  1.0
  N  N91  1  0.16081000  0.71398000  0.09133000  1.0
  O  O92  1  0.41501000  0.46981000  0.43022000  1.0
  O  O93  1  0.91501000  0.03019000  0.06979000  1.0
  O  O94  1  0.58498000  0.53019000  0.56979000  1.0
  O  O95  1  0.08498000  0.96980000  0.93020000  1.0
  O  O96  1  0.61345000  0.25890000  0.72236000  1.0
  O  O97  1  0.11347000  0.24111000  0.77767000  1.0
  O  O98  1  0.38656000  0.74111000  0.27764000  1.0
  O  O99  1  0.88652000  0.75889000  0.22233000  1.0
  O  O100  1  0.77694000  0.15934000  0.60025000  1.0
  O  O101  1  0.27694000  0.34069000  0.89977000  1.0
  O  O102  1  0.22306000  0.84067000  0.39975000  1.0
  O  O103  1  0.72305000  0.65929000  0.10024000  1.0
  O  O104  1  0.75925000  0.06162000  0.81561000  1.0
  O  O105  1  0.25923000  0.43839000  0.68441000  1.0
  O  O106  1  0.24076000  0.93838000  0.18439000  1.0
  O  O107  1  0.74077000  0.56161000  0.31560000  1.0
