# generated using pymatgen
data_Zn2H6(CN6)3
_symmetry_space_group_name_H-M   'P 1'
_cell_length_a   9.30566000
_cell_length_b   9.30566000
_cell_length_c   9.30565000
_cell_angle_alpha   67.71660000
_cell_angle_beta   67.71660000
_cell_angle_gamma   67.71660000
_symmetry_Int_Tables_number   1
_chemical_formula_structural   Zn2H6(CN6)3
_chemical_formula_sum   'Zn4 H12 C6 N36'
_cell_volume   663.37181055
_cell_formula_units_Z   2
loop_
 _symmetry_equiv_pos_site_id
 _symmetry_equiv_pos_as_xyz
  1  'x, y, z'
loop_
 _atom_site_type_symbol
 _atom_site_label
 _atom_site_symmetry_multiplicity
 _atom_site_fract_x
 _atom_site_fract_y
 _atom_site_fract_z
 _atom_site_occupancy
  Zn  Zn0  1  0.60223000  0.60223000  0.60223000  1.0
  Zn  Zn1  1  0.89778000  0.89778000  0.89778000  1.0
  Zn  Zn2  1  0.39778000  0.39778000  0.39778000  1.0
  Zn  Zn3  1  0.10223000  0.10223000  0.10223000  1.0
  H  H4  1  0.02178000  0.15111000  0.57863000  1.0
  H  H5  1  0.15111000  0.57863000  0.02179000  1.0
  H  H6  1  0.57863000  0.02179000  0.15111000  1.0
  H  H7  1  0.47821000  0.92137000  0.34889000  1.0
  H  H8  1  0.34889000  0.47821000  0.92137000  1.0
  H  H9  1  0.92137000  0.34889000  0.47821000  1.0
  H  H10  1  0.97821000  0.84889000  0.42137000  1.0
  H  H11  1  0.84888000  0.42137000  0.97821000  1.0
  H  H12  1  0.42137000  0.97821000  0.84889000  1.0
  H  H13  1  0.52178000  0.07863000  0.65111000  1.0
  H  H14  1  0.65111000  0.52178000  0.07863000  1.0
  H  H15  1  0.07863000  0.65111000  0.52178000  1.0
  C  C16  1  0.79381000  0.25000000  0.70619000  1.0
  C  C17  1  0.25000000  0.70619000  0.79381000  1.0
  C  C18  1  0.70619000  0.79381000  0.25000000  1.0
  C  C19  1  0.20619000  0.75000000  0.29381000  1.0
  C  C20  1  0.75000000  0.29381000  0.20619000  1.0
  C  C21  1  0.29381000  0.20619000  0.75000000  1.0
  N  N22  1  0.65422000  0.37073000  0.72129000  1.0
  N  N23  1  0.37073000  0.72129000  0.65422000  1.0
  N  N24  1  0.72129000  0.65422000  0.37073000  1.0
  N  N25  1  0.84578000  0.77871000  0.12927000  1.0
  N  N26  1  0.12927000  0.84578000  0.77871000  1.0
  N  N27  1  0.77871000  0.12927000  0.84578000  1.0
  N  N28  1  0.34578000  0.62928000  0.27871000  1.0
  N  N29  1  0.62927000  0.27871000  0.34578000  1.0
  N  N30  1  0.27871000  0.34578000  0.62927000  1.0
  N  N31  1  0.15422000  0.22129000  0.87073000  1.0
  N  N32  1  0.87073000  0.15422000  0.22129000  1.0
  N  N33  1  0.22129000  0.87073000  0.15422000  1.0
  N  N34  1  0.92242000  0.25000000  0.57758000  1.0
  N  N35  1  0.25000000  0.57758000  0.92242000  1.0
  N  N36  1  0.57758000  0.92242000  0.25000000  1.0
  N  N37  1  0.07758000  0.75000000  0.42242000  1.0
  N  N38  1  0.75000000  0.42242000  0.07758000  1.0
  N  N39  1  0.42242000  0.07758000  0.75000000  1.0
  N  N40  1  0.55593000  0.32105000  0.87138000  1.0
  N  N41  1  0.32105000  0.87138000  0.55593000  1.0
  N  N42  1  0.87138000  0.55593000  0.32105000  1.0
  N  N43  1  0.94407000  0.62861000  0.17895000  1.0
  N  N44  1  0.17895000  0.94407000  0.62861000  1.0
  N  N45  1  0.62861000  0.17895000  0.94407000  1.0
  N  N46  1  0.44407000  0.67895000  0.12861000  1.0
  N  N47  1  0.67895000  0.12861000  0.44407000  1.0
  N  N48  1  0.12861000  0.44407000  0.67895000  1.0
  N  N49  1  0.05593000  0.37139000  0.82105000  1.0
  N  N50  1  0.82105000  0.05593000  0.37138000  1.0
  N  N51  1  0.37138000  0.82105000  0.05593000  1.0
  N  N52  1  0.75000000  0.75000000  0.75000000  1.0
  N  N53  1  0.25000000  0.25000000  0.25000000  1.0
  N  N54  1  0.69522000  0.69522000  0.69522000  1.0
  N  N55  1  0.80479000  0.80478000  0.80478000  1.0
  N  N56  1  0.30479000  0.30479000  0.30478000  1.0
  N  N57  1  0.19522000  0.19522000  0.19523000  1.0
