# generated using pymatgen
data_AgH4C4N3O2
_symmetry_space_group_name_H-M   'P 1'
_cell_length_a   5.70134000
_cell_length_b   7.28681000
_cell_length_c   7.32882000
_cell_angle_alpha   89.99030000
_cell_angle_beta   78.03600000
_cell_angle_gamma   89.98630000
_symmetry_Int_Tables_number   1
_chemical_formula_structural   AgH4C4N3O2
_chemical_formula_sum   'Ag2 H8 C8 N6 O4'
_cell_volume   297.85900342
_cell_formula_units_Z   2
loop_
 _symmetry_equiv_pos_site_id
 _symmetry_equiv_pos_as_xyz
  1  'x, y, z'
loop_
 _atom_site_type_symbol
 _atom_site_label
 _atom_site_symmetry_multiplicity
 _atom_site_fract_x
 _atom_site_fract_y
 _atom_site_fract_z
 _atom_site_occupancy
  Ag  Ag0  1  0.43717000  0.75001000  0.26600000  1.0
  Ag  Ag1  1  0.56286000  0.24996000  0.73402000  1.0
  H  H2  1  0.18409000  0.07812000  0.10132000  1.0
  H  H3  1  0.81571000  0.57798000  0.89856000  1.0
  H  H4  1  0.81591000  0.92183000  0.89865000  1.0
  H  H5  1  0.18421000  0.42200000  0.10143000  1.0
  H  H6  1  0.76555000  0.07786000  0.36447000  1.0
  H  H7  1  0.23433000  0.57785000  0.63546000  1.0
  H  H8  1  0.23450000  0.92216000  0.63554000  1.0
  H  H9  1  0.76565000  0.42217000  0.36458000  1.0
  C  C10  1  0.31403000  0.15438000  0.16130000  1.0
  C  C11  1  0.68596000  0.65447000  0.83867000  1.0
  C  C12  1  0.68592000  0.84566000  0.83869000  1.0
  C  C13  1  0.31404000  0.34555000  0.16131000  1.0
  C  C14  1  0.63369000  0.15459000  0.30688000  1.0
  C  C15  1  0.36637000  0.65433000  0.69309000  1.0
  C  C16  1  0.36636000  0.84540000  0.69308000  1.0
  C  C17  1  0.63368000  0.34566000  0.30690000  1.0
  N  N18  1  0.47372000  0.05835000  0.23418000  1.0
  N  N19  1  0.52648000  0.55824000  0.76582000  1.0
  N  N20  1  0.52629000  0.94168000  0.76576000  1.0
  N  N21  1  0.47353000  0.44173000  0.23418000  1.0
  N  N22  1  0.89742000  0.75007000  0.28625000  1.0
  N  N23  1  0.10258000  0.24993000  0.71378000  1.0
  O  O24  1  0.03902000  0.75006000  0.12841000  1.0
  O  O25  1  0.96095000  0.25003000  0.87162000  1.0
  O  O26  1  0.99220000  0.74997000  0.42801000  1.0
  O  O27  1  0.00780000  0.24996000  0.57203000  1.0
