# generated using pymatgen
data_CoCuH10C10N2O9
_symmetry_space_group_name_H-M   'P 1'
_cell_length_a   9.44137000
_cell_length_b   11.71286108
_cell_length_c   15.41510000
_cell_angle_alpha   90.00110610
_cell_angle_beta   90.00100000
_cell_angle_gamma   66.24087253
_symmetry_Int_Tables_number   1
_chemical_formula_structural   CoCuH10C10N2O9
_chemical_formula_sum   'Co4 Cu4 H40 C40 N8 O36'
_cell_volume   1560.20913618
_cell_formula_units_Z   4
loop_
 _symmetry_equiv_pos_site_id
 _symmetry_equiv_pos_as_xyz
  1  'x, y, z'
loop_
 _atom_site_type_symbol
 _atom_site_label
 _atom_site_symmetry_multiplicity
 _atom_site_fract_x
 _atom_site_fract_y
 _atom_site_fract_z
 _atom_site_occupancy
  Co  Co0  1  0.00000000  0.50000000  0.00000000  1.0
  Co  Co1  1  0.00000000  0.50000000  0.50000000  1.0
  Co  Co2  1  0.50000000  0.50000000  0.00000000  1.0
  Co  Co3  1  0.50000000  0.50000000  0.50000000  1.0
  Cu  Cu4  1  0.73041000  0.00008000  0.95703000  1.0
  Cu  Cu5  1  0.73041000  0.00008000  0.54297000  1.0
  Cu  Cu6  1  0.26959000  0.99992000  0.45703000  1.0
  Cu  Cu7  1  0.26958000  0.99992000  0.04297000  1.0
  H  H8  1  0.19516000  0.56802000  0.09511000  1.0
  H  H9  1  0.19516000  0.56801000  0.40489000  1.0
  H  H10  1  0.76323000  0.43194000  0.09514000  1.0
  H  H11  1  0.23677000  0.56807000  0.59514000  1.0
  H  H12  1  0.80485000  0.43198000  0.90490000  1.0
  H  H13  1  0.80483000  0.43199000  0.59510000  1.0
  H  H14  1  0.23679000  0.56805000  0.90486000  1.0
  H  H15  1  0.76321000  0.43194000  0.40486000  1.0
  H  H16  1  0.26407000  0.42429000  0.09118000  1.0
  H  H17  1  0.26406000  0.42429000  0.40882000  1.0
  H  H18  1  0.68842000  0.57567000  0.09127000  1.0
  H  H19  1  0.31159000  0.42433000  0.59128000  1.0
  H  H20  1  0.73594000  0.57571000  0.90882000  1.0
  H  H21  1  0.73593000  0.57571000  0.59118000  1.0
  H  H22  1  0.31160000  0.42432000  0.90873000  1.0
  H  H23  1  0.68840000  0.57567000  0.40872000  1.0
  H  H24  1  0.44977000  0.07048000  0.88498000  1.0
  H  H25  1  0.44978000  0.07048000  0.61501000  1.0
  H  H26  1  0.52028000  0.92946000  0.88485000  1.0
  H  H27  1  0.47971000  0.07054000  0.38486000  1.0
  H  H28  1  0.55023000  0.92952000  0.11502000  1.0
  H  H29  1  0.55021000  0.92953000  0.38499000  1.0
  H  H30  1  0.47972000  0.07054000  0.11515000  1.0
  H  H31  1  0.52029000  0.92946000  0.61514000  1.0
  H  H32  1  0.78497000  0.86244000  0.74999000  1.0
  H  H33  1  0.64729000  0.13811000  0.75000000  1.0
  H  H34  1  0.35269000  0.86190000  0.25000000  1.0
  H  H35  1  0.21502000  0.13757000  0.25001000  1.0
  H  H36  1  0.18972000  0.83939000  0.88984000  1.0
  H  H37  1  0.18972000  0.83941000  0.61016000  1.0
  H  H38  1  0.02951000  0.16029000  0.88983000  1.0
  H  H39  1  0.97048000  0.83970000  0.38982000  1.0
  H  H40  1  0.81029000  0.16059000  0.11016000  1.0
  H  H41  1  0.81027000  0.16060000  0.38984000  1.0
  H  H42  1  0.97049000  0.83970000  0.11017000  1.0
  H  H43  1  0.02951000  0.16030000  0.61018000  1.0
  H  H44  1  0.32807000  0.82824000  0.75000000  1.0
  H  H45  1  0.15683000  0.17132000  0.75000000  1.0
  H  H46  1  0.84316000  0.82869000  0.25000000  1.0
  H  H47  1  0.67193000  0.17176000  0.24999000  1.0
  C  C48  1  0.81511000  0.75804000  0.02166000  1.0
  C  C49  1  0.81509000  0.75804000  0.47834000  1.0
  C  C50  1  0.57328000  0.24208000  0.02167000  1.0
  C  C51  1  0.42673000  0.75792000  0.52167000  1.0
  C  C52  1  0.18490000  0.24196000  0.97834000  1.0
  C  C53  1  0.18490000  0.24197000  0.52166000  1.0
  C  C54  1  0.42672000  0.75792000  0.97834000  1.0
  C  C55  1  0.57328000  0.24208000  0.47833000  1.0
  C  C56  1  0.92789000  0.74698000  0.94839000  1.0
  C  C57  1  0.92789000  0.74699000  0.55161000  1.0
  C  C58  1  0.67490000  0.25316000  0.94834000  1.0
  C  C59  1  0.32511000  0.74683000  0.44834000  1.0
  C  C60  1  0.07212000  0.25301000  0.05161000  1.0
  C  C61  1  0.07210000  0.25302000  0.44839000  1.0
  C  C62  1  0.32511000  0.74683000  0.05166000  1.0
  C  C63  1  0.67489000  0.25317000  0.55166000  1.0
  C  C64  1  0.90505000  0.85187000  0.75000000  1.0
  C  C65  1  0.75686000  0.14855000  0.75000000  1.0
  C  C66  1  0.24313000  0.85145000  0.25000000  1.0
  C  C67  1  0.09495000  0.14814000  0.25000000  1.0
  C  C68  1  0.98219000  0.84669000  0.82818000  1.0
  C  C69  1  0.98220000  0.84669000  0.67182000  1.0
  C  C70  1  0.82896000  0.15356000  0.82817000  1.0
  C  C71  1  0.17104000  0.84644000  0.32817000  1.0
  C  C72  1  0.01781000  0.15331000  0.17182000  1.0
  C  C73  1  0.01779000  0.15332000  0.32818000  1.0
  C  C74  1  0.17103000  0.84644000  0.17183000  1.0
  C  C75  1  0.82895000  0.15356000  0.67183000  1.0
  C  C76  1  0.13410000  0.83853000  0.82832000  1.0
  C  C77  1  0.13411000  0.83853000  0.67168000  1.0
  C  C78  1  0.97287000  0.16147000  0.82832000  1.0
  C  C79  1  0.02713000  0.83852000  0.32832000  1.0
  C  C80  1  0.86590000  0.16147000  0.17167000  1.0
  C  C81  1  0.86589000  0.16147000  0.32832000  1.0
  C  C82  1  0.02713000  0.83852000  0.17168000  1.0
  C  C83  1  0.97286000  0.16148000  0.67168000  1.0
  C  C84  1  0.20993000  0.83391000  0.75000000  1.0
  C  C85  1  0.04414000  0.16600000  0.75000000  1.0
  C  C86  1  0.95587000  0.83399000  0.25000000  1.0
  C  C87  1  0.79008000  0.16608000  0.25000000  1.0
  N  N88  1  0.90122000  0.85144000  0.90655000  1.0
  N  N89  1  0.90121000  0.85145000  0.59344000  1.0
  N  N90  1  0.75277000  0.14871000  0.90655000  1.0
  N  N91  1  0.24723000  0.85129000  0.40655000  1.0
  N  N92  1  0.09879000  0.14856000  0.09345000  1.0
  N  N93  1  0.09877000  0.14856000  0.40656000  1.0
  N  N94  1  0.24723000  0.85128000  0.09345000  1.0
  N  N95  1  0.75276000  0.14872000  0.59345000  1.0
  O  O96  1  0.71806000  0.86701000  0.04087000  1.0
  O  O97  1  0.71804000  0.86701000  0.45914000  1.0
  O  O98  1  0.58532000  0.13309000  0.04093000  1.0
  O  O99  1  0.41468000  0.86691000  0.54094000  1.0
  O  O100  1  0.28194000  0.13299000  0.95913000  1.0
  O  O101  1  0.28195000  0.13300000  0.54086000  1.0
  O  O102  1  0.41468000  0.86690000  0.95907000  1.0
  O  O103  1  0.58533000  0.13309000  0.45906000  1.0
  O  O104  1  0.82431000  0.65745000  0.05687000  1.0
  O  O105  1  0.82430000  0.65744000  0.44313000  1.0
  O  O106  1  0.48187000  0.34265000  0.05688000  1.0
  O  O107  1  0.51815000  0.65734000  0.55688000  1.0
  O  O108  1  0.17570000  0.34256000  0.94313000  1.0
  O  O109  1  0.17568000  0.34258000  0.55687000  1.0
  O  O110  1  0.51814000  0.65734000  0.94312000  1.0
  O  O111  1  0.48185000  0.34266000  0.44312000  1.0
  O  O112  1  0.03185000  0.63801000  0.93227000  1.0
  O  O113  1  0.03185000  0.63802000  0.56773000  1.0
  O  O114  1  0.66979000  0.36217000  0.93217000  1.0
  O  O115  1  0.33022000  0.63782000  0.43216000  1.0
  O  O116  1  0.96815000  0.36199000  0.06774000  1.0
  O  O117  1  0.96813000  0.36200000  0.43226000  1.0
  O  O118  1  0.33022000  0.63782000  0.06783000  1.0
  O  O119  1  0.66979000  0.36218000  0.56783000  1.0
  O  O120  1  0.16411000  0.49679000  0.09435000  1.0
  O  O121  1  0.16410000  0.49679000  0.40565000  1.0
  O  O122  1  0.66097000  0.50315000  0.09440000  1.0
  O  O123  1  0.33904000  0.49685000  0.59441000  1.0
  O  O124  1  0.83589000  0.50321000  0.90565000  1.0
  O  O125  1  0.83588000  0.50322000  0.59435000  1.0
  O  O126  1  0.33904000  0.49684000  0.90560000  1.0
  O  O127  1  0.66096000  0.50315000  0.40559000  1.0
  O  O128  1  0.54427000  0.00001000  0.86578000  1.0
  O  O129  1  0.54427000  0.00001000  0.63422000  1.0
  O  O130  1  0.45573000  0.99999000  0.36578000  1.0
  O  O131  1  0.45573000  0.99999000  0.13422000  1.0
