# generated using pymatgen
data_ZnH18C26(NO2)2
_symmetry_space_group_name_H-M   'P 1'
_cell_length_a   5.32255000
_cell_length_b   14.37794500
_cell_length_c   18.92160000
_cell_angle_alpha   99.08931463
_cell_angle_beta   90.02500000
_cell_angle_gamma   100.62220613
_symmetry_Int_Tables_number   1
_chemical_formula_structural   ZnH18C26(NO2)2
_chemical_formula_sum   'Zn2 H36 C52 N4 O8'
_cell_volume   1404.68363802
_cell_formula_units_Z   2
loop_
 _symmetry_equiv_pos_site_id
 _symmetry_equiv_pos_as_xyz
  1  'x, y, z'
loop_
 _atom_site_type_symbol
 _atom_site_label
 _atom_site_symmetry_multiplicity
 _atom_site_fract_x
 _atom_site_fract_y
 _atom_site_fract_z
 _atom_site_occupancy
  Zn  Zn0  1  0.56147000  0.00005000  0.75005000  1.0
  Zn  Zn1  1  0.43850000  0.99996000  0.24995000  1.0
  H  H2  1  0.98452000  0.81777000  0.62814000  1.0
  H  H3  1  0.16695000  0.18210000  0.87215000  1.0
  H  H4  1  0.01550000  0.18225000  0.37186000  1.0
  H  H5  1  0.83306000  0.81788000  0.12785000  1.0
  H  H6  1  0.12747000  0.68851000  0.54481000  1.0
  H  H7  1  0.43875000  0.31143000  0.95545000  1.0
  H  H8  1  0.87256000  0.31150000  0.45519000  1.0
  H  H9  1  0.56128000  0.68855000  0.04456000  1.0
  H  H10  1  0.48413000  0.48673000  0.60193000  1.0
  H  H11  1  0.99690000  0.51323000  0.89797000  1.0
  H  H12  1  0.51586000  0.51328000  0.39806000  1.0
  H  H13  1  0.00314000  0.48676000  0.10205000  1.0
  H  H14  1  0.34173000  0.61930000  0.68437000  1.0
  H  H15  1  0.72222000  0.38056000  0.81556000  1.0
  H  H16  1  0.65827000  0.38073000  0.31562000  1.0
  H  H17  1  0.27780000  0.61945000  0.18445000  1.0
  H  H18  1  0.76417000  0.42895000  0.51795000  1.0
  H  H19  1  0.33454000  0.57099000  0.98215000  1.0
  H  H20  1  0.23588000  0.57106000  0.48205000  1.0
  H  H21  1  0.66552000  0.42899000  0.01787000  1.0
  H  H22  1  0.05401000  0.89292000  0.79149000  1.0
  H  H23  1  0.16084000  0.10730000  0.70848000  1.0
  H  H24  1  0.94596000  0.10705000  0.20850000  1.0
  H  H25  1  0.83913000  0.89272000  0.29152000  1.0
  H  H26  1  0.79511000  0.89047000  0.89928000  1.0
  H  H27  1  0.90439000  0.10969000  0.60061000  1.0
  H  H28  1  0.20485000  0.10949000  0.10071000  1.0
  H  H29  1  0.09558000  0.89033000  0.39939000  1.0
  H  H30  1  0.39764000  0.10987000  0.01090000  1.0
  H  H31  1  0.28737000  0.88989000  0.48930000  1.0
  H  H32  1  0.60226000  0.89008000  0.98910000  1.0
  H  H33  1  0.71267000  0.11013000  0.51070000  1.0
  H  H34  1  0.62742000  0.10359000  0.89731000  1.0
  H  H35  1  0.52341000  0.89625000  0.60296000  1.0
  H  H36  1  0.37250000  0.89639000  0.10269000  1.0
  H  H37  1  0.47664000  0.10379000  0.39704000  1.0
  C  C38  1  0.56911000  0.80684000  0.70996000  1.0
  C  C39  1  0.76248000  0.19319000  0.79012000  1.0
  C  C40  1  0.43088000  0.19318000  0.29001000  1.0
  C  C41  1  0.23753000  0.80681000  0.20990000  1.0
  C  C42  1  0.65576000  0.72666000  0.66169000  1.0
  C  C43  1  0.92919000  0.27324000  0.83842000  1.0
  C  C44  1  0.34423000  0.27336000  0.33830000  1.0
  C  C45  1  0.07082000  0.72675000  0.16158000  1.0
  C  C46  1  0.87612000  0.74494000  0.62153000  1.0
  C  C47  1  0.13119000  0.25493000  0.87867000  1.0
  C  C48  1  0.12387000  0.25508000  0.37846000  1.0
  C  C49  1  0.86882000  0.74506000  0.12134000  1.0
  C  C50  1  0.95480000  0.67208000  0.57497000  1.0
  C  C51  1  0.28263000  0.32786000  0.92519000  1.0
  C  C52  1  0.04521000  0.32794000  0.42502000  1.0
  C  C53  1  0.71742000  0.67214000  0.07482000  1.0
  C  C54  1  0.81691000  0.57709000  0.56719000  1.0
  C  C55  1  0.23964000  0.42286000  0.93288000  1.0
  C  C56  1  0.18309000  0.42292000  0.43279000  1.0
  C  C57  1  0.76040000  0.57714000  0.06714000  1.0
  C  C58  1  0.59493000  0.55954000  0.60761000  1.0
  C  C59  1  0.03517000  0.44042000  0.89237000  1.0
  C  C60  1  0.40510000  0.44048000  0.39238000  1.0
  C  C61  1  0.96489000  0.55957000  0.10764000  1.0
  C  C62  1  0.51485000  0.63294000  0.65395000  1.0
  C  C63  1  0.88176000  0.36699000  0.84607000  1.0
  C  C64  1  0.48517000  0.36709000  0.34604000  1.0
  C  C65  1  0.11828000  0.63300000  0.15395000  1.0
  C  C66  1  0.89402000  0.49780000  0.51997000  1.0
  C  C67  1  0.39605000  0.50217000  0.98007000  1.0
  C  C68  1  0.10600000  0.50221000  0.48004000  1.0
  C  C69  1  0.60400000  0.49781000  0.01994000  1.0
  C  C70  1  0.12195000  0.93972000  0.84137000  1.0
  C  C71  1  0.18182000  0.06037000  0.65866000  1.0
  C  C72  1  0.87802000  0.06023000  0.15863000  1.0
  C  C73  1  0.81818000  0.93965000  0.34134000  1.0
  C  C74  1  0.97913000  0.93906000  0.90282000  1.0
  C  C75  1  0.03969000  0.06099000  0.59716000  1.0
  C  C76  1  0.02084000  0.06089000  0.09718000  1.0
  C  C77  1  0.96030000  0.93902000  0.40283000  1.0
  C  C78  1  0.07245000  0.99972000  0.96663000  1.0
  C  C79  1  0.07252000  0.00026000  0.53342000  1.0
  C  C80  1  0.92749000  0.00023000  0.03337000  1.0
  C  C81  1  0.92749000  0.99976000  0.46658000  1.0
  C  C82  1  0.31112000  0.06013000  0.96419000  1.0
  C  C83  1  0.25059000  0.93972000  0.53598000  1.0
  C  C84  1  0.68884000  0.93982000  0.03581000  1.0
  C  C85  1  0.74940000  0.06030000  0.46402000  1.0
  C  C86  1  0.44217000  0.05755000  0.90087000  1.0
  C  C87  1  0.38416000  0.94234000  0.59933000  1.0
  C  C88  1  0.55779000  0.94241000  0.09913000  1.0
  C  C89  1  0.61583000  0.05769000  0.40067000  1.0
  N  N90  1  0.35013000  0.99820000  0.84038000  1.0
  N  N91  1  0.35154000  0.00183000  0.65974000  1.0
  N  N92  1  0.64982000  0.00177000  0.15962000  1.0
  N  N93  1  0.64846000  0.99820000  0.34025000  1.0
  O  O94  1  0.72255000  0.89066000  0.71365000  1.0
  O  O95  1  0.83209000  0.10930000  0.78639000  1.0
  O  O96  1  0.27745000  0.10935000  0.28634000  1.0
  O  O97  1  0.16793000  0.89070000  0.21362000  1.0
  O  O98  1  0.36362000  0.79411000  0.74174000  1.0
  O  O99  1  0.56968000  0.20606000  0.75836000  1.0
  O  O100  1  0.63633000  0.20593000  0.25821000  1.0
  O  O101  1  0.43030000  0.79393000  0.24166000  1.0
