# generated using pymatgen
data_TlH4C7NO4
_symmetry_space_group_name_H-M   'P 1'
_cell_length_a   5.86611000
_cell_length_b   6.98396000
_cell_length_c   18.49040000
_cell_angle_alpha   90.00090000
_cell_angle_beta   90.00120000
_cell_angle_gamma   85.15560000
_symmetry_Int_Tables_number   1
_chemical_formula_structural   TlH4C7NO4
_chemical_formula_sum   'Tl4 H16 C28 N4 O16'
_cell_volume   754.82113347
_cell_formula_units_Z   4
loop_
 _symmetry_equiv_pos_site_id
 _symmetry_equiv_pos_as_xyz
  1  'x, y, z'
loop_
 _atom_site_type_symbol
 _atom_site_label
 _atom_site_symmetry_multiplicity
 _atom_site_fract_x
 _atom_site_fract_y
 _atom_site_fract_z
 _atom_site_occupancy
  Tl  Tl0  1  0.41147000  0.96293000  0.12161000  1.0
  Tl  Tl1  1  0.58852000  0.53706000  0.62162000  1.0
  Tl  Tl2  1  0.58853000  0.03707000  0.87839000  1.0
  Tl  Tl3  1  0.41146000  0.46294000  0.37839000  1.0
  H  H4  1  0.58928000  0.42169000  0.23213000  1.0
  H  H5  1  0.41073000  0.07826000  0.73212000  1.0
  H  H6  1  0.41070000  0.57831000  0.76788000  1.0
  H  H7  1  0.58929000  0.92174000  0.26788000  1.0
  H  H8  1  0.39552000  0.48526000  0.11375000  1.0
  H  H9  1  0.60450000  0.01473000  0.61375000  1.0
  H  H10  1  0.60447000  0.51475000  0.88624000  1.0
  H  H11  1  0.39551000  0.98525000  0.38624000  1.0
  H  H12  1  0.61619000  0.38460000  0.99990000  1.0
  H  H13  1  0.38385000  0.11544000  0.49990000  1.0
  H  H14  1  0.38382000  0.61541000  0.00010000  1.0
  H  H15  1  0.61615000  0.88456000  0.50010000  1.0
  H  H16  1  0.96161000  0.26342000  0.36223000  1.0
  H  H17  1  0.03841000  0.23657000  0.86223000  1.0
  H  H18  1  0.03838000  0.73659000  0.63777000  1.0
  H  H19  1  0.96160000  0.76342000  0.13777000  1.0
  C  C20  1  0.67745000  0.38170000  0.18212000  1.0
  C  C21  1  0.32257000  0.11828000  0.68211000  1.0
  C  C22  1  0.32255000  0.61829000  0.81788000  1.0
  C  C23  1  0.67744000  0.88173000  0.31788000  1.0
  C  C24  1  0.57022000  0.41815000  0.11576000  1.0
  C  C25  1  0.42980000  0.08185000  0.61576000  1.0
  C  C26  1  0.42979000  0.58185000  0.88424000  1.0
  C  C27  1  0.57019000  0.91815000  0.38423000  1.0
  C  C28  1  0.89925000  0.28997000  0.18322000  1.0
  C  C29  1  0.10077000  0.21002000  0.68321000  1.0
  C  C30  1  0.10074000  0.71003000  0.81678000  1.0
  C  C31  1  0.89924000  0.78998000  0.31679000  1.0
  C  C32  1  0.91433000  0.27809000  0.05873000  1.0
  C  C33  1  0.08569000  0.22192000  0.55873000  1.0
  C  C34  1  0.08565000  0.72190000  0.94127000  1.0
  C  C35  1  0.91431000  0.77809000  0.44127000  1.0
  C  C36  1  0.04775000  0.22600000  0.99006000  1.0
  C  C37  1  0.95225000  0.27400000  0.49006000  1.0
  C  C38  1  0.95225000  0.77399000  0.00994000  1.0
  C  C39  1  0.04774000  0.72600000  0.50994000  1.0
  C  C40  1  0.01668000  0.24207000  0.25426000  1.0
  C  C41  1  0.98335000  0.25793000  0.75426000  1.0
  C  C42  1  0.98331000  0.75793000  0.74575000  1.0
  C  C43  1  0.01666000  0.74207000  0.24573000  1.0
  C  C44  1  0.69063000  0.36406000  0.05323000  1.0
  C  C45  1  0.30938000  0.13597000  0.55323000  1.0
  C  C46  1  0.30938000  0.63595000  0.94677000  1.0
  C  C47  1  0.69061000  0.86403000  0.44677000  1.0
  N  N48  1  0.01584000  0.23979000  0.12262000  1.0
  N  N49  1  0.98419000  0.26021000  0.62263000  1.0
  N  N50  1  0.98415000  0.76020000  0.87738000  1.0
  N  N51  1  0.01582000  0.73980000  0.37738000  1.0
  O  O52  1  0.88832000  0.30012000  0.31017000  1.0
  O  O53  1  0.11171000  0.19987000  0.81017000  1.0
  O  O54  1  0.11168000  0.69990000  0.68983000  1.0
  O  O55  1  0.88832000  0.80011000  0.18984000  1.0
  O  O56  1  0.24578000  0.14252000  0.99410000  1.0
  O  O57  1  0.75423000  0.35748000  0.49410000  1.0
  O  O58  1  0.75422000  0.85747000  0.00590000  1.0
  O  O59  1  0.24576000  0.64254000  0.50590000  1.0
  O  O60  1  0.21015000  0.15739000  0.25869000  1.0
  O  O61  1  0.78989000  0.34264000  0.75869000  1.0
  O  O62  1  0.78984000  0.84262000  0.74131000  1.0
  O  O63  1  0.21012000  0.65738000  0.24131000  1.0
  O  O64  1  0.94117000  0.27572000  0.93120000  1.0
  O  O65  1  0.05883000  0.22426000  0.43120000  1.0
  O  O66  1  0.05884000  0.72427000  0.06880000  1.0
  O  O67  1  0.94115000  0.77572000  0.56880000  1.0
