# generated using pymatgen
data_NaH8C8(NO)3
_symmetry_space_group_name_H-M   'P 1'
_cell_length_a   5.16257000
_cell_length_b   8.20938000
_cell_length_c   21.98950000
_cell_angle_alpha   89.99700000
_cell_angle_beta   89.99910000
_cell_angle_gamma   78.04400000
_symmetry_Int_Tables_number   1
_chemical_formula_structural   NaH8C8(NO)3
_chemical_formula_sum   'Na4 H32 C32 N12 O12'
_cell_volume   911.73120020
_cell_formula_units_Z   4
loop_
 _symmetry_equiv_pos_site_id
 _symmetry_equiv_pos_as_xyz
  1  'x, y, z'
loop_
 _atom_site_type_symbol
 _atom_site_label
 _atom_site_symmetry_multiplicity
 _atom_site_fract_x
 _atom_site_fract_y
 _atom_site_fract_z
 _atom_site_occupancy
  Na  Na0  1  0.74545000  0.02878000  0.53989000  1.0
  Na  Na1  1  0.75455000  0.97123000  0.03990000  1.0
  Na  Na2  1  0.25453000  0.97123000  0.46010000  1.0
  Na  Na3  1  0.24548000  0.02877000  0.96011000  1.0
  H  H4  1  0.75389000  0.65249000  0.52966000  1.0
  H  H5  1  0.74611000  0.34748000  0.02966000  1.0
  H  H6  1  0.24609000  0.34751000  0.47033000  1.0
  H  H7  1  0.25391000  0.65253000  0.97035000  1.0
  H  H8  1  0.69480000  0.81952000  0.71087000  1.0
  H  H9  1  0.80519000  0.18046000  0.21088000  1.0
  H  H10  1  0.30515000  0.18049000  0.28912000  1.0
  H  H11  1  0.19485000  0.81951000  0.78912000  1.0
  H  H12  1  0.73673000  0.51812000  0.72500000  1.0
  H  H13  1  0.76321000  0.48187000  0.22500000  1.0
  H  H14  1  0.26324000  0.48189000  0.27500000  1.0
  H  H15  1  0.23685000  0.51810000  0.77501000  1.0
  H  H16  1  0.09757000  0.31477000  0.67225000  1.0
  H  H17  1  0.40239000  0.68520000  0.17224000  1.0
  H  H18  1  0.90242000  0.68524000  0.32776000  1.0
  H  H19  1  0.59766000  0.31478000  0.82776000  1.0
  H  H20  1  0.15381000  0.00538000  0.62094000  1.0
  H  H21  1  0.34622000  0.99460000  0.12094000  1.0
  H  H22  1  0.84617000  0.99462000  0.37906000  1.0
  H  H23  1  0.65380000  0.00539000  0.87907000  1.0
  H  H24  1  0.86116000  0.04538000  0.66462000  1.0
  H  H25  1  0.63886000  0.95461000  0.16462000  1.0
  H  H26  1  0.13883000  0.95461000  0.33537000  1.0
  H  H27  1  0.36115000  0.04538000  0.83538000  1.0
  H  H28  1  0.90637000  0.30948000  0.53669000  1.0
  H  H29  1  0.59360000  0.69052000  0.03669000  1.0
  H  H30  1  0.09360000  0.69055000  0.46330000  1.0
  H  H31  1  0.40642000  0.30948000  0.96331000  1.0
  H  H32  1  0.20112000  0.21483000  0.55412000  1.0
  H  H33  1  0.29885000  0.78517000  0.05412000  1.0
  H  H34  1  0.79884000  0.78519000  0.44588000  1.0
  H  H35  1  0.70117000  0.21483000  0.94589000  1.0
  C  C36  1  0.46439000  0.38940000  0.59681000  1.0
  C  C37  1  0.03560000  0.61058000  0.09680000  1.0
  C  C38  1  0.53561000  0.61061000  0.40319000  1.0
  C  C39  1  0.96444000  0.38941000  0.90321000  1.0
  C  C40  1  0.42182000  0.73460000  0.57946000  1.0
  C  C41  1  0.07819000  0.26537000  0.07946000  1.0
  C  C42  1  0.57815000  0.26540000  0.42053000  1.0
  C  C43  1  0.92183000  0.73463000  0.92054000  1.0
  C  C44  1  0.23486000  0.68094000  0.62014000  1.0
  C  C45  1  0.26515000  0.31904000  0.12013000  1.0
  C  C46  1  0.76513000  0.31907000  0.37986000  1.0
  C  C47  1  0.73488000  0.68096000  0.87987000  1.0
  C  C48  1  0.03010000  0.79661000  0.65033000  1.0
  C  C49  1  0.46991000  0.20337000  0.15033000  1.0
  C  C50  1  0.96987000  0.20339000  0.34966000  1.0
  C  C51  1  0.53012000  0.79661000  0.84967000  1.0
  C  C52  1  0.85438000  0.73305000  0.68803000  1.0
  C  C53  1  0.64562000  0.26694000  0.18804000  1.0
  C  C54  1  0.14558000  0.26695000  0.31196000  1.0
  C  C55  1  0.35439000  0.73306000  0.81197000  1.0
  C  C56  1  0.87792000  0.56213000  0.69567000  1.0
  C  C57  1  0.62204000  0.43785000  0.19568000  1.0
  C  C58  1  0.12205000  0.43787000  0.30432000  1.0
  C  C59  1  0.37799000  0.56214000  0.80432000  1.0
  C  C60  1  0.07742000  0.44857000  0.66666667  1.0
  C  C61  1  0.42254000  0.55142000  0.16669000  1.0
  C  C62  1  0.92255000  0.55144000  0.33333333  1.0
  C  C63  1  0.57747000  0.44857000  0.83332000  1.0
  C  C64  1  0.25607000  0.50737000  0.62890000  1.0
  C  C65  1  0.24392000  0.49262000  0.12889000  1.0
  C  C66  1  0.74391000  0.49265000  0.37110000  1.0
  C  C67  1  0.75612000  0.50737000  0.87111000  1.0
  N  N68  1  0.64333000  0.44560000  0.56357000  1.0
  N  N69  1  0.85665000  0.55438000  0.06356000  1.0
  N  N70  1  0.35666000  0.55441000  0.43643000  1.0
  N  N71  1  0.14337000  0.44562000  0.93644000  1.0
  N  N72  1  0.61753000  0.61351000  0.55759000  1.0
  N  N73  1  0.88248000  0.38647000  0.05759000  1.0
  N  N74  1  0.38244000  0.38651000  0.44240000  1.0
  N  N75  1  0.11756000  0.61353000  0.94242000  1.0
  N  N76  1  0.00082000  0.96472000  0.64113000  1.0
  N  N77  1  0.49921000  0.03526000  0.14113000  1.0
  N  N78  1  0.99912000  0.03528000  0.35887000  1.0
  N  N79  1  0.50079000  0.96473000  0.85887000  1.0
  O  O80  1  0.47226000  0.23091000  0.59950000  1.0
  O  O81  1  0.02771000  0.76907000  0.09948000  1.0
  O  O82  1  0.52773000  0.76909000  0.40050000  1.0
  O  O83  1  0.97231000  0.23093000  0.90052000  1.0
  O  O84  1  0.41259000  0.88549000  0.56318000  1.0
  O  O85  1  0.08743000  0.11448000  0.06318000  1.0
  O  O86  1  0.58737000  0.11451000  0.43681000  1.0
  O  O87  1  0.91259000  0.88552000  0.93682000  1.0
  O  O88  1  0.06136000  0.21956000  0.52221000  1.0
  O  O89  1  0.43862000  0.78044000  0.02221000  1.0
  O  O90  1  0.93862000  0.78047000  0.47778000  1.0
  O  O91  1  0.56140000  0.21956000  0.97779000  1.0
