# generated using pymatgen
data_CuH8C9(NCl)2
_symmetry_space_group_name_H-M   'P 1'
_cell_length_a   6.21329000
_cell_length_b   8.40277000
_cell_length_c   10.01140000
_cell_angle_alpha   81.07880000
_cell_angle_beta   75.24830000
_cell_angle_gamma   86.77430000
_symmetry_Int_Tables_number   1
_chemical_formula_structural   CuH8C9(NCl)2
_chemical_formula_sum   'Cu2 H16 C18 N4 Cl4'
_cell_volume   499.26338257
_cell_formula_units_Z   2
loop_
 _symmetry_equiv_pos_site_id
 _symmetry_equiv_pos_as_xyz
  1  'x, y, z'
loop_
 _atom_site_type_symbol
 _atom_site_label
 _atom_site_symmetry_multiplicity
 _atom_site_fract_x
 _atom_site_fract_y
 _atom_site_fract_z
 _atom_site_occupancy
  Cu  Cu0  1  0.27397000  0.06591000  0.43425000  1.0
  Cu  Cu1  1  0.72603000  0.93410000  0.56575000  1.0
  H  H2  1  0.06825000  0.94228000  0.20980000  1.0
  H  H3  1  0.93175000  0.05772000  0.79020000  1.0
  H  H4  1  0.21204000  0.06390000  0.92660000  1.0
  H  H5  1  0.78797000  0.93609000  0.07340000  1.0
  H  H6  1  0.48365000  0.31195000  0.92373000  1.0
  H  H7  1  0.51634000  0.68805000  0.07627000  1.0
  H  H8  1  0.83371000  0.28284000  0.05806000  1.0
  H  H9  1  0.16628000  0.71717000  0.94193000  1.0
  H  H10  1  0.04548000  0.47538000  0.13779000  1.0
  H  H11  1  0.95452000  0.52462000  0.86221000  1.0
  H  H12  1  0.84911000  0.64412000  0.31843000  1.0
  H  H13  1  0.15089000  0.35587000  0.68157000  1.0
  H  H14  1  0.43868000  0.62616000  0.41083000  1.0
  H  H15  1  0.56132000  0.37383000  0.58917000  1.0
  H  H16  1  0.22641000  0.43062000  0.33384000  1.0
  H  H17  1  0.77360000  0.56937000  0.66616000  1.0
  C  C18  1  0.17698000  0.04171000  0.15741000  1.0
  C  C19  1  0.82302000  0.95829000  0.84260000  1.0
  C  C20  1  0.25043000  0.10440000  0.01535000  1.0
  C  C21  1  0.74958000  0.89560000  0.98465000  1.0
  C  C22  1  0.39153000  0.22848000  0.01030000  1.0
  C  C23  1  0.60847000  0.77152000  0.98970000  1.0
  C  C24  1  0.51852000  0.34760000  0.19047000  1.0
  C  C25  1  0.48148000  0.65241000  0.80953000  1.0
  C  C26  1  0.74801000  0.35957000  0.13418000  1.0
  C  C27  1  0.25199000  0.64042000  0.86582000  1.0
  C  C28  1  0.86617000  0.46681000  0.18054000  1.0
  C  C29  1  0.13383000  0.53319000  0.81946000  1.0
  C  C30  1  0.75647000  0.56144000  0.28104000  1.0
  C  C31  1  0.24353000  0.43856000  0.71896000  1.0
  C  C32  1  0.52631000  0.54985000  0.33495000  1.0
  C  C33  1  0.47370000  0.45013000  0.66505000  1.0
  C  C34  1  0.40560000  0.44201000  0.29089000  1.0
  C  C35  1  0.59441000  0.55799000  0.70911000  1.0
  N  N36  1  0.26580000  0.12324000  0.23475000  1.0
  N  N37  1  0.73420000  0.87677000  0.76525000  1.0
  N  N38  1  0.39782000  0.23720000  0.14367000  1.0
  N  N39  1  0.60218000  0.76281000  0.85632000  1.0
  Cl  Cl40  1  0.37014000  0.04366000  0.64250000  1.0
  Cl  Cl41  1  0.62985000  0.95634000  0.35750000  1.0
  Cl  Cl42  1  0.95074000  0.20393000  0.51892000  1.0
  Cl  Cl43  1  0.04926000  0.79608000  0.48107000  1.0
