# generated using pymatgen
data_Sm2H14C16N2O17
_symmetry_space_group_name_H-M   'P 1'
_cell_length_a   8.43659000
_cell_length_b   10.45530000
_cell_length_c   14.40800000
_cell_angle_alpha   85.19240000
_cell_angle_beta   86.84950000
_cell_angle_gamma   75.10320000
_symmetry_Int_Tables_number   1
_chemical_formula_structural   Sm2H14C16N2O17
_chemical_formula_sum   'Sm4 H28 C32 N4 O34'
_cell_volume   1223.11568618
_cell_formula_units_Z   2
loop_
 _symmetry_equiv_pos_site_id
 _symmetry_equiv_pos_as_xyz
  1  'x, y, z'
loop_
 _atom_site_type_symbol
 _atom_site_label
 _atom_site_symmetry_multiplicity
 _atom_site_fract_x
 _atom_site_fract_y
 _atom_site_fract_z
 _atom_site_occupancy
  Sm  Sm0  1  0.49072000  0.97212000  0.71796000  1.0
  Sm  Sm1  1  0.50928000  0.02788000  0.28204000  1.0
  Sm  Sm2  1  0.82227000  0.79577000  0.92734000  1.0
  Sm  Sm3  1  0.17774000  0.20423000  0.07265000  1.0
  H  H4  1  0.52083000  0.30015000  0.57204000  1.0
  H  H5  1  0.47916000  0.69985000  0.42796000  1.0
  H  H6  1  0.56532000  0.52837000  0.57262000  1.0
  H  H7  1  0.43467000  0.47164000  0.42738000  1.0
  H  H8  1  0.28637000  0.57631000  0.83273000  1.0
  H  H9  1  0.71362000  0.42369000  0.16728000  1.0
  H  H10  1  0.22800000  0.86875000  0.46461000  1.0
  H  H11  1  0.77199000  0.13125000  0.53539000  1.0
  H  H12  1  0.16992000  0.86411000  0.63355000  1.0
  H  H13  1  0.83009000  0.13588000  0.36644000  1.0
  H  H14  1  0.75869000  0.70264000  0.59269000  1.0
  H  H15  1  0.24131000  0.29736000  0.40731000  1.0
  H  H16  1  0.25094000  0.36438000  0.82815000  1.0
  H  H17  1  0.74906000  0.63562000  0.17185000  1.0
  H  H18  1  0.83010000  0.71037000  0.43298000  1.0
  H  H19  1  0.16989000  0.28963000  0.56702000  1.0
  H  H20  1  0.13866000  0.93470000  0.77339000  1.0
  H  H21  1  0.86135000  0.06530000  0.22661000  1.0
  H  H22  1  0.12340000  0.08279000  0.73225000  1.0
  H  H23  1  0.87660000  0.91721000  0.26776000  1.0
  H  H24  1  0.74267000  0.09448000  0.81419000  1.0
  H  H25  1  0.25733000  0.90552000  0.18581000  1.0
  H  H26  1  0.78252000  0.13387000  0.70953000  1.0
  H  H27  1  0.21748000  0.86614000  0.29047000  1.0
  H  H28  1  0.53274000  0.69499000  0.87520000  1.0
  H  H29  1  0.46727000  0.30501000  0.12480000  1.0
  H  H30  1  0.65247000  0.56872000  0.92479000  1.0
  H  H31  1  0.34753000  0.43127000  0.07522000  1.0
  C  C32  1  0.38135000  0.31314000  0.70272000  1.0
  C  C33  1  0.61865000  0.68686000  0.29728000  1.0
  C  C34  1  0.47197000  0.36425000  0.62824000  1.0
  C  C35  1  0.52802000  0.63575000  0.37176000  1.0
  C  C36  1  0.49673000  0.48886000  0.62937000  1.0
  C  C37  1  0.50327000  0.51115000  0.37063000  1.0
  C  C38  1  0.43423000  0.56847000  0.70446000  1.0
  C  C39  1  0.56576000  0.43153000  0.29554000  1.0
  C  C40  1  0.34487000  0.51857000  0.77509000  1.0
  C  C41  1  0.65512000  0.48143000  0.22491000  1.0
  C  C42  1  0.45727000  0.70351000  0.70707000  1.0
  C  C43  1  0.54273000  0.29649000  0.29293000  1.0
  C  C44  1  0.03151000  0.78609000  0.43292000  1.0
  C  C45  1  0.96847000  0.21391000  0.56708000  1.0
  C  C46  1  0.13221000  0.82520000  0.49562000  1.0
  C  C47  1  0.86779000  0.17480000  0.50438000  1.0
  C  C48  1  0.09704000  0.82376000  0.58953000  1.0
  C  C49  1  0.90296000  0.17625000  0.41046000  1.0
  C  C50  1  0.96070000  0.78031000  0.62909000  1.0
  C  C51  1  0.03930000  0.21969000  0.37090000  1.0
  C  C52  1  0.86883000  0.73402000  0.56947000  1.0
  C  C53  1  0.13117000  0.26598000  0.43053000  1.0
  C  C54  1  0.90826000  0.80099000  0.72760000  1.0
  C  C55  1  0.09175000  0.19901000  0.27240000  1.0
  C  C56  1  0.46799000  0.01990000  0.95023000  1.0
  C  C57  1  0.53203000  0.98008000  0.04977000  1.0
  C  C58  1  0.59279000  0.99244000  0.50090000  1.0
  C  C59  1  0.40721000  0.00757000  0.49909000  1.0
  C  C60  1  0.93884000  0.05991000  0.97466000  1.0
  C  C61  1  0.06118000  0.94007000  0.02534000  1.0
  C  C62  1  0.96309000  0.51258000  0.04994000  1.0
  C  C63  1  0.03690000  0.48744000  0.95005000  1.0
  N  N64  1  0.32037000  0.39653000  0.77318000  1.0
  N  N65  1  0.67963000  0.60346000  0.22682000  1.0
  N  N66  1  0.90802000  0.73290000  0.47702000  1.0
  N  N67  1  0.09198000  0.26710000  0.52298000  1.0
  O  O68  1  0.35067000  0.20061000  0.70703000  1.0
  O  O69  1  0.64932000  0.79938000  0.29297000  1.0
  O  O70  1  0.19786000  0.00543000  0.76449000  1.0
  O  O71  1  0.80214000  0.99457000  0.23552000  1.0
  O  O72  1  0.70076000  0.10131000  0.75066000  1.0
  O  O73  1  0.29924000  0.89869000  0.24934000  1.0
  O  O74  1  0.50318000  0.76199000  0.63373000  1.0
  O  O75  1  0.49682000  0.23801000  0.36628000  1.0
  O  O76  1  0.61134000  0.66415000  0.92742000  1.0
  O  O77  1  0.38866000  0.33585000  0.07258000  1.0
  O  O78  1  0.42754000  0.76086000  0.78422000  1.0
  O  O79  1  0.57245000  0.23914000  0.21579000  1.0
  O  O80  1  0.04452000  0.79748000  0.34515000  1.0
  O  O81  1  0.95546000  0.20253000  0.65485000  1.0
  O  O82  1  0.76115000  0.79761000  0.75637000  1.0
  O  O83  1  0.23886000  0.20239000  0.24363000  1.0
  O  O84  1  0.00617000  0.82424000  0.78460000  1.0
  O  O85  1  0.99384000  0.17576000  0.21541000  1.0
  O  O86  1  0.54966000  0.95024000  0.88625000  1.0
  O  O87  1  0.45033000  0.04976000  0.11375000  1.0
  O  O88  1  0.34422000  0.11497000  0.93863000  1.0
  O  O89  1  0.65578000  0.88503000  0.06137000  1.0
  O  O90  1  0.65068000  0.99285000  0.58062000  1.0
  O  O91  1  0.34931000  0.00716000  0.41938000  1.0
  O  O92  1  0.67259000  0.98138000  0.42450000  1.0
  O  O93  1  0.32739000  0.01863000  0.57550000  1.0
  O  O94  1  0.83659000  0.03036000  0.92385000  1.0
  O  O95  1  0.16343000  0.96964000  0.07616000  1.0
  O  O96  1  0.95022000  0.17480000  0.98827000  1.0
  O  O97  1  0.04980000  0.82520000  0.01173000  1.0
  O  O98  1  0.86381000  0.62472000  0.06037000  1.0
  O  O99  1  0.13620000  0.37527000  0.93963000  1.0
  O  O100  1  0.00569000  0.41974000  0.11257000  1.0
  O  O101  1  0.99431000  0.58026000  0.88743000  1.0
