# generated using pymatgen
data_AlH12C27N7O6
_symmetry_space_group_name_H-M   'P 1'
_cell_length_a   3.91975000
_cell_length_b   17.92616942
_cell_length_c   18.13980000
_cell_angle_alpha   118.77305179
_cell_angle_beta   94.12270000
_cell_angle_gamma   95.35958305
_symmetry_Int_Tables_number   1
_chemical_formula_structural   AlH12C27N7O6
_chemical_formula_sum   'Al1 H12 C27 N7 O6'
_cell_volume   1102.33953814
_cell_formula_units_Z   1
loop_
 _symmetry_equiv_pos_site_id
 _symmetry_equiv_pos_as_xyz
  1  'x, y, z'
loop_
 _atom_site_type_symbol
 _atom_site_label
 _atom_site_symmetry_multiplicity
 _atom_site_fract_x
 _atom_site_fract_y
 _atom_site_fract_z
 _atom_site_occupancy
  Al  Al0  1  0.99186000  0.00077000  0.50342000  1.0
  H  H1  1  0.70630000  0.31768000  0.89696000  1.0
  H  H2  1  0.30752000  0.09105000  0.19188000  1.0
  H  H3  1  0.97182000  0.60538000  0.41291000  1.0
  H  H4  1  0.89948000  0.30662000  0.41305000  1.0
  H  H5  1  0.85002000  0.22430000  0.49229000  1.0
  H  H6  1  0.21606000  0.01353000  0.27488000  1.0
  H  H7  1  0.11069000  0.76661000  0.49216000  1.0
  H  H8  1  0.52549000  0.76003000  0.27633000  1.0
  H  H9  1  0.34320000  0.59984000  0.19332000  1.0
  H  H10  1  0.67764000  0.07787000  0.89769000  1.0
  H  H11  1  0.63013000  0.99873000  0.73858000  1.0
  H  H12  1  0.60177000  0.23776000  0.73766000  1.0
  C  C13  1  0.56314000  0.06652000  0.63459000  1.0
  C  C14  1  0.50282000  0.06690000  0.43631000  1.0
  C  C15  1  0.40763000  0.86782000  0.43705000  1.0
  C  C16  1  0.68080000  0.24777000  0.86128000  1.0
  C  C17  1  0.69574000  0.20216000  0.90610000  1.0
  C  C18  1  0.41758000  0.12019000  0.25829000  1.0
  C  C19  1  0.60799000  0.20327000  0.29793000  1.0
  C  C20  1  0.14805000  0.59366000  0.29857000  1.0
  C  C21  1  0.08852000  0.64027000  0.38356000  1.0
  C  C22  1  0.75526000  0.24196000  0.38337000  1.0
  C  C23  1  0.72472000  0.19671000  0.42725000  1.0
  C  C24  1  0.52941000  0.11440000  0.38816000  1.0
  C  C25  1  0.37019000  0.07704000  0.30402000  1.0
  C  C26  1  0.16830000  0.72921000  0.42747000  1.0
  C  C27  1  0.32671000  0.77235000  0.38883000  1.0
  C  C28  1  0.39861000  0.72574000  0.30510000  1.0
  C  C29  1  0.30113000  0.63704000  0.25937000  1.0
  C  C30  1  0.66901000  0.11202000  0.86172000  1.0
  C  C31  1  0.63937000  0.06834000  0.77369000  1.0
  C  C32  1  0.61149000  0.11376000  0.72910000  1.0
  C  C33  1  0.62661000  0.20345000  0.77318000  1.0
  C  C34  1  0.90972000  0.37630000  0.12259000  1.0
  C  C35  1  0.68002000  0.24443000  0.12209000  1.0
  C  C36  1  0.73894000  0.24878000  0.99942000  1.0
  C  C37  1  0.04117000  0.49976000  0.25118000  1.0
  C  C38  1  0.85279000  0.37766000  0.25624000  1.0
  C  C39  1  0.66505000  0.24991000  0.25058000  1.0
  N  N40  1  0.81408000  0.33277000  0.16691000  1.0
  N  N41  1  0.63922000  0.20331000  0.03756000  1.0
  N  N42  1  0.87440000  0.33269000  0.03812000  1.0
  N  N43  1  0.03297000  0.46014000  0.16622000  1.0
  N  N44  1  0.95802000  0.46216000  0.29758000  1.0
  N  N45  1  0.59844000  0.20394000  0.16529000  1.0
  N  N46  1  0.78400000  0.33462000  0.29746000  1.0
  O  O47  1  0.65958000  0.90459000  0.41993000  1.0
  O  O48  1  0.76289000  0.01117000  0.59757000  1.0
  O  O49  1  0.75789000  0.08372000  0.49267000  1.0
  O  O50  1  0.21504000  0.90749000  0.49355000  1.0
  O  O51  1  0.23303000  0.01289000  0.41933000  1.0
  O  O52  1  0.32408000  0.08457000  0.59683000  1.0
