# generated using pymatgen
data_AgH6(C5O)2
_symmetry_space_group_name_H-M   'P 1'
_cell_length_a   9.33294000
_cell_length_b   10.21600000
_cell_length_c   10.21600000
_cell_angle_alpha   66.46670000
_cell_angle_beta   70.46560000
_cell_angle_gamma   70.46550000
_symmetry_Int_Tables_number   1
_chemical_formula_structural   AgH6(C5O)2
_chemical_formula_sum   'Ag4 H24 C40 O8'
_cell_volume   818.57485430
_cell_formula_units_Z   4
loop_
 _symmetry_equiv_pos_site_id
 _symmetry_equiv_pos_as_xyz
  1  'x, y, z'
loop_
 _atom_site_type_symbol
 _atom_site_label
 _atom_site_symmetry_multiplicity
 _atom_site_fract_x
 _atom_site_fract_y
 _atom_site_fract_z
 _atom_site_occupancy
  Ag  Ag0  1  0.09110000  0.37374000  0.65937000  1.0
  Ag  Ag1  1  0.40890000  0.34063000  0.62626000  1.0
  Ag  Ag2  1  0.90890000  0.62626000  0.34063000  1.0
  Ag  Ag3  1  0.59110000  0.65937000  0.37374000  1.0
  H  H4  1  0.03108000  0.08181000  0.13343000  1.0
  H  H5  1  0.46892000  0.86656000  0.91819000  1.0
  H  H6  1  0.96892000  0.91819000  0.86656000  1.0
  H  H7  1  0.53109000  0.13343000  0.08181000  1.0
  H  H8  1  0.13604000  0.75276000  0.55653000  1.0
  H  H9  1  0.36397000  0.44347000  0.24724000  1.0
  H  H10  1  0.86396000  0.24724000  0.44347000  1.0
  H  H11  1  0.63603000  0.55653000  0.75276000  1.0
  H  H12  1  0.91653000  0.76981000  0.76832000  1.0
  H  H13  1  0.58347000  0.23168000  0.23019000  1.0
  H  H14  1  0.08347000  0.23019000  0.23168000  1.0
  H  H15  1  0.41653000  0.76832000  0.76981000  1.0
  H  H16  1  0.64898000  0.91445000  0.73167000  1.0
  H  H17  1  0.85102000  0.26833000  0.08555000  1.0
  H  H18  1  0.35102000  0.08555000  0.26833000  1.0
  H  H19  1  0.14898000  0.73167000  0.91445000  1.0
  H  H20  1  0.60450000  0.02820000  0.47945000  1.0
  H  H21  1  0.89550000  0.52055000  0.97180000  1.0
  H  H22  1  0.39550000  0.97180000  0.52055000  1.0
  H  H23  1  0.10450000  0.47945000  0.02820000  1.0
  H  H24  1  0.82160000  0.99792000  0.26685000  1.0
  H  H25  1  0.67840000  0.73315000  0.00208000  1.0
  H  H26  1  0.17840000  0.00208000  0.73315000  1.0
  H  H27  1  0.32160000  0.26685000  0.99792000  1.0
  C  C28  1  0.25000000  0.12061000  0.87939000  1.0
  C  C29  1  0.75000000  0.87939000  0.12061000  1.0
  C  C30  1  0.25000000  0.98684000  0.01316000  1.0
  C  C31  1  0.75000000  0.01316000  0.98684000  1.0
  C  C32  1  0.12606000  0.98442000  0.13644000  1.0
  C  C33  1  0.37395000  0.86356000  0.01558000  1.0
  C  C34  1  0.87394000  0.01557000  0.86356000  1.0
  C  C35  1  0.62606000  0.13644000  0.98442000  1.0
  C  C36  1  0.12488000  0.86222000  0.26393000  1.0
  C  C37  1  0.37512000  0.73607000  0.13778000  1.0
  C  C38  1  0.87512000  0.13778000  0.73607000  1.0
  C  C39  1  0.62488000  0.26393000  0.86222000  1.0
  C  C40  1  0.25000000  0.73722000  0.26278000  1.0
  C  C41  1  0.75000000  0.26278000  0.73722000  1.0
  C  C42  1  0.25000000  0.60362000  0.39638000  1.0
  C  C43  1  0.75000000  0.39638000  0.60362000  1.0
  C  C44  1  0.99489000  0.87026000  0.39485000  1.0
  C  C45  1  0.50510000  0.60515000  0.12974000  1.0
  C  C46  1  0.00511000  0.12974000  0.60515000  1.0
  C  C47  1  0.49490000  0.39485000  0.87026000  1.0
  C  C48  1  0.01887000  0.80755000  0.53823000  1.0
  C  C49  1  0.48113000  0.46177000  0.19245000  1.0
  C  C50  1  0.98113000  0.19245000  0.46177000  1.0
  C  C51  1  0.51887000  0.53823000  0.80755000  1.0
  C  C52  1  0.89473000  0.81957000  0.65846000  1.0
  C  C53  1  0.60528000  0.34154000  0.18043000  1.0
  C  C54  1  0.10527000  0.18043000  0.34154000  1.0
  C  C55  1  0.39472000  0.65846000  0.81958000  1.0
  C  C56  1  0.74501000  0.89888000  0.63865000  1.0
  C  C57  1  0.75500000  0.36135000  0.10112000  1.0
  C  C58  1  0.25499000  0.10113000  0.36135000  1.0
  C  C59  1  0.24500000  0.63865000  0.89888000  1.0
  C  C60  1  0.72008000  0.96405000  0.49688000  1.0
  C  C61  1  0.77992000  0.50312000  0.03595000  1.0
  C  C62  1  0.27992000  0.03595000  0.50312000  1.0
  C  C63  1  0.22008000  0.49688000  0.96405000  1.0
  C  C64  1  0.84308000  0.94837000  0.37673000  1.0
  C  C65  1  0.65692000  0.62327000  0.05163000  1.0
  C  C66  1  0.15692000  0.05163000  0.62327000  1.0
  C  C67  1  0.34308000  0.37673000  0.94837000  1.0
  O  O68  1  0.12114000  0.21732000  0.87345000  1.0
  O  O69  1  0.37886000  0.12655000  0.78268000  1.0
  O  O70  1  0.87886000  0.78267000  0.12655000  1.0
  O  O71  1  0.62114000  0.87345000  0.21732000  1.0
  O  O72  1  0.14430000  0.53430000  0.43292000  1.0
  O  O73  1  0.35570000  0.56708000  0.46570000  1.0
  O  O74  1  0.85570000  0.46570000  0.56708000  1.0
  O  O75  1  0.64430000  0.43292000  0.53430000  1.0
