# generated using pymatgen
data_ZnH10C12(N2Cl)2
_symmetry_space_group_name_H-M   'P 1'
_cell_length_a   7.92410000
_cell_length_b   8.17494000
_cell_length_c   21.47160000
_cell_angle_alpha   90.00000000
_cell_angle_beta   90.00000000
_cell_angle_gamma   90.00000000
_symmetry_Int_Tables_number   1
_chemical_formula_structural   ZnH10C12(N2Cl)2
_chemical_formula_sum   'Zn4 H40 C48 N16 Cl8'
_cell_volume   1390.90967937
_cell_formula_units_Z   4
loop_
 _symmetry_equiv_pos_site_id
 _symmetry_equiv_pos_as_xyz
  1  'x, y, z'
loop_
 _atom_site_type_symbol
 _atom_site_label
 _atom_site_symmetry_multiplicity
 _atom_site_fract_x
 _atom_site_fract_y
 _atom_site_fract_z
 _atom_site_occupancy
  Zn  Zn0  1  0.50637000  0.70938000  0.62033000  1.0
  Zn  Zn1  1  0.49363000  0.20938000  0.37967000  1.0
  Zn  Zn2  1  0.00637000  0.70938000  0.87967000  1.0
  Zn  Zn3  1  0.99363000  0.20938000  0.12033000  1.0
  H  H4  1  0.42794000  0.38804000  0.56679000  1.0
  H  H5  1  0.57206000  0.88804000  0.43321000  1.0
  H  H6  1  0.92794000  0.38804000  0.93321000  1.0
  H  H7  1  0.07206000  0.88804000  0.06679000  1.0
  H  H8  1  0.30299000  0.12443000  0.60146000  1.0
  H  H9  1  0.69702000  0.62443000  0.39854000  1.0
  H  H10  1  0.80298000  0.12443000  0.89854000  1.0
  H  H11  1  0.19701000  0.62443000  0.10146000  1.0
  H  H12  1  0.25450000  0.07919000  0.71673000  1.0
  H  H13  1  0.74549000  0.57919000  0.28327000  1.0
  H  H14  1  0.75451000  0.07919000  0.78327000  1.0
  H  H15  1  0.24549000  0.57919000  0.21673000  1.0
  H  H16  1  0.46042000  0.56137000  0.74836000  1.0
  H  H17  1  0.53958000  0.06137000  0.25164000  1.0
  H  H18  1  0.96042000  0.56137000  0.75164000  1.0
  H  H19  1  0.03958000  0.06137000  0.24836000  1.0
  H  H20  1  0.25177000  0.18867000  0.82316000  1.0
  H  H21  1  0.74823000  0.68867000  0.17684000  1.0
  H  H22  1  0.75177000  0.18867000  0.67684000  1.0
  H  H23  1  0.24823000  0.68867000  0.32316000  1.0
  H  H24  1  0.55650000  0.50004000  0.93783000  1.0
  H  H25  1  0.44350000  0.00004000  0.06217000  1.0
  H  H26  1  0.05650000  0.50004000  0.56217000  1.0
  H  H27  1  0.94350000  0.00004000  0.43783000  1.0
  H  H28  1  0.31647000  0.28825000  0.18750000  1.0
  H  H29  1  0.68353000  0.78825000  0.81250000  1.0
  H  H30  1  0.81647000  0.28824000  0.31250000  1.0
  H  H31  1  0.18353000  0.78825000  0.68750000  1.0
  H  H32  1  0.59631000  0.41112000  0.16206000  1.0
  H  H33  1  0.40369000  0.91112000  0.83794000  1.0
  H  H34  1  0.09631000  0.41112000  0.33794000  1.0
  H  H35  1  0.90369000  0.91112000  0.66206000  1.0
  H  H36  1  0.66110000  0.48196000  0.05090000  1.0
  H  H37  1  0.33890000  0.98196000  0.94909000  1.0
  H  H38  1  0.16110000  0.48196000  0.44909000  1.0
  H  H39  1  0.83890000  0.98196000  0.55091000  1.0
  H  H40  1  0.17309000  0.28489000  0.00140000  1.0
  H  H41  1  0.82691000  0.78490000  0.99860000  1.0
  H  H42  1  0.67309000  0.28490000  0.49860000  1.0
  H  H43  1  0.32691000  0.78489000  0.50140000  1.0
  C  C44  1  0.40523000  0.36363000  0.61604000  1.0
  C  C45  1  0.59477000  0.86363000  0.38396000  1.0
  C  C46  1  0.90523000  0.36363000  0.88396000  1.0
  C  C47  1  0.09477000  0.86363000  0.11604000  1.0
  C  C48  1  0.33563000  0.21680000  0.63590000  1.0
  C  C49  1  0.66437000  0.71680000  0.36410000  1.0
  C  C50  1  0.83563000  0.21680000  0.86410000  1.0
  C  C51  1  0.16437000  0.71680000  0.13590000  1.0
  C  C52  1  0.30965000  0.19244000  0.69932000  1.0
  C  C53  1  0.69035000  0.69244000  0.30068000  1.0
  C  C54  1  0.80965000  0.19244000  0.80068000  1.0
  C  C55  1  0.19035000  0.69244000  0.19932000  1.0
  C  C56  1  0.35778000  0.31471000  0.74166000  1.0
  C  C57  1  0.64222000  0.81470000  0.25834000  1.0
  C  C58  1  0.85778000  0.31471000  0.75834000  1.0
  C  C59  1  0.14222000  0.81471000  0.24166000  1.0
  C  C60  1  0.42531000  0.46045000  0.71772000  1.0
  C  C61  1  0.57469000  0.96045000  0.28228000  1.0
  C  C62  1  0.92531000  0.46045000  0.78228000  1.0
  C  C63  1  0.07469000  0.96045000  0.21772000  1.0
  C  C64  1  0.33568000  0.28869000  0.80825000  1.0
  C  C65  1  0.66432000  0.78869000  0.19175000  1.0
  C  C66  1  0.83568000  0.28869000  0.69175000  1.0
  C  C67  1  0.16432000  0.78869000  0.30825000  1.0
  C  C68  1  0.45842000  0.41141000  0.95095000  1.0
  C  C69  1  0.54158000  0.91141000  0.04905000  1.0
  C  C70  1  0.95842000  0.41141000  0.54905000  1.0
  C  C71  1  0.04158000  0.91141000  0.45095000  1.0
  C  C72  1  0.35073000  0.31680000  0.13950000  1.0
  C  C73  1  0.64928000  0.81680000  0.86050000  1.0
  C  C74  1  0.85072000  0.31680000  0.36050000  1.0
  C  C75  1  0.14928000  0.81680000  0.63950000  1.0
  C  C76  1  0.50516000  0.38744000  0.12517000  1.0
  C  C77  1  0.49484000  0.88744000  0.87483000  1.0
  C  C78  1  0.00516000  0.38744000  0.37483000  1.0
  C  C79  1  0.99484000  0.88744000  0.62517000  1.0
  C  C80  1  0.54198000  0.42392000  0.06318000  1.0
  C  C81  1  0.45802000  0.92393000  0.93682000  1.0
  C  C82  1  0.04198000  0.42392000  0.43682000  1.0
  C  C83  1  0.95802000  0.92393000  0.56318000  1.0
  C  C84  1  0.42518000  0.38211000  0.01678000  1.0
  C  C85  1  0.57482000  0.88211000  0.98322000  1.0
  C  C86  1  0.92518000  0.38211000  0.48322000  1.0
  C  C87  1  0.07482000  0.88211000  0.51678000  1.0
  C  C88  1  0.27094000  0.31343000  0.03537000  1.0
  C  C89  1  0.72906000  0.81343000  0.96463000  1.0
  C  C90  1  0.77094000  0.31343000  0.46463000  1.0
  C  C91  1  0.22906000  0.81343000  0.53537000  1.0
  N  N92  1  0.44679000  0.48387000  0.65645000  1.0
  N  N93  1  0.55321000  0.98387000  0.34355000  1.0
  N  N94  1  0.94679000  0.48387000  0.84355000  1.0
  N  N95  1  0.05320000  0.98387000  0.15645000  1.0
  N  N96  1  0.41379000  0.37824000  0.84882000  1.0
  N  N97  1  0.58621000  0.87824000  0.15118000  1.0
  N  N98  1  0.91379000  0.37824000  0.65118000  1.0
  N  N99  1  0.08621000  0.87824000  0.34882000  1.0
  N  N100  1  0.37280000  0.33321000  0.90921000  1.0
  N  N101  1  0.62720000  0.83321000  0.09079000  1.0
  N  N102  1  0.87280000  0.33321000  0.59079000  1.0
  N  N103  1  0.12720000  0.83321000  0.40921000  1.0
  N  N104  1  0.23404000  0.28420000  0.09523000  1.0
  N  N105  1  0.76596000  0.78420000  0.90477000  1.0
  N  N106  1  0.73404000  0.28420000  0.40477000  1.0
  N  N107  1  0.26596000  0.78420000  0.59523000  1.0
  Cl  Cl108  1  0.58957000  0.86680000  0.69958000  1.0
  Cl  Cl109  1  0.41043000  0.36680000  0.30042000  1.0
  Cl  Cl110  1  0.08957000  0.86680000  0.80042000  1.0
  Cl  Cl111  1  0.91043000  0.36680000  0.19958000  1.0
  Cl  Cl112  1  0.63920000  0.68007000  0.52997000  1.0
  Cl  Cl113  1  0.36080000  0.18007000  0.47003000  1.0
  Cl  Cl114  1  0.13920000  0.68007000  0.97003000  1.0
  Cl  Cl115  1  0.86080000  0.18007000  0.02997000  1.0
