# generated using pymatgen
data_ZnH16C18N4(OF)4
_symmetry_space_group_name_H-M   'P 1'
_cell_length_a   8.57520000
_cell_length_b   8.57518000
_cell_length_c   13.25550000
_cell_angle_alpha   82.90390000
_cell_angle_beta   82.90370000
_cell_angle_gamma   88.79360000
_symmetry_Int_Tables_number   1
_chemical_formula_structural   ZnH16C18N4(OF)4
_chemical_formula_sum   'Zn2 H32 C36 N8 O8 F8'
_cell_volume   959.83639560
_cell_formula_units_Z   2
loop_
 _symmetry_equiv_pos_site_id
 _symmetry_equiv_pos_as_xyz
  1  'x, y, z'
loop_
 _atom_site_type_symbol
 _atom_site_label
 _atom_site_symmetry_multiplicity
 _atom_site_fract_x
 _atom_site_fract_y
 _atom_site_fract_z
 _atom_site_occupancy
  Zn  Zn0  1  0.99986000  0.00014000  0.25000000  1.0
  Zn  Zn1  1  0.00013000  0.99986000  0.75000000  1.0
  H  H2  1  0.13420000  0.22673000  0.39347000  1.0
  H  H3  1  0.77327000  0.86580000  0.10653000  1.0
  H  H4  1  0.86580000  0.77327000  0.60653000  1.0
  H  H5  1  0.22673000  0.13420000  0.89347000  1.0
  H  H6  1  0.94892000  0.30842000  0.56832000  1.0
  H  H7  1  0.69158000  0.05108000  0.93168000  1.0
  H  H8  1  0.05108000  0.69158000  0.43168000  1.0
  H  H9  1  0.30842000  0.94892000  0.06832000  1.0
  H  H10  1  0.68799000  0.02188000  0.41188000  1.0
  H  H11  1  0.97812000  0.31201000  0.08812000  1.0
  H  H12  1  0.31201000  0.97812000  0.58812000  1.0
  H  H13  1  0.02188000  0.68799000  0.91188000  1.0
  H  H14  1  0.67437000  0.20542000  0.65814000  1.0
  H  H15  1  0.79458000  0.32563000  0.84186000  1.0
  H  H16  1  0.32562000  0.79458000  0.34186000  1.0
  H  H17  1  0.20542000  0.67437000  0.15814000  1.0
  H  H18  1  0.55697000  0.10599000  0.58685000  1.0
  H  H19  1  0.89401000  0.44303000  0.91314000  1.0
  H  H20  1  0.44303000  0.89401000  0.41314000  1.0
  H  H21  1  0.10599000  0.55697000  0.08686000  1.0
  H  H22  1  0.50701000  0.19358000  0.11723000  1.0
  H  H23  1  0.80642000  0.49299000  0.38277000  1.0
  H  H24  1  0.49299000  0.80642000  0.88277000  1.0
  H  H25  1  0.19358000  0.50701000  0.61723000  1.0
  H  H26  1  0.51608000  0.08605000  0.23935000  1.0
  H  H27  1  0.91395000  0.48392000  0.26065000  1.0
  H  H28  1  0.48392000  0.91395000  0.76065000  1.0
  H  H29  1  0.08605000  0.51608000  0.73935000  1.0
  H  H30  1  0.48554000  0.29589000  0.22637000  1.0
  H  H31  1  0.70411000  0.51446000  0.27363000  1.0
  H  H32  1  0.51446000  0.70411000  0.77363000  1.0
  H  H33  1  0.29589000  0.48554000  0.72637000  1.0
  C  C34  1  0.01392000  0.19741000  0.42342000  1.0
  C  C35  1  0.80259000  0.98608000  0.07658000  1.0
  C  C36  1  0.98608000  0.80259000  0.57658000  1.0
  C  C37  1  0.19741000  0.01392000  0.92342000  1.0
  C  C38  1  0.92408000  0.24092000  0.50838000  1.0
  C  C39  1  0.75908000  0.07592000  0.99162000  1.0
  C  C40  1  0.07592000  0.75908000  0.49162000  1.0
  C  C41  1  0.24092000  0.92408000  0.00838000  1.0
  C  C42  1  0.78317000  0.09103000  0.42937000  1.0
  C  C43  1  0.90897000  0.21683000  0.07063000  1.0
  C  C44  1  0.21683000  0.90897000  0.57063000  1.0
  C  C45  1  0.09103000  0.78316000  0.92937000  1.0
  C  C46  1  0.63924000  0.20305000  0.58175000  1.0
  C  C47  1  0.79695000  0.36076000  0.91825000  1.0
  C  C48  1  0.36076000  0.79695000  0.41825000  1.0
  C  C49  1  0.20305000  0.63924000  0.08175000  1.0
  C  C50  1  0.56406000  0.35543000  0.54277000  1.0
  C  C51  1  0.64457000  0.43594000  0.95723000  1.0
  C  C52  1  0.43594000  0.64457000  0.45723000  1.0
  C  C53  1  0.35543000  0.56406000  0.04277000  1.0
  C  C54  1  0.60625000  0.49931000  0.57007000  1.0
  C  C55  1  0.50069000  0.39375000  0.92993000  1.0
  C  C56  1  0.39375000  0.50069000  0.42993000  1.0
  C  C57  1  0.49931000  0.60625000  0.07007000  1.0
  C  C58  1  0.54339000  0.64015000  0.52830000  1.0
  C  C59  1  0.35985000  0.45661000  0.97170000  1.0
  C  C60  1  0.45661000  0.35985000  0.47170000  1.0
  C  C61  1  0.64015000  0.54339000  0.02830000  1.0
  C  C62  1  0.28182000  0.16450000  0.20704000  1.0
  C  C63  1  0.83550000  0.71818000  0.29296000  1.0
  C  C64  1  0.71818000  0.83550000  0.79296000  1.0
  C  C65  1  0.16450000  0.28182000  0.70704000  1.0
  C  C66  1  0.45847000  0.18560000  0.19846000  1.0
  C  C67  1  0.81440000  0.54152000  0.30154000  1.0
  C  C68  1  0.54153000  0.81440000  0.80154000  1.0
  C  C69  1  0.18560000  0.45848000  0.69846000  1.0
  N  N70  1  0.92474000  0.10395000  0.37509000  1.0
  N  N71  1  0.89605000  0.07526000  0.12491000  1.0
  N  N72  1  0.07526000  0.89606000  0.62491000  1.0
  N  N73  1  0.10395000  0.92474000  0.87509000  1.0
  N  N74  1  0.77884000  0.17195000  0.51133000  1.0
  N  N75  1  0.82805000  0.22116000  0.98867000  1.0
  N  N76  1  0.22116000  0.82805000  0.48867000  1.0
  N  N77  1  0.17195000  0.77884000  0.01133000  1.0
  O  O78  1  0.23253000  0.02130000  0.23644000  1.0
  O  O79  1  0.97870000  0.76747000  0.26356000  1.0
  O  O80  1  0.76747000  0.97870000  0.76356000  1.0
  O  O81  1  0.02130000  0.23253000  0.73644000  1.0
  O  O82  1  0.19361000  0.27857000  0.18512000  1.0
  O  O83  1  0.72143000  0.80639000  0.31488000  1.0
  O  O84  1  0.80639000  0.72143000  0.81488000  1.0
  O  O85  1  0.27857000  0.19361000  0.68512000  1.0
  F  F86  1  0.71151000  0.50337000  0.63827000  1.0
  F  F87  1  0.49663000  0.28849000  0.86173000  1.0
  F  F88  1  0.28849000  0.49663000  0.36173000  1.0
  F  F89  1  0.50337000  0.71151000  0.13827000  1.0
  F  F90  1  0.58829000  0.77686000  0.55813000  1.0
  F  F91  1  0.22314000  0.41171000  0.94187000  1.0
  F  F92  1  0.41171000  0.22314000  0.44187000  1.0
  F  F93  1  0.77687000  0.58829000  0.05813000  1.0
