# generated using pymatgen
data_CuH6(C2O3)2
_symmetry_space_group_name_H-M   'P 1'
_cell_length_a   4.73884000
_cell_length_b   17.81650000
_cell_length_c   17.81760804
_cell_angle_alpha   88.99747678
_cell_angle_beta   82.36040057
_cell_angle_gamma   82.36690000
_symmetry_Int_Tables_number   1
_chemical_formula_structural   CuH6(C2O3)2
_chemical_formula_sum   'Cu8 H48 C32 O48'
_cell_volume   1477.76825188
_cell_formula_units_Z   8
loop_
 _symmetry_equiv_pos_site_id
 _symmetry_equiv_pos_as_xyz
  1  'x, y, z'
loop_
 _atom_site_type_symbol
 _atom_site_label
 _atom_site_symmetry_multiplicity
 _atom_site_fract_x
 _atom_site_fract_y
 _atom_site_fract_z
 _atom_site_occupancy
  Cu  Cu0  1  0.72793000  0.96636000  0.26408000  1.0
  Cu  Cu1  1  0.19444000  0.26412000  0.53362000  1.0
  Cu  Cu2  1  0.95841000  0.53365000  0.23590000  1.0
  Cu  Cu3  1  0.99197000  0.23589000  0.96639000  1.0
  Cu  Cu4  1  0.27208000  0.03364000  0.73592000  1.0
  Cu  Cu5  1  0.80555000  0.73588000  0.46638000  1.0
  Cu  Cu6  1  0.04158000  0.46635000  0.76410000  1.0
  Cu  Cu7  1  0.00803000  0.76411000  0.03361000  1.0
  H  H8  1  0.26828000  0.06622000  0.07062000  1.0
  H  H9  1  0.83473000  0.07060000  0.43375000  1.0
  H  H10  1  0.40579000  0.43367000  0.42940000  1.0
  H  H11  1  0.33906000  0.42944000  0.06631000  1.0
  H  H12  1  0.73172000  0.93378000  0.92938000  1.0
  H  H13  1  0.16528000  0.92940000  0.56625000  1.0
  H  H14  1  0.59420000  0.56633000  0.57060000  1.0
  H  H15  1  0.66094000  0.57056000  0.93370000  1.0
  H  H16  1  0.85274000  0.04669000  0.97357000  1.0
  H  H17  1  0.39941000  0.97343000  0.45334000  1.0
  H  H18  1  0.87302000  0.45347000  0.52660000  1.0
  H  H19  1  0.82639000  0.52656000  0.04660000  1.0
  H  H20  1  0.14726000  0.95331000  0.02643000  1.0
  H  H21  1  0.60059000  0.02657000  0.54666000  1.0
  H  H22  1  0.12698000  0.54653000  0.47340000  1.0
  H  H23  1  0.17362000  0.47344000  0.95340000  1.0
  H  H24  1  0.44454000  0.08556000  0.35206000  1.0
  H  H25  1  0.03029000  0.35203000  0.41441000  1.0
  H  H26  1  0.88182000  0.41442000  0.14797000  1.0
  H  H27  1  0.79633000  0.14794000  0.08561000  1.0
  H  H28  1  0.55546000  0.91444000  0.64794000  1.0
  H  H29  1  0.96971000  0.64797000  0.58559000  1.0
  H  H30  1  0.11818000  0.58558000  0.85203000  1.0
  H  H31  1  0.20368000  0.85206000  0.91439000  1.0
  H  H32  1  0.33009000  0.08231000  0.27056000  1.0
  H  H33  1  0.91244000  0.27054000  0.41772000  1.0
  H  H34  1  0.68254000  0.41775000  0.22946000  1.0
  H  H35  1  0.60036000  0.22942000  0.08232000  1.0
  H  H36  1  0.66990000  0.91769000  0.72945000  1.0
  H  H37  1  0.08756000  0.72946000  0.58228000  1.0
  H  H38  1  0.31745000  0.58225000  0.77054000  1.0
  H  H39  1  0.39964000  0.77058000  0.91768000  1.0
  H  H40  1  0.09778000  0.87118000  0.17824000  1.0
  H  H41  1  0.46871000  0.17835000  0.62887000  1.0
  H  H42  1  0.14711000  0.62887000  0.32171000  1.0
  H  H43  1  0.27582000  0.32166000  0.87114000  1.0
  H  H44  1  0.90222000  0.12882000  0.82176000  1.0
  H  H45  1  0.53129000  0.82165000  0.37113000  1.0
  H  H46  1  0.85289000  0.37113000  0.67829000  1.0
  H  H47  1  0.72417000  0.67834000  0.12886000  1.0
  H  H48  1  0.15061000  0.87617000  0.26566000  1.0
  H  H49  1  0.52674000  0.26575000  0.62389000  1.0
  H  H50  1  0.29259000  0.62387000  0.23432000  1.0
  H  H51  1  0.41640000  0.23427000  0.87619000  1.0
  H  H52  1  0.84939000  0.12383000  0.73434000  1.0
  H  H53  1  0.47326000  0.73425000  0.37612000  1.0
  H  H54  1  0.70741000  0.37612000  0.76568000  1.0
  H  H55  1  0.58359000  0.76573000  0.12381000  1.0
  C  C56  1  0.62791000  0.02320000  0.12209000  1.0
  C  C57  1  0.15131000  0.12208000  0.47677000  1.0
  C  C58  1  0.77361000  0.47678000  0.37793000  1.0
  C  C59  1  0.75001000  0.37794000  0.02322000  1.0
  C  C60  1  0.37209000  0.97680000  0.87791000  1.0
  C  C61  1  0.84870000  0.87792000  0.52323000  1.0
  C  C62  1  0.22638000  0.52322000  0.62207000  1.0
  C  C63  1  0.25000000  0.62206000  0.97678000  1.0
  C  C64  1  0.46480000  0.02663000  0.05493000  1.0
  C  C65  1  0.99162000  0.05492000  0.47335000  1.0
  C  C66  1  0.54677000  0.47334000  0.44508000  1.0
  C  C67  1  0.51981000  0.44509000  0.02666000  1.0
  C  C68  1  0.53521000  0.97337000  0.94507000  1.0
  C  C69  1  0.00838000  0.94508000  0.52665000  1.0
  C  C70  1  0.45322000  0.52666000  0.55492000  1.0
  C  C71  1  0.48020000  0.55491000  0.97334000  1.0
  C  C72  1  0.62020000  0.04728000  0.97659000  1.0
  C  C73  1  0.16743000  0.97653000  0.45274000  1.0
  C  C74  1  0.64421000  0.45280000  0.52349000  1.0
  C  C75  1  0.59690000  0.52349000  0.04724000  1.0
  C  C76  1  0.37980000  0.95273000  0.02341000  1.0
  C  C77  1  0.83257000  0.02348000  0.54726000  1.0
  C  C78  1  0.35579000  0.54719000  0.47651000  1.0
  C  C79  1  0.40311000  0.47651000  0.95276000  1.0
  C  C80  1  0.49401000  0.12143000  0.94447000  1.0
  C  C81  1  0.11532000  0.94443000  0.37854000  1.0
  C  C82  1  0.56013000  0.37860000  0.55557000  1.0
  C  C83  1  0.43872000  0.55558000  0.12145000  1.0
  C  C84  1  0.50599000  0.87857000  0.05553000  1.0
  C  C85  1  0.88468000  0.05557000  0.62146000  1.0
  C  C86  1  0.43987000  0.62140000  0.44443000  1.0
  C  C87  1  0.56128000  0.44442000  0.87856000  1.0
  O  O88  1  0.80200000  0.06960000  0.12895000  1.0
  O  O89  1  0.37186000  0.12891000  0.43039000  1.0
  O  O90  1  0.00093000  0.43039000  0.37108000  1.0
  O  O91  1  0.93085000  0.37108000  0.06964000  1.0
  O  O92  1  0.19801000  0.93040000  0.87105000  1.0
  O  O93  1  0.62814000  0.87109000  0.56961000  1.0
  O  O94  1  0.99906000  0.56961000  0.62892000  1.0
  O  O95  1  0.06916000  0.62892000  0.93036000  1.0
  O  O96  1  0.56239000  0.97252000  0.17142000  1.0
  O  O97  1  0.03511000  0.17144000  0.52743000  1.0
  O  O98  1  0.70660000  0.52744000  0.32859000  1.0
  O  O99  1  0.73389000  0.32858000  0.97254000  1.0
  O  O100  1  0.43761000  0.02748000  0.82858000  1.0
  O  O101  1  0.96489000  0.82856000  0.47257000  1.0
  O  O102  1  0.29340000  0.47256000  0.67141000  1.0
  O  O103  1  0.26611000  0.67142000  0.02746000  1.0
  O  O104  1  0.64773000  0.16157000  0.90097000  1.0
  O  O105  1  0.30908000  0.90090000  0.33840000  1.0
  O  O106  1  0.71041000  0.33845000  0.59907000  1.0
  O  O107  1  0.54898000  0.59906000  0.16161000  1.0
  O  O108  1  0.35227000  0.83843000  0.09903000  1.0
  O  O109  1  0.69091000  0.09910000  0.66160000  1.0
  O  O110  1  0.28960000  0.66155000  0.40093000  1.0
  O  O111  1  0.45103000  0.40094000  0.83839000  1.0
  O  O112  1  0.22556000  0.13959000  0.96735000  1.0
  O  O113  1  0.86506000  0.96736000  0.36038000  1.0
  O  O114  1  0.33278000  0.36042000  0.53264000  1.0
  O  O115  1  0.19321000  0.53266000  0.13962000  1.0
  O  O116  1  0.77444000  0.86041000  0.03265000  1.0
  O  O117  1  0.13494000  0.03264000  0.63962000  1.0
  O  O118  1  0.66721000  0.63958000  0.46736000  1.0
  O  O119  1  0.80680000  0.46734000  0.86038000  1.0
  O  O120  1  0.49349000  0.06656000  0.29744000  1.0
  O  O121  1  0.06038000  0.29740000  0.43337000  1.0
  O  O122  1  0.85722000  0.43344000  0.20259000  1.0
  O  O123  1  0.79070000  0.20256000  0.06661000  1.0
  O  O124  1  0.50651000  0.93344000  0.70256000  1.0
  O  O125  1  0.93961000  0.70260000  0.56663000  1.0
  O  O126  1  0.14278000  0.56656000  0.79741000  1.0
  O  O127  1  0.20929000  0.79744000  0.93339000  1.0
  O  O128  1  0.99877000  0.87567000  0.23116000  1.0
  O  O129  1  0.37430000  0.23128000  0.62440000  1.0
  O  O130  1  0.10570000  0.62436000  0.26877000  1.0
  O  O131  1  0.22999000  0.26872000  0.87568000  1.0
  O  O132  1  0.00123000  0.12433000  0.76884000  1.0
  O  O133  1  0.62570000  0.76872000  0.37560000  1.0
  O  O134  1  0.89430000  0.37564000  0.73123000  1.0
  O  O135  1  0.77000000  0.73128000  0.12432000  1.0
