# generated using pymatgen
data_Cu2H9C14SN5
_symmetry_space_group_name_H-M   'P 1'
_cell_length_a   5.54201000
_cell_length_b   7.86759000
_cell_length_c   15.58730000
_cell_angle_alpha   90.00000000
_cell_angle_beta   89.99960000
_cell_angle_gamma   95.79470000
_symmetry_Int_Tables_number   1
_chemical_formula_structural   Cu2H9C14SN5
_chemical_formula_sum   'Cu4 H18 C28 S2 N10'
_cell_volume   676.16861296
_cell_formula_units_Z   2
loop_
 _symmetry_equiv_pos_site_id
 _symmetry_equiv_pos_as_xyz
  1  'x, y, z'
loop_
 _atom_site_type_symbol
 _atom_site_label
 _atom_site_symmetry_multiplicity
 _atom_site_fract_x
 _atom_site_fract_y
 _atom_site_fract_z
 _atom_site_occupancy
  Cu  Cu0  1  0.01497000  0.72346000  0.19551000  1.0
  Cu  Cu1  1  0.01498000  0.22346000  0.80449000  1.0
  Cu  Cu2  1  0.17099000  0.74528000  0.37624000  1.0
  Cu  Cu3  1  0.17100000  0.24528000  0.62376000  1.0
  H  H4  1  0.59051000  0.25495000  0.06442000  1.0
  H  H5  1  0.59052000  0.75494000  0.93558000  1.0
  H  H6  1  0.46566000  0.30062000  0.91380000  1.0
  H  H7  1  0.46567000  0.80062000  0.08620000  1.0
  H  H8  1  0.79006000  0.03776000  0.95355000  1.0
  H  H9  1  0.79007000  0.53777000  0.04645000  1.0
  H  H10  1  0.88437000  0.98166000  0.10701000  1.0
  H  H11  1  0.88437000  0.48166000  0.89299000  1.0
  H  H12  1  0.64583000  0.25390000  0.21664000  1.0
  H  H13  1  0.64584000  0.75389000  0.78336000  1.0
  H  H14  1  0.96725000  0.21058000  0.31283000  1.0
  H  H15  1  0.96725000  0.71057000  0.68717000  1.0
  H  H16  1  0.21959000  0.28360000  0.43889000  1.0
  H  H17  1  0.21960000  0.78359000  0.56111000  1.0
  H  H18  1  0.69270000  0.05579000  0.60432000  1.0
  H  H19  1  0.69270000  0.55578000  0.39568000  1.0
  H  H20  1  0.41336000  0.97739000  0.48305000  1.0
  H  H21  1  0.41337000  0.47738000  0.51695000  1.0
  C  C22  1  0.40991000  0.20540000  0.04291000  1.0
  C  C23  1  0.40992000  0.70539000  0.95710000  1.0
  C  C24  1  0.34181000  0.23050000  0.95868000  1.0
  C  C25  1  0.34181000  0.73051000  0.04132000  1.0
  C  C26  1  0.96626000  0.08296000  0.98086000  1.0
  C  C27  1  0.96626000  0.58297000  0.01914000  1.0
  C  C28  1  0.01920000  0.05236000  0.06609000  1.0
  C  C29  1  0.01921000  0.55236000  0.93390000  1.0
  C  C30  1  0.24981000  0.11011000  0.09894000  1.0
  C  C31  1  0.24982000  0.61011000  0.90106000  1.0
  C  C32  1  0.32619000  0.06824000  0.18476000  1.0
  C  C33  1  0.32619000  0.56825000  0.81524000  1.0
  C  C34  1  0.52100000  0.14380000  0.23339000  1.0
  C  C35  1  0.52100000  0.64379000  0.76661000  1.0
  C  C36  1  0.50786000  0.05573000  0.31176000  1.0
  C  C37  1  0.50785000  0.55573000  0.68823000  1.0
  C  C38  1  0.66282000  0.08885000  0.38607000  1.0
  C  C39  1  0.66281000  0.58885000  0.61393000  1.0
  C  C40  1  0.89582000  0.17549000  0.37611000  1.0
  C  C41  1  0.89581000  0.67548000  0.62389000  1.0
  C  C42  1  0.03997000  0.21553000  0.44696000  1.0
  C  C43  1  0.03998000  0.71553000  0.55304000  1.0
  C  C44  1  0.74694000  0.08778000  0.53859000  1.0
  C  C45  1  0.74694000  0.58778000  0.46140000  1.0
  C  C46  1  0.59218000  0.04361000  0.47050000  1.0
  C  C47  1  0.59218000  0.54360000  0.52950000  1.0
  C  C48  1  0.49838000  0.58455000  0.24244000  1.0
  C  C49  1  0.49836000  0.08455000  0.75756000  1.0
  S  S50  1  0.23192000  0.51549000  0.28135000  1.0
  S  S51  1  0.23194000  0.01549000  0.71865000  1.0
  N  N52  1  0.20786000  0.93725000  0.23117000  1.0
  N  N53  1  0.20787000  0.43725000  0.76883000  1.0
  N  N54  1  0.31602000  0.93215000  0.30873000  1.0
  N  N55  1  0.31602000  0.43214000  0.69127000  1.0
  N  N56  1  0.12386000  0.16932000  0.92655000  1.0
  N  N57  1  0.12385000  0.66932000  0.07345000  1.0
  N  N58  1  0.96969000  0.17448000  0.52832000  1.0
  N  N59  1  0.96968000  0.67448000  0.47167000  1.0
  N  N60  1  0.69155000  0.63716000  0.21581000  1.0
  N  N61  1  0.69157000  0.13716000  0.78419000  1.0
