# generated using pymatgen
data_Tb2H8C10S(N2O7)2
_symmetry_space_group_name_H-M   'P 1'
_cell_length_a   6.65048000
_cell_length_b   11.07010000
_cell_length_c   13.09150000
_cell_angle_alpha   73.30200000
_cell_angle_beta   89.97830000
_cell_angle_gamma   72.54000000
_symmetry_Int_Tables_number   1
_chemical_formula_structural   Tb2H8C10S(N2O7)2
_chemical_formula_sum   'Tb4 H16 C20 S2 N8 O28'
_cell_volume   876.74609964
_cell_formula_units_Z   2
loop_
 _symmetry_equiv_pos_site_id
 _symmetry_equiv_pos_as_xyz
  1  'x, y, z'
loop_
 _atom_site_type_symbol
 _atom_site_label
 _atom_site_symmetry_multiplicity
 _atom_site_fract_x
 _atom_site_fract_y
 _atom_site_fract_z
 _atom_site_occupancy
  Tb  Tb0  1  0.21879000  0.70506000  0.28491000  1.0
  Tb  Tb1  1  0.92362000  0.29504000  0.21505000  1.0
  Tb  Tb2  1  0.78122000  0.29494000  0.71509000  1.0
  Tb  Tb3  1  0.07638000  0.70496000  0.78495000  1.0
  H  H4  1  0.62982000  0.88657000  0.13100000  1.0
  H  H5  1  0.51607000  0.11334000  0.36901000  1.0
  H  H6  1  0.37019000  0.11343000  0.86900000  1.0
  H  H7  1  0.48393000  0.88666000  0.63099000  1.0
  H  H8  1  0.74837000  0.84672000  0.95322000  1.0
  H  H9  1  0.59471000  0.15310000  0.54681000  1.0
  H  H10  1  0.25163000  0.15328000  0.04678000  1.0
  H  H11  1  0.40529000  0.84690000  0.45319000  1.0
  H  H12  1  0.51684000  0.43313000  0.35575000  1.0
  H  H13  1  0.94961000  0.56704000  0.14418000  1.0
  H  H14  1  0.48316000  0.56687000  0.64425000  1.0
  H  H15  1  0.05039000  0.43295000  0.85582000  1.0
  H  H16  1  0.38509000  0.43758000  0.25826000  1.0
  H  H17  1  0.82270000  0.56234000  0.24183000  1.0
  H  H18  1  0.61492000  0.56242000  0.74174000  1.0
  H  H19  1  0.17730000  0.43765000  0.75817000  1.0
  C  C20  1  0.36614000  0.73721000  0.03287000  1.0
  C  C21  1  0.10329000  0.26292000  0.46711000  1.0
  C  C22  1  0.63385000  0.26280000  0.96714000  1.0
  C  C23  1  0.89671000  0.73708000  0.53289000  1.0
  C  C24  1  0.20080000  0.67182000  0.04307000  1.0
  C  C25  1  0.87262000  0.32834000  0.45697000  1.0
  C  C26  1  0.79919000  0.32819000  0.95693000  1.0
  C  C27  1  0.12738000  0.67165000  0.54304000  1.0
  C  C28  1  0.55975000  0.83805000  0.08622000  1.0
  C  C29  1  0.39754000  0.16191000  0.41379000  1.0
  C  C30  1  0.44025000  0.16195000  0.91378000  1.0
  C  C31  1  0.60246000  0.83809000  0.58621000  1.0
  C  C32  1  0.57390000  0.69621000  0.86797000  1.0
  C  C33  1  0.26993000  0.30385000  0.63201000  1.0
  C  C34  1  0.42610000  0.30379000  0.13204000  1.0
  C  C35  1  0.73007000  0.69615000  0.36799000  1.0
  C  C36  1  0.51280000  0.75174000  0.95791000  1.0
  C  C37  1  0.26435000  0.24826000  0.54211000  1.0
  C  C38  1  0.48720000  0.24827000  0.04209000  1.0
  C  C39  1  0.73565000  0.75174000  0.45789000  1.0
  S  S40  1  0.02021000  0.00003000  0.24995000  1.0
  S  S41  1  0.97979000  0.99997000  0.75005000  1.0
  N  N42  1  0.39960000  0.78965000  0.11277000  1.0
  N  N43  1  0.18911000  0.21046000  0.38720000  1.0
  N  N44  1  0.60040000  0.21035000  0.88723000  1.0
  N  N45  1  0.81089000  0.78954000  0.61280000  1.0
  N  N46  1  0.63134000  0.81658000  0.99408000  1.0
  N  N47  1  0.44763000  0.18329000  0.50597000  1.0
  N  N48  1  0.36866000  0.18342000  0.00592000  1.0
  N  N49  1  0.55237000  0.81671000  0.49403000  1.0
  O  O50  1  0.11845000  0.65629000  0.13294000  1.0
  O  O51  1  0.77478000  0.34400000  0.36710000  1.0
  O  O52  1  0.88154000  0.34372000  0.86707000  1.0
  O  O53  1  0.22522000  0.65600000  0.63290000  1.0
  O  O54  1  0.93869000  0.91702000  0.19993000  1.0
  O  O55  1  0.85600000  0.08285000  0.30026000  1.0
  O  O56  1  0.06131000  0.08298000  0.80007000  1.0
  O  O57  1  0.14400000  0.91715000  0.69974000  1.0
  O  O58  1  0.19788000  0.90364000  0.33086000  1.0
  O  O59  1  0.10076000  0.09667000  0.16873000  1.0
  O  O60  1  0.80212000  0.09636000  0.66913000  1.0
  O  O61  1  0.89925000  0.90333000  0.83127000  1.0
  O  O62  1  0.14322000  0.63444000  0.96912000  1.0
  O  O63  1  0.77773000  0.36561000  0.53098000  1.0
  O  O64  1  0.85677000  0.36557000  0.03088000  1.0
  O  O65  1  0.22227000  0.63439000  0.46902000  1.0
  O  O66  1  0.76018000  0.68337000  0.84150000  1.0
  O  O67  1  0.44355000  0.31637000  0.65856000  1.0
  O  O68  1  0.23982000  0.31663000  0.15850000  1.0
  O  O69  1  0.55645000  0.68363000  0.34144000  1.0
  O  O70  1  0.44276000  0.65992000  0.82263000  1.0
  O  O71  1  0.10237000  0.34056000  0.67716000  1.0
  O  O72  1  0.55724000  0.34008000  0.17738000  1.0
  O  O73  1  0.89763000  0.65944000  0.32284000  1.0
  O  O74  1  0.37124000  0.47750000  0.31756000  1.0
  O  O75  1  0.84837000  0.52262000  0.18240000  1.0
  O  O76  1  0.62876000  0.52250000  0.68244000  1.0
  O  O77  1  0.15163000  0.47737000  0.81760000  1.0
