# generated using pymatgen
data_AgH5C4N4O3
_symmetry_space_group_name_H-M   'P 1'
_cell_length_a   7.03632000
_cell_length_b   9.45099000
_cell_length_c   10.54050000
_cell_angle_alpha   90.00000000
_cell_angle_beta   90.00050000
_cell_angle_gamma   90.68110000
_symmetry_Int_Tables_number   1
_chemical_formula_structural   AgH5C4N4O3
_chemical_formula_sum   'Ag4 H20 C16 N16 O12'
_cell_volume   700.89572710
_cell_formula_units_Z   4
loop_
 _symmetry_equiv_pos_site_id
 _symmetry_equiv_pos_as_xyz
  1  'x, y, z'
loop_
 _atom_site_type_symbol
 _atom_site_label
 _atom_site_symmetry_multiplicity
 _atom_site_fract_x
 _atom_site_fract_y
 _atom_site_fract_z
 _atom_site_occupancy
  Ag  Ag0  1  0.79719000  0.39660000  0.63354000  1.0
  Ag  Ag1  1  0.70281000  0.10340000  0.13353000  1.0
  Ag  Ag2  1  0.20281000  0.60340000  0.36646000  1.0
  Ag  Ag3  1  0.29718000  0.89660000  0.86646000  1.0
  H  H4  1  0.43411000  0.60943000  0.89544000  1.0
  H  H5  1  0.06588000  0.89057000  0.39544000  1.0
  H  H6  1  0.56589000  0.39057000  0.10456000  1.0
  H  H7  1  0.93412000  0.10943000  0.60456000  1.0
  H  H8  1  0.50360000  0.46018000  0.80513000  1.0
  H  H9  1  0.99640000  0.03981000  0.30513000  1.0
  H  H10  1  0.49640000  0.53982000  0.19487000  1.0
  H  H11  1  0.00360000  0.96019000  0.69487000  1.0
  H  H12  1  0.74302000  0.63375000  0.43926000  1.0
  H  H13  1  0.75698000  0.86625000  0.93925000  1.0
  H  H14  1  0.25698000  0.36625000  0.56074000  1.0
  H  H15  1  0.24302000  0.13375000  0.06074000  1.0
  H  H16  1  0.69623000  0.89836000  0.45135000  1.0
  H  H17  1  0.80376000  0.60164000  0.95135000  1.0
  H  H18  1  0.30376000  0.10164000  0.54865000  1.0
  H  H19  1  0.19624000  0.39836000  0.04865000  1.0
  H  H20  1  0.54872000  0.99325000  0.65383000  1.0
  H  H21  1  0.95128000  0.50674000  0.15382000  1.0
  H  H22  1  0.45128000  0.00675000  0.34617000  1.0
  H  H23  1  0.04872000  0.49326000  0.84618000  1.0
  C  C24  1  0.67741000  0.68342000  0.52144000  1.0
  C  C25  1  0.82258000  0.81657000  0.02143000  1.0
  C  C26  1  0.32259000  0.31659000  0.47856000  1.0
  C  C27  1  0.17742000  0.18343000  0.97857000  1.0
  C  C28  1  0.65061000  0.82876000  0.52776000  1.0
  C  C29  1  0.84939000  0.67124000  0.02776000  1.0
  C  C30  1  0.34939000  0.17124000  0.47224000  1.0
  C  C31  1  0.15061000  0.32876000  0.97224000  1.0
  C  C32  1  0.56793000  0.88029000  0.63789000  1.0
  C  C33  1  0.93205000  0.61970000  0.13788000  1.0
  C  C34  1  0.43207000  0.11971000  0.36211000  1.0
  C  C35  1  0.06795000  0.38030000  0.86212000  1.0
  C  C36  1  0.54202000  0.65392000  0.72008000  1.0
  C  C37  1  0.95796000  0.84607000  0.22006000  1.0
  C  C38  1  0.45798000  0.34608000  0.27993000  1.0
  C  C39  1  0.04204000  0.15393000  0.77994000  1.0
  N  N40  1  0.63132000  0.59655000  0.61751000  1.0
  N  N41  1  0.86869000  0.90345000  0.11751000  1.0
  N  N42  1  0.36868000  0.40345000  0.38249000  1.0
  N  N43  1  0.13132000  0.09655000  0.88249000  1.0
  N  N44  1  0.48788000  0.56760000  0.81406000  1.0
  N  N45  1  0.01213000  0.93241000  0.31407000  1.0
  N  N46  1  0.51212000  0.43240000  0.18594000  1.0
  N  N47  1  0.98787000  0.06759000  0.68593000  1.0
  N  N48  1  0.50769000  0.79499000  0.73179000  1.0
  N  N49  1  0.99231000  0.70502000  0.23179000  1.0
  N  N50  1  0.49231000  0.20501000  0.26821000  1.0
  N  N51  1  0.00769000  0.29498000  0.76820000  1.0
  N  N52  1  0.90384000  0.28887000  0.37142000  1.0
  N  N53  1  0.59617000  0.21113000  0.87142000  1.0
  N  N54  1  0.09616000  0.71113000  0.62858000  1.0
  N  N55  1  0.40383000  0.78887000  0.12858000  1.0
  O  O56  1  0.88889000  0.42106000  0.38312000  1.0
  O  O57  1  0.61111000  0.07894000  0.88312000  1.0
  O  O58  1  0.11111000  0.57894000  0.61688000  1.0
  O  O59  1  0.38889000  0.92106000  0.11688000  1.0
  O  O60  1  0.84434000  0.20721000  0.46015000  1.0
  O  O61  1  0.65567000  0.29279000  0.96015000  1.0
  O  O62  1  0.15566000  0.79279000  0.53985000  1.0
  O  O63  1  0.34433000  0.70721000  0.03985000  1.0
  O  O64  1  0.97605000  0.23608000  0.27200000  1.0
  O  O65  1  0.52396000  0.26392000  0.77200000  1.0
  O  O66  1  0.02395000  0.76392000  0.72800000  1.0
  O  O67  1  0.47604000  0.73608000  0.22800000  1.0
