# generated using pymatgen
data_Zn3H12C22(NO2)6
_symmetry_space_group_name_H-M   'P 1'
_cell_length_a   7.74097000
_cell_length_b   8.72948000
_cell_length_c   19.38000000
_cell_angle_alpha   90.00000000
_cell_angle_beta   90.00000000
_cell_angle_gamma   110.59700000
_symmetry_Int_Tables_number   1
_chemical_formula_structural   Zn3H12C22(NO2)6
_chemical_formula_sum   'Zn6 H24 C44 N12 O24'
_cell_volume   1225.88448844
_cell_formula_units_Z   2
loop_
 _symmetry_equiv_pos_site_id
 _symmetry_equiv_pos_as_xyz
  1  'x, y, z'
loop_
 _atom_site_type_symbol
 _atom_site_label
 _atom_site_symmetry_multiplicity
 _atom_site_fract_x
 _atom_site_fract_y
 _atom_site_fract_z
 _atom_site_occupancy
  Zn  Zn0  1  0.50000000  0.99999000  0.50000000  1.0
  Zn  Zn1  1  0.00000000  0.00001000  0.00000000  1.0
  Zn  Zn2  1  0.97628000  0.29169000  0.47480000  1.0
  Zn  Zn3  1  0.52371000  0.70831000  0.97480000  1.0
  Zn  Zn4  1  0.02370000  0.70830000  0.52520000  1.0
  Zn  Zn5  1  0.47629000  0.29170000  0.02520000  1.0
  H  H6  1  0.46238000  0.86805000  0.30876000  1.0
  H  H7  1  0.03762000  0.13194000  0.80876000  1.0
  H  H8  1  0.53761000  0.13194000  0.69123000  1.0
  H  H9  1  0.96239000  0.86806000  0.19124000  1.0
  H  H10  1  0.39990000  0.80047000  0.18389000  1.0
  H  H11  1  0.10010000  0.19952000  0.68389000  1.0
  H  H12  1  0.60011000  0.19955000  0.81611000  1.0
  H  H13  1  0.89990000  0.80047000  0.31611000  1.0
  H  H14  1  0.89795000  0.19163000  0.13023000  1.0
  H  H15  1  0.60205000  0.80836000  0.63024000  1.0
  H  H16  1  0.10205000  0.80836000  0.86977000  1.0
  H  H17  1  0.39797000  0.19165000  0.36977000  1.0
  H  H18  1  0.95767000  0.26576000  0.25474000  1.0
  H  H19  1  0.54231000  0.73424000  0.75474000  1.0
  H  H20  1  0.04231000  0.73420000  0.74526000  1.0
  H  H21  1  0.45769000  0.26578000  0.24526000  1.0
  H  H22  1  0.37176000  0.27707000  0.58181000  1.0
  H  H23  1  0.12825000  0.72293000  0.08181000  1.0
  H  H24  1  0.62824000  0.72294000  0.41819000  1.0
  H  H25  1  0.87175000  0.27707000  0.91819000  1.0
  H  H26  1  0.61825000  0.59962000  0.60000000  1.0
  H  H27  1  0.88175000  0.40039000  0.10000000  1.0
  H  H28  1  0.38174000  0.40038000  0.40000000  1.0
  H  H29  1  0.11825000  0.59962000  0.90001000  1.0
  C  C30  1  0.74485000  0.10971000  0.36399000  1.0
  C  C31  1  0.75515000  0.89029000  0.86399000  1.0
  C  C32  1  0.25516000  0.89028000  0.63601000  1.0
  C  C33  1  0.24485000  0.10971000  0.13601000  1.0
  C  C34  1  0.71355000  0.07096000  0.28913000  1.0
  C  C35  1  0.78644000  0.92903000  0.78913000  1.0
  C  C36  1  0.28644000  0.92902000  0.71087000  1.0
  C  C37  1  0.21357000  0.07098000  0.21087000  1.0
  C  C38  1  0.55726000  0.93850000  0.26932000  1.0
  C  C39  1  0.94274000  0.06149000  0.76932000  1.0
  C  C40  1  0.44273000  0.06148000  0.73067000  1.0
  C  C41  1  0.05727000  0.93852000  0.23067000  1.0
  C  C42  1  0.52320000  0.90017000  0.20005000  1.0
  C  C43  1  0.97679000  0.09983000  0.70005000  1.0
  C  C44  1  0.47678000  0.09984000  0.79995000  1.0
  C  C45  1  0.02322000  0.90017000  0.29995000  1.0
  C  C46  1  0.64602000  0.99188000  0.14982000  1.0
  C  C47  1  0.85398000  0.00811000  0.64982000  1.0
  C  C48  1  0.35398000  0.00812000  0.85018000  1.0
  C  C49  1  0.14603000  0.99188000  0.35018000  1.0
  C  C50  1  0.80011000  0.12610000  0.16967000  1.0
  C  C51  1  0.69989000  0.87391000  0.66967000  1.0
  C  C52  1  0.19990000  0.87391000  0.83033000  1.0
  C  C53  1  0.30010000  0.12610000  0.33034000  1.0
  C  C54  1  0.83395000  0.16590000  0.23890000  1.0
  C  C55  1  0.66604000  0.83409000  0.73890000  1.0
  C  C56  1  0.16605000  0.83409000  0.76110000  1.0
  C  C57  1  0.33396000  0.16591000  0.26110000  1.0
  C  C58  1  0.62294000  0.94050000  0.07617000  1.0
  C  C59  1  0.87706000  0.05948000  0.57617000  1.0
  C  C60  1  0.37706000  0.05949000  0.92382000  1.0
  C  C61  1  0.12295000  0.94052000  0.42382000  1.0
  C  C62  1  0.51287000  0.33703000  0.56464000  1.0
  C  C63  1  0.98713000  0.66297000  0.06464000  1.0
  C  C64  1  0.48713000  0.66297000  0.43536000  1.0
  C  C65  1  0.01287000  0.33703000  0.93536000  1.0
  C  C66  1  0.63352000  0.49675000  0.57297000  1.0
  C  C67  1  0.86648000  0.50325000  0.07297000  1.0
  C  C68  1  0.36647000  0.50324000  0.42703000  1.0
  C  C69  1  0.13352000  0.49675000  0.92704000  1.0
  C  C70  1  0.92001000  0.52074000  0.32243000  1.0
  C  C71  1  0.58000000  0.47927000  0.82242000  1.0
  C  C72  1  0.08001000  0.47924000  0.67758000  1.0
  C  C73  1  0.41998000  0.52073000  0.17759000  1.0
  N  N74  1  0.60084000  0.25760000  0.52645000  1.0
  N  N75  1  0.89916000  0.74240000  0.02645000  1.0
  N  N76  1  0.39916000  0.74239000  0.47355000  1.0
  N  N77  1  0.10083000  0.25761000  0.97355000  1.0
  N  N78  1  0.76805000  0.36338000  0.51119000  1.0
  N  N79  1  0.73195000  0.63662000  0.01119000  1.0
  N  N80  1  0.23195000  0.63661000  0.48881000  1.0
  N  N81  1  0.26805000  0.36338000  0.98881000  1.0
  N  N82  1  0.79086000  0.50969000  0.53928000  1.0
  N  N83  1  0.70914000  0.49031000  0.03928000  1.0
  N  N84  1  0.20913000  0.49030000  0.46072000  1.0
  N  N85  1  0.29086000  0.50970000  0.96072000  1.0
  O  O86  1  0.60882000  0.04540000  0.40315000  1.0
  O  O87  1  0.89118000  0.95460000  0.90315000  1.0
  O  O88  1  0.39116000  0.95458000  0.59685000  1.0
  O  O89  1  0.10883000  0.04541000  0.09685000  1.0
  O  O90  1  0.90640000  0.20717000  0.38202000  1.0
  O  O91  1  0.59359000  0.79283000  0.88202000  1.0
  O  O92  1  0.09361000  0.79283000  0.61798000  1.0
  O  O93  1  0.40640000  0.20717000  0.11798000  1.0
  O  O94  1  0.48343000  0.81083000  0.06119000  1.0
  O  O95  1  0.01656000  0.18916000  0.56118000  1.0
  O  O96  1  0.51657000  0.18917000  0.93880000  1.0
  O  O97  1  0.98344000  0.81085000  0.43881000  1.0
  O  O98  1  0.74136000  0.01955000  0.03216000  1.0
  O  O99  1  0.75864000  0.98044000  0.53216000  1.0
  O  O100  1  0.25866000  0.98046000  0.96783000  1.0
  O  O101  1  0.24135000  0.01956000  0.46784000  1.0
  O  O102  1  0.07567000  0.55663000  0.30637000  1.0
  O  O103  1  0.42433000  0.44339000  0.80637000  1.0
  O  O104  1  0.92437000  0.44336000  0.69362000  1.0
  O  O105  1  0.57562000  0.55662000  0.19364000  1.0
  O  O106  1  0.76385000  0.48607000  0.33785000  1.0
  O  O107  1  0.73614000  0.51395000  0.83784000  1.0
  O  O108  1  0.23619000  0.51394000  0.66216000  1.0
  O  O109  1  0.26381000  0.48604000  0.16216000  1.0
