# generated using pymatgen
data_Zn3H12C50(OF)12
_symmetry_space_group_name_H-M   'P 1'
_cell_length_a   29.52808389
_cell_length_b   29.52800000
_cell_length_c   29.52830000
_cell_angle_alpha   105.36000000
_cell_angle_beta   105.35962409
_cell_angle_gamma   118.04959886
_symmetry_Int_Tables_number   1
_chemical_formula_structural   Zn3H12C50(OF)12
_chemical_formula_sum   'Zn6 H24 C100 O24 F24'
_cell_volume   19481.50113742
_cell_formula_units_Z   2
loop_
 _symmetry_equiv_pos_site_id
 _symmetry_equiv_pos_as_xyz
  1  'x, y, z'
loop_
 _atom_site_type_symbol
 _atom_site_label
 _atom_site_symmetry_multiplicity
 _atom_site_fract_x
 _atom_site_fract_y
 _atom_site_fract_z
 _atom_site_occupancy
  Zn  Zn0  1  0.46386000  1.00000000  0.46386000  1.0
  Zn  Zn1  1  0.00000000  0.53614000  0.53614000  1.0
  Zn  Zn2  1  0.53614000  1.00000000  0.53614000  1.0
  Zn  Zn3  1  0.00000000  0.46386000  0.46386000  1.0
  Zn  Zn4  1  0.54209000  0.54209000  1.00000000  1.0
  Zn  Zn5  1  0.45791000  0.45791000  1.00000000  1.0
  H  H6  1  0.90214000  0.31723000  0.49582000  1.0
  H  H7  1  0.31723000  0.82140000  0.41509000  1.0
  H  H8  1  0.82141000  0.40633000  0.50418000  1.0
  H  H9  1  0.40632000  0.90215000  0.58491000  1.0
  H  H10  1  0.17859000  0.68276000  0.58491000  1.0
  H  H11  1  0.59368000  0.17859000  0.49582000  1.0
  H  H12  1  0.09786000  0.59369000  0.41509000  1.0
  H  H13  1  0.68277000  0.09786000  0.50418000  1.0
  H  H14  1  0.42932000  0.61723000  0.18852000  1.0
  H  H15  1  0.61723000  0.42872000  0.18792000  1.0
  H  H16  1  0.42872000  0.24080000  0.81149000  1.0
  H  H17  1  0.24080000  0.42931000  0.81209000  1.0
  H  H18  1  0.57129000  0.38278000  0.81209000  1.0
  H  H19  1  0.75920000  0.57128000  0.18851000  1.0
  H  H20  1  0.57068000  0.75920000  0.18791000  1.0
  H  H21  1  0.38277000  0.57069000  0.81149000  1.0
  H  H22  1  0.42951000  0.54774000  0.11853000  1.0
  H  H23  1  0.54774000  0.42923000  0.11824000  1.0
  H  H24  1  0.42922000  0.31098000  0.88149000  1.0
  H  H25  1  0.31098000  0.42949000  0.88176000  1.0
  H  H26  1  0.57078000  0.45227000  0.88176000  1.0
  H  H27  1  0.68902000  0.57078000  0.11852000  1.0
  H  H28  1  0.57049000  0.68901000  0.11822000  1.0
  H  H29  1  0.45227000  0.57051000  0.88149000  1.0
  C  C30  1  0.50000000  0.92762000  0.42762000  1.0
  C  C31  1  0.92761000  0.49999000  0.42761000  1.0
  C  C32  1  0.50000000  0.07239000  0.57239000  1.0
  C  C33  1  0.07238000  0.49999000  0.57238000  1.0
  C  C34  1  0.50000000  0.61431000  0.11431000  1.0
  C  C35  1  0.61432000  0.50001000  0.11432000  1.0
  C  C36  1  0.50000000  0.38568000  0.88569000  1.0
  C  C37  1  0.38569000  0.50000000  0.88569000  1.0
  C  C38  1  0.50000000  0.69268000  0.19268000  1.0
  C  C39  1  0.69268000  0.50000000  0.19268000  1.0
  C  C40  1  0.50000000  0.30732000  0.80732000  1.0
  C  C41  1  0.30732000  0.50000000  0.80732000  1.0
  C  C42  1  0.50000000  0.73226000  0.23225000  1.0
  C  C43  1  0.73226000  0.50000000  0.23226000  1.0
  C  C44  1  0.50000000  0.26774000  0.76774000  1.0
  C  C45  1  0.26774000  0.50000000  0.76774000  1.0
  C  C46  1  0.50000000  0.76629000  0.26629000  1.0
  C  C47  1  0.76629000  0.49999000  0.26629000  1.0
  C  C48  1  0.50000000  0.23371000  0.73371000  1.0
  C  C49  1  0.23371000  0.50000000  0.73371000  1.0
  C  C50  1  0.51875000  0.81341000  0.35788000  1.0
  C  C51  1  0.81341000  0.45553000  0.29466000  1.0
  C  C52  1  0.45553000  0.16087000  0.64212000  1.0
  C  C53  1  0.16087000  0.51875000  0.70534000  1.0
  C  C54  1  0.54447000  0.18659000  0.70534000  1.0
  C  C55  1  0.83913000  0.54447000  0.35788000  1.0
  C  C56  1  0.48126000  0.83914000  0.29467000  1.0
  C  C57  1  0.18659000  0.48125000  0.64212000  1.0
  C  C58  1  0.51885000  0.85228000  0.39679000  1.0
  C  C59  1  0.85228000  0.45549000  0.33343000  1.0
  C  C60  1  0.45549000  0.12206000  0.60321000  1.0
  C  C61  1  0.12206000  0.51885000  0.66657000  1.0
  C  C62  1  0.54451000  0.14772000  0.66657000  1.0
  C  C63  1  0.87794000  0.54451000  0.39679000  1.0
  C  C64  1  0.48115000  0.87794000  0.33343000  1.0
  C  C65  1  0.14772000  0.48115000  0.60321000  1.0
  C  C66  1  0.50000000  0.88580000  0.38580000  1.0
  C  C67  1  0.88580000  0.50000000  0.38580000  1.0
  C  C68  1  0.50000000  0.11420000  0.61420000  1.0
  C  C69  1  0.11420000  0.50000000  0.61420000  1.0
  C  C70  1  0.50000000  0.80565000  0.30565000  1.0
  C  C71  1  0.80565000  0.50000000  0.30565000  1.0
  C  C72  1  0.50000000  0.19435000  0.69435000  1.0
  C  C73  1  0.19435000  0.50000000  0.69435000  1.0
  C  C74  1  0.57264000  0.50000000  0.07264000  1.0
  C  C75  1  0.50000000  0.42736000  0.92736000  1.0
  C  C76  1  0.42736000  0.50000000  0.92736000  1.0
  C  C77  1  0.50000000  0.57264000  0.07264000  1.0
  C  C78  1  0.58506000  0.08506000  0.50000000  1.0
  C  C79  1  0.08506000  0.58506000  0.50000000  1.0
  C  C80  1  0.41494000  0.91494000  0.50000000  1.0
  C  C81  1  0.91494000  0.41494000  0.50000000  1.0
  C  C82  1  0.86632000  0.31822000  0.49784000  1.0
  C  C83  1  0.31822000  0.82038000  0.45190000  1.0
  C  C84  1  0.82038000  0.36848000  0.50216000  1.0
  C  C85  1  0.36848000  0.86632000  0.54810000  1.0
  C  C86  1  0.17962000  0.68178000  0.54810000  1.0
  C  C87  1  0.63152000  0.17962000  0.49784000  1.0
  C  C88  1  0.13368000  0.63152000  0.45190000  1.0
  C  C89  1  0.68178000  0.13368000  0.50216000  1.0
  C  C90  1  0.86583000  0.36583000  0.50000000  1.0
  C  C91  1  0.36583000  0.86583000  0.50000000  1.0
  C  C92  1  0.13417000  0.63417000  0.50000000  1.0
  C  C93  1  0.63417000  0.13417000  0.50000000  1.0
  C  C94  1  0.77334000  0.32198000  0.50077000  1.0
  C  C95  1  0.32197000  0.82120000  0.54863000  1.0
  C  C96  1  0.82120000  0.27257000  0.49923000  1.0
  C  C97  1  0.27257000  0.77334000  0.45137000  1.0
  C  C98  1  0.17880000  0.67803000  0.45137000  1.0
  C  C99  1  0.72743000  0.17879000  0.50077000  1.0
  C  C100  1  0.22666000  0.72743000  0.54863000  1.0
  C  C101  1  0.67803000  0.22666000  0.49923000  1.0
  C  C102  1  0.77336000  0.27336000  0.50000000  1.0
  C  C103  1  0.27336000  0.77336000  0.50000000  1.0
  C  C104  1  0.22664000  0.72664000  0.50000000  1.0
  C  C105  1  0.72664000  0.22664000  0.50000000  1.0
  C  C106  1  0.72441000  0.32102000  0.50048000  1.0
  C  C107  1  0.32102000  0.82054000  0.59661000  1.0
  C  C108  1  0.82054000  0.22393000  0.49952000  1.0
  C  C109  1  0.22393000  0.72441000  0.40339000  1.0
  C  C110  1  0.17946000  0.67898000  0.40339000  1.0
  C  C111  1  0.77607000  0.17946000  0.50048000  1.0
  C  C112  1  0.27559000  0.77607000  0.59661000  1.0
  C  C113  1  0.67898000  0.27559000  0.49952000  1.0
  C  C114  1  0.46013000  0.63270000  0.17299000  1.0
  C  C115  1  0.63271000  0.45972000  0.17258000  1.0
  C  C116  1  0.45972000  0.28714000  0.82701000  1.0
  C  C117  1  0.28714000  0.46013000  0.82742000  1.0
  C  C118  1  0.54028000  0.36729000  0.82742000  1.0
  C  C119  1  0.71286000  0.54028000  0.17298000  1.0
  C  C120  1  0.53987000  0.71286000  0.17257000  1.0
  C  C121  1  0.36729000  0.53987000  0.82701000  1.0
  C  C122  1  0.46021000  0.59410000  0.13412000  1.0
  C  C123  1  0.59410000  0.45998000  0.13389000  1.0
  C  C124  1  0.45998000  0.32609000  0.86588000  1.0
  C  C125  1  0.32609000  0.46021000  0.86611000  1.0
  C  C126  1  0.54002000  0.40590000  0.86611000  1.0
  C  C127  1  0.67391000  0.54002000  0.13412000  1.0
  C  C128  1  0.53979000  0.67392000  0.13389000  1.0
  C  C129  1  0.40590000  0.53979000  0.86588000  1.0
  O  O130  1  0.46734000  0.94279000  0.41196000  1.0
  O  O131  1  0.94279000  0.53084000  0.47546000  1.0
  O  O132  1  0.53083000  0.05537000  0.58804000  1.0
  O  O133  1  0.05538000  0.46733000  0.52455000  1.0
  O  O134  1  0.46917000  0.05722000  0.52455000  1.0
  O  O135  1  0.94462000  0.46917000  0.41196000  1.0
  O  O136  1  0.53267000  0.94462000  0.47546000  1.0
  O  O137  1  0.05721000  0.53267000  0.58805000  1.0
  O  O138  1  0.53432000  0.06702000  0.46900000  1.0
  O  O139  1  0.06702000  0.59802000  0.53270000  1.0
  O  O140  1  0.59803000  0.06532000  0.53101000  1.0
  O  O141  1  0.06532000  0.53432000  0.46730000  1.0
  O  O142  1  0.40198000  0.93298000  0.46730000  1.0
  O  O143  1  0.93468000  0.40198000  0.46900000  1.0
  O  O144  1  0.46568000  0.93468000  0.53270000  1.0
  O  O145  1  0.93298000  0.46569000  0.53101000  1.0
  O  O146  1  0.59375000  0.53741000  0.05625000  1.0
  O  O147  1  0.53741000  0.48116000  0.94366000  1.0
  O  O148  1  0.48116000  0.53750000  0.94375000  1.0
  O  O149  1  0.53750000  0.59375000  0.05634000  1.0
  O  O150  1  0.51884000  0.46259000  0.05634000  1.0
  O  O151  1  0.46250000  0.51884000  0.05625000  1.0
  O  O152  1  0.40625000  0.46250000  0.94366000  1.0
  O  O153  1  0.46259000  0.40625000  0.94375000  1.0
  F  F154  1  0.72355000  0.36663000  0.50101000  1.0
  F  F155  1  0.36663000  0.86562000  0.64308000  1.0
  F  F156  1  0.86562000  0.22254000  0.49899000  1.0
  F  F157  1  0.22254000  0.72355000  0.35692000  1.0
  F  F158  1  0.13438000  0.63337000  0.35692000  1.0
  F  F159  1  0.77746000  0.13438000  0.50101000  1.0
  F  F160  1  0.27645000  0.77746000  0.64308000  1.0
  F  F161  1  0.63337000  0.27645000  0.49899000  1.0
  F  F162  1  0.53712000  0.78238000  0.37067000  1.0
  F  F163  1  0.78238000  0.41171000  0.24526000  1.0
  F  F164  1  0.41171000  0.16645000  0.62933000  1.0
  F  F165  1  0.16645000  0.53712000  0.75475000  1.0
  F  F166  1  0.58830000  0.21763000  0.75475000  1.0
  F  F167  1  0.83355000  0.58829000  0.37067000  1.0
  F  F168  1  0.46288000  0.83355000  0.24525000  1.0
  F  F169  1  0.21762000  0.46288000  0.62933000  1.0
  F  F170  1  0.53670000  0.85551000  0.44523000  1.0
  F  F171  1  0.85551000  0.41029000  0.31881000  1.0
  F  F172  1  0.41028000  0.09147000  0.55477000  1.0
  F  F173  1  0.09147000  0.53669000  0.68119000  1.0
  F  F174  1  0.58972000  0.14449000  0.68119000  1.0
  F  F175  1  0.90852000  0.58971000  0.44522000  1.0
  F  F176  1  0.46331000  0.90853000  0.31882000  1.0
  F  F177  1  0.14449000  0.46330000  0.55477000  1.0
