# generated using pymatgen
data_Zn2H5C9O7F
_symmetry_space_group_name_H-M   'P 1'
_cell_length_a   18.70830000
_cell_length_b   18.79390000
_cell_length_c   26.45860000
_cell_angle_alpha   89.90220000
_cell_angle_beta   90.15270000
_cell_angle_gamma   89.93600000
_symmetry_Int_Tables_number   1
_chemical_formula_structural   Zn2H5C9O7F
_chemical_formula_sum   'Zn16 H40 C72 O56 F8'
_cell_volume   9302.84210177
_cell_formula_units_Z   8
loop_
 _symmetry_equiv_pos_site_id
 _symmetry_equiv_pos_as_xyz
  1  'x, y, z'
loop_
 _atom_site_type_symbol
 _atom_site_label
 _atom_site_symmetry_multiplicity
 _atom_site_fract_x
 _atom_site_fract_y
 _atom_site_fract_z
 _atom_site_occupancy
  Zn  Zn0  1  0.83442000  0.24976000  0.79364000  1.0
  Zn  Zn1  1  0.74858000  0.33619000  0.29428000  1.0
  Zn  Zn2  1  0.24811000  0.83651000  0.20636000  1.0
  Zn  Zn3  1  0.24757000  0.83649000  0.79383000  1.0
  Zn  Zn4  1  0.74641000  0.16578000  0.70729000  1.0
  Zn  Zn5  1  0.74698000  0.16613000  0.29289000  1.0
  Zn  Zn6  1  0.24621000  0.66655000  0.20796000  1.0
  Zn  Zn7  1  0.24678000  0.66600000  0.79307000  1.0
  Zn  Zn8  1  0.83431000  0.24983000  0.20637000  1.0
  Zn  Zn9  1  0.33441000  0.74980000  0.29431000  1.0
  Zn  Zn10  1  0.33483000  0.74900000  0.70738000  1.0
  Zn  Zn11  1  0.66429000  0.25049000  0.79262000  1.0
  Zn  Zn12  1  0.66429000  0.25196000  0.20696000  1.0
  Zn  Zn13  1  0.16434000  0.75153000  0.29386000  1.0
  Zn  Zn14  1  0.16442000  0.75168000  0.70668000  1.0
  Zn  Zn15  1  0.74800000  0.33629000  0.70585000  1.0
  H  H16  1  0.09957000  0.00819000  0.80302000  1.0
  H  H17  1  0.85850000  0.24871000  0.95387000  1.0
  H  H18  1  0.36087000  0.76020000  0.54640000  1.0
  H  H19  1  0.35947000  0.74177000  0.45403000  1.0
  H  H20  1  0.69488000  0.26197000  0.04144000  1.0
  H  H21  1  0.69396000  0.24157000  0.95809000  1.0
  H  H22  1  0.19786000  0.73683000  0.54198000  1.0
  H  H23  1  0.19721000  0.76986000  0.45923000  1.0
  H  H24  1  0.01670000  0.93308000  0.71752000  1.0
  H  H25  1  0.01402000  0.92951000  0.27847000  1.0
  H  H26  1  0.51675000  0.43253000  0.21974000  1.0
  H  H27  1  0.10122000  0.01113000  0.19844000  1.0
  H  H28  1  0.51440000  0.42874000  0.77888000  1.0
  H  H29  1  0.01071000  0.10352000  0.79984000  1.0
  H  H30  1  0.00817000  0.10229000  0.19828000  1.0
  H  H31  1  0.51113000  0.60498000  0.29990000  1.0
  H  H32  1  0.50303000  0.59729000  0.69486000  1.0
  H  H33  1  0.06519000  0.51975000  0.77916000  1.0
  H  H34  1  0.06300000  0.52230000  0.22002000  1.0
  H  H35  1  0.56671000  0.01898000  0.27843000  1.0
  H  H36  1  0.57042000  0.01347000  0.72558000  1.0
  H  H37  1  0.90603000  0.49943000  0.69101000  1.0
  H  H38  1  0.60162000  0.51141000  0.30247000  1.0
  H  H39  1  0.90557000  0.49885000  0.30866000  1.0
  H  H40  1  0.40581000  0.99900000  0.19188000  1.0
  H  H41  1  0.39457000  0.01020000  0.79690000  1.0
  H  H42  1  0.75710000  0.35570000  0.45386000  1.0
  H  H43  1  0.74125000  0.35547000  0.54634000  1.0
  H  H44  1  0.24920000  0.85729000  0.95409000  1.0
  H  H45  1  0.25607000  0.85673000  0.04658000  1.0
  H  H46  1  0.96780000  0.39181000  0.81151000  1.0
  H  H47  1  0.96769000  0.39244000  0.18827000  1.0
  H  H48  1  0.46830000  0.89195000  0.31239000  1.0
  H  H49  1  0.59881000  0.50889000  0.69663000  1.0
  H  H50  1  0.49175000  0.86701000  0.71282000  1.0
  H  H51  1  0.73329000  0.19350000  0.45867000  1.0
  H  H52  1  0.76925000  0.19387000  0.54197000  1.0
  H  H53  1  0.25825000  0.69355000  0.95825000  1.0
  H  H54  1  0.24229000  0.69336000  0.04219000  1.0
  H  H55  1  0.85802000  0.23902000  0.04637000  1.0
  C  C56  1  0.61143000  0.11550000  0.75043000  1.0
  C  C57  1  0.99967000  0.55249000  0.28118000  1.0
  C  C58  1  0.50018000  0.05223000  0.21946000  1.0
  C  C59  1  0.49636000  0.05557000  0.77641000  1.0
  C  C60  1  0.05732000  0.56049000  0.75053000  1.0
  C  C61  1  0.05682000  0.56095000  0.25015000  1.0
  C  C62  1  0.55872000  0.05936000  0.24954000  1.0
  C  C63  1  0.55866000  0.05817000  0.75016000  1.0
  C  C64  1  0.94624000  0.49825000  0.72079000  1.0
  C  C65  1  0.94597000  0.49807000  0.27915000  1.0
  C  C66  1  0.44647000  0.99778000  0.22134000  1.0
  C  C67  1  0.61325000  0.11498000  0.24738000  1.0
  C  C68  1  0.44363000  0.00017000  0.77610000  1.0
  C  C69  1  0.94059000  0.44447000  0.75496000  1.0
  C  C70  1  0.94031000  0.44481000  0.24467000  1.0
  C  C71  1  0.44078000  0.94442000  0.25584000  1.0
  C  C72  1  0.44808000  0.93628000  0.75234000  1.0
  C  C73  1  0.75047000  0.30435000  0.47275000  1.0
  C  C74  1  0.74937000  0.30430000  0.52759000  1.0
  C  C75  1  0.25183000  0.80546000  0.97283000  1.0
  C  C76  1  0.25214000  0.80518000  0.02772000  1.0
  C  C77  1  0.74240000  0.24649000  0.44310000  1.0
  C  C78  1  0.11184000  0.61603000  0.25260000  1.0
  C  C79  1  0.75860000  0.24661000  0.55740000  1.0
  C  C80  1  0.25472000  0.74737000  0.94294000  1.0
  C  C81  1  0.24729000  0.74697000  0.05752000  1.0
  C  C82  1  0.80645000  0.24587000  0.02745000  1.0
  C  C83  1  0.80651000  0.24675000  0.97259000  1.0
  C  C84  1  0.30908000  0.75320000  0.52784000  1.0
  C  C85  1  0.30836000  0.75042000  0.47299000  1.0
  C  C86  1  0.74825000  0.25357000  0.05704000  1.0
  C  C87  1  0.74790000  0.24480000  0.94275000  1.0
  C  C88  1  0.25099000  0.74639000  0.55762000  1.0
  C  C89  1  0.11152000  0.61645000  0.74899000  1.0
  C  C90  1  0.24990000  0.75882000  0.44351000  1.0
  C  C91  1  0.88338000  0.38881000  0.75117000  1.0
  C  C92  1  0.88294000  0.38933000  0.24816000  1.0
  C  C93  1  0.38312000  0.88915000  0.25248000  1.0
  C  C94  1  0.38801000  0.88352000  0.75347000  1.0
  C  C95  1  0.75142000  0.24730000  0.88703000  1.0
  C  C96  1  0.75155000  0.25139000  0.11279000  1.0
  C  C97  1  0.25213000  0.75431000  0.38779000  1.0
  C  C98  1  0.25363000  0.75020000  0.61335000  1.0
  C  C99  1  0.75463000  0.24995000  0.61310000  1.0
  C  C100  1  0.93944000  0.05791000  0.75035000  1.0
  C  C101  1  0.74518000  0.24996000  0.38734000  1.0
  C  C102  1  0.24847000  0.75065000  0.11329000  1.0
  C  C103  1  0.25223000  0.75119000  0.88719000  1.0
  C  C104  1  0.61461000  0.38866000  0.74957000  1.0
  C  C105  1  0.61566000  0.39038000  0.25033000  1.0
  C  C106  1  0.11394000  0.88867000  0.24905000  1.0
  C  C107  1  0.11491000  0.88986000  0.74880000  1.0
  C  C108  1  0.88506000  0.11604000  0.75176000  1.0
  C  C109  1  0.88958000  0.12041000  0.25313000  1.0
  C  C110  1  0.38688000  0.61811000  0.25030000  1.0
  C  C111  1  0.94487000  0.06310000  0.25520000  1.0
  C  C112  1  0.38595000  0.61577000  0.75070000  1.0
  C  C113  1  0.05565000  0.00174000  0.77610000  1.0
  C  C114  1  0.05651000  0.00308000  0.22433000  1.0
  C  C115  1  0.55724000  0.50379000  0.27608000  1.0
  C  C116  1  0.55458000  0.50082000  0.72294000  1.0
  C  C117  1  0.05739000  0.94357000  0.74595000  1.0
  C  C118  1  0.05656000  0.94247000  0.25213000  1.0
  C  C119  1  0.55835000  0.44433000  0.24721000  1.0
  C  C120  1  0.55640000  0.44151000  0.75206000  1.0
  C  C121  1  0.00190000  0.05690000  0.77618000  1.0
  C  C122  1  0.44165000  0.56031000  0.24876000  1.0
  C  C123  1  0.00285000  0.05835000  0.22495000  1.0
  C  C124  1  0.50321000  0.55876000  0.27569000  1.0
  C  C125  1  0.49942000  0.55455000  0.72264000  1.0
  C  C126  1  0.44195000  0.55931000  0.75336000  1.0
  C  C127  1  0.99948000  0.55322000  0.71979000  1.0
  O  O128  1  0.75072000  0.25201000  0.74966000  1.0
  O  O129  1  0.74163000  0.18980000  0.36490000  1.0
  O  O130  1  0.24855000  0.69035000  0.13583000  1.0
  O  O131  1  0.24912000  0.69090000  0.86493000  1.0
  O  O132  1  0.60591000  0.16610000  0.78242000  1.0
  O  O133  1  0.60495000  0.16832000  0.21781000  1.0
  O  O134  1  0.10776000  0.66540000  0.28571000  1.0
  O  O135  1  0.10291000  0.67028000  0.71999000  1.0
  O  O136  1  0.83666000  0.39342000  0.71664000  1.0
  O  O137  1  0.83624000  0.39414000  0.28248000  1.0
  O  O138  1  0.33626000  0.89396000  0.21810000  1.0
  O  O139  1  0.75084000  0.25229000  0.25027000  1.0
  O  O140  1  0.33251000  0.89716000  0.77889000  1.0
  O  O141  1  0.66107000  0.10903000  0.71710000  1.0
  O  O142  1  0.66678000  0.10468000  0.27718000  1.0
  O  O143  1  0.16157000  0.60933000  0.21941000  1.0
  O  O144  1  0.16512000  0.60587000  0.77874000  1.0
  O  O145  1  0.88895000  0.34036000  0.78531000  1.0
  O  O146  1  0.88845000  0.34088000  0.21415000  1.0
  O  O147  1  0.38855000  0.84084000  0.28674000  1.0
  O  O148  1  0.40078000  0.82772000  0.72695000  1.0
  O  O149  1  0.69105000  0.25107000  0.86453000  1.0
  O  O150  1  0.25057000  0.75253000  0.25049000  1.0
  O  O151  1  0.69133000  0.25621000  0.13517000  1.0
  O  O152  1  0.19186000  0.76085000  0.36543000  1.0
  O  O153  1  0.19308000  0.74572000  0.63529000  1.0
  O  O154  1  0.74713000  0.31086000  0.63400000  1.0
  O  O155  1  0.75079000  0.31100000  0.36621000  1.0
  O  O156  1  0.24927000  0.81192000  0.13433000  1.0
  O  O157  1  0.25305000  0.81242000  0.86592000  1.0
  O  O158  1  0.60668000  0.33517000  0.77896000  1.0
  O  O159  1  0.60800000  0.33781000  0.22018000  1.0
  O  O160  1  0.10499000  0.83442000  0.27757000  1.0
  O  O161  1  0.25048000  0.75209000  0.75037000  1.0
  O  O162  1  0.11015000  0.83968000  0.71634000  1.0
  O  O163  1  0.82898000  0.10511000  0.72598000  1.0
  O  O164  1  0.83692000  0.11248000  0.28266000  1.0
  O  O165  1  0.33185000  0.60820000  0.22315000  1.0
  O  O166  1  0.33553000  0.61041000  0.78238000  1.0
  O  O167  1  0.66699000  0.39940000  0.71935000  1.0
  O  O168  1  0.66708000  0.39940000  0.28179000  1.0
  O  O169  1  0.16678000  0.89956000  0.21927000  1.0
  O  O170  1  0.16382000  0.89684000  0.78243000  1.0
  O  O171  1  0.90032000  0.17054000  0.77860000  1.0
  O  O172  1  0.81303000  0.24571000  0.86596000  1.0
  O  O173  1  0.90060000  0.17103000  0.22174000  1.0
  O  O174  1  0.40081000  0.67135000  0.27871000  1.0
  O  O175  1  0.39439000  0.66345000  0.71674000  1.0
  O  O176  1  0.98539000  0.43531000  0.79452000  1.0
  O  O177  1  0.98525000  0.43583000  0.20535000  1.0
  O  O178  1  0.48598000  0.93521000  0.29516000  1.0
  O  O179  1  0.50528000  0.91467000  0.72542000  1.0
  O  O180  1  0.81288000  0.24500000  0.13407000  1.0
  O  O181  1  0.31283000  0.74449000  0.36651000  1.0
  O  O182  1  0.31460000  0.75738000  0.63505000  1.0
  O  O183  1  0.75892000  0.18983000  0.63574000  1.0
  F  F184  1  0.92033000  0.00317000  0.72005000  1.0
  F  F185  1  0.93122000  0.01308000  0.29073000  1.0
  F  F186  1  0.42385000  0.50646000  0.21727000  1.0
  F  F187  1  0.43026000  0.51093000  0.79035000  1.0
  F  F188  1  0.98710000  0.60077000  0.68192000  1.0
  F  F189  1  0.98845000  0.59812000  0.32024000  1.0
  F  F190  1  0.48747000  0.09945000  0.18144000  1.0
  F  F191  1  0.47668000  0.11056000  0.80675000  1.0
