# generated using pymatgen
data_Cu3H10C12(NO)6
_symmetry_space_group_name_H-M   'P 1'
_cell_length_a   7.01359000
_cell_length_b   9.41832000
_cell_length_c   13.52080000
_cell_angle_alpha   89.99870000
_cell_angle_beta   75.58800000
_cell_angle_gamma   89.99910000
_symmetry_Int_Tables_number   1
_chemical_formula_structural   Cu3H10C12(NO)6
_chemical_formula_sum   'Cu6 H20 C24 N12 O12'
_cell_volume   865.02718324
_cell_formula_units_Z   2
loop_
 _symmetry_equiv_pos_site_id
 _symmetry_equiv_pos_as_xyz
  1  'x, y, z'
loop_
 _atom_site_type_symbol
 _atom_site_label
 _atom_site_symmetry_multiplicity
 _atom_site_fract_x
 _atom_site_fract_y
 _atom_site_fract_z
 _atom_site_occupancy
  Cu  Cu0  1  0.00000000  0.00000000  0.50000000  1.0
  Cu  Cu1  1  0.50000000  0.50000000  0.50000000  1.0
  Cu  Cu2  1  0.78995000  0.02923000  0.03579000  1.0
  Cu  Cu3  1  0.71005000  0.52924000  0.96421000  1.0
  Cu  Cu4  1  0.21007000  0.97077000  0.96421000  1.0
  Cu  Cu5  1  0.28994000  0.47076000  0.03579000  1.0
  H  H6  1  0.57154000  0.99837000  0.60007000  1.0
  H  H7  1  0.92847000  0.49836000  0.39992000  1.0
  H  H8  1  0.42846000  0.00163000  0.39993000  1.0
  H  H9  1  0.07153000  0.50164000  0.60008000  1.0
  H  H10  1  0.60553000  0.13268000  0.52331000  1.0
  H  H11  1  0.89448000  0.63268000  0.47669000  1.0
  H  H12  1  0.39447000  0.86731000  0.47669000  1.0
  H  H13  1  0.10552000  0.36732000  0.52331000  1.0
  H  H14  1  0.89345000  0.76578000  0.35383000  1.0
  H  H15  1  0.60656000  0.26578000  0.64618000  1.0
  H  H16  1  0.10654000  0.23422000  0.64618000  1.0
  H  H17  1  0.39345000  0.73423000  0.35382000  1.0
  H  H18  1  0.96579000  0.21872000  0.17240000  1.0
  H  H19  1  0.53422000  0.71873000  0.82759000  1.0
  H  H20  1  0.03421000  0.78128000  0.82760000  1.0
  H  H21  1  0.46579000  0.28127000  0.17241000  1.0
  H  H22  1  0.84987000  0.78516000  0.17472000  1.0
  H  H23  1  0.65015000  0.28518000  0.82527000  1.0
  H  H24  1  0.15013000  0.21485000  0.82528000  1.0
  H  H25  1  0.34986000  0.71482000  0.17473000  1.0
  C  C26  1  0.02328000  0.23417000  0.36804000  1.0
  C  C27  1  0.47673000  0.73416000  0.63196000  1.0
  C  C28  1  0.97672000  0.76583000  0.63195000  1.0
  C  C29  1  0.52327000  0.26584000  0.36804000  1.0
  C  C30  1  0.97830000  0.10748000  0.31042000  1.0
  C  C31  1  0.52170000  0.60748000  0.68956000  1.0
  C  C32  1  0.02170000  0.89253000  0.68958000  1.0
  C  C33  1  0.47830000  0.39252000  0.31044000  1.0
  C  C34  1  0.91182000  0.86735000  0.31334000  1.0
  C  C35  1  0.58818000  0.36734000  0.68667000  1.0
  C  C36  1  0.08817000  0.13266000  0.68666000  1.0
  C  C37  1  0.41183000  0.63266000  0.31334000  1.0
  C  C38  1  0.95070000  0.11716000  0.21224000  1.0
  C  C39  1  0.54931000  0.61716000  0.78775000  1.0
  C  C40  1  0.04929000  0.88284000  0.78776000  1.0
  C  C41  1  0.45070000  0.38284000  0.21225000  1.0
  C  C42  1  0.77850000  0.21906000  0.00504000  1.0
  C  C43  1  0.72149000  0.71906000  0.99496000  1.0
  C  C44  1  0.22148000  0.78093000  0.99496000  1.0
  C  C45  1  0.27852000  0.28094000  0.00504000  1.0
  C  C46  1  0.88571000  0.87821000  0.21470000  1.0
  C  C47  1  0.61430000  0.37819000  0.78530000  1.0
  C  C48  1  0.11429000  0.12179000  0.78531000  1.0
  C  C49  1  0.38571000  0.62181000  0.21470000  1.0
  N  N50  1  0.95853000  0.98272000  0.36050000  1.0
  N  N51  1  0.54148000  0.48271000  0.63951000  1.0
  N  N52  1  0.04147000  0.01729000  0.63950000  1.0
  N  N53  1  0.45853000  0.51729000  0.36049000  1.0
  N  N54  1  0.90445000  0.00242000  0.16418000  1.0
  N  N55  1  0.59557000  0.50239000  0.83582000  1.0
  N  N56  1  0.09554000  0.99758000  0.83582000  1.0
  N  N57  1  0.40444000  0.49761000  0.16418000  1.0
  N  N58  1  0.77260000  0.34152000  0.98864000  1.0
  N  N59  1  0.72739000  0.84151000  0.01137000  1.0
  N  N60  1  0.22741000  0.65849000  0.01135000  1.0
  N  N61  1  0.27260000  0.15848000  0.98864000  1.0
  O  O62  1  0.04841000  0.20749000  0.45766000  1.0
  O  O63  1  0.45158000  0.70749000  0.54234000  1.0
  O  O64  1  0.95159000  0.79252000  0.54234000  1.0
  O  O65  1  0.54841000  0.29251000  0.45766000  1.0
  O  O66  1  0.03252000  0.35422000  0.32772000  1.0
  O  O67  1  0.46748000  0.85422000  0.67226000  1.0
  O  O68  1  0.96749000  0.64578000  0.67228000  1.0
  O  O69  1  0.53252000  0.14578000  0.32774000  1.0
  O  O70  1  0.66410000  0.07511000  0.56911000  1.0
  O  O71  1  0.83591000  0.57511000  0.43089000  1.0
  O  O72  1  0.33590000  0.92489000  0.43089000  1.0
  O  O73  1  0.16409000  0.42489000  0.56911000  1.0
