# generated using pymatgen
data_ZnH13C18BrN4O
_symmetry_space_group_name_H-M   'P 1'
_cell_length_a   8.58823000
_cell_length_b   13.02230000
_cell_length_c   16.83560000
_cell_angle_alpha   90.00000000
_cell_angle_beta   89.99980000
_cell_angle_gamma   89.99990000
_symmetry_Int_Tables_number   1
_chemical_formula_structural   ZnH13C18BrN4O
_chemical_formula_sum   'Zn4 H52 C72 Br4 N16 O4'
_cell_volume   1882.86837734
_cell_formula_units_Z   4
loop_
 _symmetry_equiv_pos_site_id
 _symmetry_equiv_pos_as_xyz
  1  'x, y, z'
loop_
 _atom_site_type_symbol
 _atom_site_label
 _atom_site_symmetry_multiplicity
 _atom_site_fract_x
 _atom_site_fract_y
 _atom_site_fract_z
 _atom_site_occupancy
  Zn  Zn0  1  0.62820000  0.61851000  0.75469000  1.0
  Zn  Zn1  1  0.87180000  0.38149000  0.25469000  1.0
  Zn  Zn2  1  0.12820000  0.88149000  0.24531000  1.0
  Zn  Zn3  1  0.37180000  0.11850000  0.74531000  1.0
  H  H4  1  0.08956000  0.09799000  0.84552000  1.0
  H  H5  1  0.41044000  0.90201000  0.34552000  1.0
  H  H6  1  0.58956000  0.40201000  0.15448000  1.0
  H  H7  1  0.91044000  0.59799000  0.65448000  1.0
  H  H8  1  0.44329000  0.40689000  0.78871000  1.0
  H  H9  1  0.05671000  0.59311000  0.28872000  1.0
  H  H10  1  0.94329000  0.09311000  0.21129000  1.0
  H  H11  1  0.55671000  0.90689000  0.71128000  1.0
  H  H12  1  0.03960000  0.80437000  0.66403000  1.0
  H  H13  1  0.46040000  0.19563000  0.16403000  1.0
  H  H14  1  0.53960000  0.69563000  0.33597000  1.0
  H  H15  1  0.96040000  0.30437000  0.83597000  1.0
  H  H16  1  0.85441000  0.98305000  0.85699000  1.0
  H  H17  1  0.64558000  0.01695000  0.35699000  1.0
  H  H18  1  0.35441000  0.51695000  0.14301000  1.0
  H  H19  1  0.14559000  0.48305000  0.64301000  1.0
  H  H20  1  0.30258000  0.32860000  0.90307000  1.0
  H  H21  1  0.19742000  0.67139000  0.40307000  1.0
  H  H22  1  0.80258000  0.17139000  0.09693000  1.0
  H  H23  1  0.69742000  0.82860000  0.59693000  1.0
  H  H24  1  0.39942000  0.60714000  0.03516000  1.0
  H  H25  1  0.10057000  0.39286000  0.53516000  1.0
  H  H26  1  0.89943000  0.89286000  0.96484000  1.0
  H  H27  1  0.60058000  0.10714000  0.46484000  1.0
  H  H28  1  0.70291000  0.64034000  0.06054000  1.0
  H  H29  1  0.79709000  0.35966000  0.56054000  1.0
  H  H30  1  0.20291000  0.85966000  0.93946000  1.0
  H  H31  1  0.29709000  0.14034000  0.43946000  1.0
  H  H32  1  0.48351000  0.88939000  0.93458000  1.0
  H  H33  1  0.01649000  0.11061000  0.43459000  1.0
  H  H34  1  0.98351000  0.61061000  0.06541000  1.0
  H  H35  1  0.51650000  0.38938000  0.56542000  1.0
  H  H36  1  0.27657000  0.43283000  0.02955000  1.0
  H  H37  1  0.22342000  0.56717000  0.52955000  1.0
  H  H38  1  0.77658000  0.06717000  0.97045000  1.0
  H  H39  1  0.72343000  0.93283000  0.47045000  1.0
  H  H40  1  0.26367000  0.92709000  0.65807000  1.0
  H  H41  1  0.23633000  0.07291000  0.15807000  1.0
  H  H42  1  0.76367000  0.57291000  0.34193000  1.0
  H  H43  1  0.73633000  0.42709000  0.84193000  1.0
  H  H44  1  0.71908000  0.74947000  0.18178000  1.0
  H  H45  1  0.78091000  0.25054000  0.68178000  1.0
  H  H46  1  0.21909000  0.75054000  0.81822000  1.0
  H  H47  1  0.28092000  0.24947000  0.31822000  1.0
  H  H48  1  0.60484000  0.92397000  0.18136000  1.0
  H  H49  1  0.89514000  0.07604000  0.68137000  1.0
  H  H50  1  0.10486000  0.57604000  0.81863000  1.0
  H  H51  1  0.39516000  0.42397000  0.31864000  1.0
  H  H52  1  0.48478000  0.99365000  0.05736000  1.0
  H  H53  1  0.01522000  0.00635000  0.55737000  1.0
  H  H54  1  0.98479000  0.50635000  0.94262000  1.0
  H  H55  1  0.51522000  0.49365000  0.44264000  1.0
  C  C56  1  0.49692000  0.59444000  0.91729000  1.0
  C  C57  1  0.00307000  0.40556000  0.41729000  1.0
  C  C58  1  0.99693000  0.90556000  0.08271000  1.0
  C  C59  1  0.50308000  0.09444000  0.58271000  1.0
  C  C60  1  0.07445000  0.03103000  0.80756000  1.0
  C  C61  1  0.42555000  0.96897000  0.30756000  1.0
  C  C62  1  0.57445000  0.46897000  0.19244000  1.0
  C  C63  1  0.92555000  0.53103000  0.69244000  1.0
  C  C64  1  0.93346000  0.88191000  0.76378000  1.0
  C  C65  1  0.56654000  0.11809000  0.26378000  1.0
  C  C66  1  0.43346000  0.61809000  0.23622000  1.0
  C  C67  1  0.06654000  0.38191000  0.73622000  1.0
  C  C68  1  0.43429000  0.44728000  0.84536000  1.0
  C  C69  1  0.06571000  0.55271000  0.34536000  1.0
  C  C70  1  0.93429000  0.05272000  0.15464000  1.0
  C  C71  1  0.56571000  0.94728000  0.65464000  1.0
  C  C72  1  0.04731000  0.86864000  0.70519000  1.0
  C  C73  1  0.45269000  0.13136000  0.20519000  1.0
  C  C74  1  0.54731000  0.63136000  0.29481000  1.0
  C  C75  1  0.95269000  0.36864000  0.79481000  1.0
  C  C76  1  0.94580000  0.96708000  0.81411000  1.0
  C  C77  1  0.55420000  0.03292000  0.31411000  1.0
  C  C78  1  0.44580000  0.53292000  0.18589000  1.0
  C  C79  1  0.05420000  0.46708000  0.68589000  1.0
  C  C80  1  0.81046000  0.80257000  0.77296000  1.0
  C  C81  1  0.68954000  0.19743000  0.27296000  1.0
  C  C82  1  0.31046000  0.69743000  0.22704000  1.0
  C  C83  1  0.18954000  0.30257000  0.72704000  1.0
  C  C84  1  0.35507000  0.40423000  0.90959000  1.0
  C  C85  1  0.14493000  0.59577000  0.40959000  1.0
  C  C86  1  0.85507000  0.09577000  0.09040000  1.0
  C  C87  1  0.64493000  0.90423000  0.59041000  1.0
  C  C88  1  0.41333000  0.55842000  0.98304000  1.0
  C  C89  1  0.08666000  0.44158000  0.48304000  1.0
  C  C90  1  0.91334000  0.94158000  0.01696000  1.0
  C  C91  1  0.58667000  0.05842000  0.51696000  1.0
  C  C92  1  0.65511000  0.71787000  0.06018000  1.0
  C  C93  1  0.84489000  0.28213000  0.56018000  1.0
  C  C94  1  0.15511000  0.78213000  0.93982000  1.0
  C  C95  1  0.34489000  0.21787000  0.43982000  1.0
  C  C96  1  0.58102000  0.69311000  0.91775000  1.0
  C  C97  1  0.91898000  0.30689000  0.41775000  1.0
  C  C98  1  0.08102000  0.80689000  0.08225000  1.0
  C  C99  1  0.41898000  0.19311000  0.58225000  1.0
  C  C100  1  0.52951000  0.85717000  0.98951000  1.0
  C  C101  1  0.97048000  0.14282000  0.48952000  1.0
  C  C102  1  0.02952000  0.64282000  0.01048000  1.0
  C  C103  1  0.47049000  0.35717000  0.51049000  1.0
  C  C104  1  0.34352000  0.46187000  0.97917000  1.0
  C  C105  1  0.15647000  0.53813000  0.47917000  1.0
  C  C106  1  0.84353000  0.03813000  0.02083000  1.0
  C  C107  1  0.65648000  0.96187000  0.52083000  1.0
  C  C108  1  0.17200000  0.93617000  0.70214000  1.0
  C  C109  1  0.32800000  0.06383000  0.20214000  1.0
  C  C110  1  0.67200000  0.56383000  0.29786000  1.0
  C  C111  1  0.82800000  0.43617000  0.79786000  1.0
  C  C112  1  0.66289000  0.77866000  0.12831000  1.0
  C  C113  1  0.83711000  0.22135000  0.62832000  1.0
  C  C114  1  0.16290000  0.72135000  0.87168000  1.0
  C  C115  1  0.33711000  0.27866000  0.37169000  1.0
  C  C116  1  0.58870000  0.75673000  0.99024000  1.0
  C  C117  1  0.91129000  0.24327000  0.49024000  1.0
  C  C118  1  0.08871000  0.74327000  0.00976000  1.0
  C  C119  1  0.41130000  0.25673000  0.50976000  1.0
  C  C120  1  0.59870000  0.87701000  0.12799000  1.0
  C  C121  1  0.90129000  0.12300000  0.62800000  1.0
  C  C122  1  0.09872000  0.62300000  0.87200000  1.0
  C  C123  1  0.40130000  0.37701000  0.37201000  1.0
  C  C124  1  0.53161000  0.91589000  0.05861000  1.0
  C  C125  1  0.96837000  0.08411000  0.55862000  1.0
  C  C126  1  0.03163000  0.58411000  0.94138000  1.0
  C  C127  1  0.46839000  0.41589000  0.44139000  1.0
  Br  Br128  1  0.44705000  0.62004000  0.64771000  1.0
  Br  Br129  1  0.05295000  0.37996000  0.14771000  1.0
  Br  Br130  1  0.94705000  0.87996000  0.35229000  1.0
  Br  Br131  1  0.55295000  0.12004000  0.85229000  1.0
  N  N132  1  0.74248000  0.80052000  0.84531000  1.0
  N  N133  1  0.75752000  0.19948000  0.34531000  1.0
  N  N134  1  0.24248000  0.69948000  0.15469000  1.0
  N  N135  1  0.25752000  0.30052000  0.65469000  1.0
  N  N136  1  0.64870000  0.71762000  0.85077000  1.0
  N  N137  1  0.85130000  0.28238000  0.35078000  1.0
  N  N138  1  0.14870000  0.78238000  0.14922000  1.0
  N  N139  1  0.35130000  0.21762000  0.64923000  1.0
  N  N140  1  0.18771000  0.01522000  0.75322000  1.0
  N  N141  1  0.31229000  0.98478000  0.25322000  1.0
  N  N142  1  0.68771000  0.48478000  0.24678000  1.0
  N  N143  1  0.81229000  0.51522000  0.74678000  1.0
  N  N144  1  0.50439000  0.53885000  0.84918000  1.0
  N  N145  1  0.99561000  0.46115000  0.34918000  1.0
  N  N146  1  0.00439000  0.96115000  0.15082000  1.0
  N  N147  1  0.49561000  0.03885000  0.65082000  1.0
  O  O148  1  0.78639000  0.74067000  0.71556000  1.0
  O  O149  1  0.71361000  0.25933000  0.21556000  1.0
  O  O150  1  0.28639000  0.75932000  0.28444000  1.0
  O  O151  1  0.21361000  0.24067000  0.78444000  1.0
