# generated using pymatgen
data_CdH10C12I2N4O
_symmetry_space_group_name_H-M   'P 1'
_cell_length_a   7.40746000
_cell_length_b   7.55066000
_cell_length_c   13.38850000
_cell_angle_alpha   90.00000000
_cell_angle_beta   93.26120000
_cell_angle_gamma   89.99940000
_symmetry_Int_Tables_number   1
_chemical_formula_structural   CdH10C12I2N4O
_chemical_formula_sum   'Cd2 H20 C24 I4 N8 O2'
_cell_volume   747.62234440
_cell_formula_units_Z   2
loop_
 _symmetry_equiv_pos_site_id
 _symmetry_equiv_pos_as_xyz
  1  'x, y, z'
loop_
 _atom_site_type_symbol
 _atom_site_label
 _atom_site_symmetry_multiplicity
 _atom_site_fract_x
 _atom_site_fract_y
 _atom_site_fract_z
 _atom_site_occupancy
  Cd  Cd0  1  0.35138000  0.86154000  0.56591000  1.0
  Cd  Cd1  1  0.35137000  0.13847000  0.06591000  1.0
  H  H2  1  0.20255000  0.79748000  0.87551000  1.0
  H  H3  1  0.20254000  0.20252000  0.37551000  1.0
  H  H4  1  0.73883000  0.46857000  0.83891000  1.0
  H  H5  1  0.73882000  0.53144000  0.33891000  1.0
  H  H6  1  0.97282000  0.35551000  0.72618000  1.0
  H  H7  1  0.97283000  0.64448000  0.22618000  1.0
  H  H8  1  0.95661000  0.45460000  0.54686000  1.0
  H  H9  1  0.95662000  0.54538000  0.04686000  1.0
  H  H10  1  0.70991000  0.66175000  0.48854000  1.0
  H  H11  1  0.70991000  0.33824000  0.98854000  1.0
  H  H12  1  0.46425000  0.64499000  0.86344000  1.0
  H  H13  1  0.46424000  0.35502000  0.36344000  1.0
  H  H14  1  0.73018000  0.06803000  0.70246000  1.0
  H  H15  1  0.73018000  0.93198000  0.20246000  1.0
  H  H16  1  0.48647000  0.16024000  0.81318000  1.0
  H  H17  1  0.48648000  0.83975000  0.31317000  1.0
  H  H18  1  0.74800000  0.91770000  0.05842000  1.0
  H  H19  1  0.74800000  0.08229000  0.55841000  1.0
  H  H20  1  0.00182000  0.82320000  0.96244000  1.0
  H  H21  1  0.00181000  0.17680000  0.46243000  1.0
  C  C22  1  0.59861000  0.61793000  0.72100000  1.0
  C  C23  1  0.59860000  0.38208000  0.22099000  1.0
  C  C24  1  0.73543000  0.50594000  0.76021000  1.0
  C  C25  1  0.73542000  0.49406000  0.26021000  1.0
  C  C26  1  0.86485000  0.44310000  0.69752000  1.0
  C  C27  1  0.86485000  0.55689000  0.19752000  1.0
  C  C28  1  0.85537000  0.49599000  0.59788000  1.0
  C  C29  1  0.85537000  0.50401000  0.09788000  1.0
  C  C30  1  0.71806000  0.61205000  0.56499000  1.0
  C  C31  1  0.71806000  0.38796000  0.06499000  1.0
  C  C32  1  0.45561000  0.67711000  0.78334000  1.0
  C  C33  1  0.45560000  0.32290000  0.28334000  1.0
  C  C34  1  0.03171000  0.88750000  0.75372000  1.0
  C  C35  1  0.03172000  0.11250000  0.25371000  1.0
  C  C36  1  0.88766000  0.93808000  0.82195000  1.0
  C  C37  1  0.88766000  0.06192000  0.32194000  1.0
  C  C38  1  0.73901000  0.03310000  0.78132000  1.0
  C  C39  1  0.73900000  0.96690000  0.28131000  1.0
  C  C40  1  0.60309000  0.08416000  0.84285000  1.0
  C  C41  1  0.60309000  0.91583000  0.34284000  1.0
  C  C42  1  0.74778000  0.94946000  0.97919000  1.0
  C  C43  1  0.74777000  0.05053000  0.47918000  1.0
  C  C44  1  0.89070000  0.89482000  0.92367000  1.0
  C  C45  1  0.89070000  0.10519000  0.42366000  1.0
  I  I46  1  0.33217000  0.22832000  0.58712000  1.0
  I  I47  1  0.33221000  0.77169000  0.08712000  1.0
  I  I48  1  0.17921000  0.67012000  0.41273000  1.0
  I  I49  1  0.17920000  0.32989000  0.91273000  1.0
  N  N50  1  0.59286000  0.67232000  0.62442000  1.0
  N  N51  1  0.59285000  0.32769000  0.12442000  1.0
  N  N52  1  0.31939000  0.76170000  0.74188000  1.0
  N  N53  1  0.31939000  0.23830000  0.24188000  1.0
  N  N54  1  0.18606000  0.81424000  0.79921000  1.0
  N  N55  1  0.18605000  0.18576000  0.29921000  1.0
  N  N56  1  0.60683000  0.04393000  0.94074000  1.0
  N  N57  1  0.60683000  0.95607000  0.44073000  1.0
  O  O58  1  0.01384000  0.90833000  0.66212000  1.0
  O  O59  1  0.01385000  0.09166000  0.16212000  1.0
