# generated using pymatgen
data_ZnH10(C2N)4
_symmetry_space_group_name_H-M   'P 1'
_cell_length_a   14.77449425
_cell_length_b   14.77430000
_cell_length_c   14.77440000
_cell_angle_alpha   109.47100000
_cell_angle_beta   109.47180689
_cell_angle_gamma   109.47125846
_symmetry_Int_Tables_number   1
_chemical_formula_structural   ZnH10(C2N)4
_chemical_formula_sum   'Zn6 H60 C48 N24'
_cell_volume   2482.59191347
_cell_formula_units_Z   6
loop_
 _symmetry_equiv_pos_site_id
 _symmetry_equiv_pos_as_xyz
  1  'x, y, z'
loop_
 _atom_site_type_symbol
 _atom_site_label
 _atom_site_symmetry_multiplicity
 _atom_site_fract_x
 _atom_site_fract_y
 _atom_site_fract_z
 _atom_site_occupancy
  Zn  Zn0  1  0.25000000  0.50000000  0.75000000  1.0
  Zn  Zn1  1  0.75000000  0.50000000  0.25000000  1.0
  Zn  Zn2  1  0.25000000  0.75000000  0.50000000  1.0
  Zn  Zn3  1  0.75000000  0.25000000  0.50000000  1.0
  Zn  Zn4  1  0.50000000  0.25000000  0.75000000  1.0
  Zn  Zn5  1  0.50000000  0.75000000  0.25000000  1.0
  H  H6  1  0.40808000  0.76224000  0.88472000  1.0
  H  H7  1  0.59192000  0.47663000  0.35416000  1.0
  H  H8  1  0.12248000  0.23777000  0.64585000  1.0
  H  H9  1  0.87752000  0.52336000  0.11528000  1.0
  H  H10  1  0.35416000  0.47664000  0.59192000  1.0
  H  H11  1  0.88471000  0.76223000  0.40808000  1.0
  H  H12  1  0.11529000  0.52337000  0.87753000  1.0
  H  H13  1  0.64584000  0.23776000  0.12248000  1.0
  H  H14  1  0.35416000  0.59192000  0.47664000  1.0
  H  H15  1  0.88471000  0.40807000  0.76223000  1.0
  H  H16  1  0.64584000  0.12248000  0.23776000  1.0
  H  H17  1  0.11529000  0.87753000  0.52337000  1.0
  H  H18  1  0.23776000  0.12247000  0.64584000  1.0
  H  H19  1  0.76224000  0.40808000  0.88472000  1.0
  H  H20  1  0.52336000  0.87752000  0.11528000  1.0
  H  H21  1  0.47664000  0.59193000  0.35416000  1.0
  H  H22  1  0.23776000  0.64584000  0.12248000  1.0
  H  H23  1  0.52336000  0.11528000  0.87752000  1.0
  H  H24  1  0.47664000  0.35416000  0.59193000  1.0
  H  H25  1  0.76224000  0.88472000  0.40808000  1.0
  H  H26  1  0.59192000  0.35416000  0.47664000  1.0
  H  H27  1  0.40808000  0.88472000  0.76224000  1.0
  H  H28  1  0.87752000  0.11528000  0.52336000  1.0
  H  H29  1  0.12248000  0.64585000  0.23777000  1.0
  H  H30  1  0.30557000  0.43830000  0.92615000  1.0
  H  H31  1  0.69443000  0.62057000  0.13272000  1.0
  H  H32  1  0.48785000  0.56171000  0.86727000  1.0
  H  H33  1  0.51215000  0.37942000  0.07386000  1.0
  H  H34  1  0.13273000  0.62058000  0.69444000  1.0
  H  H35  1  0.92614000  0.43829000  0.30556000  1.0
  H  H36  1  0.07386000  0.37943000  0.51215000  1.0
  H  H37  1  0.86727000  0.56170000  0.48784000  1.0
  H  H38  1  0.13273000  0.69444000  0.62058000  1.0
  H  H39  1  0.92614000  0.30557000  0.43829000  1.0
  H  H40  1  0.86727000  0.48784000  0.56170000  1.0
  H  H41  1  0.07386000  0.51215000  0.37943000  1.0
  H  H42  1  0.56171000  0.48785000  0.86728000  1.0
  H  H43  1  0.43829000  0.30556000  0.92614000  1.0
  H  H44  1  0.37943000  0.51216000  0.07386000  1.0
  H  H45  1  0.62058000  0.69444000  0.13273000  1.0
  H  H46  1  0.56171000  0.86728000  0.48785000  1.0
  H  H47  1  0.37943000  0.07386000  0.51216000  1.0
  H  H48  1  0.62057000  0.13272000  0.69443000  1.0
  H  H49  1  0.43829000  0.92614000  0.30556000  1.0
  H  H50  1  0.69443000  0.13272000  0.62057000  1.0
  H  H51  1  0.30557000  0.92614000  0.43830000  1.0
  H  H52  1  0.51215000  0.07386000  0.37942000  1.0
  H  H53  1  0.48785000  0.86727000  0.56171000  1.0
  H  H54  1  0.24303000  0.48617000  1.00000000  1.0
  H  H55  1  0.75697000  0.75697000  0.24315000  1.0
  H  H56  1  0.51383000  0.51383000  0.75686000  1.0
  H  H57  1  0.48618000  0.24304000  1.00000000  1.0
  H  H58  1  0.24315000  0.75697000  0.75697000  1.0
  H  H59  1  0.00000000  0.48617000  0.24303000  1.0
  H  H60  1  0.00000000  0.24303000  0.48618000  1.0
  H  H61  1  0.75686000  0.51383000  0.51383000  1.0
  H  H62  1  0.51382000  0.75685000  0.51382000  1.0
  H  H63  1  0.24303000  0.00000000  0.48617000  1.0
  H  H64  1  0.75697000  0.24314000  0.75697000  1.0
  H  H65  1  0.48617000  0.00000000  0.24303000  1.0
  C  C66  1  0.40888000  0.73289000  0.94303000  1.0
  C  C67  1  0.59112000  0.53415000  0.32400000  1.0
  C  C68  1  0.21014000  0.26711000  0.67599000  1.0
  C  C69  1  0.78986000  0.46585000  0.05698000  1.0
  C  C70  1  0.32400000  0.53414000  0.59112000  1.0
  C  C71  1  0.94303000  0.73289000  0.40888000  1.0
  C  C72  1  0.05697000  0.46585000  0.78985000  1.0
  C  C73  1  0.67599000  0.26711000  0.21014000  1.0
  C  C74  1  0.32400000  0.59112000  0.53414000  1.0
  C  C75  1  0.94303000  0.40888000  0.73289000  1.0
  C  C76  1  0.67600000  0.21015000  0.26712000  1.0
  C  C77  1  0.05697000  0.78985000  0.46585000  1.0
  C  C78  1  0.26712000  0.21015000  0.67600000  1.0
  C  C79  1  0.73289000  0.40889000  0.94303000  1.0
  C  C80  1  0.46585000  0.78986000  0.05697000  1.0
  C  C81  1  0.53415000  0.59112000  0.32401000  1.0
  C  C82  1  0.26712000  0.67600000  0.21015000  1.0
  C  C83  1  0.46585000  0.05697000  0.78985000  1.0
  C  C84  1  0.53415000  0.32401000  0.59112000  1.0
  C  C85  1  0.73288000  0.94302000  0.40888000  1.0
  C  C86  1  0.59112000  0.32400000  0.53415000  1.0
  C  C87  1  0.40888000  0.94303000  0.73288000  1.0
  C  C88  1  0.78986000  0.05698000  0.46586000  1.0
  C  C89  1  0.21014000  0.67599000  0.26711000  1.0
  C  C90  1  0.36939000  0.61340000  1.00000000  1.0
  C  C91  1  0.63061000  0.63061000  0.24401000  1.0
  C  C92  1  0.38660000  0.38660000  0.75599000  1.0
  C  C93  1  0.61340000  0.36939000  0.00000000  1.0
  C  C94  1  0.24401000  0.63061000  0.63061000  1.0
  C  C95  1  0.00000000  0.61340000  0.36939000  1.0
  C  C96  1  1.00000000  0.36939000  0.61340000  1.0
  C  C97  1  0.75599000  0.38660000  0.38660000  1.0
  C  C98  1  0.38660000  0.75599000  0.38660000  1.0
  C  C99  1  0.36939000  0.00000000  0.61340000  1.0
  C  C100  1  0.63061000  0.24401000  0.63061000  1.0
  C  C101  1  0.61340000  0.00000000  0.36939000  1.0
  C  C102  1  0.32187000  0.50707000  0.00000000  1.0
  C  C103  1  0.67813000  0.67813000  0.18520000  1.0
  C  C104  1  0.49293000  0.49293000  0.81480000  1.0
  C  C105  1  0.50707000  0.32187000  1.00000000  1.0
  C  C106  1  0.18520000  0.67813000  0.67813000  1.0
  C  C107  1  1.00000000  0.50707000  0.32187000  1.0
  C  C108  1  0.00000000  0.32187000  0.50707000  1.0
  C  C109  1  0.81480000  0.49293000  0.49293000  1.0
  C  C110  1  0.49293000  0.81480000  0.49293000  1.0
  C  C111  1  0.32187000  0.00000000  0.50707000  1.0
  C  C112  1  0.67813000  0.18520000  0.67813000  1.0
  C  C113  1  0.50707000  0.00000000  0.32187000  1.0
  N  N114  1  0.34801000  0.62167000  0.90755000  1.0
  N  N115  1  0.65199000  0.55954000  0.27367000  1.0
  N  N116  1  0.28587000  0.37832000  0.72634000  1.0
  N  N117  1  0.71413000  0.44047000  0.09245000  1.0
  N  N118  1  0.27366000  0.55953000  0.65198000  1.0
  N  N119  1  0.90755000  0.62168000  0.34801000  1.0
  N  N120  1  0.09245000  0.44046000  0.71413000  1.0
  N  N121  1  0.72634000  0.37833000  0.28588000  1.0
  N  N122  1  0.27366000  0.65198000  0.55953000  1.0
  N  N123  1  0.90755000  0.34801000  0.62168000  1.0
  N  N124  1  0.72634000  0.28588000  0.37833000  1.0
  N  N125  1  0.09245000  0.71413000  0.44046000  1.0
  N  N126  1  0.37832000  0.28587000  0.72633000  1.0
  N  N127  1  0.62168000  0.34802000  0.90755000  1.0
  N  N128  1  0.44046000  0.71412000  0.09245000  1.0
  N  N129  1  0.55953000  0.65198000  0.27366000  1.0
  N  N130  1  0.37832000  0.72633000  0.28587000  1.0
  N  N131  1  0.44047000  0.09245000  0.71413000  1.0
  N  N132  1  0.55954000  0.27367000  0.65199000  1.0
  N  N133  1  0.62168000  0.90755000  0.34802000  1.0
  N  N134  1  0.65199000  0.27367000  0.55954000  1.0
  N  N135  1  0.34801000  0.90754000  0.62167000  1.0
  N  N136  1  0.71413000  0.09245000  0.44047000  1.0
  N  N137  1  0.28587000  0.72634000  0.37832000  1.0
