# generated using pymatgen
data_ZnH21C20Br(NO)4
_symmetry_space_group_name_H-M   'P 1'
_cell_length_a   8.83298000
_cell_length_b   20.42220000
_cell_length_c   26.26070000
_cell_angle_alpha   90.00010000
_cell_angle_beta   89.99960000
_cell_angle_gamma   89.99980000
_symmetry_Int_Tables_number   1
_chemical_formula_structural   ZnH21C20Br(NO)4
_chemical_formula_sum   'Zn8 H168 C160 Br8 N32 O32'
_cell_volume   4737.13837000
_cell_formula_units_Z   8
loop_
 _symmetry_equiv_pos_site_id
 _symmetry_equiv_pos_as_xyz
  1  'x, y, z'
loop_
 _atom_site_type_symbol
 _atom_site_label
 _atom_site_symmetry_multiplicity
 _atom_site_fract_x
 _atom_site_fract_y
 _atom_site_fract_z
 _atom_site_occupancy
  Zn  Zn0  1  0.59211000  0.75000000  0.49999000  1.0
  Zn  Zn1  1  0.90789000  0.75001000  0.00000000  1.0
  Zn  Zn2  1  0.40787000  0.25000000  0.50000000  1.0
  Zn  Zn3  1  0.09210000  0.25000000  0.99999000  1.0
  Zn  Zn4  1  0.75000000  0.08219000  0.25000000  1.0
  Zn  Zn5  1  0.74999000  0.41782000  0.75000000  1.0
  Zn  Zn6  1  0.25000000  0.91781000  0.75000000  1.0
  Zn  Zn7  1  0.24999000  0.58219000  0.25001000  1.0
  H  H8  1  0.60924000  0.33085000  0.44149000  1.0
  H  H9  1  0.60924000  0.16914000  0.55851000  1.0
  H  H10  1  0.89076000  0.16915000  0.94148000  1.0
  H  H11  1  0.89075000  0.33086000  0.05851000  1.0
  H  H12  1  0.39076000  0.66914000  0.55851000  1.0
  H  H13  1  0.39075000  0.83086000  0.44148000  1.0
  H  H14  1  0.10925000  0.83085000  0.05852000  1.0
  H  H15  1  0.10924000  0.66915000  0.94149000  1.0
  H  H16  1  0.79643000  0.31811000  0.46437000  1.0
  H  H17  1  0.79642000  0.18189000  0.53563000  1.0
  H  H18  1  0.70356000  0.18190000  0.96436000  1.0
  H  H19  1  0.70356000  0.31811000  0.03563000  1.0
  H  H20  1  0.20356000  0.68189000  0.53563000  1.0
  H  H21  1  0.20355000  0.81810000  0.46436000  1.0
  H  H22  1  0.29645000  0.81810000  0.03564000  1.0
  H  H23  1  0.29644000  0.68189000  0.96437000  1.0
  H  H24  1  0.76146000  0.31927000  0.39807000  1.0
  H  H25  1  0.76146000  0.18072000  0.60193000  1.0
  H  H26  1  0.73854000  0.18072000  0.89806000  1.0
  H  H27  1  0.73854000  0.31928000  0.10193000  1.0
  H  H28  1  0.23855000  0.68071000  0.60193000  1.0
  H  H29  1  0.23853000  0.81928000  0.39806000  1.0
  H  H30  1  0.26147000  0.81927000  0.10194000  1.0
  H  H31  1  0.26145000  0.68072000  0.89807000  1.0
  H  H32  1  0.45888000  0.02090000  0.27433000  1.0
  H  H33  1  0.45887000  0.47911000  0.72567000  1.0
  H  H34  1  0.04111000  0.47911000  0.77433000  1.0
  H  H35  1  0.04112000  0.02090000  0.22568000  1.0
  H  H36  1  0.54113000  0.97909000  0.72567000  1.0
  H  H37  1  0.54113000  0.52091000  0.27432000  1.0
  H  H38  1  0.95888000  0.52090000  0.22567000  1.0
  H  H39  1  0.95889000  0.97909000  0.77433000  1.0
  H  H40  1  0.27416000  0.04910000  0.29183000  1.0
  H  H41  1  0.27416000  0.45091000  0.70817000  1.0
  H  H42  1  0.22582000  0.45091000  0.79183000  1.0
  H  H43  1  0.22584000  0.04910000  0.20817000  1.0
  H  H44  1  0.72584000  0.95089000  0.70817000  1.0
  H  H45  1  0.72583000  0.54910000  0.29183000  1.0
  H  H46  1  0.77417000  0.54909000  0.20817000  1.0
  H  H47  1  0.77417000  0.95089000  0.79183000  1.0
  H  H48  1  0.40643000  0.02471000  0.33924000  1.0
  H  H49  1  0.40643000  0.47530000  0.66076000  1.0
  H  H50  1  0.09356000  0.47529000  0.83924000  1.0
  H  H51  1  0.09357000  0.02471000  0.16076000  1.0
  H  H52  1  0.59358000  0.97528000  0.66076000  1.0
  H  H53  1  0.59355000  0.52471000  0.33923000  1.0
  H  H54  1  0.90644000  0.52470000  0.16076000  1.0
  H  H55  1  0.90642000  0.97528000  0.83924000  1.0
  H  H56  1  0.69764000  0.23284000  0.28802000  1.0
  H  H57  1  0.69763000  0.26717000  0.71198000  1.0
  H  H58  1  0.80237000  0.26717000  0.78801000  1.0
  H  H59  1  0.80237000  0.23284000  0.21198000  1.0
  H  H60  1  0.30235000  0.76716000  0.71198000  1.0
  H  H61  1  0.30236000  0.73284000  0.28802000  1.0
  H  H62  1  0.19762000  0.73284000  0.21198000  1.0
  H  H63  1  0.19765000  0.76716000  0.78801000  1.0
  H  H64  1  0.43848000  0.26954000  0.34049000  1.0
  H  H65  1  0.43848000  0.23047000  0.65951000  1.0
  H  H66  1  0.06153000  0.23047000  0.84048000  1.0
  H  H67  1  0.06153000  0.26954000  0.15951000  1.0
  H  H68  1  0.56150000  0.73046000  0.65951000  1.0
  H  H69  1  0.56152000  0.76954000  0.34048000  1.0
  H  H70  1  0.93847000  0.76953000  0.15951000  1.0
  H  H71  1  0.93850000  0.73045000  0.84048000  1.0
  H  H72  1  0.18434000  0.11765000  0.34316000  1.0
  H  H73  1  0.18434000  0.38236000  0.65683000  1.0
  H  H74  1  0.31567000  0.38236000  0.84316000  1.0
  H  H75  1  0.31567000  0.11765000  0.15684000  1.0
  H  H76  1  0.81566000  0.88234000  0.65684000  1.0
  H  H77  1  0.81567000  0.61765000  0.34315000  1.0
  H  H78  1  0.68434000  0.61764000  0.15684000  1.0
  H  H79  1  0.68435000  0.88234000  0.84317000  1.0
  H  H80  1  0.25102000  0.16712000  0.39400000  1.0
  H  H81  1  0.25102000  0.33288000  0.60600000  1.0
  H  H82  1  0.24899000  0.33287000  0.89399000  1.0
  H  H83  1  0.24900000  0.16712000  0.10601000  1.0
  H  H84  1  0.74898000  0.83286000  0.60601000  1.0
  H  H85  1  0.74899000  0.66712000  0.39399000  1.0
  H  H86  1  0.75101000  0.66712000  0.10600000  1.0
  H  H87  1  0.75102000  0.83286000  0.89399000  1.0
  H  H88  1  0.13866000  0.22468000  0.29266000  1.0
  H  H89  1  0.13865000  0.27534000  0.70735000  1.0
  H  H90  1  0.36134000  0.27533000  0.79265000  1.0
  H  H91  1  0.36134000  0.22467000  0.20735000  1.0
  H  H92  1  0.86133000  0.77532000  0.70735000  1.0
  H  H93  1  0.86134000  0.72468000  0.29265000  1.0
  H  H94  1  0.63866000  0.72466000  0.20734000  1.0
  H  H95  1  0.63867000  0.77533000  0.79265000  1.0
  H  H96  1  0.16589000  0.26711000  0.35086000  1.0
  H  H97  1  0.16588000  0.23290000  0.64915000  1.0
  H  H98  1  0.33411000  0.23290000  0.85085000  1.0
  H  H99  1  0.33411000  0.26710000  0.14915000  1.0
  H  H100  1  0.83410000  0.73289000  0.64915000  1.0
  H  H101  1  0.83411000  0.76711000  0.35085000  1.0
  H  H102  1  0.66588000  0.76710000  0.14915000  1.0
  H  H103  1  0.66589000  0.73288000  0.85085000  1.0
  H  H104  1  0.89489000  0.24843000  0.33458000  1.0
  H  H105  1  0.89489000  0.25159000  0.66542000  1.0
  H  H106  1  0.60510000  0.25158000  0.83457000  1.0
  H  H107  1  0.60511000  0.24843000  0.16542000  1.0
  H  H108  1  0.10509000  0.75156000  0.66543000  1.0
  H  H109  1  0.10510000  0.74843000  0.33457000  1.0
  H  H110  1  0.39489000  0.74841000  0.16543000  1.0
  H  H111  1  0.39490000  0.75157000  0.83457000  1.0
  H  H112  1  0.92390000  0.16282000  0.32782000  1.0
  H  H113  1  0.92390000  0.33720000  0.67218000  1.0
  H  H114  1  0.57609000  0.33719000  0.82781000  1.0
  H  H115  1  0.57611000  0.16281000  0.17219000  1.0
  H  H116  1  0.07610000  0.83717000  0.67219000  1.0
  H  H117  1  0.07610000  0.66282000  0.32780000  1.0
  H  H118  1  0.42390000  0.66280000  0.17219000  1.0
  H  H119  1  0.42391000  0.83718000  0.82781000  1.0
  H  H120  1  0.98101000  0.24058000  0.42613000  1.0
  H  H121  1  0.98100000  0.25941000  0.57387000  1.0
  H  H122  1  0.51900000  0.25942000  0.92612000  1.0
  H  H123  1  0.51900000  0.24058000  0.07387000  1.0
  H  H124  1  0.01899000  0.75941000  0.57388000  1.0
  H  H125  1  0.01899000  0.74057000  0.42612000  1.0
  H  H126  1  0.48102000  0.74056000  0.07388000  1.0
  H  H127  1  0.48101000  0.75941000  0.92612000  1.0
  H  H128  1  0.00695000  0.15640000  0.41947000  1.0
  H  H129  1  0.00696000  0.34360000  0.58052000  1.0
  H  H130  1  0.49303000  0.34359000  0.91947000  1.0
  H  H131  1  0.49305000  0.15640000  0.08053000  1.0
  H  H132  1  0.99304000  0.84359000  0.58054000  1.0
  H  H133  1  0.99305000  0.65639000  0.41946000  1.0
  H  H134  1  0.50694000  0.65638000  0.08054000  1.0
  H  H135  1  0.50697000  0.84359000  0.91947000  1.0
  H  H136  1  0.77230000  0.08049000  0.41416000  1.0
  H  H137  1  0.77231000  0.41950000  0.58584000  1.0
  H  H138  1  0.72768000  0.41951000  0.91416000  1.0
  H  H139  1  0.72770000  0.08050000  0.08584000  1.0
  H  H140  1  0.22768000  0.91950000  0.58584000  1.0
  H  H141  1  0.22771000  0.58049000  0.41415000  1.0
  H  H142  1  0.27229000  0.58049000  0.08584000  1.0
  H  H143  1  0.27233000  0.91951000  0.91416000  1.0
  H  H144  1  0.48458000  0.10289000  0.45468000  1.0
  H  H145  1  0.48457000  0.39711000  0.54533000  1.0
  H  H146  1  0.01541000  0.39711000  0.95467000  1.0
  H  H147  1  0.01542000  0.10289000  0.04532000  1.0
  H  H148  1  0.51540000  0.89710000  0.54532000  1.0
  H  H149  1  0.51543000  0.60290000  0.45466000  1.0
  H  H150  1  0.98457000  0.60290000  0.04532000  1.0
  H  H151  1  0.98461000  0.89711000  0.95468000  1.0
  H  H152  1  0.05253000  0.90073000  0.49875000  1.0
  H  H153  1  0.05252000  0.59927000  0.50125000  1.0
  H  H154  1  0.44750000  0.59928000  0.99875000  1.0
  H  H155  1  0.44748000  0.90072000  0.00125000  1.0
  H  H156  1  0.94748000  0.09928000  0.50125000  1.0
  H  H157  1  0.94747000  0.40071000  0.49876000  1.0
  H  H158  1  0.55250000  0.40073000  0.00126000  1.0
  H  H159  1  0.55254000  0.09928000  0.99875000  1.0
  H  H160  1  0.09187000  0.02560000  0.36631000  1.0
  H  H161  1  0.09190000  0.47442000  0.63370000  1.0
  H  H162  1  0.40812000  0.47442000  0.86631000  1.0
  H  H163  1  0.40813000  0.02561000  0.13369000  1.0
  H  H164  1  0.90814000  0.97438000  0.63368000  1.0
  H  H165  1  0.90810000  0.52560000  0.36633000  1.0
  H  H166  1  0.59186000  0.52557000  0.13371000  1.0
  H  H167  1  0.59190000  0.97440000  0.86631000  1.0
  H  H168  1  0.70217000  0.90220000  0.38463000  1.0
  H  H169  1  0.70217000  0.59780000  0.61537000  1.0
  H  H170  1  0.79785000  0.59780000  0.88464000  1.0
  H  H171  1  0.79783000  0.90221000  0.11537000  1.0
  H  H172  1  0.29782000  0.09780000  0.61537000  1.0
  H  H173  1  0.29784000  0.40223000  0.38464000  1.0
  H  H174  1  0.20213000  0.40220000  0.11537000  1.0
  H  H175  1  0.20218000  0.09779000  0.88463000  1.0
  C  C176  1  0.71448000  0.30383000  0.43490000  1.0
  C  C177  1  0.71447000  0.19616000  0.56510000  1.0
  C  C178  1  0.78552000  0.19617000  0.93489000  1.0
  C  C179  1  0.78552000  0.30383000  0.06510000  1.0
  C  C180  1  0.28552000  0.69616000  0.56510000  1.0
  C  C181  1  0.28551000  0.80383000  0.43489000  1.0
  C  C182  1  0.21448000  0.80383000  0.06511000  1.0
  C  C183  1  0.21447000  0.69617000  0.93490000  1.0
  C  C184  1  0.39461000  0.04938000  0.30218000  1.0
  C  C185  1  0.39460000  0.45063000  0.69781000  1.0
  C  C186  1  0.10539000  0.45063000  0.80219000  1.0
  C  C187  1  0.10539000  0.04938000  0.19782000  1.0
  C  C188  1  0.60540000  0.95062000  0.69781000  1.0
  C  C189  1  0.60539000  0.54938000  0.30218000  1.0
  C  C190  1  0.89461000  0.54937000  0.19781000  1.0
  C  C191  1  0.89461000  0.95061000  0.80219000  1.0
  C  C192  1  0.45504000  0.11712000  0.30449000  1.0
  C  C193  1  0.45504000  0.38289000  0.69551000  1.0
  C  C194  1  0.04496000  0.38289000  0.80449000  1.0
  C  C195  1  0.04496000  0.11712000  0.19551000  1.0
  C  C196  1  0.54496000  0.88288000  0.69551000  1.0
  C  C197  1  0.54496000  0.61712000  0.30448000  1.0
  C  C198  1  0.95504000  0.61712000  0.19551000  1.0
  C  C199  1  0.95505000  0.88288000  0.80449000  1.0
  C  C200  1  0.59948000  0.20405000  0.29827000  1.0
  C  C201  1  0.59948000  0.29596000  0.70172000  1.0
  C  C202  1  0.90052000  0.29596000  0.79827000  1.0
  C  C203  1  0.90052000  0.20405000  0.20173000  1.0
  C  C204  1  0.40051000  0.79595000  0.70173000  1.0
  C  C205  1  0.40051000  0.70405000  0.29827000  1.0
  C  C206  1  0.09947000  0.70405000  0.20173000  1.0
  C  C207  1  0.09949000  0.79595000  0.79827000  1.0
  C  C208  1  0.47222000  0.22315000  0.32406000  1.0
  C  C209  1  0.47222000  0.27686000  0.67594000  1.0
  C  C210  1  0.02779000  0.27686000  0.82405000  1.0
  C  C211  1  0.02779000  0.22315000  0.17594000  1.0
  C  C212  1  0.52777000  0.77685000  0.67595000  1.0
  C  C213  1  0.52778000  0.72315000  0.32405000  1.0
  C  C214  1  0.97221000  0.72314000  0.17594000  1.0
  C  C215  1  0.97223000  0.77684000  0.82405000  1.0
  C  C216  1  0.23443000  0.16530000  0.35252000  1.0
  C  C217  1  0.23444000  0.33471000  0.64748000  1.0
  C  C218  1  0.26556000  0.33470000  0.85251000  1.0
  C  C219  1  0.26558000  0.16530000  0.14749000  1.0
  C  C220  1  0.76555000  0.83469000  0.64749000  1.0
  C  C221  1  0.76557000  0.66530000  0.35251000  1.0
  C  C222  1  0.73443000  0.66529000  0.14748000  1.0
  C  C223  1  0.73445000  0.83469000  0.85252000  1.0
  C  C224  1  0.12942000  0.22012000  0.33431000  1.0
  C  C225  1  0.12940000  0.27989000  0.66569000  1.0
  C  C226  1  0.37060000  0.27988000  0.83430000  1.0
  C  C227  1  0.37059000  0.22012000  0.16569000  1.0
  C  C228  1  0.87058000  0.77987000  0.66569000  1.0
  C  C229  1  0.87059000  0.72012000  0.33431000  1.0
  C  C230  1  0.62940000  0.72011000  0.16569000  1.0
  C  C231  1  0.62942000  0.77987000  0.83431000  1.0
  C  C232  1  0.96363000  0.20691000  0.34785000  1.0
  C  C233  1  0.96362000  0.29311000  0.65215000  1.0
  C  C234  1  0.53638000  0.29310000  0.84784000  1.0
  C  C235  1  0.53638000  0.20690000  0.15216000  1.0
  C  C236  1  0.03637000  0.79309000  0.65216000  1.0
  C  C237  1  0.03638000  0.70691000  0.34784000  1.0
  C  C238  1  0.46361000  0.70689000  0.15216000  1.0
  C  C239  1  0.46363000  0.79309000  0.84784000  1.0
  C  C240  1  0.94059000  0.19763000  0.40492000  1.0
  C  C241  1  0.94061000  0.30236000  0.59508000  1.0
  C  C242  1  0.55939000  0.30236000  0.90491000  1.0
  C  C243  1  0.55941000  0.19763000  0.09509000  1.0
  C  C244  1  0.05939000  0.80236000  0.59509000  1.0
  C  C245  1  0.05940000  0.69763000  0.40490000  1.0
  C  C246  1  0.44060000  0.69762000  0.09509000  1.0
  C  C247  1  0.44061000  0.80236000  0.90491000  1.0
  C  C248  1  0.71471000  0.12530000  0.42476000  1.0
  C  C249  1  0.71471000  0.37470000  0.57524000  1.0
  C  C250  1  0.78527000  0.37470000  0.92476000  1.0
  C  C251  1  0.78529000  0.12530000  0.07524000  1.0
  C  C252  1  0.28528000  0.87469000  0.57524000  1.0
  C  C253  1  0.28530000  0.62530000  0.42475000  1.0
  C  C254  1  0.21470000  0.62530000  0.07524000  1.0
  C  C255  1  0.21473000  0.87470000  0.92476000  1.0
  C  C256  1  0.57373000  0.13700000  0.44465000  1.0
  C  C257  1  0.57373000  0.36300000  0.55535000  1.0
  C  C258  1  0.92625000  0.36300000  0.94465000  1.0
  C  C259  1  0.92626000  0.13700000  0.05535000  1.0
  C  C260  1  0.42625000  0.86299000  0.55535000  1.0
  C  C261  1  0.42627000  0.63700000  0.44464000  1.0
  C  C262  1  0.07373000  0.63700000  0.05535000  1.0
  C  C263  1  0.07375000  0.86300000  0.94465000  1.0
  C  C264  1  0.68373000  0.23248000  0.43567000  1.0
  C  C265  1  0.68373000  0.26752000  0.56433000  1.0
  C  C266  1  0.81626000  0.26753000  0.93566000  1.0
  C  C267  1  0.81627000  0.23248000  0.06433000  1.0
  C  C268  1  0.31626000  0.76752000  0.56433000  1.0
  C  C269  1  0.31627000  0.73247000  0.43566000  1.0
  C  C270  1  0.18373000  0.73247000  0.06434000  1.0
  C  C271  1  0.18374000  0.76753000  0.93567000  1.0
  C  C272  1  0.78387000  0.84561000  0.47479000  1.0
  C  C273  1  0.78386000  0.65439000  0.52520000  1.0
  C  C274  1  0.71615000  0.65439000  0.97479000  1.0
  C  C275  1  0.71614000  0.84561000  0.02521000  1.0
  C  C276  1  0.21613000  0.15439000  0.52521000  1.0
  C  C277  1  0.21615000  0.34562000  0.47480000  1.0
  C  C278  1  0.28384000  0.34562000  0.02521000  1.0
  C  C279  1  0.28388000  0.15439000  0.97479000  1.0
  C  C280  1  0.86977000  0.89552000  0.44445000  1.0
  C  C281  1  0.86976000  0.60448000  0.55554000  1.0
  C  C282  1  0.63026000  0.60448000  0.94446000  1.0
  C  C283  1  0.63025000  0.89552000  0.05555000  1.0
  C  C284  1  0.13024000  0.10448000  0.55555000  1.0
  C  C285  1  0.13023000  0.39553000  0.44446000  1.0
  C  C286  1  0.36974000  0.39552000  0.05555000  1.0
  C  C287  1  0.36978000  0.10448000  0.94446000  1.0
  C  C288  1  0.00922000  0.91861000  0.46253000  1.0
  C  C289  1  0.00922000  0.58140000  0.53747000  1.0
  C  C290  1  0.49080000  0.58140000  0.96254000  1.0
  C  C291  1  0.49079000  0.91861000  0.03747000  1.0
  C  C292  1  0.99078000  0.08139000  0.53747000  1.0
  C  C293  1  0.99078000  0.41860000  0.46254000  1.0
  C  C294  1  0.50920000  0.41861000  0.03748000  1.0
  C  C295  1  0.50924000  0.08140000  0.96253000  1.0
  C  C296  1  0.08970000  0.96369000  0.43341000  1.0
  C  C297  1  0.08971000  0.53632000  0.56659000  1.0
  C  C298  1  0.41032000  0.53632000  0.93341000  1.0
  C  C299  1  0.41031000  0.96369000  0.06659000  1.0
  C  C300  1  0.91031000  0.03630000  0.56659000  1.0
  C  C301  1  0.91030000  0.46369000  0.43342000  1.0
  C  C302  1  0.58968000  0.46368000  0.06660000  1.0
  C  C303  1  0.58972000  0.03632000  0.93341000  1.0
  C  C304  1  0.03054000  0.98923000  0.38841000  1.0
  C  C305  1  0.03056000  0.51079000  0.61160000  1.0
  C  C306  1  0.46945000  0.51079000  0.88841000  1.0
  C  C307  1  0.46946000  0.98923000  0.11159000  1.0
  C  C308  1  0.96947000  0.01076000  0.61159000  1.0
  C  C309  1  0.96945000  0.48923000  0.38842000  1.0
  C  C310  1  0.53053000  0.48921000  0.11161000  1.0
  C  C311  1  0.53056000  0.01078000  0.88841000  1.0
  C  C312  1  0.88874000  0.96752000  0.37138000  1.0
  C  C313  1  0.88874000  0.53249000  0.62862000  1.0
  C  C314  1  0.61128000  0.53250000  0.87138000  1.0
  C  C315  1  0.61127000  0.96752000  0.12861000  1.0
  C  C316  1  0.11127000  0.03247000  0.62861000  1.0
  C  C317  1  0.11126000  0.46753000  0.37140000  1.0
  C  C318  1  0.38871000  0.46750000  0.12863000  1.0
  C  C319  1  0.38875000  0.03248000  0.87139000  1.0
  C  C320  1  0.81091000  0.91947000  0.39876000  1.0
  C  C321  1  0.81091000  0.58054000  0.60124000  1.0
  C  C322  1  0.68911000  0.58054000  0.89876000  1.0
  C  C323  1  0.68909000  0.91947000  0.10124000  1.0
  C  C324  1  0.18909000  0.08052000  0.60124000  1.0
  C  C325  1  0.18910000  0.41949000  0.39877000  1.0
  C  C326  1  0.31087000  0.41947000  0.10124000  1.0
  C  C327  1  0.31092000  0.08053000  0.89876000  1.0
  C  C328  1  0.81456000  0.99698000  0.32508000  1.0
  C  C329  1  0.81457000  0.50303000  0.67492000  1.0
  C  C330  1  0.68544000  0.50303000  0.82508000  1.0
  C  C331  1  0.68544000  0.99698000  0.17492000  1.0
  C  C332  1  0.18544000  0.00301000  0.67492000  1.0
  C  C333  1  0.18542000  0.49699000  0.32510000  1.0
  C  C334  1  0.31453000  0.49696000  0.17494000  1.0
  C  C335  1  0.31458000  0.00302000  0.82508000  1.0
  Br  Br336  1  0.28696000  0.99023000  0.45504000  1.0
  Br  Br337  1  0.28697000  0.50980000  0.54496000  1.0
  Br  Br338  1  0.21304000  0.50980000  0.95504000  1.0
  Br  Br339  1  0.21304000  0.99022000  0.04496000  1.0
  Br  Br340  1  0.71304000  0.00978000  0.54496000  1.0
  Br  Br341  1  0.71302000  0.49021000  0.45505000  1.0
  Br  Br342  1  0.78695000  0.49021000  0.04497000  1.0
  Br  Br343  1  0.78698000  0.00980000  0.95504000  1.0
  N  N344  1  0.58868000  0.13826000  0.28629000  1.0
  N  N345  1  0.58867000  0.36175000  0.71371000  1.0
  N  N346  1  0.91132000  0.36175000  0.78629000  1.0
  N  N347  1  0.91132000  0.13826000  0.21371000  1.0
  N  N348  1  0.41132000  0.86174000  0.71371000  1.0
  N  N349  1  0.41132000  0.63826000  0.28628000  1.0
  N  N350  1  0.08867000  0.63826000  0.21371000  1.0
  N  N351  1  0.08869000  0.86174000  0.78629000  1.0
  N  N352  1  0.38227000  0.16800000  0.32761000  1.0
  N  N353  1  0.38227000  0.33201000  0.67239000  1.0
  N  N354  1  0.11773000  0.33201000  0.82760000  1.0
  N  N355  1  0.11774000  0.16800000  0.17239000  1.0
  N  N356  1  0.61772000  0.83200000  0.67239000  1.0
  N  N357  1  0.61773000  0.66800000  0.32760000  1.0
  N  N358  1  0.88227000  0.66799000  0.17239000  1.0
  N  N359  1  0.88228000  0.83199000  0.82761000  1.0
  N  N360  1  0.55588000  0.20362000  0.45155000  1.0
  N  N361  1  0.55587000  0.29637000  0.54845000  1.0
  N  N362  1  0.94412000  0.29638000  0.95154000  1.0
  N  N363  1  0.94412000  0.20362000  0.04845000  1.0
  N  N364  1  0.44412000  0.79637000  0.54845000  1.0
  N  N365  1  0.44413000  0.70363000  0.45154000  1.0
  N  N366  1  0.05587000  0.70363000  0.04845000  1.0
  N  N367  1  0.05589000  0.79638000  0.95155000  1.0
  N  N368  1  0.78333000  0.18595000  0.41978000  1.0
  N  N369  1  0.78334000  0.31405000  0.58022000  1.0
  N  N370  1  0.71666000  0.31405000  0.91977000  1.0
  N  N371  1  0.71667000  0.18595000  0.08023000  1.0
  N  N372  1  0.21666000  0.81404000  0.58023000  1.0
  N  N373  1  0.21667000  0.68595000  0.41977000  1.0
  N  N374  1  0.28333000  0.68594000  0.08023000  1.0
  N  N375  1  0.28334000  0.81405000  0.91977000  1.0
  O  O376  1  0.81819000  0.83475000  0.52032000  1.0
  O  O377  1  0.81817000  0.66524000  0.47967000  1.0
  O  O378  1  0.68184000  0.66525000  0.02032000  1.0
  O  O379  1  0.68183000  0.83475000  0.97968000  1.0
  O  O380  1  0.18182000  0.16525000  0.47968000  1.0
  O  O381  1  0.18185000  0.33475000  0.52033000  1.0
  O  O382  1  0.31818000  0.33476000  0.97968000  1.0
  O  O383  1  0.31819000  0.16525000  0.02032000  1.0
  O  O384  1  0.67582000  0.81535000  0.45110000  1.0
  O  O385  1  0.67581000  0.68466000  0.54889000  1.0
  O  O386  1  0.82421000  0.68466000  0.95110000  1.0
  O  O387  1  0.82419000  0.81535000  0.04890000  1.0
  O  O388  1  0.32418000  0.18466000  0.54891000  1.0
  O  O389  1  0.32419000  0.31535000  0.45110000  1.0
  O  O390  1  0.17579000  0.31535000  0.04889000  1.0
  O  O391  1  0.17583000  0.18465000  0.95110000  1.0
  O  O392  1  0.68978000  0.97568000  0.31034000  1.0
  O  O393  1  0.68978000  0.52433000  0.68966000  1.0
  O  O394  1  0.81022000  0.52433000  0.81034000  1.0
  O  O395  1  0.81022000  0.97568000  0.18966000  1.0
  O  O396  1  0.31023000  0.02431000  0.68965000  1.0
  O  O397  1  0.31020000  0.47569000  0.31035000  1.0
  O  O398  1  0.18973000  0.47566000  0.18966000  1.0
  O  O399  1  0.18980000  0.02432000  0.81035000  1.0
  O  O400  1  0.88590000  0.04592000  0.30421000  1.0
  O  O401  1  0.88591000  0.45409000  0.69579000  1.0
  O  O402  1  0.61409000  0.45409000  0.80421000  1.0
  O  O403  1  0.61410000  0.04593000  0.19579000  1.0
  O  O404  1  0.11409000  0.95407000  0.69579000  1.0
  O  O405  1  0.11408000  0.54594000  0.30422000  1.0
  O  O406  1  0.38589000  0.54590000  0.19581000  1.0
  O  O407  1  0.38592000  0.95407000  0.80421000  1.0
