# generated using pymatgen
data_CdH17C20N3O8
_symmetry_space_group_name_H-M   'P 1'
_cell_length_a   10.26240000
_cell_length_b   10.36980000
_cell_length_c   12.75990000
_cell_angle_alpha   67.16270000
_cell_angle_beta   73.73710000
_cell_angle_gamma   67.15260000
_symmetry_Int_Tables_number   1
_chemical_formula_structural   CdH17C20N3O8
_chemical_formula_sum   'Cd2 H34 C40 N6 O16'
_cell_volume   1139.81207508
_cell_formula_units_Z   2
loop_
 _symmetry_equiv_pos_site_id
 _symmetry_equiv_pos_as_xyz
  1  'x, y, z'
loop_
 _atom_site_type_symbol
 _atom_site_label
 _atom_site_symmetry_multiplicity
 _atom_site_fract_x
 _atom_site_fract_y
 _atom_site_fract_z
 _atom_site_occupancy
  Cd  Cd0  1  0.91963000  0.43246000  0.21268000  1.0
  Cd  Cd1  1  0.08038000  0.56754000  0.78732000  1.0
  H  H2  1  0.87822000  0.14604000  0.34366000  1.0
  H  H3  1  0.12178000  0.85396000  0.65634000  1.0
  H  H4  1  0.89033000  0.20817000  0.43664000  1.0
  H  H5  1  0.10967000  0.79182000  0.56337000  1.0
  H  H6  1  0.00856000  0.65564000  0.02963000  1.0
  H  H7  1  0.99144000  0.34435000  0.97037000  1.0
  H  H8  1  0.86848000  0.66678000  0.00208000  1.0
  H  H9  1  0.13153000  0.33322000  0.99792000  1.0
  H  H10  1  0.47091000  0.66956000  0.47811000  1.0
  H  H11  1  0.52908000  0.33044000  0.52189000  1.0
  H  H12  1  0.61886000  0.53143000  0.34301000  1.0
  H  H13  1  0.38114000  0.46857000  0.65699000  1.0
  H  H14  1  0.99005000  0.57425000  0.37285000  1.0
  H  H15  1  0.00994000  0.42575000  0.62714000  1.0
  H  H16  1  0.85664000  0.71673000  0.51204000  1.0
  H  H17  1  0.14336000  0.28327000  0.48795000  1.0
  H  H18  1  0.63106000  0.83554000  0.61461000  1.0
  H  H19  1  0.36894000  0.16446000  0.38538000  1.0
  H  H20  1  0.36525000  0.80440000  0.57095000  1.0
  H  H21  1  0.63475000  0.19560000  0.42905000  1.0
  H  H22  1  0.98937000  0.01345000  0.78528000  1.0
  H  H23  1  0.01062000  0.98655000  0.21472000  1.0
  H  H24  1  0.06189000  0.14246000  0.88051000  1.0
  H  H25  1  0.93811000  0.85754000  0.11949000  1.0
  H  H26  1  0.31646000  0.13562000  0.83886000  1.0
  H  H27  1  0.68354000  0.86438000  0.16114000  1.0
  H  H28  1  0.49179000  0.99703000  0.70941000  1.0
  H  H29  1  0.50821000  0.00297000  0.29059000  1.0
  H  H30  1  0.43152000  0.44096000  0.20043000  1.0
  H  H31  1  0.56848000  0.55904000  0.79957000  1.0
  H  H32  1  0.36184000  0.21356000  0.01164000  1.0
  H  H33  1  0.63816000  0.78644000  0.98836000  1.0
  H  H34  1  0.78184000  0.23923000  0.97608000  1.0
  H  H35  1  0.21816000  0.76076000  0.02392000  1.0
  C  C36  1  0.65051000  0.70913000  0.50646000  1.0
  C  C37  1  0.34948000  0.29087000  0.49354000  1.0
  C  C38  1  0.58560000  0.65184000  0.45874000  1.0
  C  C39  1  0.41440000  0.34816000  0.54126000  1.0
  C  C40  1  0.66712000  0.57317000  0.38372000  1.0
  C  C41  1  0.33288000  0.42683000  0.61628000  1.0
  C  C42  1  0.87476000  0.59771000  0.40003000  1.0
  C  C43  1  0.12523000  0.40229000  0.59997000  1.0
  C  C44  1  0.79989000  0.67730000  0.47653000  1.0
  C  C45  1  0.20011000  0.32270000  0.52347000  1.0
  C  C46  1  0.56876000  0.80089000  0.57999000  1.0
  C  C47  1  0.43124000  0.19911000  0.42001000  1.0
  C  C48  1  0.42446000  0.84321000  0.60486000  1.0
  C  C49  1  0.57554000  0.15679000  0.39514000  1.0
  C  C50  1  0.33224000  0.93233000  0.67795000  1.0
  C  C51  1  0.66776000  0.06768000  0.32205000  1.0
  C  C52  1  0.09940000  0.01344000  0.76993000  1.0
  C  C53  1  0.90060000  0.98657000  0.23007000  1.0
  C  C54  1  0.13960000  0.08417000  0.82296000  1.0
  C  C55  1  0.86040000  0.91583000  0.17704000  1.0
  C  C56  1  0.28227000  0.07964000  0.80005000  1.0
  C  C57  1  0.71773000  0.92036000  0.19995000  1.0
  C  C58  1  0.37975000  0.00294000  0.72727000  1.0
  C  C59  1  0.62024000  0.99706000  0.27273000  1.0
  C  C60  1  0.71760000  0.38699000  0.12887000  1.0
  C  C61  1  0.28240000  0.61302000  0.87113000  1.0
  C  C62  1  0.61725000  0.34485000  0.09224000  1.0
  C  C63  1  0.38275000  0.65515000  0.90776000  1.0
  C  C64  1  0.47233000  0.37864000  0.13997000  1.0
  C  C65  1  0.52768000  0.62136000  0.86003000  1.0
  C  C66  1  0.37921000  0.33249000  0.11156000  1.0
  C  C67  1  0.62079000  0.66752000  0.88844000  1.0
  C  C68  1  0.22354000  0.37029000  0.16320000  1.0
  C  C69  1  0.77647000  0.62971000  0.83680000  1.0
  C  C70  1  0.43143000  0.25267000  0.03369000  1.0
  C  C71  1  0.56857000  0.74733000  0.96631000  1.0
  C  C72  1  0.57545000  0.22192000  0.98573000  1.0
  C  C73  1  0.42456000  0.77808000  0.01428000  1.0
  C  C74  1  0.66960000  0.26630000  0.01372000  1.0
  C  C75  1  0.33040000  0.73370000  0.98628000  1.0
  N  N76  1  0.80997000  0.54634000  0.35371000  1.0
  N  N77  1  0.19003000  0.45366000  0.64629000  1.0
  N  N78  1  0.19235000  0.94088000  0.69850000  1.0
  N  N79  1  0.80765000  0.05912000  0.30150000  1.0
  N  N80  1  0.63108000  0.13672000  0.90500000  1.0
  N  N81  1  0.36892000  0.86328000  0.09500000  1.0
  O  O82  1  0.84911000  0.35431000  0.08339000  1.0
  O  O83  1  0.15089000  0.64569000  0.91661000  1.0
  O  O84  1  0.66966000  0.44861000  0.20657000  1.0
  O  O85  1  0.33034000  0.55139000  0.79343000  1.0
  O  O86  1  0.17654000  0.44018000  0.23450000  1.0
  O  O87  1  0.82346000  0.55982000  0.76550000  1.0
  O  O88  1  0.14445000  0.32729000  0.12952000  1.0
  O  O89  1  0.85556000  0.67270000  0.87048000  1.0
  O  O90  1  0.54405000  0.11395000  0.86880000  1.0
  O  O91  1  0.45595000  0.88605000  0.13120000  1.0
  O  O92  1  0.76285000  0.09114000  0.87723000  1.0
  O  O93  1  0.23715000  0.90886000  0.12277000  1.0
  O  O94  1  0.93200000  0.20021000  0.36013000  1.0
  O  O95  1  0.06800000  0.79979000  0.63987000  1.0
  O  O96  1  0.90914000  0.65950000  0.06752000  1.0
  O  O97  1  0.09087000  0.34050000  0.93248000  1.0
