# generated using pymatgen
data_ZnH10C7N4ClO
_symmetry_space_group_name_H-M   'P 1'
_cell_length_a   8.59825000
_cell_length_b   9.66739000
_cell_length_c   12.52010000
_cell_angle_alpha   97.57450000
_cell_angle_beta   90.00000000
_cell_angle_gamma   89.99990000
_symmetry_Int_Tables_number   1
_chemical_formula_structural   ZnH10C7N4ClO
_chemical_formula_sum   'Zn4 H40 C28 N16 Cl4 O4'
_cell_volume   1031.62285155
_cell_formula_units_Z   4
loop_
 _symmetry_equiv_pos_site_id
 _symmetry_equiv_pos_as_xyz
  1  'x, y, z'
loop_
 _atom_site_type_symbol
 _atom_site_label
 _atom_site_symmetry_multiplicity
 _atom_site_fract_x
 _atom_site_fract_y
 _atom_site_fract_z
 _atom_site_occupancy
  Zn  Zn0  1  0.90226000  0.32065000  0.80068000  1.0
  Zn  Zn1  1  0.40226000  0.67935000  0.69932000  1.0
  Zn  Zn2  1  0.09774000  0.67934000  0.19932000  1.0
  Zn  Zn3  1  0.59774000  0.32065000  0.30068000  1.0
  H  H4  1  0.72014000  0.33997000  0.04918000  1.0
  H  H5  1  0.22013000  0.66004000  0.45083000  1.0
  H  H6  1  0.27987000  0.66004000  0.95083000  1.0
  H  H7  1  0.77987000  0.33996000  0.54917000  1.0
  H  H8  1  0.26147000  0.02919000  0.12529000  1.0
  H  H9  1  0.76147000  0.97081000  0.37471000  1.0
  H  H10  1  0.73853000  0.97082000  0.87470000  1.0
  H  H11  1  0.23853000  0.02919000  0.62529000  1.0
  H  H12  1  0.38360000  0.16158000  0.08516000  1.0
  H  H13  1  0.88360000  0.83842000  0.41484000  1.0
  H  H14  1  0.61640000  0.83842000  0.91484000  1.0
  H  H15  1  0.11640000  0.16158000  0.58516000  1.0
  H  H16  1  0.31840000  0.02079000  0.98819000  1.0
  H  H17  1  0.81840000  0.97921000  0.51181000  1.0
  H  H18  1  0.68160000  0.97921000  0.01180000  1.0
  H  H19  1  0.18160000  0.02079000  0.48819000  1.0
  H  H20  1  0.36053000  0.18817000  0.89252000  1.0
  H  H21  1  0.86052000  0.81183000  0.60748000  1.0
  H  H22  1  0.63948000  0.81183000  0.10748000  1.0
  H  H23  1  0.13947000  0.18817000  0.39252000  1.0
  H  H24  1  0.26566000  0.33722000  0.85032000  1.0
  H  H25  1  0.76566000  0.66278000  0.64968000  1.0
  H  H26  1  0.73434000  0.66278000  0.14968000  1.0
  H  H27  1  0.23434000  0.33722000  0.35032000  1.0
  H  H28  1  0.20783000  0.16593000  0.79645000  1.0
  H  H29  1  0.70783000  0.83407000  0.70355000  1.0
  H  H30  1  0.79217000  0.83407000  0.20355000  1.0
  H  H31  1  0.29217000  0.16593000  0.29645000  1.0
  H  H32  1  0.04327000  0.10959000  0.17982000  1.0
  H  H33  1  0.54327000  0.89041000  0.32018000  1.0
  H  H34  1  0.95673000  0.89041000  0.82018000  1.0
  H  H35  1  0.45673000  0.10959000  0.67981000  1.0
  H  H36  1  0.90758000  0.14503000  0.07947000  1.0
  H  H37  1  0.40758000  0.85497000  0.42053000  1.0
  H  H38  1  0.09242000  0.85497000  0.92053000  1.0
  H  H39  1  0.59241000  0.14503000  0.57947000  1.0
  H  H40  1  0.00190000  0.28603000  0.15833000  1.0
  H  H41  1  0.50190000  0.71397000  0.34167000  1.0
  H  H42  1  0.99810000  0.71397000  0.84167000  1.0
  H  H43  1  0.49810000  0.28603000  0.65833000  1.0
  C  C44  1  0.61660000  0.45676000  0.92885000  1.0
  C  C45  1  0.11659000  0.54324000  0.57115000  1.0
  C  C46  1  0.38341000  0.54324000  0.07116000  1.0
  C  C47  1  0.88340000  0.45676000  0.42885000  1.0
  C  C48  1  0.49469000  0.54698000  0.90132000  1.0
  C  C49  1  0.99469000  0.45302000  0.59868000  1.0
  C  C50  1  0.50532000  0.45302000  0.09869000  1.0
  C  C51  1  0.00531000  0.54698000  0.40132000  1.0
  C  C52  1  0.62600000  0.40669000  0.02831000  1.0
  C  C53  1  0.12599000  0.59331000  0.47170000  1.0
  C  C54  1  0.37401000  0.59331000  0.97170000  1.0
  C  C55  1  0.87401000  0.40669000  0.52830000  1.0
  C  C56  1  0.12536000  0.23367000  0.95340000  1.0
  C  C57  1  0.62536000  0.76633000  0.54660000  1.0
  C  C58  1  0.87464000  0.76633000  0.04660000  1.0
  C  C59  1  0.37464000  0.23367000  0.45340000  1.0
  C  C60  1  0.28560000  0.09178000  0.06040000  1.0
  C  C61  1  0.78560000  0.90822000  0.43960000  1.0
  C  C62  1  0.71440000  0.90822000  0.93960000  1.0
  C  C63  1  0.21439000  0.09178000  0.56040000  1.0
  C  C64  1  0.24955000  0.23064000  0.86965000  1.0
  C  C65  1  0.74955000  0.76936000  0.63036000  1.0
  C  C66  1  0.75045000  0.76936000  0.13035000  1.0
  C  C67  1  0.25045000  0.23064000  0.36964000  1.0
  C  C68  1  0.01734000  0.17824000  0.11937000  1.0
  C  C69  1  0.51734000  0.82176000  0.38063000  1.0
  C  C70  1  0.98266000  0.82176000  0.88063000  1.0
  C  C71  1  0.48266000  0.17824000  0.61937000  1.0
  N  N72  1  0.52511000  0.57091000  0.79715000  1.0
  N  N73  1  0.02511000  0.42908000  0.70285000  1.0
  N  N74  1  0.47490000  0.42908000  0.20285000  1.0
  N  N75  1  0.97489000  0.57091000  0.29715000  1.0
  N  N76  1  0.65366000  0.50282000  0.76290000  1.0
  N  N77  1  0.15366000  0.49717000  0.73710000  1.0
  N  N78  1  0.34634000  0.49717000  0.23710000  1.0
  N  N79  1  0.84634000  0.50282000  0.26290000  1.0
  N  N80  1  0.71108000  0.43444000  0.83942000  1.0
  N  N81  1  0.21107000  0.56557000  0.66058000  1.0
  N  N82  1  0.28892000  0.56556000  0.16058000  1.0
  N  N83  1  0.78892000  0.43443000  0.33942000  1.0
  N  N84  1  0.14435000  0.16984000  0.04070000  1.0
  N  N85  1  0.64435000  0.83016000  0.45930000  1.0
  N  N86  1  0.85565000  0.83016000  0.95930000  1.0
  N  N87  1  0.35565000  0.16984000  0.54070000  1.0
  Cl  Cl88  1  0.85705000  0.10621000  0.71639000  1.0
  Cl  Cl89  1  0.35705000  0.89379000  0.78361000  1.0
  Cl  Cl90  1  0.14295000  0.89379000  0.28360000  1.0
  Cl  Cl91  1  0.64295000  0.10620000  0.21639000  1.0
  O  O92  1  0.99756000  0.29822000  0.94221000  1.0
  O  O93  1  0.49756000  0.70178000  0.55780000  1.0
  O  O94  1  0.00244000  0.70178000  0.05779000  1.0
  O  O95  1  0.50244000  0.29822000  0.44220000  1.0
