# generated using pymatgen
data_ZnH13C14N5O
_symmetry_space_group_name_H-M   'P 1'
_cell_length_a   6.17545000
_cell_length_b   10.40720000
_cell_length_c   11.28250000
_cell_angle_alpha   67.04950000
_cell_angle_beta   86.77320000
_cell_angle_gamma   79.79830000
_symmetry_Int_Tables_number   1
_chemical_formula_structural   ZnH13C14N5O
_chemical_formula_sum   'Zn2 H26 C28 N10 O2'
_cell_volume   657.09621356
_cell_formula_units_Z   2
loop_
 _symmetry_equiv_pos_site_id
 _symmetry_equiv_pos_as_xyz
  1  'x, y, z'
loop_
 _atom_site_type_symbol
 _atom_site_label
 _atom_site_symmetry_multiplicity
 _atom_site_fract_x
 _atom_site_fract_y
 _atom_site_fract_z
 _atom_site_occupancy
  Zn  Zn0  1  0.25329000  0.45240000  0.97131000  1.0
  Zn  Zn1  1  0.74670000  0.54759000  0.02869000  1.0
  H  H2  1  0.54126000  0.55565000  0.72519000  1.0
  H  H3  1  0.45874000  0.44434000  0.27482000  1.0
  H  H4  1  0.69860000  0.46460000  0.55717000  1.0
  H  H5  1  0.30141000  0.53540000  0.44283000  1.0
  H  H6  1  0.62859000  0.22796000  0.57345000  1.0
  H  H7  1  0.37140000  0.77204000  0.42654000  1.0
  H  H8  1  0.40941000  0.08952000  0.76051000  1.0
  H  H9  1  0.59058000  0.91048000  0.23948000  1.0
  H  H10  1  0.30444000  0.06205000  0.99500000  1.0
  H  H11  1  0.69556000  0.93795000  0.00500000  1.0
  H  H12  1  0.89530000  0.12349000  0.97989000  1.0
  H  H13  1  0.10470000  0.87651000  0.02011000  1.0
  H  H14  1  0.00817000  0.13384000  0.82742000  1.0
  H  H15  1  0.99183000  0.86617000  0.17258000  1.0
  H  H16  1  0.91346000  0.29190000  0.85712000  1.0
  H  H17  1  0.08653000  0.70810000  0.14288000  1.0
  H  H18  1  0.22250000  0.04638000  0.19467000  1.0
  H  H19  1  0.77749000  0.95362000  0.80533000  1.0
  H  H20  1  0.25782000  0.00215000  0.40742000  1.0
  H  H21  1  0.74218000  0.99785000  0.59258000  1.0
  H  H22  1  0.18864000  0.06736000  0.59680000  1.0
  H  H23  1  0.81136000  0.93265000  0.40320000  1.0
  H  H24  1  0.04273000  0.32027000  0.56138000  1.0
  H  H25  1  0.95727000  0.67974000  0.43862000  1.0
  H  H26  1  0.97398000  0.50259000  0.33902000  1.0
  H  H27  1  0.02601000  0.49741000  0.66098000  1.0
  C  C28  1  0.51766000  0.45311000  0.72811000  1.0
  C  C29  1  0.48235000  0.54689000  0.27190000  1.0
  C  C30  1  0.60414000  0.40162000  0.63575000  1.0
  C  C31  1  0.39586000  0.59839000  0.36425000  1.0
  C  C32  1  0.56557000  0.26965000  0.64594000  1.0
  C  C33  1  0.43443000  0.73035000  0.35406000  1.0
  C  C34  1  0.44493000  0.19276000  0.74913000  1.0
  C  C35  1  0.55507000  0.80725000  0.25086000  1.0
  C  C36  1  0.36505000  0.25087000  0.83907000  1.0
  C  C37  1  0.63495000  0.74913000  0.16092000  1.0
  C  C38  1  0.22473000  0.17421000  0.95029000  1.0
  C  C39  1  0.77527000  0.82579000  0.04971000  1.0
  C  C40  1  0.99493000  0.18113000  0.89969000  1.0
  C  C41  1  0.00507000  0.81887000  0.10031000  1.0
  C  C42  1  0.20029000  0.16223000  0.16415000  1.0
  C  C43  1  0.79971000  0.83776000  0.83586000  1.0
  C  C44  1  0.16503000  0.21383000  0.26655000  1.0
  C  C45  1  0.83496000  0.78617000  0.73345000  1.0
  C  C46  1  0.19874000  0.11232000  0.39358000  1.0
  C  C47  1  0.80127000  0.88768000  0.60643000  1.0
  C  C48  1  0.15896000  0.14818000  0.49988000  1.0
  C  C49  1  0.84104000  0.85182000  0.50012000  1.0
  C  C50  1  0.07592000  0.28994000  0.47892000  1.0
  C  C51  1  0.92408000  0.71006000  0.52108000  1.0
  C  C52  1  0.03758000  0.39244000  0.35507000  1.0
  C  C53  1  0.96242000  0.60757000  0.64493000  1.0
  C  C54  1  0.08682000  0.35949000  0.24490000  1.0
  C  C55  1  0.91318000  0.64051000  0.75510000  1.0
  N  N56  1  0.40086000  0.37890000  0.82741000  1.0
  N  N57  1  0.59915000  0.62110000  0.17259000  1.0
  N  N58  1  0.20347000  0.24061000  0.04315000  1.0
  N  N59  1  0.79653000  0.75939000  0.95685000  1.0
  N  N60  1  0.40206000  0.63067000  0.90917000  1.0
  N  N61  1  0.59795000  0.36933000  0.09084000  1.0
  N  N62  1  0.33724000  0.75594000  0.86083000  1.0
  N  N63  1  0.66278000  0.24404000  0.13918000  1.0
  N  N64  1  0.28443000  0.87889000  0.81455000  1.0
  N  N65  1  0.71558000  0.12111000  0.18545000  1.0
  O  O66  1  0.05999000  0.46207000  0.12842000  1.0
  O  O67  1  0.94001000  0.53793000  0.87158000  1.0
