# generated using pymatgen
data_CuH15C17SNO5
_symmetry_space_group_name_H-M   'P 1'
_cell_length_a   8.01384000
_cell_length_b   10.12140000
_cell_length_c   12.65050000
_cell_angle_alpha   85.82810000
_cell_angle_beta   78.70380000
_cell_angle_gamma   74.71400000
_symmetry_Int_Tables_number   1
_chemical_formula_structural   CuH15C17SNO5
_chemical_formula_sum   'Cu2 H30 C34 S2 N2 O10'
_cell_volume   970.38044905
_cell_formula_units_Z   2
loop_
 _symmetry_equiv_pos_site_id
 _symmetry_equiv_pos_as_xyz
  1  'x, y, z'
loop_
 _atom_site_type_symbol
 _atom_site_label
 _atom_site_symmetry_multiplicity
 _atom_site_fract_x
 _atom_site_fract_y
 _atom_site_fract_z
 _atom_site_occupancy
  Cu  Cu0  1  0.86514000  0.60248000  0.53431000  1.0
  Cu  Cu1  1  0.13478000  0.39752000  0.46572000  1.0
  H  H2  1  0.05080000  0.76532000  0.76867000  1.0
  H  H3  1  0.94929000  0.23468000  0.23129000  1.0
  H  H4  1  0.18692000  0.82326000  0.91530000  1.0
  H  H5  1  0.81309000  0.17675000  0.08468000  1.0
  H  H6  1  0.46169000  0.66241000  0.95814000  1.0
  H  H7  1  0.53830000  0.33760000  0.04187000  1.0
  H  H8  1  0.59122000  0.44770000  0.86079000  1.0
  H  H9  1  0.40878000  0.55232000  0.13922000  1.0
  H  H10  1  0.48048000  0.13340000  0.87048000  1.0
  H  H11  1  0.51951000  0.86662000  0.12952000  1.0
  H  H12  1  0.71543000  0.99598000  0.96654000  1.0
  H  H13  1  0.28452000  0.00402000  0.03349000  1.0
  H  H14  1  0.01995000  0.02977000  0.91627000  1.0
  H  H15  1  0.98004000  0.97018000  0.08373000  1.0
  H  H16  1  0.08780000  0.19116000  0.76745000  1.0
  H  H17  1  0.91220000  0.80881000  0.23253000  1.0
  H  H18  1  0.45103000  0.71258000  0.53206000  1.0
  H  H19  1  0.54893000  0.28746000  0.46793000  1.0
  H  H20  1  0.16158000  0.01366000  0.51203000  1.0
  H  H21  1  0.83845000  0.98637000  0.48797000  1.0
  H  H22  1  0.08338000  0.94392000  0.63964000  1.0
  H  H23  1  0.91665000  0.05612000  0.36035000  1.0
  H  H24  1  0.18159000  0.83241000  0.52933000  1.0
  H  H25  1  0.81841000  0.16763000  0.47068000  1.0
  H  H26  1  0.33854000  0.00953000  0.73774000  1.0
  H  H27  1  0.66149000  0.99048000  0.26225000  1.0
  H  H28  1  0.32172000  0.11440000  0.61805000  1.0
  H  H29  1  0.67831000  0.88561000  0.38194000  1.0
  H  H30  1  0.53115000  0.00606000  0.63884000  1.0
  H  H31  1  0.46888000  0.99395000  0.36116000  1.0
  C  C32  1  0.15722000  0.55276000  0.64304000  1.0
  C  C33  1  0.84278000  0.44725000  0.35695000  1.0
  C  C34  1  0.24420000  0.57622000  0.73149000  1.0
  C  C35  1  0.75584000  0.42376000  0.26849000  1.0
  C  C36  1  0.17027000  0.69740000  0.78966000  1.0
  C  C37  1  0.82977000  0.30259000  0.21031000  1.0
  C  C38  1  0.24629000  0.72929000  0.87073000  1.0
  C  C39  1  0.75373000  0.27072000  0.12923000  1.0
  C  C40  1  0.39894000  0.63858000  0.89538000  1.0
  C  C41  1  0.60105000  0.36143000  0.10462000  1.0
  C  C42  1  0.47213000  0.51663000  0.84060000  1.0
  C  C43  1  0.52789000  0.48338000  0.15941000  1.0
  C  C44  1  0.39595000  0.48218000  0.75887000  1.0
  C  C45  1  0.60407000  0.51781000  0.24114000  1.0
  C  C46  1  0.65114000  0.23910000  0.76585000  1.0
  C  C47  1  0.34884000  0.76090000  0.23417000  1.0
  C  C48  1  0.61424000  0.14570000  0.84908000  1.0
  C  C49  1  0.38575000  0.85429000  0.15093000  1.0
  C  C50  1  0.74573000  0.06929000  0.90286000  1.0
  C  C51  1  0.25424000  0.93070000  0.09714000  1.0
  C  C52  1  0.91580000  0.08742000  0.87461000  1.0
  C  C53  1  0.08417000  0.91257000  0.12542000  1.0
  C  C54  1  0.95500000  0.17780000  0.79106000  1.0
  C  C55  1  0.04500000  0.82217000  0.20895000  1.0
  C  C56  1  0.82464000  0.25244000  0.73503000  1.0
  C  C57  1  0.17534000  0.74753000  0.26498000  1.0
  C  C58  1  0.88033000  0.34324000  0.64307000  1.0
  C  C59  1  0.11958000  0.65678000  0.35695000  1.0
  C  C60  1  0.48800000  0.79052000  0.57297000  1.0
  C  C61  1  0.51200000  0.20948000  0.42703000  1.0
  C  C62  1  0.18712000  0.92470000  0.56731000  1.0
  C  C63  1  0.81291000  0.07533000  0.43269000  1.0
  C  C64  1  0.38935000  0.01586000  0.65053000  1.0
  C  C65  1  0.61069000  0.98415000  0.34946000  1.0
  S  S66  1  0.48205000  0.32360000  0.69321000  1.0
  S  S67  1  0.51796000  0.67638000  0.30680000  1.0
  N  N68  1  0.35923000  0.90551000  0.59568000  1.0
  N  N69  1  0.64079000  0.09452000  0.40431000  1.0
  O  O70  1  0.00902000  0.63487000  0.63584000  1.0
  O  O71  1  0.99112000  0.36524000  0.36404000  1.0
  O  O72  1  0.23948000  0.45172000  0.58179000  1.0
  O  O73  1  0.76038000  0.54811000  0.41831000  1.0
  O  O74  1  0.78910000  0.46605000  0.64090000  1.0
  O  O75  1  0.21095000  0.53398000  0.35919000  1.0
  O  O76  1  0.01972000  0.28574000  0.57837000  1.0
  O  O77  1  0.98013000  0.71421000  0.42159000  1.0
  O  O78  1  0.63871000  0.77296000  0.59372000  1.0
  O  O79  1  0.36128000  0.22697000  0.40628000  1.0
