# generated using pymatgen
data_SrH14(C3N2)4
_symmetry_space_group_name_H-M   'P 1'
_cell_length_a   10.58480000
_cell_length_b   10.62020000
_cell_length_c   13.89400000
_cell_angle_alpha   90.00000000
_cell_angle_beta   95.26860000
_cell_angle_gamma   90.00000000
_symmetry_Int_Tables_number   1
_chemical_formula_structural   SrH14(C3N2)4
_chemical_formula_sum   'Sr4 H56 C48 N32'
_cell_volume   1555.26335602
_cell_formula_units_Z   4
loop_
 _symmetry_equiv_pos_site_id
 _symmetry_equiv_pos_as_xyz
  1  'x, y, z'
loop_
 _atom_site_type_symbol
 _atom_site_label
 _atom_site_symmetry_multiplicity
 _atom_site_fract_x
 _atom_site_fract_y
 _atom_site_fract_z
 _atom_site_occupancy
  Sr  Sr0  1  0.49469000  0.71093000  0.74773000  1.0
  Sr  Sr1  1  0.00531000  0.21093000  0.75227000  1.0
  Sr  Sr2  1  0.50531000  0.28907000  0.25227000  1.0
  Sr  Sr3  1  0.99469000  0.78907000  0.24773000  1.0
  H  H4  1  0.31625000  0.59007000  0.51860000  1.0
  H  H5  1  0.18375000  0.09007000  0.98140000  1.0
  H  H6  1  0.68375000  0.40993000  0.48140000  1.0
  H  H7  1  0.81625000  0.90993000  0.01860000  1.0
  H  H8  1  0.75382000  0.66519000  0.62967000  1.0
  H  H9  1  0.74618000  0.16519000  0.87033000  1.0
  H  H10  1  0.24618000  0.33481000  0.37033000  1.0
  H  H11  1  0.25382000  0.83481000  0.12967000  1.0
  H  H12  1  0.28052000  0.24058000  0.63041000  1.0
  H  H13  1  0.21949000  0.74058000  0.86959000  1.0
  H  H14  1  0.71949000  0.75942000  0.36960000  1.0
  H  H15  1  0.78052000  0.25942000  0.13041000  1.0
  H  H16  1  0.15099000  0.55158000  0.78069000  1.0
  H  H17  1  0.34901000  0.05159000  0.71931000  1.0
  H  H18  1  0.84901000  0.44842000  0.21930000  1.0
  H  H19  1  0.65099000  0.94842000  0.28070000  1.0
  H  H20  1  0.56558000  0.90039000  0.53035000  1.0
  H  H21  1  0.93442000  0.40039000  0.96965000  1.0
  H  H22  1  0.43442000  0.09961000  0.46965000  1.0
  H  H23  1  0.06558000  0.59961000  0.03035000  1.0
  H  H24  1  0.41517000  0.84992000  0.98251000  1.0
  H  H25  1  0.08483000  0.34992000  0.51749000  1.0
  H  H26  1  0.58483000  0.15008000  0.01749000  1.0
  H  H27  1  0.91517000  0.65008000  0.48251000  1.0
  H  H28  1  0.93805000  0.47988000  0.62947000  1.0
  H  H29  1  0.56195000  0.97989000  0.87053000  1.0
  H  H30  1  0.06195000  0.52011000  0.37053000  1.0
  H  H31  1  0.43805000  0.02012000  0.12947000  1.0
  H  H32  1  0.51697000  0.78525000  0.16870000  1.0
  H  H33  1  0.98303000  0.28525000  0.33130000  1.0
  H  H34  1  0.48303000  0.21475000  0.83130000  1.0
  H  H35  1  0.01697000  0.71475000  0.66870000  1.0
  H  H36  1  0.28674000  0.69971000  0.35498000  1.0
  H  H37  1  0.21326000  0.19971000  0.14502000  1.0
  H  H38  1  0.71326000  0.30029000  0.64502000  1.0
  H  H39  1  0.78674000  0.80029000  0.85498000  1.0
  H  H40  1  0.46774000  0.42272000  0.64741000  1.0
  H  H41  1  0.03227000  0.92272000  0.85259000  1.0
  H  H42  1  0.53227000  0.57728000  0.35259000  1.0
  H  H43  1  0.96773000  0.07728000  0.14741000  1.0
  H  H44  1  0.68843000  0.39250000  0.83849000  1.0
  H  H45  1  0.81157000  0.89250000  0.66152000  1.0
  H  H46  1  0.31157000  0.60750000  0.16151000  1.0
  H  H47  1  0.18843000  0.10750000  0.33849000  1.0
  H  H48  1  0.65894000  0.53884000  0.96539000  1.0
  H  H49  1  0.84106000  0.03883000  0.53461000  1.0
  H  H50  1  0.34106000  0.46116000  0.03461000  1.0
  H  H51  1  0.15894000  0.96116000  0.46540000  1.0
  H  H52  1  0.43063000  0.89201000  0.34770000  1.0
  H  H53  1  0.06937000  0.39201000  0.15230000  1.0
  H  H54  1  0.56937000  0.10799000  0.65230000  1.0
  H  H55  1  0.93063000  0.60799000  0.84770000  1.0
  H  H56  1  0.65620000  0.59450000  0.14396000  1.0
  H  H57  1  0.84380000  0.09450000  0.35604000  1.0
  H  H58  1  0.34380000  0.40550000  0.85604000  1.0
  H  H59  1  0.15620000  0.90550000  0.64396000  1.0
  C  C60  1  0.37386000  0.42340000  0.67309000  1.0
  C  C61  1  0.12615000  0.92340000  0.82691000  1.0
  C  C62  1  0.62614000  0.57660000  0.32691000  1.0
  C  C63  1  0.87386000  0.07660000  0.17309000  1.0
  C  C64  1  0.85940000  0.48915000  0.67401000  1.0
  C  C65  1  0.64060000  0.98915000  0.82599000  1.0
  C  C66  1  0.14060000  0.51085000  0.32599000  1.0
  C  C67  1  0.35940000  0.01086000  0.17401000  1.0
  C  C68  1  0.48089000  0.77548000  0.00642000  1.0
  C  C69  1  0.01910000  0.27548000  0.49358000  1.0
  C  C70  1  0.51910000  0.22452000  0.99358000  1.0
  C  C71  1  0.98090000  0.72452000  0.50642000  1.0
  C  C72  1  0.21247000  0.49079000  0.74257000  1.0
  C  C73  1  0.28753000  0.99079000  0.75743000  1.0
  C  C74  1  0.78753000  0.50921000  0.25743000  1.0
  C  C75  1  0.71247000  0.00921000  0.24257000  1.0
  C  C76  1  0.42908000  0.83164000  0.41059000  1.0
  C  C77  1  0.07092000  0.33164000  0.08941000  1.0
  C  C78  1  0.57092000  0.16836000  0.58941000  1.0
  C  C79  1  0.92908000  0.66836000  0.91058000  1.0
  C  C80  1  0.49428000  0.83393000  0.50108000  1.0
  C  C81  1  0.00572000  0.33393000  0.99892000  1.0
  C  C82  1  0.50572000  0.16607000  0.49892000  1.0
  C  C83  1  0.99428000  0.66607000  0.00108000  1.0
  C  C84  1  0.73258000  0.44309000  0.78221000  1.0
  C  C85  1  0.76742000  0.94309000  0.71779000  1.0
  C  C86  1  0.26742000  0.55691000  0.21778000  1.0
  C  C87  1  0.23258000  0.05691000  0.28222000  1.0
  C  C88  1  0.36750000  0.67336000  0.49907000  1.0
  C  C89  1  0.13250000  0.17336000  0.00093000  1.0
  C  C90  1  0.63250000  0.32664000  0.50093000  1.0
  C  C91  1  0.86750000  0.82664000  0.99907000  1.0
  C  C92  1  0.52961000  0.74483000  0.09875000  1.0
  C  C93  1  0.97039000  0.24483000  0.40125000  1.0
  C  C94  1  0.47039000  0.25517000  0.90125000  1.0
  C  C95  1  0.02961000  0.75517000  0.59875000  1.0
  C  C96  1  0.60496000  0.61514000  0.99337000  1.0
  C  C97  1  0.89504000  0.11514000  0.50663000  1.0
  C  C98  1  0.39504000  0.38486000  0.00663000  1.0
  C  C99  1  0.10496000  0.88486000  0.49337000  1.0
  C  C100  1  0.28027000  0.33208000  0.66528000  1.0
  C  C101  1  0.21974000  0.83208000  0.83472000  1.0
  C  C102  1  0.71973000  0.66792000  0.33472000  1.0
  C  C103  1  0.78027000  0.16792000  0.16528000  1.0
  C  C104  1  0.76773000  0.58186000  0.67477000  1.0
  C  C105  1  0.73227000  0.08186000  0.82524000  1.0
  C  C106  1  0.23227000  0.41814000  0.32523000  1.0
  C  C107  1  0.26773000  0.91814000  0.17477000  1.0
  N  N108  1  0.83678000  0.39927000  0.74283000  1.0
  N  N109  1  0.66322000  0.89927000  0.75717000  1.0
  N  N110  1  0.16322000  0.60074000  0.25717000  1.0
  N  N111  1  0.33678000  0.10073000  0.24283000  1.0
  N  N112  1  0.45507000  0.73494000  0.55610000  1.0
  N  N113  1  0.04493000  0.23494000  0.94391000  1.0
  N  N114  1  0.54493000  0.26506000  0.44390000  1.0
  N  N115  1  0.95507000  0.76506000  0.05609000  1.0
  N  N116  1  0.34966000  0.72898000  0.41103000  1.0
  N  N117  1  0.15034000  0.22898000  0.08897000  1.0
  N  N118  1  0.65034000  0.27102000  0.58897000  1.0
  N  N119  1  0.84966000  0.77102000  0.91102000  1.0
  N  N120  1  0.33077000  0.52523000  0.72291000  1.0
  N  N121  1  0.16923000  0.02523000  0.77709000  1.0
  N  N122  1  0.66923000  0.47477000  0.27709000  1.0
  N  N123  1  0.83077000  0.97477000  0.22291000  1.0
  N  N124  1  0.17715000  0.37480000  0.71000000  1.0
  N  N125  1  0.32285000  0.87480000  0.79000000  1.0
  N  N126  1  0.82285000  0.62520000  0.29000000  1.0
  N  N127  1  0.67715000  0.12520000  0.21000000  1.0
  N  N128  1  0.68670000  0.55257000  0.74400000  1.0
  N  N129  1  0.81330000  0.05257000  0.75600000  1.0
  N  N130  1  0.31330000  0.44743000  0.25599000  1.0
  N  N131  1  0.18670000  0.94743000  0.24401000  1.0
  N  N132  1  0.52859000  0.69376000  0.94081000  1.0
  N  N133  1  0.97141000  0.19376000  0.55919000  1.0
  N  N134  1  0.47141000  0.30624000  0.05919000  1.0
  N  N135  1  0.02859000  0.80624000  0.44081000  1.0
  N  N136  1  0.60800000  0.64317000  0.08867000  1.0
  N  N137  1  0.89200000  0.14317000  0.41133000  1.0
  N  N138  1  0.39200000  0.35683000  0.91133000  1.0
  N  N139  1  0.10800000  0.85683000  0.58867000  1.0
