# generated using pymatgen
data_Zn4H4C24S4N2Cl2O17
_symmetry_space_group_name_H-M   'P 1'
_cell_length_a   19.63710000
_cell_length_b   19.69710000
_cell_length_c   33.28520000
_cell_angle_alpha   79.17970000
_cell_angle_beta   79.35580000
_cell_angle_gamma   64.04920000
_symmetry_Int_Tables_number   1
_chemical_formula_structural   Zn4H4C24S4N2Cl2O17
_chemical_formula_sum   'Zn16 H16 C96 S16 N8 Cl8 O68'
_cell_volume   11293.63323949
_cell_formula_units_Z   4
loop_
 _symmetry_equiv_pos_site_id
 _symmetry_equiv_pos_as_xyz
  1  'x, y, z'
loop_
 _atom_site_type_symbol
 _atom_site_label
 _atom_site_symmetry_multiplicity
 _atom_site_fract_x
 _atom_site_fract_y
 _atom_site_fract_z
 _atom_site_occupancy
  Zn  Zn0  1  0.05820000  0.40010000  0.47809000  1.0
  Zn  Zn1  1  0.98368000  0.48351000  0.56003000  1.0
  Zn  Zn2  1  0.05943000  0.56074000  0.48193000  1.0
  Zn  Zn3  1  0.89957000  0.55400000  0.48006000  1.0
  Zn  Zn4  1  0.69399000  0.35107000  0.27004000  1.0
  Zn  Zn5  1  0.68999000  0.18924000  0.26742000  1.0
  Zn  Zn6  1  0.76780000  0.26793000  0.18960000  1.0
  Zn  Zn7  1  0.84681000  0.19285000  0.27304000  1.0
  Zn  Zn8  1  0.26641000  0.76833000  0.68944000  1.0
  Zn  Zn9  1  0.34923000  0.69507000  0.77160000  1.0
  Zn  Zn10  1  0.19286000  0.84924000  0.77091000  1.0
  Zn  Zn11  1  0.19334000  0.68640000  0.76769000  1.0
  Zn  Zn12  1  0.56198000  0.05900000  0.98242000  1.0
  Zn  Zn13  1  0.39967000  0.05590000  0.97908000  1.0
  Zn  Zn14  1  0.55736000  0.90243000  0.97777000  1.0
  Zn  Zn15  1  0.48052000  0.98382000  0.06028000  1.0
  H  H16  1  0.74852000  0.45247000  0.35018000  1.0
  H  H17  1  0.00168000  0.29694000  0.39981000  1.0
  H  H18  1  0.20126000  0.70059000  0.59858000  1.0
  H  H19  1  0.04952000  0.54980000  0.65091000  1.0
  H  H20  1  0.46408000  0.24024000  0.34047000  1.0
  H  H21  1  0.47906000  0.70335000  0.60090000  1.0
  H  H22  1  0.20289000  0.98014000  0.60068000  1.0
  H  H23  1  0.94725000  0.96964000  0.34971000  1.0
  H  H24  1  0.65140000  0.15119000  0.04922000  1.0
  H  H25  1  0.59907000  0.09826000  0.20071000  1.0
  H  H26  1  0.54987000  0.77216000  0.14808000  1.0
  H  H27  1  0.15985000  0.14073000  0.04083000  1.0
  H  H28  1  0.29673000  0.00179000  0.89982000  1.0
  H  H29  1  0.45169000  0.74960000  0.85047000  1.0
  H  H30  1  0.30081000  0.27975000  0.90182000  1.0
  H  H31  1  0.79099000  0.00867000  0.90921000  1.0
  C  C32  1  0.06283000  0.31687000  0.56162000  1.0
  C  C33  1  0.06924000  0.56908000  0.56875000  1.0
  C  C34  1  0.18452000  0.43937000  0.43781000  1.0
  C  C35  1  0.93619000  0.68270000  0.43921000  1.0
  C  C36  1  0.93164000  0.42867000  0.43193000  1.0
  C  C37  1  0.81632000  0.56039000  0.56286000  1.0
  C  C38  1  0.56673000  0.31132000  0.31117000  1.0
  C  C39  1  0.68002000  0.18150000  0.18138000  1.0
  C  C40  1  0.68944000  0.43520000  0.18720000  1.0
  C  C41  1  0.93340000  0.18830000  0.19032000  1.0
  C  C42  1  0.81721000  0.31938000  0.31944000  1.0
  C  C43  1  0.81094000  0.06424000  0.31198000  1.0
  C  C44  1  0.43309000  0.69039000  0.68804000  1.0
  C  C45  1  0.31933000  0.81963000  0.81843000  1.0
  C  C46  1  0.18758000  0.93436000  0.68763000  1.0
  C  C47  1  0.06760000  0.80854000  0.81076000  1.0
  C  C48  1  0.18328000  0.67968000  0.68070000  1.0
  C  C49  1  0.31478000  0.56511000  0.81214000  1.0
  C  C50  1  0.43833000  0.18289000  0.93849000  1.0
  C  C51  1  0.43021000  0.93291000  0.93068000  1.0
  C  C52  1  0.68656000  0.93911000  0.93841000  1.0
  C  C53  1  0.56002000  0.81789000  0.06100000  1.0
  C  C54  1  0.56836000  0.07007000  0.06853000  1.0
  C  C55  1  0.31337000  0.06206000  0.06149000  1.0
  C  C56  1  0.90227000  0.40281000  0.40186000  1.0
  C  C57  1  0.84891000  0.34759000  0.34717000  1.0
  C  C58  1  0.83132000  0.44604000  0.38704000  1.0
  C  C59  1  0.92061000  0.30508000  0.36125000  1.0
  C  C60  1  0.80439000  0.41882000  0.36076000  1.0
  C  C61  1  0.94652000  0.33130000  0.38853000  1.0
  C  C62  1  0.09730000  0.59997000  0.59694000  1.0
  C  C63  1  0.15131000  0.65263000  0.65255000  1.0
  C  C64  1  0.13953000  0.64340000  0.58290000  1.0
  C  C65  1  0.10760000  0.61065000  0.66659000  1.0
  C  C66  1  0.16721000  0.66825000  0.60997000  1.0
  C  C67  1  0.08210000  0.58362000  0.63951000  1.0
  C  C68  1  0.30576000  0.45481000  0.40067000  1.0
  C  C69  1  0.44719000  0.29680000  0.34861000  1.0
  C  C70  1  0.25956000  0.41562000  0.41337000  1.0
  C  C71  1  0.49216000  0.33668000  0.33630000  1.0
  C  C72  1  0.37922000  0.33961000  0.37231000  1.0
  C  C73  1  0.37411000  0.41125000  0.37730000  1.0
  C  C74  1  0.72533000  0.57605000  0.63087000  1.0
  C  C75  1  0.52365000  0.67465000  0.62112000  1.0
  C  C76  1  0.74222000  0.58534000  0.58819000  1.0
  C  C77  1  0.50822000  0.66505000  0.66358000  1.0
  C  C78  1  0.60299000  0.64262000  0.60905000  1.0
  C  C79  1  0.64583000  0.60902000  0.64276000  1.0
  C  C80  1  0.07603000  0.22603000  0.62974000  1.0
  C  C81  1  0.17346000  0.02472000  0.62068000  1.0
  C  C82  1  0.08607000  0.24283000  0.58704000  1.0
  C  C83  1  0.16267000  0.00946000  0.66311000  1.0
  C  C84  1  0.14141000  0.10384000  0.60835000  1.0
  C  C85  1  0.10744000  0.14668000  0.64187000  1.0
  C  C86  1  0.84200000  0.79904000  0.39693000  1.0
  C  C87  1  0.90320000  0.94881000  0.35372000  1.0
  C  C88  1  0.91008000  0.75732000  0.41438000  1.0
  C  C89  1  0.83500000  0.98951000  0.33691000  1.0
  C  C90  1  0.90577000  0.87939000  0.37591000  1.0
  C  C91  1  0.83952000  0.86884000  0.37514000  1.0
  C  C92  1  0.65395000  0.15135000  0.15179000  1.0
  C  C93  1  0.59859000  0.09602000  0.09813000  1.0
  C  C94  1  0.66885000  0.16469000  0.10888000  1.0
  C  C95  1  0.58537000  0.08102000  0.14106000  1.0
  C  C96  1  0.64080000  0.13885000  0.08247000  1.0
  C  C97  1  0.61120000  0.10907000  0.16745000  1.0
  C  C98  1  0.67234000  0.52597000  0.11894000  1.0
  C  C99  1  0.57706000  0.72750000  0.12802000  1.0
  C  C100  1  0.66451000  0.50924000  0.16173000  1.0
  C  C101  1  0.58521000  0.74274000  0.08550000  1.0
  C  C102  1  0.60859000  0.64834000  0.14032000  1.0
  C  C103  1  0.64026000  0.60536000  0.10677000  1.0
  C  C104  1  0.08098000  0.12506000  0.17906000  1.0
  C  C105  1  0.16773000  0.12474000  0.07328000  1.0
  C  C106  1  0.00855000  0.16283000  0.16599000  1.0
  C  C107  1  0.23910000  0.08677000  0.08688000  1.0
  C  C108  1  0.10977000  0.13843000  0.10685000  1.0
  C  C109  1  0.13869000  0.11092000  0.14524000  1.0
  C  C110  1  0.34559000  0.84889000  0.84834000  1.0
  C  C111  1  0.40177000  0.90151000  0.90295000  1.0
  C  C112  1  0.30251000  0.91953000  0.86313000  1.0
  C  C113  1  0.44403000  0.83002000  0.88900000  1.0
  C  C114  1  0.33025000  0.94610000  0.88932000  1.0
  C  C115  1  0.41742000  0.80455000  0.86171000  1.0
  C  C116  1  0.40932000  0.44728000  0.85353000  1.0
  C  C117  1  0.34559000  0.29964000  0.89752000  1.0
  C  C118  1  0.34052000  0.49054000  0.83703000  1.0
  C  C119  1  0.41423000  0.25777000  0.91374000  1.0
  C  C120  1  0.34345000  0.36912000  0.87563000  1.0
  C  C121  1  0.41085000  0.37808000  0.87565000  1.0
  C  C122  1  0.94594000  0.79419000  0.84825000  1.0
  C  C123  1  0.80710000  0.95221000  0.90115000  1.0
  C  C124  1  0.99315000  0.83234000  0.83574000  1.0
  C  C125  1  0.76130000  0.91319000  0.91349000  1.0
  C  C126  1  0.87484000  0.90872000  0.87752000  1.0
  C  C127  1  0.87854000  0.83775000  0.87227000  1.0
  S  S128  1  0.30012000  0.32587000  0.39679000  1.0
  S  S129  1  0.45265000  0.42596000  0.35325000  1.0
  S  S130  1  0.66087000  0.63415000  0.56289000  1.0
  S  S131  1  0.58923000  0.61729000  0.68914000  1.0
  S  S132  1  0.13362000  0.16150000  0.56205000  1.0
  S  S133  1  0.11403000  0.09028000  0.68837000  1.0
  S  S134  1  0.97047000  0.80370000  0.40399000  1.0
  S  S135  1  0.77382000  0.94413000  0.34769000  1.0
  S  S136  1  0.61777000  0.59073000  0.18669000  1.0
  S  S137  1  0.63091000  0.66175000  0.06018000  1.0
  S  S138  1  0.01156000  0.18076000  0.11253000  1.0
  S  S139  1  0.23659000  0.06766000  0.14024000  1.0
  S  S140  1  0.27823000  0.44632000  0.84867000  1.0
  S  S141  1  0.47647000  0.30195000  0.90266000  1.0
  S  S142  1  0.95481000  0.92111000  0.85337000  1.0
  S  S143  1  0.79965000  0.82394000  0.89654000  1.0
  N  N144  1  0.78153000  0.52423000  0.39728000  1.0
  N  N145  1  0.97434000  0.23087000  0.34702000  1.0
  N  N146  1  0.15521000  0.66774000  0.53856000  1.0
  N  N147  1  0.08353000  0.59459000  0.71093000  1.0
  N  N148  1  0.71715000  0.20501000  0.08889000  1.0
  N  N149  1  0.54524000  0.03262000  0.16107000  1.0
  N  N150  1  0.22403000  0.96939000  0.85290000  1.0
  N  N151  1  0.51838000  0.77614000  0.90338000  1.0
  Cl  Cl152  1  0.28675000  0.54315000  0.41122000  1.0
  Cl  Cl153  1  0.78905000  0.53161000  0.66615000  1.0
  Cl  Cl154  1  0.03161000  0.28963000  0.66480000  1.0
  Cl  Cl155  1  0.76896000  0.77289000  0.40014000  1.0
  Cl  Cl156  1  0.71362000  0.46208000  0.08397000  1.0
  Cl  Cl157  1  0.10148000  0.09795000  0.22869000  1.0
  Cl  Cl158  1  0.48438000  0.47099000  0.84904000  1.0
  Cl  Cl159  1  0.96344000  0.70665000  0.83712000  1.0
  O  O160  1  0.00072000  0.49878000  0.49968000  1.0
  O  O161  1  0.07405000  0.31523000  0.52251000  1.0
  O  O162  1  0.02337000  0.53945000  0.58573000  1.0
  O  O163  1  0.15300000  0.50714000  0.44716000  1.0
  O  O164  1  0.03411000  0.37588000  0.58036000  1.0
  O  O165  1  0.15722000  0.38918000  0.44746000  1.0
  O  O166  1  0.09439000  0.57448000  0.53085000  1.0
  O  O167  1  0.00046000  0.65990000  0.45311000  1.0
  O  O168  1  0.88410000  0.48702000  0.44869000  1.0
  O  O169  1  0.89380000  0.64704000  0.44479000  1.0
  O  O170  1  0.00099000  0.38910000  0.43813000  1.0
  O  O171  1  0.87564000  0.52113000  0.58123000  1.0
  O  O172  1  0.81440000  0.58059000  0.52400000  1.0
  O  O173  1  0.74892000  0.25071000  0.25010000  1.0
  O  O174  1  0.59951000  0.35673000  0.30458000  1.0
  O  O175  1  0.66987000  0.15774000  0.21931000  1.0
  O  O176  1  0.72847000  0.37608000  0.16894000  1.0
  O  O177  1  0.59186000  0.24656000  0.29821000  1.0
  O  O178  1  0.66964000  0.43677000  0.22615000  1.0
  O  O179  1  0.70885000  0.22839000  0.16584000  1.0
  O  O180  1  0.87593000  0.21838000  0.16959000  1.0
  O  O181  1  0.85292000  0.24952000  0.31439000  1.0
  O  O182  1  0.93134000  0.17881000  0.22943000  1.0
  O  O183  1  0.75704000  0.36783000  0.30414000  1.0
  O  O184  1  0.74349000  0.09324000  0.30127000  1.0
  O  O185  1  0.85912000  0.09364000  0.30316000  1.0
  O  O186  1  0.25040000  0.75006000  0.74973000  1.0
  O  O187  1  0.37475000  0.72130000  0.66828000  1.0
  O  O188  1  0.36041000  0.75108000  0.81160000  1.0
  O  O189  1  0.16802000  0.93386000  0.72650000  1.0
  O  O190  1  0.43330000  0.67895000  0.72720000  1.0
  O  O191  1  0.22630000  0.87660000  0.66808000  1.0
  O  O192  1  0.25937000  0.86602000  0.80243000  1.0
  O  O193  1  0.09953000  0.85469000  0.80570000  1.0
  O  O194  1  0.17952000  0.65294000  0.71843000  1.0
  O  O195  1  0.09403000  0.74517000  0.79625000  1.0
  O  O196  1  0.21215000  0.72622000  0.66385000  1.0
  O  O197  1  0.36166000  0.59589000  0.80181000  1.0
  O  O198  1  0.24640000  0.59268000  0.80286000  1.0
  O  O199  1  0.49965000  0.00080000  0.99981000  1.0
  O  O200  1  0.50352000  0.15687000  0.95164000  1.0
  O  O201  1  0.38188000  0.99356000  0.94531000  1.0
  O  O202  1  0.65632000  0.89148000  0.94768000  1.0
  O  O203  1  0.39257000  0.15072000  0.94462000  1.0
  O  O204  1  0.65822000  0.00640000  0.94863000  1.0
  O  O205  1  0.49995000  0.89670000  0.93646000  1.0
  O  O206  1  0.57219000  0.81820000  0.02181000  1.0
  O  O207  1  0.52044000  0.04239000  0.08391000  1.0
  O  O208  1  0.52851000  0.87584000  0.08081000  1.0
  O  O209  1  0.59306000  0.07920000  0.03068000  1.0
  O  O210  1  0.31319000  0.08058000  0.02255000  1.0
  O  O211  1  0.37198000  0.02385000  0.08083000  1.0
  O  O212  1  0.80096000  0.57499000  0.37954000  1.0
  O  O213  1  0.72281000  0.53245000  0.42092000  1.0
  O  O214  1  0.00754000  0.23291000  0.31182000  1.0
  O  O215  1  0.98441000  0.17378000  0.37235000  1.0
  O  O216  1  0.10163000  0.72039000  0.52221000  1.0
  O  O217  1  0.22136000  0.63618000  0.52239000  1.0
  O  O218  1  0.03212000  0.64826000  0.72757000  1.0
  O  O219  1  0.11403000  0.52807000  0.72680000  1.0
  O  O220  1  0.78666000  0.16821000  0.08899000  1.0
  O  O221  1  0.68411000  0.27025000  0.07195000  1.0
  O  O222  1  0.58148000  0.96342000  0.16017000  1.0
  O  O223  1  0.48063000  0.06524000  0.17884000  1.0
  O  O224  1  0.17307000  0.95057000  0.87115000  1.0
  O  O225  1  0.21585000  0.02752000  0.82876000  1.0
  O  O226  1  0.51628000  0.74322000  0.93870000  1.0
  O  O227  1  0.57549000  0.76587000  0.87810000  1.0
