# generated using pymatgen
data_DyAgH2C2SO9
_symmetry_space_group_name_H-M   'P 1'
_cell_length_a   6.89605000
_cell_length_b   7.66930368
_cell_length_c   9.06553000
_cell_angle_alpha   113.42762635
_cell_angle_beta   90.03360000
_cell_angle_gamma   116.68406239
_symmetry_Int_Tables_number   1
_chemical_formula_structural   DyAgH2C2SO9
_chemical_formula_sum   'Dy2 Ag2 H4 C4 S2 O18'
_cell_volume   383.57982837
_cell_formula_units_Z   2
loop_
 _symmetry_equiv_pos_site_id
 _symmetry_equiv_pos_as_xyz
  1  'x, y, z'
loop_
 _atom_site_type_symbol
 _atom_site_label
 _atom_site_symmetry_multiplicity
 _atom_site_fract_x
 _atom_site_fract_y
 _atom_site_fract_z
 _atom_site_occupancy
  Dy  Dy0  1  0.24387000  0.48790000  0.26089000  1.0
  Dy  Dy1  1  0.75613000  0.51210000  0.73911000  1.0
  Ag  Ag2  1  0.08206000  0.16391000  0.66671000  1.0
  Ag  Ag3  1  0.91794000  0.83610000  0.33333333  1.0
  H  H4  1  0.30413000  0.60954000  0.98044000  1.0
  H  H5  1  0.69587000  0.39046000  0.01956000  1.0
  H  H6  1  0.41646000  0.83320000  0.14388000  1.0
  H  H7  1  0.58354000  0.16680000  0.85613000  1.0
  C  C8  1  0.01721000  0.03443000  0.93028000  1.0
  C  C9  1  0.98280000  0.96558000  0.06972000  1.0
  C  C10  1  0.39035000  0.00007000  0.50000000  1.0
  C  C11  1  0.60964000  0.99992000  0.50000000  1.0
  S  S12  1  0.33025000  0.66079000  0.70330000  1.0
  S  S13  1  0.66975000  0.33921000  0.29670000  1.0
  O  O14  1  0.11858000  0.23737000  0.97147000  1.0
  O  O15  1  0.88142000  0.76263000  0.02853000  1.0
  O  O16  1  0.94279000  0.88541000  0.78387000  1.0
  O  O17  1  0.05721000  0.11459000  0.21613000  1.0
  O  O18  1  0.21880000  0.82145000  0.40857000  1.0
  O  O19  1  0.39751000  0.17879000  0.59143000  1.0
  O  O20  1  0.78120000  0.17855000  0.59143000  1.0
  O  O21  1  0.60249000  0.82121000  0.40857000  1.0
  O  O22  1  0.26061000  0.52206000  0.52184000  1.0
  O  O23  1  0.73941000  0.47795000  0.47815000  1.0
  O  O24  1  0.12865000  0.60356000  0.77638000  1.0
  O  O25  1  0.52463000  0.39608000  0.22390000  1.0
  O  O26  1  0.87135000  0.39644000  0.22362000  1.0
  O  O27  1  0.47539000  0.60393000  0.77610000  1.0
  O  O28  1  0.44569000  0.89251000  0.74365000  1.0
  O  O29  1  0.55431000  0.10749000  0.25635000  1.0
  O  O30  1  0.33599000  0.67245000  0.10063000  1.0
  O  O31  1  0.66401000  0.32755000  0.89937000  1.0
