# generated using pymatgen
data_HgH8C12(N3Cl)2
_symmetry_space_group_name_H-M   'P 1'
_cell_length_a   7.11235000
_cell_length_b   7.38021000
_cell_length_c   7.99425000
_cell_angle_alpha   115.04600000
_cell_angle_beta   96.82400000
_cell_angle_gamma   105.75100000
_symmetry_Int_Tables_number   1
_chemical_formula_structural   HgH8C12(N3Cl)2
_chemical_formula_sum   'Hg1 H8 C12 N6 Cl2'
_cell_volume   352.49891862
_cell_formula_units_Z   1
loop_
 _symmetry_equiv_pos_site_id
 _symmetry_equiv_pos_as_xyz
  1  'x, y, z'
loop_
 _atom_site_type_symbol
 _atom_site_label
 _atom_site_symmetry_multiplicity
 _atom_site_fract_x
 _atom_site_fract_y
 _atom_site_fract_z
 _atom_site_occupancy
  Hg  Hg0  1  0.50000000  0.00000000  0.50000000  1.0
  H  H1  1  0.98916000  0.76492000  0.47237000  1.0
  H  H2  1  0.01084000  0.23508000  0.52764000  1.0
  H  H3  1  0.69619000  0.42209000  0.33906000  1.0
  H  H4  1  0.30382000  0.57791000  0.66093000  1.0
  H  H5  1  0.70893000  0.09216000  0.06506000  1.0
  H  H6  1  0.29107000  0.90784000  0.93494000  1.0
  H  H7  1  0.01375000  0.12595000  0.93727000  1.0
  H  H8  1  0.98625000  0.87405000  0.06273000  1.0
  C  C9  1  0.99222000  0.61944000  0.35569000  1.0
  C  C10  1  0.00778000  0.38056000  0.64432000  1.0
  C  C11  1  0.82684000  0.42725000  0.27993000  1.0
  C  C12  1  0.17317000  0.57275000  0.72007000  1.0
  C  C13  1  0.83432000  0.24522000  0.12956000  1.0
  C  C14  1  0.16568000  0.75477000  0.87044000  1.0
  C  C15  1  0.00510000  0.26171000  0.05953000  1.0
  C  C16  1  0.99491000  0.73829000  0.94047000  1.0
  C  C17  1  0.16502000  0.45979000  0.14621000  1.0
  C  C18  1  0.83498000  0.54021000  0.85379000  1.0
  C  C19  1  0.34550000  0.48251000  0.07189000  1.0
  C  C20  1  0.65449000  0.51749000  0.92811000  1.0
  N  N21  1  0.15858000  0.63607000  0.29269000  1.0
  N  N22  1  0.84143000  0.36393000  0.70732000  1.0
  N  N23  1  0.48850000  0.67913000  0.14082000  1.0
  N  N24  1  0.51149000  0.32087000  0.85918000  1.0
  N  N25  1  0.35558000  0.30276000  0.93170000  1.0
  N  N26  1  0.64441000  0.69724000  0.06830000  1.0
  Cl  Cl27  1  0.35303000  0.18531000  0.37297000  1.0
  Cl  Cl28  1  0.64697000  0.81469000  0.62703000  1.0
