# generated using pymatgen
data_SnH12C8O3
_symmetry_space_group_name_H-M   'P 1'
_cell_length_a   9.76473000
_cell_length_b   10.17390000
_cell_length_c   10.69030000
_cell_angle_alpha   90.00000000
_cell_angle_beta   108.09300000
_cell_angle_gamma   90.00000000
_symmetry_Int_Tables_number   1
_chemical_formula_structural   SnH12C8O3
_chemical_formula_sum   'Sn4 H48 C32 O12'
_cell_volume   1009.51841325
_cell_formula_units_Z   4
loop_
 _symmetry_equiv_pos_site_id
 _symmetry_equiv_pos_as_xyz
  1  'x, y, z'
loop_
 _atom_site_type_symbol
 _atom_site_label
 _atom_site_symmetry_multiplicity
 _atom_site_fract_x
 _atom_site_fract_y
 _atom_site_fract_z
 _atom_site_occupancy
  Sn  Sn0  1  0.27578000  0.09733000  0.19555000  1.0
  Sn  Sn1  1  0.22422000  0.59734000  0.30445000  1.0
  Sn  Sn2  1  0.72422000  0.90266000  0.80445000  1.0
  Sn  Sn3  1  0.77578000  0.40267000  0.69555000  1.0
  H  H4  1  0.31533000  0.76835000  0.90462000  1.0
  H  H5  1  0.18467000  0.26835000  0.59538000  1.0
  H  H6  1  0.68467000  0.23165000  0.09538000  1.0
  H  H7  1  0.81533000  0.73165000  0.40462000  1.0
  H  H8  1  0.33825000  0.60046000  0.70958000  1.0
  H  H9  1  0.16175000  0.10047000  0.79043000  1.0
  H  H10  1  0.66175000  0.39954000  0.29043000  1.0
  H  H11  1  0.83825000  0.89953000  0.20957000  1.0
  H  H12  1  0.33260000  0.35267000  0.81489000  1.0
  H  H13  1  0.16740000  0.85267000  0.68511000  1.0
  H  H14  1  0.66740000  0.64733000  0.18511000  1.0
  H  H15  1  0.83260000  0.14733000  0.31489000  1.0
  H  H16  1  0.31970000  0.85404000  0.11262000  1.0
  H  H17  1  0.18030000  0.35404000  0.38737000  1.0
  H  H18  1  0.68030000  0.14596000  0.88738000  1.0
  H  H19  1  0.81970000  0.64596000  0.61262000  1.0
  H  H20  1  0.44013000  0.96716000  0.07190000  1.0
  H  H21  1  0.05987000  0.46716000  0.42809000  1.0
  H  H22  1  0.55987000  0.03284000  0.92809000  1.0
  H  H23  1  0.94013000  0.53284000  0.57190000  1.0
  H  H24  1  0.25516000  0.96086000  0.97297000  1.0
  H  H25  1  0.24484000  0.46086000  0.52704000  1.0
  H  H26  1  0.74484000  0.03914000  0.02704000  1.0
  H  H27  1  0.75516000  0.53914000  0.47296000  1.0
  H  H28  1  0.46574000  0.10624000  0.44321000  1.0
  H  H29  1  0.03426000  0.60624000  0.05679000  1.0
  H  H30  1  0.53426000  0.89376000  0.55679000  1.0
  H  H31  1  0.96574000  0.39376000  0.94321000  1.0
  H  H32  1  0.42712000  0.26902000  0.37764000  1.0
  H  H33  1  0.07288000  0.76902000  0.12236000  1.0
  H  H34  1  0.57288000  0.73098000  0.62235000  1.0
  H  H35  1  0.92712000  0.23098000  0.87765000  1.0
  H  H36  1  0.54881000  0.16659000  0.32702000  1.0
  H  H37  1  0.95119000  0.66659000  0.17298000  1.0
  H  H38  1  0.45119000  0.83341000  0.67298000  1.0
  H  H39  1  0.04881000  0.33341000  0.82702000  1.0
  H  H40  1  0.01516000  0.08275000  0.23028000  1.0
  H  H41  1  0.48484000  0.58274000  0.26972000  1.0
  H  H42  1  0.98484000  0.91726000  0.76972000  1.0
  H  H43  1  0.51516000  0.41726000  0.73028000  1.0
  H  H44  1  0.99202000  0.11663000  0.06028000  1.0
  H  H45  1  0.50799000  0.61662000  0.43972000  1.0
  H  H46  1  0.00799000  0.88337000  0.93972000  1.0
  H  H47  1  0.49201000  0.38338000  0.56028000  1.0
  H  H48  1  0.04058000  0.24641000  0.17845000  1.0
  H  H49  1  0.45943000  0.74640000  0.32156000  1.0
  H  H50  1  0.95943000  0.75359000  0.82155000  1.0
  H  H51  1  0.54058000  0.25359000  0.67845000  1.0
  C  C52  1  0.28919000  0.37122000  0.07885000  1.0
  C  C53  1  0.21082000  0.87122000  0.42115000  1.0
  C  C54  1  0.71081000  0.62879000  0.92114000  1.0
  C  C55  1  0.78919000  0.12879000  0.57886000  1.0
  C  C56  1  0.30673000  0.46473000  0.98044000  1.0
  C  C57  1  0.19327000  0.96473000  0.51956000  1.0
  C  C58  1  0.69327000  0.53527000  0.01956000  1.0
  C  C59  1  0.80673000  0.03527000  0.48044000  1.0
  C  C60  1  0.31422000  0.66215000  0.89776000  1.0
  C  C61  1  0.18578000  0.16215000  0.60224000  1.0
  C  C62  1  0.68578000  0.33785000  0.10224000  1.0
  C  C63  1  0.81422000  0.83785000  0.39776000  1.0
  C  C64  1  0.32727000  0.57480000  0.80456000  1.0
  C  C65  1  0.17274000  0.07480000  0.69544000  1.0
  C  C66  1  0.67273000  0.42520000  0.19543000  1.0
  C  C67  1  0.82727000  0.92520000  0.30457000  1.0
  C  C68  1  0.32332000  0.44717000  0.85843000  1.0
  C  C69  1  0.17667000  0.94717000  0.64157000  1.0
  C  C70  1  0.67668000  0.55284000  0.14158000  1.0
  C  C71  1  0.82333000  0.05283000  0.35843000  1.0
  C  C72  1  0.32947000  0.95164000  0.07323000  1.0
  C  C73  1  0.17053000  0.45164000  0.42677000  1.0
  C  C74  1  0.67053000  0.04836000  0.92677000  1.0
  C  C75  1  0.82947000  0.54836000  0.57323000  1.0
  C  C76  1  0.45091000  0.16809000  0.35632000  1.0
  C  C77  1  0.04909000  0.66809000  0.14368000  1.0
  C  C78  1  0.54909000  0.83192000  0.64368000  1.0
  C  C79  1  0.95091000  0.33191000  0.85632000  1.0
  C  C80  1  0.05276000  0.14150000  0.16201000  1.0
  C  C81  1  0.44724000  0.64150000  0.33799000  1.0
  C  C82  1  0.94724000  0.85850000  0.83799000  1.0
  C  C83  1  0.55276000  0.35850000  0.66201000  1.0
  O  O84  1  0.30437000  0.24933000  0.05288000  1.0
  O  O85  1  0.19563000  0.74933000  0.44712000  1.0
  O  O86  1  0.69563000  0.75066000  0.94712000  1.0
  O  O87  1  0.80437000  0.25066000  0.55288000  1.0
  O  O88  1  0.24067000  0.90942000  0.31980000  1.0
  O  O89  1  0.25933000  0.40942000  0.18021000  1.0
  O  O90  1  0.75933000  0.09058000  0.68020000  1.0
  O  O91  1  0.74067000  0.59058000  0.81980000  1.0
  O  O92  1  0.30073000  0.59737000  0.00503000  1.0
  O  O93  1  0.19927000  0.09737000  0.49497000  1.0
  O  O94  1  0.69927000  0.40264000  0.99497000  1.0
  O  O95  1  0.80073000  0.90264000  0.50503000  1.0
