# generated using pymatgen
data_Zn4H10C28S2Br2Cl2O13
_symmetry_space_group_name_H-M   'P 1'
_cell_length_a   18.54800000
_cell_length_b   19.71810000
_cell_length_c   32.75190000
_cell_angle_alpha   85.96400000
_cell_angle_beta   73.62810000
_cell_angle_gamma   62.07600000
_symmetry_Int_Tables_number   1
_chemical_formula_structural   Zn4H10C28S2Br2Cl2O13
_chemical_formula_sum   'Zn16 H40 C112 S8 Br8 Cl8 O52'
_cell_volume   10127.74100204
_cell_formula_units_Z   4
loop_
 _symmetry_equiv_pos_site_id
 _symmetry_equiv_pos_as_xyz
  1  'x, y, z'
loop_
 _atom_site_type_symbol
 _atom_site_label
 _atom_site_symmetry_multiplicity
 _atom_site_fract_x
 _atom_site_fract_y
 _atom_site_fract_z
 _atom_site_occupancy
  Zn  Zn0  1  0.87282000  0.55471000  0.51849000  1.0
  Zn  Zn1  1  0.03864000  0.48372000  0.43874000  1.0
  Zn  Zn2  1  0.04375000  0.39868000  0.52370000  1.0
  Zn  Zn3  1  0.04469000  0.56228000  0.51782000  1.0
  Zn  Zn4  1  0.62568000  0.19229000  0.73314000  1.0
  Zn  Zn5  1  0.46437000  0.34991000  0.72516000  1.0
  Zn  Zn6  1  0.45595000  0.26606000  0.81254000  1.0
  Zn  Zn7  1  0.45585000  0.19158000  0.72818000  1.0
  Zn  Zn8  1  0.46309000  0.76208000  0.31272000  1.0
  Zn  Zn9  1  0.45370000  0.69100000  0.23167000  1.0
  Zn  Zn10  1  0.62560000  0.69390000  0.22911000  1.0
  Zn  Zn11  1  0.45572000  0.85212000  0.22703000  1.0
  Zn  Zn12  1  0.03612000  0.90002000  0.02499000  1.0
  Zn  Zn13  1  0.05155000  0.05603000  0.01823000  1.0
  Zn  Zn14  1  0.87616000  0.05952000  0.02002000  1.0
  Zn  Zn15  1  0.03825000  0.98383000  0.93724000  1.0
  H  H16  1  0.81092000  0.24319000  0.65421000  1.0
  H  H17  1  0.54533000  0.48555000  0.61991000  1.0
  H  H18  1  0.55090000  0.52590000  0.66521000  1.0
  H  H19  1  0.65206000  0.56902000  0.61684000  1.0
  H  H20  1  0.64626000  0.52889000  0.57158000  1.0
  H  H21  1  0.29350000  0.60260000  0.29598000  1.0
  H  H22  1  0.34970000  0.67312000  0.43498000  1.0
  H  H23  1  0.25961000  0.76148000  0.43203000  1.0
  H  H24  1  0.16214000  0.71197000  0.47760000  1.0
  H  H25  1  0.25208000  0.62363000  0.48054000  1.0
  H  H26  1  0.80990000  0.60176000  0.29497000  1.0
  H  H27  1  0.54854000  0.76158000  0.43022000  1.0
  H  H28  1  0.54303000  0.67352000  0.43294000  1.0
  H  H29  1  0.64311000  0.62367000  0.47921000  1.0
  H  H30  1  0.64885000  0.71163000  0.47642000  1.0
  H  H31  1  0.30838000  0.45639000  0.64640000  1.0
  H  H32  1  0.32828000  0.17991000  0.62954000  1.0
  H  H33  1  0.23769000  0.22057000  0.67496000  1.0
  H  H34  1  0.14208000  0.27397000  0.62633000  1.0
  H  H35  1  0.23283000  0.23343000  0.58107000  1.0
  H  H36  1  0.69071000  0.14711000  0.95590000  1.0
  H  H37  1  0.95413000  0.07781000  0.81645000  1.0
  H  H38  1  0.94909000  0.98949000  0.81897000  1.0
  H  H39  1  0.84684000  0.04030000  0.77384000  1.0
  H  H40  1  0.85195000  0.12852000  0.77140000  1.0
  H  H41  1  0.19270000  0.05187000  0.84407000  1.0
  H  H42  1  0.17078000  0.21501000  0.97490000  1.0
  H  H43  1  0.26190000  0.12702000  0.97710000  1.0
  H  H44  1  0.35673000  0.17415000  0.92641000  1.0
  H  H45  1  0.26565000  0.26205000  0.92428000  1.0
  H  H46  1  0.19301000  0.79437000  0.10326000  1.0
  H  H47  1  0.26154000  0.03168000  0.07482000  1.0
  H  H48  1  0.17044000  0.07190000  0.12006000  1.0
  H  H49  1  0.26539000  0.01944000  0.16886000  1.0
  H  H50  1  0.35651000  0.97929000  0.12371000  1.0
  H  H51  1  0.68898000  0.00743000  0.09649000  1.0
  H  H52  1  0.94930000  0.72447000  0.08493000  1.0
  H  H53  1  0.95407000  0.76452000  0.13061000  1.0
  H  H54  1  0.85286000  0.72103000  0.17822000  1.0
  H  H55  1  0.84833000  0.68055000  0.13266000  1.0
  C  C56  1  0.86274000  0.56748000  0.43044000  1.0
  C  C57  1  0.12487000  0.31532000  0.43861000  1.0
  C  C58  1  0.86564000  0.42754000  0.56829000  1.0
  C  C59  1  0.13882000  0.43511000  0.56816000  1.0
  C  C60  1  0.87160000  0.68418000  0.56056000  1.0
  C  C61  1  0.13737000  0.56906000  0.43083000  1.0
  C  C62  1  0.63938000  0.31836000  0.68153000  1.0
  C  C63  1  0.37671000  0.43545000  0.80978000  1.0
  C  C64  1  0.63338000  0.18267000  0.82127000  1.0
  C  C65  1  0.36150000  0.18041000  0.81674000  1.0
  C  C66  1  0.62751000  0.06568000  0.68852000  1.0
  C  C67  1  0.36336000  0.31866000  0.68036000  1.0
  C  C68  1  0.36293000  0.68061000  0.32001000  1.0
  C  C69  1  0.62289000  0.56567000  0.18873000  1.0
  C  C70  1  0.63835000  0.68067000  0.31842000  1.0
  C  C71  1  0.63386000  0.82156000  0.18058000  1.0
  C  C72  1  0.37564000  0.93180000  0.31322000  1.0
  C  C73  1  0.36135000  0.81743000  0.18138000  1.0
  C  C74  1  0.13865000  0.93125000  0.06868000  1.0
  C  C75  1  0.88285000  0.18395000  0.06121000  1.0
  C  C76  1  0.86079000  0.93271000  0.06962000  1.0
  C  C77  1  0.86232000  0.06890000  0.93137000  1.0
  C  C78  1  0.12171000  0.81451000  0.94017000  1.0
  C  C79  1  0.13935000  0.06719000  0.93016000  1.0
  C  C80  1  0.73398000  0.80414000  0.60124000  1.0
  C  C81  1  0.76484000  0.94483000  0.64878000  1.0
  C  C82  1  0.82166000  0.75862000  0.58586000  1.0
  C  C83  1  0.67714000  0.99069000  0.66386000  1.0
  C  C84  1  0.78552000  0.87683000  0.62588000  1.0
  C  C85  1  0.71320000  0.87218000  0.62416000  1.0
  C  C86  1  0.20269000  0.22548000  0.36934000  1.0
  C  C87  1  0.29787000  0.02146000  0.38275000  1.0
  C  C88  1  0.17414000  0.24098000  0.41347000  1.0
  C  C89  1  0.32648000  0.00592000  0.33863000  1.0
  C  C90  1  0.25271000  0.10159000  0.39398000  1.0
  C  C91  1  0.24789000  0.14531000  0.35820000  1.0
  C  C92  1  0.69662000  0.34613000  0.65298000  1.0
  C  C93  1  0.81168000  0.39668000  0.59733000  1.0
  C  C94  1  0.66702000  0.41790000  0.63616000  1.0
  C  C95  1  0.84114000  0.32374000  0.61491000  1.0
  C  C96  1  0.72302000  0.44155000  0.60942000  1.0
  C  C97  1  0.78537000  0.29965000  0.64164000  1.0
  C  C98  1  0.58856000  0.49191000  0.63453000  1.0
  C  C99  1  0.65178000  0.51898000  0.60425000  1.0
  C  C100  1  0.30580000  0.65255000  0.34825000  1.0
  C  C101  1  0.19388000  0.59642000  0.40111000  1.0
  C  C102  1  0.27976000  0.66405000  0.39257000  1.0
  C  C103  1  0.22077000  0.58509000  0.35581000  1.0
  C  C104  1  0.22573000  0.63681000  0.41764000  1.0
  C  C105  1  0.27475000  0.61235000  0.33053000  1.0
  C  C106  1  0.28580000  0.69860000  0.43055000  1.0
  C  C107  1  0.22471000  0.66766000  0.45910000  1.0
  C  C108  1  0.69518000  0.65228000  0.34681000  1.0
  C  C109  1  0.80914000  0.59530000  0.40041000  1.0
  C  C110  1  0.66500000  0.66375000  0.39114000  1.0
  C  C111  1  0.83932000  0.58415000  0.35512000  1.0
  C  C112  1  0.72051000  0.63602000  0.41657000  1.0
  C  C113  1  0.78394000  0.61176000  0.32949000  1.0
  C  C114  1  0.58621000  0.69868000  0.42882000  1.0
  C  C115  1  0.64890000  0.66740000  0.45778000  1.0
  C  C116  1  0.30569000  0.34823000  0.65238000  1.0
  C  C117  1  0.19551000  0.40908000  0.59677000  1.0
  C  C118  1  0.27158000  0.30644000  0.63962000  1.0
  C  C119  1  0.23044000  0.45131000  0.61015000  1.0
  C  C120  1  0.21869000  0.33630000  0.61285000  1.0
  C  C121  1  0.28334000  0.42178000  0.63699000  1.0
  C  C122  1  0.26732000  0.23136000  0.64282000  1.0
  C  C123  1  0.20749000  0.26484000  0.61246000  1.0
  C  C124  1  0.29811000  0.58446000  0.82047000  1.0
  C  C125  1  0.20161000  0.66544000  0.92957000  1.0
  C  C126  1  0.32737000  0.51040000  0.83448000  1.0
  C  C127  1  0.17190000  0.73952000  0.91555000  1.0
  C  C128  1  0.24763000  0.60890000  0.89485000  1.0
  C  C129  1  0.25213000  0.64103000  0.85519000  1.0
  C  C130  1  0.80453000  0.09728000  0.90339000  1.0
  C  C131  1  0.68788000  0.15490000  0.85098000  1.0
  C  C132  1  0.83323000  0.08645000  0.85903000  1.0
  C  C133  1  0.65928000  0.16513000  0.89628000  1.0
  C  C134  1  0.77652000  0.11457000  0.83418000  1.0
  C  C135  1  0.71576000  0.13749000  0.92133000  1.0
  C  C136  1  0.91113000  0.05241000  0.82084000  1.0
  C  C137  1  0.84717000  0.08416000  0.79258000  1.0
  C  C138  1  0.19534000  0.09615000  0.90145000  1.0
  C  C139  1  0.30416000  0.15098000  0.84379000  1.0
  C  C140  1  0.22829000  0.13696000  0.91634000  1.0
  C  C141  1  0.26967000  0.10975000  0.82895000  1.0
  C  C142  1  0.28056000  0.16306000  0.88826000  1.0
  C  C143  1  0.21743000  0.08335000  0.85690000  1.0
  C  C144  1  0.23198000  0.16978000  0.95572000  1.0
  C  C145  1  0.29137000  0.19927000  0.92401000  1.0
  C  C146  1  0.64455000  0.44604000  0.14854000  1.0
  C  C147  1  0.86207000  0.30374000  0.10107000  1.0
  C  C148  1  0.67250000  0.49117000  0.16362000  1.0
  C  C149  1  0.83401000  0.25865000  0.08607000  1.0
  C  C150  1  0.79296000  0.37223000  0.12384000  1.0
  C  C151  1  0.71389000  0.37775000  0.12568000  1.0
  C  C152  1  0.19534000  0.90264000  0.09705000  1.0
  C  C153  1  0.30461000  0.84327000  0.15292000  1.0
  C  C154  1  0.22848000  0.94523000  0.10993000  1.0
  C  C155  1  0.27048000  0.80026000  0.13954000  1.0
  C  C156  1  0.28088000  0.91608000  0.13692000  1.0
  C  C157  1  0.21778000  0.82928000  0.11261000  1.0
  C  C158  1  0.23177000  0.02076000  0.10690000  1.0
  C  C159  1  0.29125000  0.98794000  0.13746000  1.0
  C  C160  1  0.80341000  0.90435000  0.09753000  1.0
  C  C161  1  0.68802000  0.85269000  0.15194000  1.0
  C  C162  1  0.83286000  0.83216000  0.11391000  1.0
  C  C163  1  0.65871000  0.92597000  0.13473000  1.0
  C  C164  1  0.77673000  0.80806000  0.14012000  1.0
  C  C165  1  0.71460000  0.95064000  0.10868000  1.0
  C  C166  1  0.91124000  0.75819000  0.11565000  1.0
  C  C167  1  0.84795000  0.73077000  0.14545000  1.0
  S  S168  1  0.87858000  0.79879000  0.59949000  1.0
  S  S169  1  0.62015000  0.95063000  0.65018000  1.0
  S  S170  1  0.20249000  0.15790000  0.44118000  1.0
  S  S171  1  0.29819000  0.08907000  0.31098000  1.0
  S  S172  1  0.29896000  0.50999000  0.88993000  1.0
  S  S173  1  0.20029000  0.73990000  0.86009000  1.0
  S  S174  1  0.78307000  0.45026000  0.14979000  1.0
  S  S175  1  0.72347000  0.29988000  0.09980000  1.0
  Br  Br176  1  0.95851000  0.25047000  0.60456000  1.0
  Br  Br177  1  0.18597000  0.53381000  0.32430000  1.0
  Br  Br178  1  0.95670000  0.53144000  0.32394000  1.0
  Br  Br179  1  0.21041000  0.55186000  0.59316000  1.0
  Br  Br180  1  0.54210000  0.21699000  0.92807000  1.0
  Br  Br181  1  0.28876000  0.08675000  0.77001000  1.0
  Br  Br182  1  0.29055000  0.69993000  0.15670000  1.0
  Br  Br183  1  0.54133000  0.99865000  0.14450000  1.0
  Cl  Cl184  1  0.65740000  0.78452000  0.59455000  1.0
  Cl  Cl185  1  0.84144000  0.96431000  0.65546000  1.0
  Cl  Cl186  1  0.18832000  0.29091000  0.33152000  1.0
  Cl  Cl187  1  0.31239000  0.95573000  0.42051000  1.0
  Cl  Cl188  1  0.31248000  0.60884000  0.76883000  1.0
  Cl  Cl189  1  0.18733000  0.64112000  0.98120000  1.0
  Cl  Cl190  1  0.54180000  0.46629000  0.15503000  1.0
  Cl  Cl191  1  0.96520000  0.28303000  0.09428000  1.0
  O  O192  1  0.99797000  0.50080000  0.50109000  1.0
  O  O193  1  0.82271000  0.58246000  0.47025000  1.0
  O  O194  1  0.10140000  0.37543000  0.41802000  1.0
  O  O195  1  0.94584000  0.38605000  0.55790000  1.0
  O  O196  1  0.94290000  0.53145000  0.41465000  1.0
  O  O197  1  0.82501000  0.49473000  0.55613000  1.0
  O  O198  1  0.10990000  0.31256000  0.47921000  1.0
  O  O199  1  0.11816000  0.38570000  0.55904000  1.0
  O  O200  1  0.95239000  0.65798000  0.55061000  1.0
  O  O201  1  0.11549000  0.50242000  0.55524000  1.0
  O  O202  1  0.83135000  0.65305000  0.55100000  1.0
  O  O203  1  0.11767000  0.52496000  0.41534000  1.0
  O  O204  1  0.11366000  0.59217000  0.47024000  1.0
  O  O205  1  0.50078000  0.24979000  0.74993000  1.0
  O  O206  1  0.67413000  0.25228000  0.69573000  1.0
  O  O207  1  0.39974000  0.43569000  0.76931000  1.0
  O  O208  1  0.55315000  0.22010000  0.83673000  1.0
  O  O209  1  0.55973000  0.36399000  0.68926000  1.0
  O  O210  1  0.67386000  0.16579000  0.78157000  1.0
  O  O211  1  0.39185000  0.37644000  0.83180000  1.0
  O  O212  1  0.37942000  0.22145000  0.83671000  1.0
  O  O213  1  0.54667000  0.09492000  0.69596000  1.0
  O  O214  1  0.38853000  0.16261000  0.77684000  1.0
  O  O215  1  0.66783000  0.09465000  0.70014000  1.0
  O  O216  1  0.38858000  0.36360000  0.69037000  1.0
  O  O217  1  0.38275000  0.25039000  0.69179000  1.0
  O  O218  1  0.50074000  0.75028000  0.25017000  1.0
  O  O219  1  0.38827000  0.71661000  0.33861000  1.0
  O  O220  1  0.54230000  0.59359000  0.20004000  1.0
  O  O221  1  0.67326000  0.66773000  0.27824000  1.0
  O  O222  1  0.38160000  0.66651000  0.27990000  1.0
  O  O223  1  0.55876000  0.71583000  0.33738000  1.0
  O  O224  1  0.66607000  0.59545000  0.19698000  1.0
  O  O225  1  0.67415000  0.75300000  0.19125000  1.0
  O  O226  1  0.39132000  0.93580000  0.27268000  1.0
  O  O227  1  0.55380000  0.86411000  0.19223000  1.0
  O  O228  1  0.39804000  0.87109000  0.33341000  1.0
  O  O229  1  0.38746000  0.74892000  0.19263000  1.0
  O  O230  1  0.37967000  0.86748000  0.19206000  1.0
  O  O231  1  0.00073000  0.00000000  0.99983000  1.0
  O  O232  1  0.11079000  0.88735000  0.06018000  1.0
  O  O233  1  0.96366000  0.15356000  0.05082000  1.0
  O  O234  1  0.82630000  0.00056000  0.05734000  1.0
  O  O235  1  0.12276000  0.99787000  0.05538000  1.0
  O  O236  1  0.94034000  0.88588000  0.06039000  1.0
  O  O237  1  0.83828000  0.15635000  0.05227000  1.0
  O  O238  1  0.82777000  0.08538000  0.97142000  1.0
  O  O239  1  0.10331000  0.87352000  0.91802000  1.0
  O  O240  1  0.94179000  0.03035000  0.91259000  1.0
  O  O241  1  0.10114000  0.81443000  0.98069000  1.0
  O  O242  1  0.12224000  0.08236000  0.97007000  1.0
  O  O243  1  0.11338000  0.03022000  0.91278000  1.0
