# generated using pymatgen
data_ZnH21C29N5O4
_symmetry_space_group_name_H-M   'P 1'
_cell_length_a   7.62504000
_cell_length_b   9.91328000
_cell_length_c   16.22230000
_cell_angle_alpha   85.13880000
_cell_angle_beta   80.17960000
_cell_angle_gamma   81.27040000
_symmetry_Int_Tables_number   1
_chemical_formula_structural   ZnH21C29N5O4
_chemical_formula_sum   'Zn2 H42 C58 N10 O8'
_cell_volume   1192.08264438
_cell_formula_units_Z   2
loop_
 _symmetry_equiv_pos_site_id
 _symmetry_equiv_pos_as_xyz
  1  'x, y, z'
loop_
 _atom_site_type_symbol
 _atom_site_label
 _atom_site_symmetry_multiplicity
 _atom_site_fract_x
 _atom_site_fract_y
 _atom_site_fract_z
 _atom_site_occupancy
  Zn  Zn0  1  0.63945000  0.44361000  0.24575000  1.0
  Zn  Zn1  1  0.36055000  0.55639000  0.75425000  1.0
  H  H2  1  0.95862000  0.64396000  0.46664000  1.0
  H  H3  1  0.04138000  0.35604000  0.53336000  1.0
  H  H4  1  0.25085000  0.63991000  0.51710000  1.0
  H  H5  1  0.74915000  0.36010000  0.48289000  1.0
  H  H6  1  0.53917000  0.56269000  0.41837000  1.0
  H  H7  1  0.46083000  0.43731000  0.58163000  1.0
  H  H8  1  0.60338000  0.16586000  0.15939000  1.0
  H  H9  1  0.39662000  0.83414000  0.84061000  1.0
  H  H10  1  0.93982000  0.23737000  0.32663000  1.0
  H  H11  1  0.06018000  0.76263000  0.67337000  1.0
  H  H12  1  0.79386000  0.91416000  0.20937000  1.0
  H  H13  1  0.20614000  0.08584000  0.79063000  1.0
  H  H14  1  0.15924000  0.94658000  0.28916000  1.0
  H  H15  1  0.84076000  0.05342000  0.71084000  1.0
  H  H16  1  0.98447000  0.84635000  0.31643000  1.0
  H  H17  1  0.01554000  0.15365000  0.68358000  1.0
  H  H18  1  0.28360000  0.08947000  0.31298000  1.0
  H  H19  1  0.71640000  0.91053000  0.68702000  1.0
  H  H20  1  0.50874000  0.20230000  0.35875000  1.0
  H  H21  1  0.49128000  0.79770000  0.64125000  1.0
  H  H22  1  0.50696000  0.22430000  0.51165000  1.0
  H  H23  1  0.49305000  0.77570000  0.48836000  1.0
  H  H24  1  0.26841000  0.14574000  0.61627000  1.0
  H  H25  1  0.73160000  0.85425000  0.38373000  1.0
  H  H26  1  0.76651000  0.31491000  0.93110000  1.0
  H  H27  1  0.23349000  0.68509000  0.06889000  1.0
  H  H28  1  0.76101000  0.82635000  0.88325000  1.0
  H  H29  1  0.23897000  0.17366000  0.11675000  1.0
  H  H30  1  0.56367000  0.00707000  0.81921000  1.0
  H  H31  1  0.43632000  0.99294000  0.18079000  1.0
  H  H32  1  0.56814000  0.25209000  0.84229000  1.0
  H  H33  1  0.43186000  0.74791000  0.15771000  1.0
  H  H34  1  0.97976000  0.70191000  0.90441000  1.0
  H  H35  1  0.02024000  0.29810000  0.09559000  1.0
  H  H36  1  0.13145000  0.65259000  0.97474000  1.0
  H  H37  1  0.86854000  0.34741000  0.02526000  1.0
  H  H38  1  0.94545000  0.63778000  0.14564000  1.0
  H  H39  1  0.05455000  0.36221000  0.85435000  1.0
  H  H40  1  0.50765000  0.49177000  0.07423000  1.0
  H  H41  1  0.49235000  0.50823000  0.92577000  1.0
  H  H42  1  0.70054000  0.61710000  0.93226000  1.0
  H  H43  1  0.29945000  0.38290000  0.06774000  1.0
  C  C44  1  0.90399000  0.56871000  0.31728000  1.0
  C  C45  1  0.09601000  0.43129000  0.68271000  1.0
  C  C46  1  0.25925000  0.42790000  0.22391000  1.0
  C  C47  1  0.74075000  0.57210000  0.77609000  1.0
  C  C48  1  0.24633000  0.50059000  0.30390000  1.0
  C  C49  1  0.75367000  0.49941000  0.69610000  1.0
  C  C50  1  0.08100000  0.55309000  0.35055000  1.0
  C  C51  1  0.91900000  0.44690000  0.64945000  1.0
  C  C52  1  0.08436000  0.60420000  0.42813000  1.0
  C  C53  1  0.91563000  0.39580000  0.57186000  1.0
  C  C54  1  0.24766000  0.60525000  0.45545000  1.0
  C  C55  1  0.75234000  0.39475000  0.54455000  1.0
  C  C56  1  0.40624000  0.55984000  0.40285000  1.0
  C  C57  1  0.59376000  0.44016000  0.59716000  1.0
  C  C58  1  0.70198000  0.14186000  0.20106000  1.0
  C  C59  1  0.29802000  0.85813000  0.79894000  1.0
  C  C60  1  0.87398000  0.18413000  0.28782000  1.0
  C  C61  1  0.12602000  0.81587000  0.71218000  1.0
  C  C62  1  0.79373000  0.01844000  0.22488000  1.0
  C  C63  1  0.20628000  0.98155000  0.77513000  1.0
  C  C64  1  0.02203000  0.94709000  0.32307000  1.0
  C  C65  1  0.97797000  0.05291000  0.67693000  1.0
  C  C66  1  0.01010000  0.97617000  0.41370000  1.0
  C  C67  1  0.98989000  0.02383000  0.58630000  1.0
  C  C68  1  0.14039000  0.04444000  0.43873000  1.0
  C  C69  1  0.85961000  0.95557000  0.56127000  1.0
  C  C70  1  0.27895000  0.09778000  0.37986000  1.0
  C  C71  1  0.72105000  0.90222000  0.62015000  1.0
  C  C72  1  0.40574000  0.16235000  0.40529000  1.0
  C  C73  1  0.59428000  0.83764000  0.59471000  1.0
  C  C74  1  0.40264000  0.17684000  0.49170000  1.0
  C  C75  1  0.59737000  0.82316000  0.50830000  1.0
  C  C76  1  0.26960000  0.13075000  0.55048000  1.0
  C  C77  1  0.73040000  0.86924000  0.44952000  1.0
  C  C78  1  0.13205000  0.06593000  0.52664000  1.0
  C  C79  1  0.86795000  0.93407000  0.47336000  1.0
  C  C80  1  0.76772000  0.20713000  0.92229000  1.0
  C  C81  1  0.23227000  0.79287000  0.07771000  1.0
  C  C82  1  0.88443000  0.10560000  0.96265000  1.0
  C  C83  1  0.11557000  0.89440000  0.03735000  1.0
  C  C84  1  0.88323000  0.96338000  0.94840000  1.0
  C  C85  1  0.11676000  0.03662000  0.05160000  1.0
  C  C86  1  0.76413000  0.93208000  0.89568000  1.0
  C  C87  1  0.23586000  0.06792000  0.10432000  1.0
  C  C88  1  0.65359000  0.03340000  0.85898000  1.0
  C  C89  1  0.34641000  0.96661000  0.14102000  1.0
  C  C90  1  0.65586000  0.17259000  0.87204000  1.0
  C  C91  1  0.34414000  0.82742000  0.12796000  1.0
  C  C92  1  0.99945000  0.86028000  0.98552000  1.0
  C  C93  1  0.00055000  0.13972000  0.01448000  1.0
  C  C94  1  0.00133000  0.71297000  0.96841000  1.0
  C  C95  1  0.99867000  0.28703000  0.03159000  1.0
  C  C96  1  0.85137000  0.61531000  0.10756000  1.0
  C  C97  1  0.14863000  0.38469000  0.89244000  1.0
  C  C98  1  0.62545000  0.54221000  0.06706000  1.0
  C  C99  1  0.37454000  0.45779000  0.93294000  1.0
  C  C100  1  0.71837000  0.60273000  0.99754000  1.0
  C  C101  1  0.28163000  0.39727000  0.00245000  1.0
  N  N102  1  0.40433000  0.50841000  0.32913000  1.0
  N  N103  1  0.59567000  0.49159000  0.67087000  1.0
  N  N104  1  0.75265000  0.24411000  0.24115000  1.0
  N  N105  1  0.24735000  0.75589000  0.75885000  1.0
  N  N106  1  0.90118000  0.04742000  0.27982000  1.0
  N  N107  1  0.09882000  0.95258000  0.72019000  1.0
  N  N108  1  0.70907000  0.55056000  0.13550000  1.0
  N  N109  1  0.29093000  0.44944000  0.86450000  1.0
  N  N110  1  0.86112000  0.64737000  0.02414000  1.0
  N  N111  1  0.13888000  0.35262000  0.97586000  1.0
  O  O112  1  0.86112000  0.68251000  0.28062000  1.0
  O  O113  1  0.13890000  0.31749000  0.71938000  1.0
  O  O114  1  0.80862000  0.47081000  0.33323000  1.0
  O  O115  1  0.19137000  0.52919000  0.66678000  1.0
  O  O116  1  0.11632000  0.41993000  0.19735000  1.0
  O  O117  1  0.88368000  0.58006000  0.80265000  1.0
  O  O118  1  0.41783000  0.37807000  0.19072000  1.0
  O  O119  1  0.58217000  0.62193000  0.80928000  1.0
