# generated using pymatgen
data_CuH5C5N3O5
_symmetry_space_group_name_H-M   'P 1'
_cell_length_a   6.70884000
_cell_length_b   7.79178000
_cell_length_c   14.93140000
_cell_angle_alpha   89.99990000
_cell_angle_beta   90.00000000
_cell_angle_gamma   89.99990000
_symmetry_Int_Tables_number   1
_chemical_formula_structural   CuH5C5N3O5
_chemical_formula_sum   'Cu4 H20 C20 N12 O20'
_cell_volume   780.52109698
_cell_formula_units_Z   4
loop_
 _symmetry_equiv_pos_site_id
 _symmetry_equiv_pos_as_xyz
  1  'x, y, z'
loop_
 _atom_site_type_symbol
 _atom_site_label
 _atom_site_symmetry_multiplicity
 _atom_site_fract_x
 _atom_site_fract_y
 _atom_site_fract_z
 _atom_site_occupancy
  Cu  Cu0  1  0.75000000  0.61610000  0.32007000  1.0
  Cu  Cu1  1  0.25000000  0.88390000  0.82007000  1.0
  Cu  Cu2  1  0.25000000  0.38390000  0.67993000  1.0
  Cu  Cu3  1  0.75000000  0.11610000  0.17993000  1.0
  H  H4  1  0.75000000  0.65626000  0.10705000  1.0
  H  H5  1  0.25000000  0.84374000  0.60706000  1.0
  H  H6  1  0.25000000  0.34373000  0.89294000  1.0
  H  H7  1  0.75000000  0.15626000  0.39294000  1.0
  H  H8  1  0.06379000  0.54639000  0.17854000  1.0
  H  H9  1  0.93621000  0.95361000  0.67854000  1.0
  H  H10  1  0.56379000  0.45362000  0.82147000  1.0
  H  H11  1  0.43621000  0.04639000  0.32146000  1.0
  H  H12  1  0.93621000  0.45362000  0.82147000  1.0
  H  H13  1  0.06379000  0.04639000  0.32146000  1.0
  H  H14  1  0.43621000  0.54639000  0.17854000  1.0
  H  H15  1  0.56379000  0.95361000  0.67854000  1.0
  H  H16  1  0.06179000  0.64905000  0.45336000  1.0
  H  H17  1  0.93821000  0.85095000  0.95336000  1.0
  H  H18  1  0.56179000  0.35095000  0.54664000  1.0
  H  H19  1  0.43821000  0.14905000  0.04663000  1.0
  H  H20  1  0.93821000  0.35095000  0.54664000  1.0
  H  H21  1  0.06179000  0.14905000  0.04663000  1.0
  H  H22  1  0.43821000  0.64905000  0.45336000  1.0
  H  H23  1  0.56179000  0.85095000  0.95336000  1.0
  C  C24  1  0.75000000  0.78323000  0.14027000  1.0
  C  C25  1  0.25000000  0.71676000  0.64027000  1.0
  C  C26  1  0.24999000  0.21676000  0.85973000  1.0
  C  C27  1  0.75000000  0.28323000  0.35973000  1.0
  C  C28  1  0.14653000  0.57160000  0.23988000  1.0
  C  C29  1  0.85347000  0.92840000  0.73988000  1.0
  C  C30  1  0.64653000  0.42841000  0.76013000  1.0
  C  C31  1  0.35347000  0.07160000  0.26012000  1.0
  C  C32  1  0.85347000  0.42841000  0.76012000  1.0
  C  C33  1  0.14653000  0.07160000  0.26012000  1.0
  C  C34  1  0.35347000  0.57160000  0.23988000  1.0
  C  C35  1  0.64653000  0.92840000  0.73988000  1.0
  C  C36  1  0.14619000  0.62847000  0.39211000  1.0
  C  C37  1  0.85381000  0.87153000  0.89211000  1.0
  C  C38  1  0.64619000  0.37153000  0.60790000  1.0
  C  C39  1  0.35381000  0.12847000  0.10789000  1.0
  C  C40  1  0.85381000  0.37153000  0.60790000  1.0
  C  C41  1  0.14619000  0.12847000  0.10789000  1.0
  C  C42  1  0.35381000  0.62847000  0.39211000  1.0
  C  C43  1  0.64619000  0.87153000  0.89211000  1.0
  N  N44  1  0.04512000  0.60260000  0.31598000  1.0
  N  N45  1  0.95488000  0.89739000  0.81598000  1.0
  N  N46  1  0.54511000  0.39740000  0.68403000  1.0
  N  N47  1  0.45489000  0.10261000  0.18402000  1.0
  N  N48  1  0.95489000  0.39740000  0.68403000  1.0
  N  N49  1  0.04512000  0.10261000  0.18402000  1.0
  N  N50  1  0.45488000  0.60260000  0.31598000  1.0
  N  N51  1  0.54511000  0.89740000  0.81598000  1.0
  N  N52  1  0.75000000  0.87365000  0.49541000  1.0
  N  N53  1  0.25000000  0.62635000  0.99541000  1.0
  N  N54  1  0.25000000  0.12635000  0.50459000  1.0
  N  N55  1  0.75000000  0.37365000  0.00459000  1.0
  O  O56  1  0.75000000  0.79566000  0.22548000  1.0
  O  O57  1  0.25000000  0.70434000  0.72548000  1.0
  O  O58  1  0.25000000  0.20433000  0.77452000  1.0
  O  O59  1  0.75000000  0.29566000  0.27452000  1.0
  O  O60  1  0.75000000  0.91645000  0.09137000  1.0
  O  O61  1  0.25000000  0.58355000  0.59137000  1.0
  O  O62  1  0.25000000  0.08354000  0.90863000  1.0
  O  O63  1  0.75000000  0.41645000  0.40863000  1.0
  O  O64  1  0.75000000  0.86703000  0.40916000  1.0
  O  O65  1  0.25000000  0.63297000  0.90916000  1.0
  O  O66  1  0.25000000  0.13297000  0.59084000  1.0
  O  O67  1  0.75000000  0.36703000  0.09084000  1.0
  O  O68  1  0.75000000  0.73640000  0.54027000  1.0
  O  O69  1  0.25000000  0.76360000  0.04027000  1.0
  O  O70  1  0.25000000  0.26360000  0.45973000  1.0
  O  O71  1  0.75000000  0.23640000  0.95973000  1.0
  O  O72  1  0.75000000  0.01834000  0.53316000  1.0
  O  O73  1  0.25000000  0.48165000  0.03316000  1.0
  O  O74  1  0.25000000  0.98166000  0.46684000  1.0
  O  O75  1  0.75000000  0.51835000  0.96684000  1.0
