# generated using pymatgen
data_AlH2C8S2ClO5
_symmetry_space_group_name_H-M   'P 1'
_cell_length_a   6.68160000
_cell_length_b   15.81460000
_cell_length_c   18.88140000
_cell_angle_alpha   89.97110000
_cell_angle_beta   89.47170000
_cell_angle_gamma   89.97090000
_symmetry_Int_Tables_number   1
_chemical_formula_structural   AlH2C8S2ClO5
_chemical_formula_sum   'Al4 H8 C32 S8 Cl4 O20'
_cell_volume   1995.05239151
_cell_formula_units_Z   4
loop_
 _symmetry_equiv_pos_site_id
 _symmetry_equiv_pos_as_xyz
  1  'x, y, z'
loop_
 _atom_site_type_symbol
 _atom_site_label
 _atom_site_symmetry_multiplicity
 _atom_site_fract_x
 _atom_site_fract_y
 _atom_site_fract_z
 _atom_site_occupancy
  Al  Al0  1  0.00923000  0.99820000  0.50014000  1.0
  Al  Al1  1  0.50987000  0.00135000  0.50234000  1.0
  Al  Al2  1  0.99243000  0.50209000  0.00129000  1.0
  Al  Al3  1  0.49283000  0.49847000  0.00246000  1.0
  H  H4  1  0.76568000  0.10529000  0.47372000  1.0
  H  H5  1  0.26899000  0.89524000  0.47193000  1.0
  H  H6  1  0.74820000  0.39678000  0.97155000  1.0
  H  H7  1  0.25030000  0.60445000  0.97248000  1.0
  H  H8  1  0.54517000  0.28532000  0.84866000  1.0
  H  H9  1  0.03041000  0.71267000  0.14692000  1.0
  H  H10  1  0.45414000  0.71953000  0.85238000  1.0
  H  H11  1  0.52996000  0.28924000  0.14787000  1.0
  C  C12  1  0.26615000  0.10376000  0.40711000  1.0
  C  C13  1  0.24585000  0.09707000  0.59799000  1.0
  C  C14  1  0.75085000  0.89947000  0.59564000  1.0
  C  C15  1  0.76514000  0.89840000  0.40540000  1.0
  C  C16  1  0.23130000  0.40249000  0.09836000  1.0
  C  C17  1  0.25089000  0.39882000  0.90519000  1.0
  C  C18  1  0.74846000  0.60184000  0.90533000  1.0
  C  C19  1  0.73232000  0.59819000  0.09800000  1.0
  C  C20  1  0.09368000  0.21183000  0.67915000  1.0
  C  C21  1  0.40061000  0.28754000  0.82269000  1.0
  C  C22  1  0.24388000  0.15614000  0.65833000  1.0
  C  C23  1  0.24735000  0.34038000  0.84464000  1.0
  C  C24  1  0.34208000  0.23872000  0.76375000  1.0
  C  C25  1  0.14775000  0.25791000  0.74033000  1.0
  C  C26  1  0.60293000  0.78248000  0.32823000  1.0
  C  C27  1  0.89083000  0.70966000  0.17696000  1.0
  C  C28  1  0.75482000  0.83862000  0.34607000  1.0
  C  C29  1  0.73622000  0.65595000  0.15891000  1.0
  C  C30  1  0.84035000  0.75705000  0.23794000  1.0
  C  C31  1  0.65015000  0.73669000  0.26592000  1.0
  C  C32  1  0.90064000  0.78244000  0.67516000  1.0
  C  C33  1  0.59595000  0.71425000  0.82398000  1.0
  C  C34  1  0.75388000  0.84011000  0.65543000  1.0
  C  C35  1  0.74614000  0.65931000  0.84417000  1.0
  C  C36  1  0.65393000  0.76068000  0.76318000  1.0
  C  C37  1  0.84513000  0.73807000  0.73736000  1.0
  C  C38  1  0.10438000  0.21942000  0.32960000  1.0
  C  C39  1  0.39039000  0.29195000  0.17790000  1.0
  C  C40  1  0.25705000  0.16369000  0.34772000  1.0
  C  C41  1  0.23462000  0.34500000  0.15953000  1.0
  C  C42  1  0.34119000  0.24485000  0.23915000  1.0
  C  C43  1  0.15067000  0.26486000  0.26703000  1.0
  S  S44  1  0.45342000  0.16244000  0.71169000  1.0
  S  S45  1  0.03281000  0.33254000  0.79313000  1.0
  S  S46  1  0.95695000  0.83356000  0.28749000  1.0
  S  S47  1  0.53002000  0.66155000  0.21596000  1.0
  S  S48  1  0.54650000  0.83806000  0.71180000  1.0
  S  S49  1  0.95707000  0.66246000  0.78914000  1.0
  S  S50  1  0.45917000  0.16906000  0.28920000  1.0
  S  S51  1  0.02876000  0.33917000  0.21661000  1.0
  Cl  Cl52  1  0.87771000  0.22974000  0.63399000  1.0
  Cl  Cl53  1  0.38777000  0.76390000  0.37553000  1.0
  Cl  Cl54  1  0.11820000  0.76204000  0.63038000  1.0
  Cl  Cl55  1  0.88932000  0.23799000  0.37693000  1.0
  O  O56  1  0.10107000  0.08677000  0.43810000  1.0
  O  O57  1  0.41546000  0.08365000  0.56841000  1.0
  O  O58  1  0.58268000  0.93427000  0.58274000  1.0
  O  O59  1  0.93736000  0.92983000  0.41845000  1.0
  O  O60  1  0.91361000  0.91156000  0.56163000  1.0
  O  O61  1  0.60249000  0.91373000  0.43867000  1.0
  O  O62  1  0.43835000  0.07380000  0.42238000  1.0
  O  O63  1  0.07966000  0.06466000  0.58069000  1.0
  O  O64  1  0.76049000  0.05202000  0.49920000  1.0
  O  O65  1  0.26140000  0.94786000  0.49830000  1.0
  O  O66  1  0.06374000  0.43568000  0.08219000  1.0
  O  O67  1  0.42241000  0.42570000  0.92405000  1.0
  O  O68  1  0.58290000  0.58741000  0.93746000  1.0
  O  O69  1  0.89613000  0.58775000  0.06403000  1.0
  O  O70  1  0.91964000  0.57140000  0.92128000  1.0
  O  O71  1  0.56478000  0.56395000  0.08351000  1.0
  O  O72  1  0.39697000  0.41364000  0.06584000  1.0
  O  O73  1  0.08218000  0.41701000  0.93388000  1.0
  O  O74  1  0.74453000  0.44800000  0.99975000  1.0
  O  O75  1  0.24427000  0.55246000  0.99964000  1.0
