# generated using pymatgen
data_Zn2H37C56N7O18
_symmetry_space_group_name_H-M   'P 1'
_cell_length_a   9.89820000
_cell_length_b   10.96220000
_cell_length_c   23.55730000
_cell_angle_alpha   86.63980000
_cell_angle_beta   89.89280000
_cell_angle_gamma   86.83410000
_symmetry_Int_Tables_number   1
_chemical_formula_structural   Zn2H37C56N7O18
_chemical_formula_sum   'Zn2 H37 C56 N7 O18'
_cell_volume   2547.81822556
_cell_formula_units_Z   1
loop_
 _symmetry_equiv_pos_site_id
 _symmetry_equiv_pos_as_xyz
  1  'x, y, z'
loop_
 _atom_site_type_symbol
 _atom_site_label
 _atom_site_symmetry_multiplicity
 _atom_site_fract_x
 _atom_site_fract_y
 _atom_site_fract_z
 _atom_site_occupancy
  Zn  Zn0  1  0.64719000  0.49018000  0.49913000  1.0
  Zn  Zn1  1  0.35061000  0.50335000  0.49979000  1.0
  H  H2  1  0.25939000  0.34436000  0.05893000  1.0
  H  H3  1  0.24178000  0.35476000  0.95133000  1.0
  H  H4  1  0.29960000  0.60920000  0.32691000  1.0
  H  H5  1  0.70157000  0.44555000  0.31345000  1.0
  H  H6  1  0.68425000  0.47229000  0.20696000  1.0
  H  H7  1  0.40329000  0.74125000  0.76012000  1.0
  H  H8  1  0.42461000  0.70056000  0.65721000  1.0
  H  H9  1  0.54355000  0.36876000  0.80351000  1.0
  H  H10  1  0.32442000  0.91119000  0.45071000  1.0
  H  H11  1  0.65420000  0.73836000  0.58675000  1.0
  H  H12  1  0.83712000  0.81955000  0.64081000  1.0
  H  H13  1  0.73540000  0.18266000  0.56881000  1.0
  H  H14  1  0.24039000  0.65249000  0.41797000  1.0
  H  H15  1  0.10868000  0.79821000  0.35278000  1.0
  H  H16  1  0.85673000  0.81502000  0.35783000  1.0
  H  H17  1  0.73614000  0.68086000  0.42769000  1.0
  H  H18  1  0.87102000  0.38217000  0.56516000  1.0
  H  H19  1  0.38762000  0.20520000  0.72003000  1.0
  H  H20  1  0.39878000  0.25495000  0.64699000  1.0
  H  H21  1  0.49317000  0.12100000  0.67301000  1.0
  H  H22  1  0.64323000  0.29609000  0.66002000  1.0
  H  H23  1  0.63595000  0.24334000  0.73221000  1.0
  H  H24  1  0.85534000  0.23011000  0.65936000  1.0
  H  H25  1  0.84155000  0.11152000  0.71317000  1.0
  H  H26  1  0.00202000  0.16917000  0.69636000  1.0
  H  H27  1  0.98516000  0.96850000  0.65407000  1.0
  H  H28  1  0.99490000  0.08501000  0.60002000  1.0
  H  H29  1  0.17740000  0.50325000  0.63866000  1.0
  H  H30  1  0.01862000  0.43668000  0.65176000  1.0
  H  H31  1  0.17187000  0.35675000  0.67444000  1.0
  H  H32  1  0.08944000  0.26910000  0.58607000  1.0
  H  H33  1  0.24487000  0.33712000  0.57257000  1.0
  H  H34  1  0.27316000  0.83680000  0.26406000  1.0
  H  H35  1  0.35467000  0.84464000  0.19714000  1.0
  H  H36  1  0.17484000  0.86429000  0.20095000  1.0
  H  H37  1  0.23909000  0.65354000  0.17124000  1.0
  H  H38  1  0.16221000  0.64538000  0.23861000  1.0
  C  C39  1  0.47247000  0.73341000  0.50466000  1.0
  C  C40  1  0.50697000  0.50771000  0.38960000  1.0
  C  C41  1  0.52716000  0.25925000  0.50434000  1.0
  C  C42  1  0.50856000  0.49692000  0.61019000  1.0
  C  C43  1  0.36842000  0.49985000  0.87784000  1.0
  C  C44  1  0.53844000  0.66096000  0.87103000  1.0
  C  C45  1  0.52963000  0.66904000  0.93387000  1.0
  C  C46  1  0.45580000  0.58369000  0.96708000  1.0
  C  C47  1  0.37552000  0.50036000  0.94058000  1.0
  C  C48  1  0.60180000  0.75303000  0.96164000  1.0
  C  C49  1  0.60909000  0.74935000  0.02151000  1.0
  C  C50  1  0.53868000  0.66577000  0.05497000  1.0
  C  C51  1  0.46087000  0.58160000  0.02757000  1.0
  C  C52  1  0.38965000  0.49286000  0.05976000  1.0
  C  C53  1  0.31199000  0.41189000  0.03272000  1.0
  C  C54  1  0.30329000  0.41685000  0.97321000  1.0
  C  C55  1  0.53987000  0.66634000  0.11825000  1.0
  C  C56  1  0.39988000  0.48273000  0.12259000  1.0
  C  C57  1  0.37520000  0.60384000  0.24133000  1.0
  C  C58  1  0.38492000  0.58213000  0.30027000  1.0
  C  C59  1  0.50088000  0.52594000  0.32621000  1.0
  C  C60  1  0.61124000  0.48870000  0.29286000  1.0
  C  C61  1  0.60181000  0.50450000  0.23399000  1.0
  C  C62  1  0.48514000  0.56134000  0.20902000  1.0
  C  C63  1  0.43898000  0.65150000  0.74698000  1.0
  C  C64  1  0.45209000  0.62851000  0.68970000  1.0
  C  C65  1  0.49981000  0.51340000  0.67296000  1.0
  C  C66  1  0.53371000  0.41753000  0.71367000  1.0
  C  C67  1  0.51940000  0.44172000  0.77103000  1.0
  C  C68  1  0.47288000  0.55682000  0.78728000  1.0
  C  C69  1  0.67096000  0.83567000  0.58257000  1.0
  C  C70  1  0.77413000  0.88141000  0.61256000  1.0
  C  C71  1  0.80269000  0.00682000  0.60675000  1.0
  C  C72  1  0.71698000  0.08563000  0.57359000  1.0
  C  C73  1  0.60863000  0.04259000  0.54196000  1.0
  C  C74  1  0.58860000  0.91311000  0.54480000  1.0
  C  C75  1  0.48620000  0.86744000  0.51038000  1.0
  C  C76  1  0.40285000  0.94623000  0.47663000  1.0
  C  C77  1  0.42378000  0.07170000  0.47419000  1.0
  C  C78  1  0.52204000  0.12235000  0.50584000  1.0
  C  C79  1  0.13079000  0.65901000  0.42003000  1.0
  C  C80  1  0.05627000  0.73983000  0.38371000  1.0
  C  C81  1  0.91350000  0.74917000  0.38633000  1.0
  C  C82  1  0.84578000  0.67520000  0.42474000  1.0
  C  C83  1  0.91974000  0.59037000  0.46189000  1.0
  C  C84  1  0.06483000  0.58321000  0.46070000  1.0
  C  C85  1  0.06985000  0.43645000  0.53679000  1.0
  C  C86  1  0.92609000  0.44104000  0.53536000  1.0
  C  C87  1  0.57651000  0.29022000  0.69722000  1.0
  C  C88  1  0.45674000  0.21344000  0.68359000  1.0
  C  C89  1  0.92880000  0.04910000  0.63412000  1.0
  C  C90  1  0.90545000  0.14540000  0.67814000  1.0
  C  C91  1  0.13852000  0.35700000  0.58318000  1.0
  C  C92  1  0.12515000  0.41749000  0.64043000  1.0
  C  C93  1  0.25306000  0.67467000  0.21580000  1.0
  C  C94  1  0.26432000  0.81328000  0.21953000  1.0
  N  N95  1  0.45863000  0.57479000  0.84726000  1.0
  N  N96  1  0.47685000  0.57016000  0.14754000  1.0
  N  N97  1  0.13737000  0.50495000  0.49900000  1.0
  N  N98  1  0.85362000  0.51408000  0.49934000  1.0
  N  N99  1  0.67318000  0.85117000  0.92953000  1.0
  N  N100  1  0.34022000  0.14790000  0.43241000  1.0
  N  N101  1  0.69801000  0.83643000  0.04729000  1.0
  O  O102  1  0.58330000  0.66899000  0.50188000  1.0
  O  O103  1  0.35468000  0.69510000  0.50075000  1.0
  O  O104  1  0.62322000  0.49363000  0.41253000  1.0
  O  O105  1  0.39410000  0.51035000  0.41592000  1.0
  O  O106  1  0.64209000  0.30472000  0.49997000  1.0
  O  O107  1  0.41318000  0.31750000  0.50880000  1.0
  O  O108  1  0.62409000  0.47435000  0.58819000  1.0
  O  O109  1  0.39605000  0.51154000  0.58406000  1.0
  O  O110  1  0.29220000  0.43583000  0.85330000  1.0
  O  O111  1  0.61489000  0.72277000  0.84182000  1.0
  O  O112  1  0.59190000  0.74656000  0.14353000  1.0
  O  O113  1  0.34482000  0.40395000  0.15196000  1.0
  O  O114  1  0.60133000  0.93875000  0.90989000  1.0
  O  O115  1  0.79773000  0.83878000  0.92851000  1.0
  O  O116  1  0.39928000  0.21675000  0.39840000  1.0
  O  O117  1  0.21683000  0.13299000  0.43281000  1.0
  O  O118  1  0.80980000  0.79424000  0.06375000  1.0
  O  O119  1  0.65387000  0.94396000  0.04661000  1.0
