# generated using pymatgen
data_SmH6(C2N3)3
_symmetry_space_group_name_H-M   'P 1'
_cell_length_a   9.41189000
_cell_length_b   9.41189000
_cell_length_c   12.82990000
_cell_angle_alpha   92.18760000
_cell_angle_beta   92.18730000
_cell_angle_gamma   119.75100000
_symmetry_Int_Tables_number   1
_chemical_formula_structural   SmH6(C2N3)3
_chemical_formula_sum   'Sm4 H24 C24 N36'
_cell_volume   983.85752976
_cell_formula_units_Z   4
loop_
 _symmetry_equiv_pos_site_id
 _symmetry_equiv_pos_as_xyz
  1  'x, y, z'
loop_
 _atom_site_type_symbol
 _atom_site_label
 _atom_site_symmetry_multiplicity
 _atom_site_fract_x
 _atom_site_fract_y
 _atom_site_fract_z
 _atom_site_occupancy
  Sm  Sm0  1  0.74288000  0.47747000  0.57226000  1.0
  Sm  Sm1  1  0.52253000  0.25712000  0.92774000  1.0
  Sm  Sm2  1  0.25712000  0.52253000  0.42774000  1.0
  Sm  Sm3  1  0.47747000  0.74288000  0.07226000  1.0
  H  H4  1  0.00399000  0.03545000  0.60020000  1.0
  H  H5  1  0.96456000  0.99602000  0.89979000  1.0
  H  H6  1  0.99601000  0.96455000  0.39979000  1.0
  H  H7  1  0.03545000  0.00399000  0.10020000  1.0
  H  H8  1  0.75664000  0.09581000  0.66451000  1.0
  H  H9  1  0.90420000  0.24337000  0.83549000  1.0
  H  H10  1  0.24336000  0.90419000  0.33549000  1.0
  H  H11  1  0.09581000  0.75664000  0.16451000  1.0
  H  H12  1  0.29368000  0.22839000  0.22996000  1.0
  H  H13  1  0.77161000  0.70631000  0.27004000  1.0
  H  H14  1  0.70631000  0.77161000  0.77004000  1.0
  H  H15  1  0.22840000  0.29368000  0.72997000  1.0
  H  H16  1  0.52955000  0.13454000  0.26666000  1.0
  H  H17  1  0.86547000  0.47043000  0.23334000  1.0
  H  H18  1  0.47043000  0.86547000  0.73334000  1.0
  H  H19  1  0.13455000  0.52955000  0.76666000  1.0
  H  H20  1  0.93676000  0.63428000  0.99522000  1.0
  H  H21  1  0.36571000  0.06324000  0.50478000  1.0
  H  H22  1  0.06324000  0.36572000  0.00478000  1.0
  H  H23  1  0.63428000  0.93676000  0.49522000  1.0
  H  H24  1  0.12303000  0.83670000  0.84205000  1.0
  H  H25  1  0.16329000  0.87698000  0.65795000  1.0
  H  H26  1  0.87697000  0.16329000  0.15795000  1.0
  H  H27  1  0.83671000  0.12303000  0.34205000  1.0
  C  C28  1  0.98347000  0.13706000  0.58669000  1.0
  C  C29  1  0.86294000  0.01653000  0.91330000  1.0
  C  C30  1  0.01652000  0.86293000  0.41331000  1.0
  C  C31  1  0.13706000  0.98347000  0.08669000  1.0
  C  C32  1  0.86059000  0.16707000  0.61881000  1.0
  C  C33  1  0.83294000  0.13942000  0.88118000  1.0
  C  C34  1  0.13942000  0.83294000  0.38118000  1.0
  C  C35  1  0.16707000  0.86059000  0.11881000  1.0
  C  C36  1  0.38748000  0.26567000  0.29301000  1.0
  C  C37  1  0.73434000  0.61250000  0.20699000  1.0
  C  C38  1  0.61250000  0.73434000  0.70699000  1.0
  C  C39  1  0.26567000  0.38748000  0.79301000  1.0
  C  C40  1  0.50472000  0.21879000  0.31153000  1.0
  C  C41  1  0.78121000  0.49528000  0.18846000  1.0
  C  C42  1  0.49527000  0.78121000  0.68846000  1.0
  C  C43  1  0.21879000  0.50472000  0.81153000  1.0
  C  C44  1  0.91669000  0.61972000  0.91098000  1.0
  C  C45  1  0.38027000  0.08332000  0.58902000  1.0
  C  C46  1  0.08331000  0.38028000  0.08902000  1.0
  C  C47  1  0.61972000  0.91669000  0.41098000  1.0
  C  C48  1  0.00863000  0.72077000  0.83458000  1.0
  C  C49  1  0.27922000  0.99137000  0.66542000  1.0
  C  C50  1  0.99137000  0.27923000  0.16542000  1.0
  C  C51  1  0.72077000  0.00863000  0.33458000  1.0
  N  N52  1  0.88818000  0.31046000  0.58090000  1.0
  N  N53  1  0.68954000  0.11183000  0.91910000  1.0
  N  N54  1  0.11182000  0.68954000  0.41911000  1.0
  N  N55  1  0.31046000  0.88818000  0.08090000  1.0
  N  N56  1  0.02298000  0.36535000  0.52795000  1.0
  N  N57  1  0.63466000  0.97702000  0.97205000  1.0
  N  N58  1  0.97702000  0.63466000  0.47205000  1.0
  N  N59  1  0.36535000  0.02298000  0.02795000  1.0
  N  N60  1  0.08309000  0.26338000  0.52993000  1.0
  N  N61  1  0.73662000  0.91691000  0.97007000  1.0
  N  N62  1  0.91691000  0.73662000  0.47007000  1.0
  N  N63  1  0.26338000  0.08309000  0.02993000  1.0
  N  N64  1  0.59522000  0.30429000  0.39990000  1.0
  N  N65  1  0.69572000  0.40477000  0.10011000  1.0
  N  N66  1  0.40477000  0.69572000  0.60011000  1.0
  N  N67  1  0.30429000  0.59522000  0.89990000  1.0
  N  N68  1  0.53499000  0.39840000  0.43339000  1.0
  N  N69  1  0.60161000  0.46500000  0.06661000  1.0
  N  N70  1  0.46500000  0.60161000  0.56661000  1.0
  N  N71  1  0.39840000  0.53499000  0.93339000  1.0
  N  N72  1  0.40889000  0.37747000  0.37073000  1.0
  N  N73  1  0.62254000  0.59110000  0.12927000  1.0
  N  N74  1  0.59110000  0.62254000  0.62927000  1.0
  N  N75  1  0.37747000  0.40889000  0.87073000  1.0
  N  N76  1  0.93057000  0.64585000  0.74065000  1.0
  N  N77  1  0.35415000  0.06943000  0.75935000  1.0
  N  N78  1  0.06943000  0.35415000  0.25935000  1.0
  N  N79  1  0.64585000  0.93057000  0.24065000  1.0
  N  N80  1  0.79722000  0.50540000  0.75977000  1.0
  N  N81  1  0.49460000  0.20278000  0.74023000  1.0
  N  N82  1  0.20278000  0.49460000  0.24023000  1.0
  N  N83  1  0.50540000  0.79722000  0.25977000  1.0
  N  N84  1  0.78508000  0.48646000  0.86227000  1.0
  N  N85  1  0.51354000  0.21492000  0.63773000  1.0
  N  N86  1  0.21492000  0.51354000  0.13773000  1.0
  N  N87  1  0.48646000  0.78508000  0.36226000  1.0
