# generated using pymatgen
data_NaH27C20N6O11
_symmetry_space_group_name_H-M   'P 1'
_cell_length_a   8.36760000
_cell_length_b   11.35930000
_cell_length_c   12.79480000
_cell_angle_alpha   87.31730000
_cell_angle_beta   88.35540000
_cell_angle_gamma   79.45270000
_symmetry_Int_Tables_number   1
_chemical_formula_structural   NaH27C20N6O11
_chemical_formula_sum   'Na2 H54 C40 N12 O22'
_cell_volume   1194.03758201
_cell_formula_units_Z   2
loop_
 _symmetry_equiv_pos_site_id
 _symmetry_equiv_pos_as_xyz
  1  'x, y, z'
loop_
 _atom_site_type_symbol
 _atom_site_label
 _atom_site_symmetry_multiplicity
 _atom_site_fract_x
 _atom_site_fract_y
 _atom_site_fract_z
 _atom_site_occupancy
  Na  Na0  1  0.21021000  0.80333000  0.74785000  1.0
  Na  Na1  1  0.78979000  0.19667000  0.25215000  1.0
  H  H2  1  0.91153000  0.94142000  0.82445000  1.0
  H  H3  1  0.08847000  0.05858000  0.17555000  1.0
  H  H4  1  0.11262000  0.64044000  0.89166000  1.0
  H  H5  1  0.88738000  0.35956000  0.10834000  1.0
  H  H6  1  0.48462000  0.13475000  0.34258000  1.0
  H  H7  1  0.51538000  0.86525000  0.65743000  1.0
  H  H8  1  0.21624000  0.80520000  0.47018000  1.0
  H  H9  1  0.78376000  0.19480000  0.52982000  1.0
  H  H10  1  0.06241000  0.88624000  0.38675000  1.0
  H  H11  1  0.93758000  0.11377000  0.61325000  1.0
  H  H12  1  0.25764000  0.82910000  0.33291000  1.0
  H  H13  1  0.74236000  0.17090000  0.66709000  1.0
  H  H14  1  0.41234000  0.19589000  0.66632000  1.0
  H  H15  1  0.58765000  0.80411000  0.33368000  1.0
  H  H16  1  0.20242000  0.19244000  0.68481000  1.0
  H  H17  1  0.79758000  0.80756000  0.31519000  1.0
  H  H18  1  0.34941000  0.05858000  0.70841000  1.0
  H  H19  1  0.65059000  0.94142000  0.29159000  1.0
  H  H20  1  0.54490000  0.53738000  0.25008000  1.0
  H  H21  1  0.45510000  0.46262000  0.74992000  1.0
  H  H22  1  0.36906000  0.65354000  0.24696000  1.0
  H  H23  1  0.63094000  0.34646000  0.75304000  1.0
  H  H24  1  0.46434000  0.60307000  0.36871000  1.0
  H  H25  1  0.53565000  0.39693000  0.63129000  1.0
  H  H26  1  0.86126000  0.41132000  0.42888000  1.0
  H  H27  1  0.13874000  0.58868000  0.57112000  1.0
  H  H28  1  0.88099000  0.56480000  0.40138000  1.0
  H  H29  1  0.11901000  0.43520000  0.59862000  1.0
  H  H30  1  0.82204000  0.47725000  0.30114000  1.0
  H  H31  1  0.17796000  0.52275000  0.69886000  1.0
  H  H32  1  0.63434000  0.11312000  0.89798000  1.0
  H  H33  1  0.36566000  0.88688000  0.10202000  1.0
  H  H34  1  0.73836000  0.15251000  0.00953000  1.0
  H  H35  1  0.26164000  0.84749000  0.99047000  1.0
  H  H36  1  0.65977000  0.01712000  0.01340000  1.0
  H  H37  1  0.34023000  0.98288000  0.98660000  1.0
  H  H38  1  0.13709000  0.32064000  0.84427000  1.0
  H  H39  1  0.86291000  0.67936000  0.15573000  1.0
  H  H40  1  0.98742000  0.29754000  0.94224000  1.0
  H  H41  1  0.01258000  0.70246000  0.05776000  1.0
  H  H42  1  0.05767000  0.43651000  0.93164000  1.0
  H  H43  1  0.94233000  0.56349000  0.06836000  1.0
  H  H44  1  0.00414000  0.08370000  0.94564000  1.0
  H  H45  1  0.99586000  0.91630000  0.05436000  1.0
  H  H46  1  0.97641000  0.12089000  0.80893000  1.0
  H  H47  1  0.02359000  0.87911000  0.19107000  1.0
  H  H48  1  0.17391000  0.05921000  0.85635000  1.0
  H  H49  1  0.82609000  0.94078000  0.14365000  1.0
  H  H50  1  0.29970000  0.57827000  0.03317000  1.0
  H  H51  1  0.70030000  0.42173000  0.96683000  1.0
  H  H52  1  0.45398000  0.59895000  0.93839000  1.0
  H  H53  1  0.54602000  0.40106000  0.06161000  1.0
  H  H54  1  0.33838000  0.48422000  0.92361000  1.0
  H  H55  1  0.66162000  0.51579000  0.07640000  1.0
  C  C56  1  0.35264000  0.16054000  0.36142000  1.0
  C  C57  1  0.64736000  0.83946000  0.63857000  1.0
  C  C58  1  0.29635000  0.27331000  0.28823000  1.0
  C  C59  1  0.70366000  0.72669000  0.71176000  1.0
  C  C60  1  0.32016000  0.25158000  0.17159000  1.0
  C  C61  1  0.67984000  0.74842000  0.82841000  1.0
  C  C62  1  0.28310000  0.05126000  0.33867000  1.0
  C  C63  1  0.71690000  0.94874000  0.66134000  1.0
  C  C64  1  0.33523000  0.19708000  0.47355000  1.0
  C  C65  1  0.66477000  0.80291000  0.52645000  1.0
  C  C66  1  0.26213000  0.00405000  0.52843000  1.0
  C  C67  1  0.73787000  0.99596000  0.47157000  1.0
  C  C68  1  0.40574000  0.36470000  0.30731000  1.0
  C  C69  1  0.59426000  0.63530000  0.69269000  1.0
  C  C70  1  0.11727000  0.31813000  0.31798000  1.0
  C  C71  1  0.88273000  0.68187000  0.68202000  1.0
  C  C72  1  0.16503000  0.52390000  0.32351000  1.0
  C  C73  1  0.83497000  0.47610000  0.67649000  1.0
  C  C74  1  0.46401000  0.17862000  0.13307000  1.0
  C  C75  1  0.53599000  0.82138000  0.86692000  1.0
  C  C76  1  0.20073000  0.30938000  0.10189000  1.0
  C  C77  1  0.79927000  0.69062000  0.89811000  1.0
  C  C78  1  0.37037000  0.22981000  0.95214000  1.0
  C  C79  1  0.62963000  0.77019000  0.04786000  1.0
  C  C80  1  0.19304000  0.86718000  0.40230000  1.0
  C  C81  1  0.80696000  0.13282000  0.59770000  1.0
  C  C82  1  0.31973000  0.14066000  0.65948000  1.0
  C  C83  1  0.68027000  0.85934000  0.34052000  1.0
  C  C84  1  0.43326000  0.57579000  0.29172000  1.0
  C  C85  1  0.56674000  0.42421000  0.70828000  1.0
  C  C86  1  0.89719000  0.47545000  0.37037000  1.0
  C  C87  1  0.10281000  0.52454000  0.62963000  1.0
  C  C88  1  0.63965000  0.11022000  0.98320000  1.0
  C  C89  1  0.36035000  0.88978000  0.01680000  1.0
  C  C90  1  0.09358000  0.33964000  0.92407000  1.0
  C  C91  1  0.90643000  0.66036000  0.07593000  1.0
  C  C92  1  0.04406000  0.05659000  0.86611000  1.0
  C  C93  1  0.95593000  0.94341000  0.13389000  1.0
  C  C94  1  0.33242000  0.57635000  0.94889000  1.0
  C  C95  1  0.66758000  0.42365000  0.05112000  1.0
  N  N96  1  0.25011000  0.97822000  0.42398000  1.0
  N  N97  1  0.74989000  0.02178000  0.57602000  1.0
  N  N98  1  0.31437000  0.10989000  0.54950000  1.0
  N  N99  1  0.68563000  0.89011000  0.45050000  1.0
  N  N100  1  0.33000000  0.48433000  0.30204000  1.0
  N  N101  1  0.66999000  0.51567000  0.69796000  1.0
  N  N102  1  0.06898000  0.43619000  0.34226000  1.0
  N  N103  1  0.93102000  0.56381000  0.65774000  1.0
  N  N104  1  0.48409000  0.17405000  0.02358000  1.0
  N  N105  1  0.51591000  0.82595000  0.97642000  1.0
  N  N106  1  0.22501000  0.28913000  0.99496000  1.0
  N  N107  1  0.77499000  0.71087000  0.00504000  1.0
  O  O108  1  0.26673000  0.01969000  0.24954000  1.0
  O  O109  1  0.73327000  0.98031000  0.75046000  1.0
  O  O110  1  0.34381000  0.29917000  0.49855000  1.0
  O  O111  1  0.65620000  0.70084000  0.50145000  1.0
  O  O112  1  0.22679000  0.93619000  0.59979000  1.0
  O  O113  1  0.77321000  0.06380000  0.40022000  1.0
  O  O114  1  0.55430000  0.33654000  0.31473000  1.0
  O  O115  1  0.44571000  0.66346000  0.68527000  1.0
  O  O116  1  0.02388000  0.24573000  0.33190000  1.0
  O  O117  1  0.97613000  0.75426000  0.66810000  1.0
  O  O118  1  0.10786000  0.63127000  0.32922000  1.0
  O  O119  1  0.89214000  0.36874000  0.67077000  1.0
  O  O120  1  0.57594000  0.11959000  0.18787000  1.0
  O  O121  1  0.42406000  0.88041000  0.81213000  1.0
  O  O122  1  0.07186000  0.37920000  0.13020000  1.0
  O  O123  1  0.92814000  0.62080000  0.86980000  1.0
  O  O124  1  0.39595000  0.22732000  0.85633000  1.0
  O  O125  1  0.60405000  0.77268000  0.14366000  1.0
  O  O126  1  0.02259000  0.93658000  0.84951000  1.0
  O  O127  1  0.97741000  0.06342000  0.15049000  1.0
  O  O128  1  0.22341000  0.66154000  0.88854000  1.0
  O  O129  1  0.77659000  0.33846000  0.11146000  1.0
