# generated using pymatgen
data_CuH9C12SN3Cl2
_symmetry_space_group_name_H-M   'P 1'
_cell_length_a   7.00317000
_cell_length_b   8.61216000
_cell_length_c   11.92758593
_cell_angle_alpha   104.85943037
_cell_angle_beta   99.34795830
_cell_angle_gamma   111.03100000
_symmetry_Int_Tables_number   1
_chemical_formula_structural   CuH9C12SN3Cl2
_chemical_formula_sum   'Cu2 H18 C24 S2 N6 Cl4'
_cell_volume   622.65511061
_cell_formula_units_Z   2
loop_
 _symmetry_equiv_pos_site_id
 _symmetry_equiv_pos_as_xyz
  1  'x, y, z'
loop_
 _atom_site_type_symbol
 _atom_site_label
 _atom_site_symmetry_multiplicity
 _atom_site_fract_x
 _atom_site_fract_y
 _atom_site_fract_z
 _atom_site_occupancy
  Cu  Cu0  1  0.47992000  0.00152000  0.83645000  1.0
  Cu  Cu1  1  0.14377000  0.16464000  0.16356000  1.0
  H  H2  1  0.48977000  0.07319000  0.59383000  1.0
  H  H3  1  0.39468000  0.47897000  0.40613000  1.0
  H  H4  1  0.62752000  0.34560000  0.53714000  1.0
  H  H5  1  0.59184000  0.80777000  0.46252000  1.0
  H  H6  1  0.78625000  0.64448000  0.70329000  1.0
  H  H7  1  0.58336000  0.94066000  0.29668000  1.0
  H  H8  1  0.78901000  0.65886000  0.91275000  1.0
  H  H9  1  0.37556000  0.74576000  0.08740000  1.0
  H  H10  1  0.76536000  0.63356000  0.07254000  1.0
  H  H11  1  0.19231000  0.56044000  0.92772000  1.0
  H  H12  1  0.00234000  0.79255000  0.26670000  1.0
  H  H13  1  0.23471000  0.52555000  0.73345000  1.0
  H  H14  1  0.14038000  0.79491000  0.47391000  1.0
  H  H15  1  0.16525000  0.32083000  0.52585000  1.0
  H  H16  1  0.01455000  0.52059000  0.52285000  1.0
  H  H17  1  0.99089000  0.99752000  0.47663000  1.0
  H  H18  1  0.74953000  0.23604000  0.36310000  1.0
  H  H19  1  0.88656000  0.87236000  0.63647000  1.0
  C  C20  1  0.55457000  0.20543000  0.66104000  1.0
  C  C21  1  0.39268000  0.54399000  0.33893000  1.0
  C  C22  1  0.63460000  0.35816000  0.63104000  1.0
  C  C23  1  0.50381000  0.72655000  0.36880000  1.0
  C  C24  1  0.71923000  0.52215000  0.72220000  1.0
  C  C25  1  0.49694000  0.79949000  0.27780000  1.0
  C  C26  1  0.72055000  0.53034000  0.84076000  1.0
  C  C27  1  0.37905000  0.68920000  0.15936000  1.0
  C  C28  1  0.63699000  0.37214000  0.86355000  1.0
  C  C29  1  0.27272000  0.50821000  0.13659000  1.0
  C  C30  1  0.63542000  0.36112000  0.98489000  1.0
  C  C31  1  0.15018000  0.37565000  0.01520000  1.0
  C  C32  1  0.79231000  0.51387000  0.20086000  1.0
  C  C33  1  0.09142000  0.31255000  0.79924000  1.0
  C  C34  1  0.94441000  0.67177000  0.28901000  1.0
  C  C35  1  0.15498000  0.38237000  0.71102000  1.0
  C  C36  1  0.02071000  0.67285000  0.40483000  1.0
  C  C37  1  0.11525000  0.26770000  0.59501000  1.0
  C  C38  1  0.95076000  0.51751000  0.43237000  1.0
  C  C39  1  0.01803000  0.08478000  0.56737000  1.0
  C  C40  1  0.80370000  0.35863000  0.34324000  1.0
  C  C41  1  0.96070000  0.01493000  0.65660000  1.0
  C  C42  1  0.71997000  0.35715000  0.22815000  1.0
  C  C43  1  0.99204000  0.12847000  0.77187000  1.0
  S  S44  1  0.51538000  0.16189000  0.11923000  1.0
  S  S45  1  0.89609000  0.04222000  0.88082000  1.0
  N  N46  1  0.55547000  0.21221000  0.77427000  1.0
  N  N47  1  0.28012000  0.43755000  0.22577000  1.0
  N  N48  1  0.55661000  0.20033000  0.99024000  1.0
  N  N49  1  0.06625000  0.20951000  0.00983000  1.0
  N  N50  1  0.71896000  0.51108000  0.08300000  1.0
  N  N51  1  0.13553000  0.42750000  0.91718000  1.0
  Cl  Cl52  1  0.45238000  0.79534000  0.66854000  1.0
  Cl  Cl53  1  0.28363000  0.12716000  0.33185000  1.0
  Cl  Cl54  1  0.23662000  0.81233000  0.90110000  1.0
  Cl  Cl55  1  0.83530000  0.91150000  0.09943000  1.0
