# generated using pymatgen
data_CdH8C12I2N4O
_symmetry_space_group_name_H-M   'P 1'
_cell_length_a   7.26341000
_cell_length_b   13.72820000
_cell_length_c   16.84954203
_cell_angle_alpha   111.04987253
_cell_angle_beta   101.92587115
_cell_angle_gamma   90.19160000
_symmetry_Int_Tables_number   1
_chemical_formula_structural   CdH8C12I2N4O
_chemical_formula_sum   'Cd4 H32 C48 I8 N16 O4'
_cell_volume   1528.61996017
_cell_formula_units_Z   4
loop_
 _symmetry_equiv_pos_site_id
 _symmetry_equiv_pos_as_xyz
  1  'x, y, z'
loop_
 _atom_site_type_symbol
 _atom_site_label
 _atom_site_symmetry_multiplicity
 _atom_site_fract_x
 _atom_site_fract_y
 _atom_site_fract_z
 _atom_site_occupancy
  Cd  Cd0  1  0.42989000  0.74508000  0.75590000  1.0
  Cd  Cd1  1  0.67606000  0.75407000  0.24365000  1.0
  Cd  Cd2  1  0.57011000  0.25492000  0.24410000  1.0
  Cd  Cd3  1  0.32394000  0.24594000  0.75636000  1.0
  H  H4  1  0.61159000  0.87094000  0.96635000  1.0
  H  H5  1  0.64652000  0.62734000  0.03399000  1.0
  H  H6  1  0.38842000  0.12906000  0.03366000  1.0
  H  H7  1  0.35349000  0.37267000  0.96601000  1.0
  H  H8  1  0.78778000  0.04141000  0.07082000  1.0
  H  H9  1  0.71744000  0.45630000  0.92903000  1.0
  H  H10  1  0.21222000  0.95859000  0.92918000  1.0
  H  H11  1  0.28259000  0.54371000  0.07097000  1.0
  H  H12  1  0.88844000  0.17079000  0.01190000  1.0
  H  H13  1  0.87807000  0.32798000  0.98765000  1.0
  H  H14  1  0.11157000  0.82921000  0.98810000  1.0
  H  H15  1  0.12195000  0.67203000  0.01234000  1.0
  H  H16  1  0.81060000  0.12536000  0.84858000  1.0
  H  H17  1  0.96531000  0.37471000  0.15108000  1.0
  H  H18  1  0.18939000  0.87463000  0.15141000  1.0
  H  H19  1  0.03469000  0.62529000  0.84892000  1.0
  H  H20  1  0.78610000  0.11269000  0.61384000  1.0
  H  H21  1  0.17073000  0.38805000  0.38434000  1.0
  H  H22  1  0.21390000  0.88731000  0.38617000  1.0
  H  H23  1  0.82928000  0.61195000  0.61565000  1.0
  H  H24  1  0.82691000  0.00689000  0.34328000  1.0
  H  H25  1  0.47708000  0.49184000  0.65405000  1.0
  H  H26  1  0.17309000  0.99311000  0.65673000  1.0
  H  H27  1  0.52291000  0.50816000  0.34594000  1.0
  H  H28  1  0.86716000  0.15300000  0.49115000  1.0
  H  H29  1  0.37061000  0.34648000  0.50594000  1.0
  H  H30  1  0.13283000  0.84700000  0.50886000  1.0
  H  H31  1  0.62941000  0.65352000  0.49406000  1.0
  H  H32  1  0.63851000  0.79152000  0.43505000  1.0
  H  H33  1  0.20207000  0.70867000  0.56470000  1.0
  H  H34  1  0.36150000  0.20848000  0.56496000  1.0
  H  H35  1  0.79791000  0.29132000  0.43530000  1.0
  C  C36  1  0.65643000  0.92979000  0.94301000  1.0
  C  C37  1  0.71506000  0.56882000  0.05713000  1.0
  C  C38  1  0.34358000  0.07020000  0.05699000  1.0
  C  C39  1  0.28494000  0.43118000  0.94286000  1.0
  C  C40  1  0.75516000  0.02470000  0.00084000  1.0
  C  C41  1  0.75544000  0.47365000  0.99908000  1.0
  C  C42  1  0.24485000  0.97530000  0.99917000  1.0
  C  C43  1  0.24457000  0.52636000  0.00092000  1.0
  C  C44  1  0.81085000  0.09658000  0.96766000  1.0
  C  C45  1  0.84494000  0.40234000  0.03213000  1.0
  C  C46  1  0.18915000  0.90342000  0.03234000  1.0
  C  C47  1  0.15508000  0.59768000  0.96787000  1.0
  C  C48  1  0.76896000  0.07194000  0.87765000  1.0
  C  C49  1  0.89406000  0.42774000  0.12219000  1.0
  C  C50  1  0.23104000  0.92806000  0.12235000  1.0
  C  C51  1  0.10594000  0.57226000  0.87780000  1.0
  C  C52  1  0.67355000  0.97435000  0.82485000  1.0
  C  C53  1  0.85146000  0.52548000  0.17522000  1.0
  C  C54  1  0.32644000  0.02564000  0.17515000  1.0
  C  C55  1  0.14853000  0.47453000  0.82478000  1.0
  C  C56  1  0.63802000  0.93447000  0.73048000  1.0
  C  C57  1  0.90988000  0.56588000  0.26950000  1.0
  C  C58  1  0.36198000  0.06552000  0.26953000  1.0
  C  C59  1  0.09011000  0.43412000  0.73049000  1.0
  C  C60  1  0.65781000  0.91822000  0.60133000  1.0
  C  C61  1  0.05710000  0.58257000  0.39822000  1.0
  C  C62  1  0.34220000  0.08178000  0.39868000  1.0
  C  C63  1  0.94289000  0.41742000  0.60178000  1.0
  C  C64  1  0.70788000  0.94812000  0.53391000  1.0
  C  C65  1  0.17296000  0.55245000  0.46513000  1.0
  C  C66  1  0.29213000  0.05188000  0.46610000  1.0
  C  C67  1  0.82704000  0.44755000  0.53487000  1.0
  C  C68  1  0.77281000  0.05129000  0.54951000  1.0
  C  C69  1  0.22108000  0.44908000  0.44878000  1.0
  C  C70  1  0.22720000  0.94871000  0.45050000  1.0
  C  C71  1  0.77892000  0.55091000  0.55121000  1.0
  C  C72  1  0.79481000  0.99362000  0.39947000  1.0
  C  C73  1  0.39026000  0.50565000  0.59835000  1.0
  C  C74  1  0.20520000  0.00639000  0.60055000  1.0
  C  C75  1  0.60972000  0.49434000  0.40164000  1.0
  C  C76  1  0.81520000  0.07389000  0.48082000  1.0
  C  C77  1  0.33008000  0.42580000  0.51687000  1.0
  C  C78  1  0.18480000  0.92611000  0.51919000  1.0
  C  C79  1  0.66992000  0.57420000  0.48312000  1.0
  C  C80  1  0.69006000  0.87223000  0.45008000  1.0
  C  C81  1  0.23801000  0.62787000  0.54907000  1.0
  C  C82  1  0.30995000  0.12777000  0.54993000  1.0
  C  C83  1  0.76198000  0.37213000  0.45093000  1.0
  I  I84  1  0.60385000  0.62403000  0.84388000  1.0
  I  I85  1  0.76189000  0.87382000  0.15360000  1.0
  I  I86  1  0.39616000  0.37596000  0.15611000  1.0
  I  I87  1  0.23811000  0.12618000  0.84640000  1.0
  I  I88  1  0.05743000  0.79449000  0.75084000  1.0
  I  I89  1  0.30828000  0.70647000  0.25031000  1.0
  I  I90  1  0.94256000  0.20550000  0.24916000  1.0
  I  I91  1  0.69173000  0.29353000  0.74970000  1.0
  N  N92  1  0.61564000  0.90517000  0.85682000  1.0
  N  N93  1  0.76142000  0.59414000  0.14337000  1.0
  N  N94  1  0.38436000  0.09483000  0.14318000  1.0
  N  N95  1  0.23857000  0.40586000  0.85662000  1.0
  N  N96  1  0.55544000  0.84203000  0.67720000  1.0
  N  N97  1  0.87985000  0.65831000  0.32292000  1.0
  N  N98  1  0.44458000  0.15797000  0.32281000  1.0
  N  N99  1  0.12014000  0.34169000  0.67707000  1.0
  N  N100  1  0.56845000  0.83101000  0.59397000  1.0
  N  N101  1  0.97514000  0.66962000  0.40590000  1.0
  N  N102  1  0.43154000  0.16899000  0.40603000  1.0
  N  N103  1  0.02486000  0.33038000  0.59410000  1.0
  N  N104  1  0.73317000  0.89479000  0.38491000  1.0
  N  N105  1  0.34445000  0.60471000  0.61367000  1.0
  N  N106  1  0.26684000  0.10521000  0.61510000  1.0
  N  N107  1  0.65555000  0.39528000  0.38633000  1.0
  O  O108  1  0.70407000  0.98743000  0.68643000  1.0
  O  O109  1  0.01926000  0.51321000  0.31316000  1.0
  O  O110  1  0.29593000  0.01258000  0.31358000  1.0
  O  O111  1  0.98071000  0.48679000  0.68683000  1.0
