# generated using pymatgen
data_K3CuPH16C10(NO6)2
_symmetry_space_group_name_H-M   'P 1'
_cell_length_a   8.31468000
_cell_length_b   9.73047000
_cell_length_c   11.99440000
_cell_angle_alpha   89.99980000
_cell_angle_beta   89.99980000
_cell_angle_gamma   89.99940000
_symmetry_Int_Tables_number   1
_chemical_formula_structural   K3CuPH16C10(NO6)2
_chemical_formula_sum   'K6 Cu2 P2 H32 C20 N4 O24'
_cell_volume   970.41585936
_cell_formula_units_Z   2
loop_
 _symmetry_equiv_pos_site_id
 _symmetry_equiv_pos_as_xyz
  1  'x, y, z'
loop_
 _atom_site_type_symbol
 _atom_site_label
 _atom_site_symmetry_multiplicity
 _atom_site_fract_x
 _atom_site_fract_y
 _atom_site_fract_z
 _atom_site_occupancy
  K  K0  1  0.50002000  0.85601000  0.50000000  1.0
  K  K1  1  0.00001000  0.14399000  0.00000000  1.0
  K  K2  1  0.84872000  0.89258000  0.27019000  1.0
  K  K3  1  0.15128000  0.89259000  0.72981000  1.0
  K  K4  1  0.34871000  0.10741000  0.22981000  1.0
  K  K5  1  0.65128000  0.10741000  0.77020000  1.0
  Cu  Cu6  1  0.00000000  0.25214000  0.50000000  1.0
  Cu  Cu7  1  0.50001000  0.74786000  1.00000000  1.0
  P  P8  1  0.99999000  0.62627000  0.50000000  1.0
  P  P9  1  0.49999000  0.37373000  1.00000000  1.0
  H  H10  1  0.60711000  0.34875000  0.35549000  1.0
  H  H11  1  0.39288000  0.34873000  0.64451000  1.0
  H  H12  1  0.10712000  0.65128000  0.14450000  1.0
  H  H13  1  0.89290000  0.65124000  0.85550000  1.0
  H  H14  1  0.63883000  0.32323000  0.50121000  1.0
  H  H15  1  0.36115000  0.32322000  0.49879000  1.0
  H  H16  1  0.13885000  0.67680000  0.99878000  1.0
  H  H17  1  0.86116000  0.67676000  0.00122000  1.0
  H  H18  1  0.93045000  0.51738000  0.28781000  1.0
  H  H19  1  0.06954000  0.51736000  0.71219000  1.0
  H  H20  1  0.43044000  0.48264000  0.21220000  1.0
  H  H21  1  0.56955000  0.48262000  0.78780000  1.0
  H  H22  1  0.80388000  0.38268000  0.24057000  1.0
  H  H23  1  0.19610000  0.38267000  0.75943000  1.0
  H  H24  1  0.30389000  0.61735000  0.25942000  1.0
  H  H25  1  0.69612000  0.61732000  0.74057000  1.0
  H  H26  1  0.78315000  0.48561000  0.56391000  1.0
  H  H27  1  0.21685000  0.48561000  0.43609000  1.0
  H  H28  1  0.28314000  0.51440000  0.93609000  1.0
  H  H29  1  0.71685000  0.51438000  0.06391000  1.0
  H  H30  1  0.73156000  0.58107000  0.44087000  1.0
  H  H31  1  0.26844000  0.58106000  0.55914000  1.0
  H  H32  1  0.23156000  0.41895000  0.05913000  1.0
  H  H33  1  0.76844000  0.41892000  0.94087000  1.0
  H  H34  1  0.15453000  0.84192000  0.39099000  1.0
  H  H35  1  0.84548000  0.84192000  0.60901000  1.0
  H  H36  1  0.65451000  0.15808000  0.10900000  1.0
  H  H37  1  0.34547000  0.15807000  0.89100000  1.0
  H  H38  1  0.17584000  0.98680000  0.44727000  1.0
  H  H39  1  0.82416000  0.98680000  0.55273000  1.0
  H  H40  1  0.67583000  0.01320000  0.05272000  1.0
  H  H41  1  0.32417000  0.01319000  0.94729000  1.0
  C  C42  1  0.69217000  0.30937000  0.41815000  1.0
  C  C43  1  0.30782000  0.30936000  0.58185000  1.0
  C  C44  1  0.19218000  0.69065000  0.08184000  1.0
  C  C45  1  0.80783000  0.69061000  0.91815000  1.0
  C  C46  1  0.71611000  0.15541000  0.40486000  1.0
  C  C47  1  0.28387000  0.15539000  0.59513000  1.0
  C  C48  1  0.21614000  0.84462000  0.09513000  1.0
  C  C49  1  0.78388000  0.84459000  0.90487000  1.0
  C  C50  1  0.90115000  0.40796000  0.29914000  1.0
  C  C51  1  0.09884000  0.40795000  0.70087000  1.0
  C  C52  1  0.40115000  0.59206000  0.20086000  1.0
  C  C53  1  0.59886000  0.59204000  0.79914000  1.0
  C  C54  1  0.05216000  0.32653000  0.26474000  1.0
  C  C55  1  0.94783000  0.32652000  0.73526000  1.0
  C  C56  1  0.55218000  0.67348000  0.23526000  1.0
  C  C57  1  0.44784000  0.67347000  0.76474000  1.0
  C  C58  1  0.82403000  0.51561000  0.48052000  1.0
  C  C59  1  0.17597000  0.51560000  0.51949000  1.0
  C  C60  1  0.32403000  0.48440000  0.01948000  1.0
  C  C61  1  0.67597000  0.48439000  0.98051000  1.0
  N  N62  1  0.84537000  0.38681000  0.41600000  1.0
  N  N63  1  0.15462000  0.38680000  0.58401000  1.0
  N  N64  1  0.34538000  0.61321000  0.08399000  1.0
  N  N65  1  0.65463000  0.61318000  0.91599000  1.0
  O  O66  1  0.85607000  0.10818000  0.43366000  1.0
  O  O67  1  0.14392000  0.10817000  0.56634000  1.0
  O  O68  1  0.35609000  0.89182000  0.06634000  1.0
  O  O69  1  0.64394000  0.89180000  0.93366000  1.0
  O  O70  1  0.60261000  0.08115000  0.37290000  1.0
  O  O71  1  0.39738000  0.08114000  0.62709000  1.0
  O  O72  1  0.10263000  0.91887000  0.12709000  1.0
  O  O73  1  0.89740000  0.91884000  0.87291000  1.0
  O  O74  1  0.14653000  0.28293000  0.34037000  1.0
  O  O75  1  0.85346000  0.28292000  0.65963000  1.0
  O  O76  1  0.64654000  0.71707000  0.15963000  1.0
  O  O77  1  0.35349000  0.71707000  0.84037000  1.0
  O  O78  1  0.07363000  0.31323000  0.16109000  1.0
  O  O79  1  0.92636000  0.31321000  0.83890000  1.0
  O  O80  1  0.57364000  0.68678000  0.33889000  1.0
  O  O81  1  0.42638000  0.68677000  0.66110000  1.0
  O  O82  1  0.03144000  0.70680000  0.39311000  1.0
  O  O83  1  0.96856000  0.70680000  0.60689000  1.0
  O  O84  1  0.53142000  0.29320000  0.10689000  1.0
  O  O85  1  0.46855000  0.29320000  0.89311000  1.0
  O  O86  1  0.22174000  0.92722000  0.38919000  1.0
  O  O87  1  0.77828000  0.92723000  0.61082000  1.0
  O  O88  1  0.72172000  0.07278000  0.11081000  1.0
  O  O89  1  0.27827000  0.07276000  0.88920000  1.0
