# generated using pymatgen
data_TbH35C39N6O7
_symmetry_space_group_name_H-M   'P 1'
_cell_length_a   9.90239000
_cell_length_b   9.90615000
_cell_length_c   22.46820000
_cell_angle_alpha   100.25000000
_cell_angle_beta   94.86680000
_cell_angle_gamma   113.74200000
_symmetry_Int_Tables_number   1
_chemical_formula_structural   TbH35C39N6O7
_chemical_formula_sum   'Tb2 H70 C78 N12 O14'
_cell_volume   1955.09315448
_cell_formula_units_Z   2
loop_
 _symmetry_equiv_pos_site_id
 _symmetry_equiv_pos_as_xyz
  1  'x, y, z'
loop_
 _atom_site_type_symbol
 _atom_site_label
 _atom_site_symmetry_multiplicity
 _atom_site_fract_x
 _atom_site_fract_y
 _atom_site_fract_z
 _atom_site_occupancy
  Tb  Tb0  1  0.79593000  0.97253000  0.51118000  1.0
  Tb  Tb1  1  0.53896000  0.21540000  0.01114000  1.0
  H  H2  1  0.53575000  0.31409000  0.45967000  1.0
  H  H3  1  0.14623000  0.42438000  0.95954000  1.0
  H  H4  1  0.48223000  0.32022000  0.53290000  1.0
  H  H5  1  0.21338000  0.55125000  0.03270000  1.0
  H  H6  1  0.41240000  0.14245000  0.47750000  1.0
  H  H7  1  0.33571000  0.56552000  0.97722000  1.0
  H  H8  1  0.76015000  0.45760000  0.56843000  1.0
  H  H9  1  0.11106000  0.30873000  0.06813000  1.0
  H  H10  1  0.95541000  0.64596000  0.60580000  1.0
  H  H11  1  0.95995000  0.15148000  0.10582000  1.0
  H  H12  1  0.17231000  0.85806000  0.67342000  1.0
  H  H13  1  0.81523000  0.00218000  0.17343000  1.0
  H  H14  1  0.33950000  0.54661000  0.72398000  1.0
  H  H15  1  0.17691000  0.88484000  0.22379000  1.0
  H  H16  1  0.11910000  0.33158000  0.65318000  1.0
  H  H17  1  0.32134000  0.03443000  0.15297000  1.0
  H  H18  1  0.56997000  0.76453000  0.73511000  1.0
  H  H19  1  0.97071000  0.66583000  0.23478000  1.0
  H  H20  1  0.72862000  0.03200000  0.82434000  1.0
  H  H21  1  0.79213000  0.59537000  0.32391000  1.0
  H  H22  1  0.28811000  0.98255000  0.77586000  1.0
  H  H23  1  0.79201000  0.98714000  0.27568000  1.0
  H  H24  1  0.76755000  0.47773000  0.42770000  1.0
  H  H25  1  0.95091000  0.16062000  0.92819000  1.0
  H  H26  1  0.93697000  0.48596000  0.46711000  1.0
  H  H27  1  0.98165000  0.03019000  0.96745000  1.0
  H  H28  1  0.93765000  0.54885000  0.39793000  1.0
  H  H29  1  0.85017000  0.96099000  0.89812000  1.0
  H  H30  1  0.14289000  0.73333000  0.51546000  1.0
  H  H31  1  0.78227000  0.87265000  0.01568000  1.0
  H  H32  1  0.37034000  0.87080000  0.55348000  1.0
  H  H33  1  0.68322000  0.68373000  0.05373000  1.0
  H  H34  1  0.59446000  0.00273000  0.63259000  1.0
  H  H35  1  0.63025000  0.53827000  0.13273000  1.0
  H  H36  1  0.43715000  0.33839000  0.70200000  1.0
  H  H37  1  0.36297000  0.76382000  0.20212000  1.0
  H  H38  1  0.20428000  0.19585000  0.62275000  1.0
  H  H39  1  0.42668000  0.91816000  0.12313000  1.0
  H  H40  1  0.81906000  0.19001000  0.67510000  1.0
  H  H41  1  0.48465000  0.35551000  0.17500000  1.0
  H  H42  1  0.00760000  0.37082000  0.78449000  1.0
  H  H43  1  0.41274000  0.27564000  0.28431000  1.0
  H  H44  1  0.58328000  0.36717000  0.79051000  1.0
  H  H45  1  0.42282000  0.70611000  0.29069000  1.0
  H  H46  1  0.93984000  0.73879000  0.03044000  1.0
  H  H47  1  0.29173000  0.59165000  0.53054000  1.0
  H  H48  1  0.09325000  0.71436000  0.06634000  1.0
  H  H49  1  0.35172000  0.47363000  0.56625000  1.0
  H  H50  1  0.00545000  0.61619000  0.98856000  1.0
  H  H51  1  0.37244000  0.48433000  0.48850000  1.0
  H  H52  1  0.02868000  0.55465000  0.13327000  1.0
  H  H53  1  0.57872000  0.60467000  0.63324000  1.0
  H  H54  1  0.09895000  0.45988000  0.20087000  1.0
  H  H55  1  0.74131000  0.60176000  0.70091000  1.0
  H  H56  1  0.15670000  0.40871000  0.29977000  1.0
  H  H57  1  0.89104000  0.64280000  0.79986000  1.0
  H  H58  1  0.68273000  0.19075000  0.30579000  1.0
  H  H59  1  0.11429000  0.12281000  0.80604000  1.0
  H  H60  1  0.62750000  0.23520000  0.20349000  1.0
  H  H61  1  0.96814000  0.07576000  0.70363000  1.0
  H  H62  1  0.20094000  0.37636000  0.38552000  1.0
  H  H63  1  0.00896000  0.68480000  0.88595000  1.0
  H  H64  1  0.15784000  0.23031000  0.48238000  1.0
  H  H65  1  0.25189000  0.82503000  0.98276000  1.0
  H  H66  1  0.73649000  0.11000000  0.37957000  1.0
  H  H67  1  0.26925000  0.14273000  0.87954000  1.0
  H  H68  1  0.55776000  0.76730000  0.41692000  1.0
  H  H69  1  0.64922000  0.35872000  0.91656000  1.0
  H  H70  1  0.67934000  0.82296000  0.37336000  1.0
  H  H71  1  0.54982000  0.19336000  0.87334000  1.0
  C  C72  1  0.50951000  0.25139000  0.49621000  1.0
  C  C73  1  0.24553000  0.48724000  0.99602000  1.0
  C  C74  1  0.64267000  0.22504000  0.51947000  1.0
  C  C75  1  0.29523000  0.37748000  0.01937000  1.0
  C  C76  1  0.76707000  0.34924000  0.55806000  1.0
  C  C77  1  0.20928000  0.29158000  0.05790000  1.0
  C  C78  1  0.89436000  0.33709000  0.58436000  1.0
  C  C79  1  0.24740000  0.19049000  0.08423000  1.0
  C  C80  1  0.02221000  0.47262000  0.62508000  1.0
  C  C81  1  0.15233000  0.10347000  0.12495000  1.0
  C  C82  1  0.03760000  0.62173000  0.63166000  1.0
  C  C83  1  0.00991000  0.09498000  0.13162000  1.0
  C  C84  1  0.16039000  0.74266000  0.66995000  1.0
  C  C85  1  0.92714000  0.01051000  0.16994000  1.0
  C  C86  1  0.26941000  0.71539000  0.70282000  1.0
  C  C87  1  0.98702000  0.93399000  0.20269000  1.0
  C  C88  1  0.25590000  0.56725000  0.69703000  1.0
  C  C89  1  0.12935000  0.94154000  0.19686000  1.0
  C  C90  1  0.13353000  0.44808000  0.65827000  1.0
  C  C91  1  0.20992000  0.02519000  0.15811000  1.0
  C  C92  1  0.53580000  0.84791000  0.75817000  1.0
  C  C93  1  0.91011000  0.72274000  0.25788000  1.0
  C  C94  1  0.61264000  0.98109000  0.80186000  1.0
  C  C95  1  0.82045000  0.68904000  0.30152000  1.0
  C  C96  1  0.38845000  0.96321000  0.77831000  1.0
  C  C97  1  0.81416000  0.88950000  0.27810000  1.0
  C  C98  1  0.88929000  0.54364000  0.44027000  1.0
  C  C99  1  0.89733000  0.05124000  0.94057000  1.0
  C  C100  1  0.92554000  0.70293000  0.47505000  1.0
  C  C101  1  0.77236000  0.04944000  0.97517000  1.0
  C  C102  1  0.07033000  0.79026000  0.51036000  1.0
  C  C103  1  0.72028000  0.94010000  0.01053000  1.0
  C  C104  1  0.12207000  0.94370000  0.54031000  1.0
  C  C105  1  0.59687000  0.91852000  0.04059000  1.0
  C  C106  1  0.26813000  0.02239000  0.58401000  1.0
  C  C107  1  0.56192000  0.81616000  0.08433000  1.0
  C  C108  1  0.38021000  0.97003000  0.58684000  1.0
  C  C109  1  0.61727000  0.70703000  0.08711000  1.0
  C  C110  1  0.50947000  0.04614000  0.63122000  1.0
  C  C111  1  0.58546000  0.62188000  0.13142000  1.0
  C  C112  1  0.53030000  0.17832000  0.67335000  1.0
  C  C113  1  0.49502000  0.64267000  0.17350000  1.0
  C  C114  1  0.42046000  0.23363000  0.67038000  1.0
  C  C115  1  0.43658000  0.74943000  0.17059000  1.0
  C  C116  1  0.29131000  0.15562000  0.62633000  1.0
  C  C117  1  0.47071000  0.83487000  0.12664000  1.0
  C  C118  1  0.79902000  0.25197000  0.71562000  1.0
  C  C119  1  0.46306000  0.41577000  0.21556000  1.0
  C  C120  1  0.89015000  0.34257000  0.77013000  1.0
  C  C121  1  0.42678000  0.37884000  0.27003000  1.0
  C  C122  1  0.67629000  0.34877000  0.77474000  1.0
  C  C123  1  0.42539000  0.59737000  0.27482000  1.0
  C  C124  1  0.98624000  0.65630000  0.03446000  1.0
  C  C125  1  0.37811000  0.54904000  0.53446000  1.0
  C  C126  1  0.87373000  0.52286000  0.05367000  1.0
  C  C127  1  0.53087000  0.68058000  0.55377000  1.0
  C  C128  1  0.91509000  0.48578000  0.10828000  1.0
  C  C129  1  0.62261000  0.69340000  0.60830000  1.0
  C  C130  1  0.81309000  0.37582000  0.13411000  1.0
  C  C131  1  0.75848000  0.82103000  0.63413000  1.0
  C  C132  1  0.85770000  0.35319000  0.19535000  1.0
  C  C133  1  0.84225000  0.83744000  0.69539000  1.0
  C  C134  1  0.00645000  0.40263000  0.22375000  1.0
  C  C135  1  0.82128000  0.71709000  0.72381000  1.0
  C  C136  1  0.03992000  0.37338000  0.28014000  1.0
  C  C137  1  0.90675000  0.73996000  0.78024000  1.0
  C  C138  1  0.92409000  0.29525000  0.30982000  1.0
  C  C139  1  0.01429000  0.88546000  0.80999000  1.0
  C  C140  1  0.77456000  0.24818000  0.28276000  1.0
  C  C141  1  0.03411000  0.00793000  0.78295000  1.0
  C  C142  1  0.74290000  0.27493000  0.22581000  1.0
  C  C143  1  0.95067000  0.98265000  0.72595000  1.0
  C  C144  1  0.09985000  0.30050000  0.39860000  1.0
  C  C145  1  0.09788000  0.79889000  0.89894000  1.0
  C  C146  1  0.07740000  0.22826000  0.44600000  1.0
  C  C147  1  0.21756000  0.86883000  0.94629000  1.0
  C  C148  1  0.85672000  0.16340000  0.39454000  1.0
  C  C149  1  0.23084000  0.03768000  0.89464000  1.0
  N  N150  1  0.39245000  0.83728000  0.74335000  1.0
  N  N151  1  0.90553000  0.85116000  0.24313000  1.0
  N  N152  1  0.51911000  0.05098000  0.81435000  1.0
  N  N153  1  0.76253000  0.79460000  0.31407000  1.0
  N  N154  1  0.66170000  0.25692000  0.71853000  1.0
  N  N155  1  0.46121000  0.55606000  0.21858000  1.0
  N  N156  1  0.81272000  0.40216000  0.80695000  1.0
  N  N157  1  0.40403000  0.49294000  0.30694000  1.0
  N  N158  1  0.95781000  0.25831000  0.36556000  1.0
  N  N159  1  0.10697000  0.90760000  0.86576000  1.0
  N  N160  1  0.92567000  0.14247000  0.44264000  1.0
  N  N161  1  0.29994000  0.01706000  0.94279000  1.0
  O  O162  1  0.63461000  0.09205000  0.50214000  1.0
  O  O163  1  0.41121000  0.36843000  0.00222000  1.0
  O  O164  1  0.90932000  0.21291000  0.57729000  1.0
  O  O165  1  0.36450000  0.16829000  0.07721000  1.0
  O  O166  1  0.82261000  0.74865000  0.47022000  1.0
  O  O167  1  0.72152000  0.14723000  0.97017000  1.0
  O  O168  1  0.04840000  0.02277000  0.53471000  1.0
  O  O169  1  0.51223000  0.98665000  0.03507000  1.0
  O  O170  1  0.74554000  0.45302000  0.01902000  1.0
  O  O171  1  0.56611000  0.77449000  0.51926000  1.0
  O  O172  1  0.67600000  0.29369000  0.10909000  1.0
  O  O173  1  0.81587000  0.93307000  0.60912000  1.0
  O  O174  1  0.63553000  0.85801000  0.40917000  1.0
  O  O175  1  0.55081000  0.27326000  0.90910000  1.0
