# generated using pymatgen
data_AgH14C14N5O2
_symmetry_space_group_name_H-M   'P 1'
_cell_length_a   4.89491000
_cell_length_b   7.33697000
_cell_length_c   20.39690000
_cell_angle_alpha   90.00000000
_cell_angle_beta   93.71000000
_cell_angle_gamma   89.99980000
_symmetry_Int_Tables_number   1
_chemical_formula_structural   AgH14C14N5O2
_chemical_formula_sum   'Ag2 H28 C28 N10 O4'
_cell_volume   730.99521227
_cell_formula_units_Z   2
loop_
 _symmetry_equiv_pos_site_id
 _symmetry_equiv_pos_as_xyz
  1  'x, y, z'
loop_
 _atom_site_type_symbol
 _atom_site_label
 _atom_site_symmetry_multiplicity
 _atom_site_fract_x
 _atom_site_fract_y
 _atom_site_fract_z
 _atom_site_occupancy
  Ag  Ag0  1  0.25000000  0.19251000  0.75000000  1.0
  Ag  Ag1  1  0.75000000  0.80749000  0.25000000  1.0
  H  H2  1  0.72034000  0.36051000  0.84124000  1.0
  H  H3  1  0.77965000  0.36051000  0.65876000  1.0
  H  H4  1  0.27966000  0.63949000  0.15876000  1.0
  H  H5  1  0.22034000  0.63949000  0.34124000  1.0
  H  H6  1  0.11758000  0.25845000  0.91618000  1.0
  H  H7  1  0.38241000  0.25845000  0.58382000  1.0
  H  H8  1  0.88242000  0.74155000  0.08382000  1.0
  H  H9  1  0.61759000  0.74155000  0.41618000  1.0
  H  H10  1  0.88458000  0.70421000  0.86837000  1.0
  H  H11  1  0.61542000  0.70421000  0.63163000  1.0
  H  H12  1  0.11542000  0.29579000  0.13163000  1.0
  H  H13  1  0.38458000  0.29579000  0.36837000  1.0
  H  H14  1  0.50215000  0.82784000  0.79634000  1.0
  H  H15  1  0.99785000  0.82784000  0.70366000  1.0
  H  H16  1  0.49785000  0.17216000  0.20366000  1.0
  H  H17  1  0.00215000  0.17216000  0.29634000  1.0
  H  H18  1  0.46157000  0.67774000  0.99197000  1.0
  H  H19  1  0.03843000  0.67774000  0.50802000  1.0
  H  H20  1  0.53842000  0.32226000  0.00802000  1.0
  H  H21  1  0.96157000  0.32225000  0.49198000  1.0
  H  H22  1  0.31662000  0.63742000  0.90963000  1.0
  H  H23  1  0.18338000  0.63742000  0.59037000  1.0
  H  H24  1  0.68337000  0.36258000  0.09037000  1.0
  H  H25  1  0.81662000  0.36258000  0.40963000  1.0
  H  H26  1  0.10102000  0.64640000  0.97603000  1.0
  H  H27  1  0.39897000  0.64640000  0.52397000  1.0
  H  H28  1  0.89897000  0.35360000  0.02397000  1.0
  H  H29  1  0.60103000  0.35360000  0.47603000  1.0
  C  C30  1  0.76457000  0.21640000  0.84935000  1.0
  C  C31  1  0.73542000  0.21640000  0.65065000  1.0
  C  C32  1  0.23542000  0.78360000  0.15065000  1.0
  C  C33  1  0.26458000  0.78359000  0.34935000  1.0
  C  C34  1  0.98311000  0.15935000  0.89102000  1.0
  C  C35  1  0.51689000  0.15934000  0.60898000  1.0
  C  C36  1  0.01689000  0.84066000  0.10898000  1.0
  C  C37  1  0.48311000  0.84066000  0.39102000  1.0
  C  C38  1  0.03026000  0.97197000  0.90100000  1.0
  C  C39  1  0.46974000  0.97197000  0.59900000  1.0
  C  C40  1  0.96974000  0.02803000  0.09900000  1.0
  C  C41  1  0.53026000  0.02803000  0.40100000  1.0
  C  C42  1  0.85588000  0.85105000  0.86520000  1.0
  C  C43  1  0.64413000  0.85105000  0.63480000  1.0
  C  C44  1  0.14413000  0.14895000  0.13480000  1.0
  C  C45  1  0.35588000  0.14895000  0.36520000  1.0
  C  C46  1  0.64222000  0.91914000  0.82409000  1.0
  C  C47  1  0.85778000  0.91914000  0.67591000  1.0
  C  C48  1  0.35778000  0.08086000  0.17591000  1.0
  C  C49  1  0.14221000  0.08086000  0.32409000  1.0
  C  C50  1  0.25181000  0.90562000  0.94755000  1.0
  C  C51  1  0.24819000  0.90562000  0.55245000  1.0
  C  C52  1  0.74819000  0.09438000  0.05245000  1.0
  C  C53  1  0.75181000  0.09438000  0.44755000  1.0
  C  C54  1  0.28770000  0.70461000  0.95699000  1.0
  C  C55  1  0.21229000  0.70460000  0.54301000  1.0
  C  C56  1  0.71229000  0.29540000  0.04301000  1.0
  C  C57  1  0.78771000  0.29540000  0.45699000  1.0
  N  N58  1  0.59360000  0.09878000  0.81653000  1.0
  N  N59  1  0.90641000  0.09878000  0.68347000  1.0
  N  N60  1  0.40641000  0.90122000  0.18347000  1.0
  N  N61  1  0.09359000  0.90122000  0.31653000  1.0
  N  N62  1  0.39837000  0.03204000  0.97817000  1.0
  N  N63  1  0.10163000  0.03204000  0.52183000  1.0
  N  N64  1  0.60163000  0.96796000  0.02183000  1.0
  N  N65  1  0.89837000  0.96796000  0.47817000  1.0
  N  N66  1  0.25000000  0.60279000  0.75000000  1.0
  N  N67  1  0.75000000  0.39721000  0.25000000  1.0
  O  O68  1  0.27034000  0.51076000  0.80277000  1.0
  O  O69  1  0.22965000  0.51076000  0.69723000  1.0
  O  O70  1  0.72966000  0.48924000  0.19723000  1.0
  O  O71  1  0.77034000  0.48924000  0.30277000  1.0
