# generated using pymatgen
data_CdH24C34(N2O3)2
_symmetry_space_group_name_H-M   'P 1'
_cell_length_a   9.81920000
_cell_length_b   10.41500000
_cell_length_c   14.06620000
_cell_angle_alpha   86.40440000
_cell_angle_beta   81.53590000
_cell_angle_gamma   81.04780000
_symmetry_Int_Tables_number   1
_chemical_formula_structural   CdH24C34(N2O3)2
_chemical_formula_sum   'Cd2 H48 C68 N8 O12'
_cell_volume   1404.34036481
_cell_formula_units_Z   2
loop_
 _symmetry_equiv_pos_site_id
 _symmetry_equiv_pos_as_xyz
  1  'x, y, z'
loop_
 _atom_site_type_symbol
 _atom_site_label
 _atom_site_symmetry_multiplicity
 _atom_site_fract_x
 _atom_site_fract_y
 _atom_site_fract_z
 _atom_site_occupancy
  Cd  Cd0  1  0.61307000  0.60714000  0.55323000  1.0
  Cd  Cd1  1  0.38693000  0.39286000  0.44677000  1.0
  H  H2  1  0.60661000  0.09437000  0.54282000  1.0
  H  H3  1  0.39339000  0.90564000  0.45718000  1.0
  H  H4  1  0.95665000  0.84357000  0.63709000  1.0
  H  H5  1  0.04335000  0.15643000  0.36291000  1.0
  H  H6  1  0.07352000  0.03693000  0.65210000  1.0
  H  H7  1  0.92648000  0.96307000  0.34790000  1.0
  H  H8  1  0.95024000  0.25962000  0.61776000  1.0
  H  H9  1  0.04976000  0.74038000  0.38224000  1.0
  H  H10  1  0.28618000  0.29343000  0.23998000  1.0
  H  H11  1  0.71382000  0.70657000  0.76002000  1.0
  H  H12  1  0.80731000  0.89082000  0.96055000  1.0
  H  H13  1  0.19269000  0.10917000  0.03945000  1.0
  H  H14  1  0.32321000  0.04990000  0.24695000  1.0
  H  H15  1  0.67679000  0.95010000  0.75305000  1.0
  H  H16  1  0.50789000  0.86146000  0.21185000  1.0
  H  H17  1  0.49211000  0.13854000  0.78815000  1.0
  H  H18  1  0.69768000  0.87560000  0.07897000  1.0
  H  H19  1  0.30232000  0.12440000  0.92103000  1.0
  H  H20  1  0.45723000  0.39332000  0.02578000  1.0
  H  H21  1  0.54277000  0.60668000  0.97422000  1.0
  H  H22  1  0.64826000  0.40705000  0.89127000  1.0
  H  H23  1  0.35174000  0.59295000  0.10873000  1.0
  H  H24  1  0.82368000  0.21414000  0.84792000  1.0
  H  H25  1  0.17632000  0.78585000  0.15208000  1.0
  H  H26  1  0.88052000  0.45363000  0.41587000  1.0
  H  H27  1  0.11949000  0.54637000  0.58413000  1.0
  H  H28  1  0.62683000  0.80514000  0.38313000  1.0
  H  H29  1  0.37317000  0.19486000  0.61687000  1.0
  H  H30  1  0.77092000  0.85807000  0.22553000  1.0
  H  H31  1  0.22907000  0.14193000  0.77447000  1.0
  H  H32  1  0.96817000  0.69811000  0.16028000  1.0
  H  H33  1  0.03183000  0.30189000  0.83972000  1.0
  H  H34  1  0.09323000  0.38788000  0.30021000  1.0
  H  H35  1  0.90677000  0.61212000  0.69978000  1.0
  H  H36  1  0.06082000  0.51071000  0.09704000  1.0
  H  H37  1  0.93918000  0.48929000  0.90295000  1.0
  H  H38  1  0.37362000  0.79205000  0.66835000  1.0
  H  H39  1  0.62638000  0.20795000  0.33165000  1.0
  H  H40  1  0.52110000  0.40422000  0.72335000  1.0
  H  H41  1  0.47890000  0.59578000  0.27665000  1.0
  H  H42  1  0.34421000  0.39315000  0.87191000  1.0
  H  H43  1  0.65579000  0.60685000  0.12809000  1.0
  H  H44  1  0.17635000  0.59074000  0.91694000  1.0
  H  H45  1  0.82365000  0.40926000  0.08306000  1.0
  H  H46  1  0.19775000  0.91688000  0.77663000  1.0
  H  H47  1  0.80224000  0.08312000  0.22337000  1.0
  H  H48  1  0.00649000  0.76437000  0.91908000  1.0
  H  H49  1  0.99352000  0.23563000  0.08092000  1.0
  C  C50  1  0.77151000  0.19120000  0.57883000  1.0
  C  C51  1  0.22849000  0.80880000  0.42118000  1.0
  C  C52  1  0.70824000  0.08255000  0.56740000  1.0
  C  C53  1  0.29175000  0.91745000  0.43260000  1.0
  C  C54  1  0.77475000  0.95752000  0.58989000  1.0
  C  C55  1  0.22525000  0.04248000  0.41011000  1.0
  C  C56  1  0.90653000  0.94151000  0.62024000  1.0
  C  C57  1  0.09347000  0.05849000  0.37977000  1.0
  C  C58  1  0.97118000  0.04931000  0.62878000  1.0
  C  C59  1  0.02882000  0.95069000  0.37122000  1.0
  C  C60  1  0.90343000  0.17371000  0.60913000  1.0
  C  C61  1  0.09657000  0.82629000  0.39087000  1.0
  C  C62  1  0.69882000  0.32737000  0.56390000  1.0
  C  C63  1  0.30118000  0.67263000  0.43610000  1.0
  C  C64  1  0.70322000  0.84107000  0.58656000  1.0
  C  C65  1  0.29678000  0.15893000  0.41344000  1.0
  C  C66  1  0.41359000  0.17568000  0.13818000  1.0
  C  C67  1  0.58641000  0.82432000  0.86182000  1.0
  C  C68  1  0.40981000  0.05924000  0.19052000  1.0
  C  C69  1  0.59019000  0.94076000  0.80948000  1.0
  C  C70  1  0.51395000  0.95225000  0.16962000  1.0
  C  C71  1  0.48605000  0.04775000  0.83038000  1.0
  C  C72  1  0.62023000  0.96096000  0.09485000  1.0
  C  C73  1  0.37977000  0.03904000  0.90515000  1.0
  C  C74  1  0.62739000  0.07814000  0.03867000  1.0
  C  C75  1  0.37261000  0.92186000  0.96133000  1.0
  C  C76  1  0.52327000  0.18957000  0.06100000  1.0
  C  C77  1  0.47673000  0.81043000  0.93900000  1.0
  C  C78  1  0.53396000  0.30826000  0.00755000  1.0
  C  C79  1  0.46604000  0.69173000  0.99245000  1.0
  C  C80  1  0.64100000  0.31582000  0.93301000  1.0
  C  C81  1  0.35900000  0.68418000  0.06699000  1.0
  C  C82  1  0.74197000  0.20723000  0.90821000  1.0
  C  C83  1  0.25803000  0.79277000  0.09179000  1.0
  C  C84  1  0.73668000  0.08976000  0.96017000  1.0
  C  C85  1  0.26332000  0.91024000  0.03983000  1.0
  C  C86  1  0.93912000  0.55817000  0.28045000  1.0
  C  C87  1  0.06088000  0.44183000  0.71955000  1.0
  C  C88  1  0.85741000  0.54023000  0.36976000  1.0
  C  C89  1  0.14259000  0.45977000  0.63024000  1.0
  C  C90  1  0.71577000  0.73772000  0.35158000  1.0
  C  C91  1  0.28423000  0.26228000  0.64843000  1.0
  C  C92  1  0.79448000  0.76583000  0.26449000  1.0
  C  C93  1  0.20552000  0.23417000  0.73551000  1.0
  C  C94  1  0.90602000  0.67525000  0.22809000  1.0
  C  C95  1  0.09398000  0.32475000  0.77191000  1.0
  C  C96  1  0.05350000  0.45771000  0.24570000  1.0
  C  C97  1  0.94650000  0.54229000  0.75430000  1.0
  C  C98  1  0.10636000  0.44599000  0.15194000  1.0
  C  C99  1  0.89365000  0.55402000  0.84806000  1.0
  C  C100  1  0.21430000  0.34178000  0.11003000  1.0
  C  C101  1  0.78570000  0.65822000  0.88997000  1.0
  C  C102  1  0.25866000  0.70852000  0.79550000  1.0
  C  C103  1  0.74134000  0.29148000  0.20450000  1.0
  C  C104  1  0.36228000  0.70529000  0.71502000  1.0
  C  C105  1  0.63772000  0.29471000  0.28498000  1.0
  C  C106  1  0.44543000  0.48851000  0.74605000  1.0
  C  C107  1  0.55457000  0.51149000  0.25395000  1.0
  C  C108  1  0.34681000  0.48258000  0.82769000  1.0
  C  C109  1  0.65319000  0.51742000  0.17231000  1.0
  C  C110  1  0.25270000  0.59319000  0.85252000  1.0
  C  C111  1  0.74730000  0.40681000  0.14748000  1.0
  C  C112  1  0.16655000  0.82981000  0.81594000  1.0
  C  C113  1  0.83345000  0.17019000  0.18406000  1.0
  C  C114  1  0.04755000  0.84566000  0.87802000  1.0
  C  C115  1  0.95245000  0.15434000  0.12198000  1.0
  C  C116  1  0.96859000  0.97767000  0.89138000  1.0
  C  C117  1  0.03142000  0.02233000  0.10862000  1.0
  N  N118  1  0.30877000  0.28220000  0.16658000  1.0
  N  N119  1  0.69123000  0.71779000  0.83342000  1.0
  N  N120  1  0.83499000  0.97957000  0.93768000  1.0
  N  N121  1  0.16501000  0.02042000  0.06232000  1.0
  N  N122  1  0.74767000  0.62682000  0.40349000  1.0
  N  N123  1  0.25233000  0.37318000  0.59651000  1.0
  N  N124  1  0.45244000  0.59807000  0.69070000  1.0
  N  N125  1  0.54756000  0.40193000  0.30930000  1.0
  O  O126  1  0.76076000  0.42005000  0.58321000  1.0
  O  O127  1  0.23924000  0.57995000  0.41679000  1.0
  O  O128  1  0.57948000  0.34637000  0.53608000  1.0
  O  O129  1  0.42052000  0.65364000  0.46392000  1.0
  O  O130  1  0.59446000  0.85093000  0.54661000  1.0
  O  O131  1  0.40554000  0.14907000  0.45340000  1.0
  O  O132  1  0.75641000  0.73286000  0.62568000  1.0
  O  O133  1  0.24359000  0.26714000  0.37431000  1.0
  O  O134  1  0.21496000  0.31151000  0.02488000  1.0
  O  O135  1  0.78503000  0.68850000  0.97512000  1.0
  O  O136  1  0.02014000  0.07723000  0.86310000  1.0
  O  O137  1  0.97986000  0.92277000  0.13690000  1.0
