# generated using pymatgen
data_ErH12(CO)9
_symmetry_space_group_name_H-M   'P 1'
_cell_length_a   6.65725000
_cell_length_b   11.25750000
_cell_length_c   19.40201049
_cell_angle_alpha   73.14540651
_cell_angle_beta   88.50701700
_cell_angle_gamma   89.98460000
_symmetry_Int_Tables_number   1
_chemical_formula_structural   ErH12(CO)9
_chemical_formula_sum   'Er4 H48 C36 O36'
_cell_volume   1391.09009456
_cell_formula_units_Z   4
loop_
 _symmetry_equiv_pos_site_id
 _symmetry_equiv_pos_as_xyz
  1  'x, y, z'
loop_
 _atom_site_type_symbol
 _atom_site_label
 _atom_site_symmetry_multiplicity
 _atom_site_fract_x
 _atom_site_fract_y
 _atom_site_fract_z
 _atom_site_occupancy
  Er  Er0  1  0.19415000  0.33744000  0.74350000  1.0
  Er  Er1  1  0.30614000  0.08062000  0.25659000  1.0
  Er  Er2  1  0.80587000  0.66257000  0.25652000  1.0
  Er  Er3  1  0.69387000  0.91937000  0.74341000  1.0
  H  H4  1  0.53735000  0.21730000  0.96780000  1.0
  H  H5  1  0.96324000  0.18514000  0.03227000  1.0
  H  H6  1  0.46264000  0.78262000  0.03222000  1.0
  H  H7  1  0.03675000  0.81487000  0.96773000  1.0
  H  H8  1  0.39172000  0.98015000  0.93364000  1.0
  H  H9  1  0.10796000  0.91364000  0.06635000  1.0
  H  H10  1  0.60823000  0.01980000  0.06635000  1.0
  H  H11  1  0.89201000  0.08637000  0.93365000  1.0
  H  H12  1  0.53081000  0.17054000  0.56357000  1.0
  H  H13  1  0.96919000  0.73375000  0.43633000  1.0
  H  H14  1  0.46916000  0.82945000  0.43644000  1.0
  H  H15  1  0.03078000  0.26626000  0.56368000  1.0
  H  H16  1  0.36210000  0.42016000  0.57388000  1.0
  H  H17  1  0.13776000  0.99378000  0.42595000  1.0
  H  H18  1  0.63791000  0.57985000  0.42612000  1.0
  H  H19  1  0.86223000  0.00624000  0.57405000  1.0
  H  H20  1  0.39122000  0.30192000  0.44666000  1.0
  H  H21  1  0.10855000  0.74862000  0.55335000  1.0
  H  H22  1  0.60877000  0.69807000  0.55334000  1.0
  H  H23  1  0.89141000  0.25141000  0.44666000  1.0
  H  H24  1  0.17511000  0.53023000  0.47019000  1.0
  H  H25  1  0.32491000  0.00033000  0.52956000  1.0
  H  H26  1  0.82490000  0.46977000  0.52981000  1.0
  H  H27  1  0.67510000  0.99968000  0.47044000  1.0
  H  H28  1  0.30661000  0.61236000  0.68119000  1.0
  H  H29  1  0.19331000  0.29330000  0.31876000  1.0
  H  H30  1  0.69341000  0.38764000  0.31882000  1.0
  H  H31  1  0.80670000  0.70670000  0.68124000  1.0
  H  H32  1  0.50645000  0.53386000  0.68400000  1.0
  H  H33  1  0.99343000  0.21766000  0.31604000  1.0
  H  H34  1  0.49358000  0.46615000  0.31600000  1.0
  H  H35  1  0.00659000  0.78235000  0.68396000  1.0
  H  H36  1  0.90784000  0.52161000  0.75353000  1.0
  H  H37  1  0.59204000  0.27514000  0.24664000  1.0
  H  H38  1  0.09217000  0.47839000  0.24647000  1.0
  H  H39  1  0.40797000  0.72487000  0.75336000  1.0
  H  H40  1  0.07260000  0.55092000  0.80511000  1.0
  H  H41  1  0.42729000  0.35592000  0.19493000  1.0
  H  H42  1  0.92743000  0.44907000  0.19490000  1.0
  H  H43  1  0.57275000  0.64410000  0.80505000  1.0
  H  H44  1  0.75142000  0.28125000  0.76304000  1.0
  H  H45  1  0.74882000  0.04404000  0.23693000  1.0
  H  H46  1  0.24858000  0.71876000  0.23695000  1.0
  H  H47  1  0.25118000  0.95597000  0.76306000  1.0
  H  H48  1  0.85635000  0.16042000  0.80757000  1.0
  H  H49  1  0.64386000  0.96774000  0.19241000  1.0
  H  H50  1  0.14365000  0.83958000  0.19243000  1.0
  H  H51  1  0.35612000  0.03225000  0.80759000  1.0
  C  C52  1  0.37567000  0.22266000  0.87020000  1.0
  C  C53  1  0.12483000  0.09263000  0.12983000  1.0
  C  C54  1  0.62433000  0.77730000  0.12980000  1.0
  C  C55  1  0.87516000  0.90737000  0.87017000  1.0
  C  C56  1  0.46931000  0.15864000  0.93866000  1.0
  C  C57  1  0.03105000  0.09726000  0.06138000  1.0
  C  C58  1  0.53068000  0.84131000  0.06134000  1.0
  C  C59  1  0.96893000  0.90274000  0.93862000  1.0
  C  C60  1  0.46173000  0.03354000  0.96559000  1.0
  C  C61  1  0.03821000  0.99908000  0.03442000  1.0
  C  C62  1  0.53824000  0.96641000  0.03440000  1.0
  C  C63  1  0.96175000  0.00092000  0.96559000  1.0
  C  C64  1  0.55010000  0.22266000  0.66315000  1.0
  C  C65  1  0.94984000  0.88543000  0.33676000  1.0
  C  C66  1  0.44990000  0.77735000  0.33685000  1.0
  C  C67  1  0.05016000  0.11460000  0.66323000  1.0
  C  C68  1  0.49462000  0.24523000  0.58695000  1.0
  C  C69  1  0.00540000  0.83180000  0.41296000  1.0
  C  C70  1  0.50537000  0.75476000  0.41306000  1.0
  C  C71  1  0.99457000  0.16822000  0.58704000  1.0
  C  C72  1  0.40111000  0.34842000  0.54821000  1.0
  C  C73  1  0.09880000  0.89638000  0.45166000  1.0
  C  C74  1  0.59888000  0.65157000  0.45180000  1.0
  C  C75  1  0.90117000  0.10364000  0.54833000  1.0
  C  C76  1  0.34284000  0.36871000  0.47480000  1.0
  C  C77  1  0.15703000  0.84345000  0.52510000  1.0
  C  C78  1  0.65714000  0.63129000  0.52520000  1.0
  C  C79  1  0.84294000  0.15658000  0.47490000  1.0
  C  C80  1  0.22706000  0.46580000  0.44111000  1.0
  C  C81  1  0.27293000  0.90691000  0.55870000  1.0
  C  C82  1  0.77294000  0.53421000  0.55888000  1.0
  C  C83  1  0.72707000  0.09311000  0.44130000  1.0
  C  C84  1  0.15449000  0.49213000  0.36706000  1.0
  C  C85  1  0.34555000  0.85935000  0.63275000  1.0
  C  C86  1  0.84552000  0.50788000  0.63294000  1.0
  C  C87  1  0.65446000  0.14065000  0.36725000  1.0
  O  O88  1  0.28602000  0.15905000  0.83401000  1.0
  O  O89  1  0.21404000  0.99267000  0.16604000  1.0
  O  O90  1  0.71398000  0.84092000  0.16599000  1.0
  O  O91  1  0.78595000  0.00733000  0.83396000  1.0
  O  O92  1  0.37587000  0.34117000  0.84665000  1.0
  O  O93  1  0.12510000  0.18762000  0.15337000  1.0
  O  O94  1  0.62415000  0.65880000  0.15336000  1.0
  O  O95  1  0.87492000  0.81238000  0.84663000  1.0
  O  O96  1  0.50743000  0.30289000  0.69673000  1.0
  O  O97  1  0.99282000  0.99914000  0.30319000  1.0
  O  O98  1  0.49259000  0.69712000  0.30327000  1.0
  O  O99  1  0.00718000  0.00087000  0.69680000  1.0
  O  O100  1  0.64334000  0.12361000  0.69185000  1.0
  O  O101  1  0.85610000  0.81526000  0.30807000  1.0
  O  O102  1  0.35667000  0.87639000  0.30815000  1.0
  O  O103  1  0.14393000  0.18475000  0.69192000  1.0
  O  O104  1  0.00847000  0.56662000  0.35139000  1.0
  O  O105  1  0.49156000  0.91819000  0.64839000  1.0
  O  O106  1  0.99154000  0.43339000  0.64861000  1.0
  O  O107  1  0.50846000  0.08182000  0.35160000  1.0
  O  O108  1  0.23873000  0.44103000  0.32210000  1.0
  O  O109  1  0.26126000  0.76341000  0.67776000  1.0
  O  O110  1  0.76128000  0.55898000  0.67790000  1.0
  O  O111  1  0.73877000  0.23660000  0.32224000  1.0
  O  O112  1  0.35740000  0.52705000  0.68871000  1.0
  O  O113  1  0.14247000  0.21545000  0.31134000  1.0
  O  O114  1  0.64262000  0.47295000  0.31131000  1.0
  O  O115  1  0.85754000  0.78455000  0.68866000  1.0
  O  O116  1  0.01326000  0.48494000  0.78913000  1.0
  O  O117  1  0.48658000  0.27396000  0.21109000  1.0
  O  O118  1  0.98675000  0.51507000  0.21087000  1.0
  O  O119  1  0.51344000  0.72605000  0.78891000  1.0
  O  O120  1  0.87365000  0.25249000  0.79028000  1.0
  O  O121  1  0.62658000  0.04254000  0.20969000  1.0
  O  O122  1  0.12635000  0.74751000  0.20972000  1.0
  O  O123  1  0.37342000  0.95746000  0.79030000  1.0
