# generated using pymatgen
data_AlH11(C2O)8
_symmetry_space_group_name_H-M   'P 1'
_cell_length_a   6.69449000
_cell_length_b   20.42590000
_cell_length_c   24.22170000
_cell_angle_alpha   102.58400000
_cell_angle_beta   89.99850000
_cell_angle_gamma   89.99980000
_symmetry_Int_Tables_number   1
_chemical_formula_structural   AlH11(C2O)8
_chemical_formula_sum   'Al4 H44 C64 O32'
_cell_volume   3232.53464061
_cell_formula_units_Z   4
loop_
 _symmetry_equiv_pos_site_id
 _symmetry_equiv_pos_as_xyz
  1  'x, y, z'
loop_
 _atom_site_type_symbol
 _atom_site_label
 _atom_site_symmetry_multiplicity
 _atom_site_fract_x
 _atom_site_fract_y
 _atom_site_fract_z
 _atom_site_occupancy
  Al  Al0  1  0.29218000  0.25382000  0.25080000  1.0
  Al  Al1  1  0.70505000  0.74677000  0.75023000  1.0
  Al  Al2  1  0.79216000  0.24617000  0.24919000  1.0
  Al  Al3  1  0.20505000  0.75322000  0.74977000  1.0
  H  H4  1  0.28442000  0.51664000  0.89390000  1.0
  H  H5  1  0.73481000  0.47304000  0.08825000  1.0
  H  H6  1  0.78445000  0.98337000  0.60612000  1.0
  H  H7  1  0.23488000  0.02697000  0.41177000  1.0
  H  H8  1  0.71509000  0.67567000  0.90818000  1.0
  H  H9  1  0.30287000  0.32099000  0.10135000  1.0
  H  H10  1  0.21506000  0.82434000  0.59181000  1.0
  H  H11  1  0.80284000  0.17901000  0.39863000  1.0
  H  H12  1  0.57385000  0.64023000  0.81979000  1.0
  H  H13  1  0.42929000  0.43254000  0.18992000  1.0
  H  H14  1  0.07386000  0.85976000  0.68021000  1.0
  H  H15  1  0.92933000  0.06736000  0.31008000  1.0
  H  H16  1  0.52341000  0.65087000  0.04077000  1.0
  H  H17  1  0.67056000  0.70023000  0.00387000  1.0
  H  H18  1  0.83273000  0.61899000  0.08696000  1.0
  H  H19  1  0.97970000  0.66771000  0.05059000  1.0
  H  H20  1  0.79899000  0.77294000  0.10084000  1.0
  H  H21  1  0.91037000  0.73108000  0.14999000  1.0
  H  H22  1  0.64959000  0.72418000  0.13729000  1.0
  H  H23  1  0.40983000  0.36848000  0.93563000  1.0
  H  H24  1  0.14803000  0.36448000  0.94720000  1.0
  H  H25  1  0.45838000  0.26047000  0.96595000  1.0
  H  H26  1  0.20074000  0.25669000  0.98086000  1.0
  H  H27  1  0.11725000  0.24775000  0.87794000  1.0
  H  H28  1  0.28373000  0.18284000  0.88594000  1.0
  H  H29  1  0.37485000  0.25333000  0.86203000  1.0
  H  H30  1  0.02344000  0.84915000  0.45925000  1.0
  H  H31  1  0.17061000  0.79980000  0.49615000  1.0
  H  H32  1  0.33278000  0.88102000  0.41305000  1.0
  H  H33  1  0.47973000  0.83231000  0.44941000  1.0
  H  H34  1  0.29899000  0.72707000  0.39918000  1.0
  H  H35  1  0.41035000  0.76892000  0.35002000  1.0
  H  H36  1  0.14958000  0.77583000  0.36273000  1.0
  H  H37  1  0.90984000  0.13153000  0.56436000  1.0
  H  H38  1  0.64803000  0.13554000  0.55278000  1.0
  H  H39  1  0.95840000  0.23955000  0.53404000  1.0
  H  H40  1  0.70076000  0.24333000  0.51914000  1.0
  H  H41  1  0.61727000  0.25226000  0.62206000  1.0
  H  H42  1  0.78374000  0.31718000  0.61407000  1.0
  H  H43  1  0.87488000  0.24668000  0.63797000  1.0
  H  H44  1  0.56056000  0.33869000  0.26103000  1.0
  H  H45  1  0.43809000  0.66112000  0.73196000  1.0
  H  H46  1  0.06056000  0.16130000  0.23901000  1.0
  H  H47  1  0.93808000  0.83887000  0.76804000  1.0
  C  C48  1  0.53557000  0.16121000  0.16596000  1.0
  C  C49  1  0.45975000  0.83972000  0.83280000  1.0
  C  C50  1  0.03552000  0.33878000  0.33403000  1.0
  C  C51  1  0.95978000  0.66027000  0.66720000  1.0
  C  C52  1  0.53542000  0.17961000  0.31775000  1.0
  C  C53  1  0.46240000  0.81880000  0.67938000  1.0
  C  C54  1  0.03541000  0.32038000  0.18224000  1.0
  C  C55  1  0.96245000  0.68120000  0.82061000  1.0
  C  C56  1  0.15788000  0.55060000  0.89579000  1.0
  C  C57  1  0.85878000  0.43953000  0.09142000  1.0
  C  C58  1  0.65791000  0.94941000  0.60421000  1.0
  C  C59  1  0.35883000  0.06047000  0.40860000  1.0
  C  C60  1  0.14679000  0.59414000  0.85905000  1.0
  C  C61  1  0.86516000  0.40609000  0.13582000  1.0
  C  C62  1  0.64680000  0.90586000  0.64095000  1.0
  C  C63  1  0.36516000  0.09391000  0.36419000  1.0
  C  C64  1  0.98222000  0.63802000  0.86247000  1.0
  C  C65  1  0.02732000  0.36286000  0.13929000  1.0
  C  C66  1  0.48221000  0.86197000  0.63752000  1.0
  C  C67  1  0.52730000  0.13714000  0.36070000  1.0
  C  C68  1  0.83886000  0.64058000  0.90479000  1.0
  C  C69  1  0.17890000  0.35469000  0.09889000  1.0
  C  C70  1  0.33888000  0.85942000  0.59521000  1.0
  C  C71  1  0.67888000  0.14532000  0.40110000  1.0
  C  C72  1  0.84985000  0.59733000  0.94188000  1.0
  C  C73  1  0.17495000  0.38885000  0.05495000  1.0
  C  C74  1  0.34989000  0.90268000  0.55812000  1.0
  C  C75  1  0.67498000  0.11116000  0.44505000  1.0
  C  C76  1  0.00877000  0.55044000  0.93700000  1.0
  C  C77  1  0.01358000  0.43271000  0.05096000  1.0
  C  C78  1  0.50881000  0.94957000  0.56300000  1.0
  C  C79  1  0.51364000  0.06731000  0.44905000  1.0
  C  C80  1  0.01591000  0.50681000  0.97474000  1.0
  C  C81  1  0.01272000  0.47147000  0.00938000  1.0
  C  C82  1  0.51594000  0.99321000  0.52528000  1.0
  C  C83  1  0.51278000  0.02856000  0.49063000  1.0
  C  C84  1  0.96554000  0.60970000  0.61572000  1.0
  C  C85  1  0.02603000  0.38871000  0.38615000  1.0
  C  C86  1  0.46551000  0.89029000  0.88428000  1.0
  C  C87  1  0.52605000  0.11127000  0.11385000  1.0
  C  C88  1  0.97649000  0.56698000  0.57158000  1.0
  C  C89  1  0.01474000  0.43105000  0.43050000  1.0
  C  C90  1  0.47645000  0.93302000  0.92842000  1.0
  C  C91  1  0.51473000  0.06894000  0.06949000  1.0
  C  C92  1  0.98910000  0.52023000  0.52340000  1.0
  C  C93  1  0.00165000  0.47742000  0.47892000  1.0
  C  C94  1  0.48908000  0.97977000  0.97660000  1.0
  C  C95  1  0.50162000  0.02257000  0.02107000  1.0
  C  C96  1  0.31297000  0.59685000  0.81767000  1.0
  C  C97  1  0.70871000  0.42021000  0.18073000  1.0
  C  C98  1  0.81295000  0.90314000  0.68233000  1.0
  C  C99  1  0.20872000  0.07978000  0.31928000  1.0
  C  C100  1  0.67310000  0.65648000  0.02371000  1.0
  C  C101  1  0.83172000  0.66465000  0.06982000  1.0
  C  C102  1  0.79554000  0.72662000  0.11697000  1.0
  C  C103  1  0.29511000  0.34912000  0.96036000  1.0
  C  C104  1  0.30900000  0.27330000  0.95249000  1.0
  C  C105  1  0.26897000  0.23738000  0.89125000  1.0
  C  C106  1  0.17313000  0.84353000  0.47629000  1.0
  C  C107  1  0.33175000  0.83536000  0.43018000  1.0
  C  C108  1  0.29554000  0.77339000  0.38304000  1.0
  C  C109  1  0.79514000  0.15090000  0.53963000  1.0
  C  C110  1  0.80902000  0.22672000  0.54751000  1.0
  C  C111  1  0.76899000  0.26263000  0.60875000  1.0
  O  O112  1  0.70803000  0.19001000  0.29898000  1.0
  O  O113  1  0.28610000  0.80769000  0.69642000  1.0
  O  O114  1  0.20806000  0.30996000  0.20100000  1.0
  O  O115  1  0.78611000  0.69230000  0.80357000  1.0
  O  O116  1  0.36885000  0.18451000  0.18638000  1.0
  O  O117  1  0.62775000  0.81574000  0.81369000  1.0
  O  O118  1  0.86882000  0.31547000  0.31363000  1.0
  O  O119  1  0.12777000  0.68426000  0.68631000  1.0
  O  O120  1  0.37108000  0.20299000  0.30475000  1.0
  O  O121  1  0.62327000  0.79739000  0.69637000  1.0
  O  O122  1  0.87111000  0.29702000  0.19525000  1.0
  O  O123  1  0.12328000  0.70259000  0.80363000  1.0
  O  O124  1  0.20885000  0.32340000  0.31384000  1.0
  O  O125  1  0.78870000  0.67634000  0.68897000  1.0
  O  O126  1  0.70888000  0.17660000  0.18614000  1.0
  O  O127  1  0.28868000  0.82365000  0.81104000  1.0
  O  O128  1  0.54629000  0.29018000  0.25301000  1.0
  O  O129  1  0.45138000  0.70926000  0.74687000  1.0
  O  O130  1  0.04629000  0.20982000  0.24698000  1.0
  O  O131  1  0.95138000  0.79073000  0.75312000  1.0
  O  O132  1  0.30796000  0.57320000  0.76672000  1.0
  O  O133  1  0.46924000  0.62942000  0.84564000  1.0
  O  O134  1  0.73754000  0.42763000  0.23162000  1.0
  O  O135  1  0.52488000  0.42591000  0.15851000  1.0
  O  O136  1  0.80795000  0.92679000  0.73329000  1.0
  O  O137  1  0.96923000  0.87058000  0.65436000  1.0
  O  O138  1  0.23751000  0.07239000  0.26839000  1.0
  O  O139  1  0.02492000  0.07401000  0.34151000  1.0
  O  O140  1  0.70470000  0.59561000  0.98127000  1.0
  O  O141  1  0.33378000  0.38209000  0.01883000  1.0
  O  O142  1  0.20474000  0.90441000  0.51874000  1.0
  O  O143  1  0.83381000  0.11795000  0.48116000  1.0
