# generated using pymatgen
data_KH16C15NO3
_symmetry_space_group_name_H-M   'P 1'
_cell_length_a   6.97725000
_cell_length_b   7.01840000
_cell_length_c   16.03660000
_cell_angle_alpha   94.99250000
_cell_angle_beta   96.01930000
_cell_angle_gamma   114.17500000
_symmetry_Int_Tables_number   1
_chemical_formula_structural   KH16C15NO3
_chemical_formula_sum   'K2 H32 C30 N2 O6'
_cell_volume   705.12843199
_cell_formula_units_Z   2
loop_
 _symmetry_equiv_pos_site_id
 _symmetry_equiv_pos_as_xyz
  1  'x, y, z'
loop_
 _atom_site_type_symbol
 _atom_site_label
 _atom_site_symmetry_multiplicity
 _atom_site_fract_x
 _atom_site_fract_y
 _atom_site_fract_z
 _atom_site_occupancy
  K  K0  1  0.17635000  0.38114000  0.46123000  1.0
  K  K1  1  0.82365000  0.61887000  0.53877000  1.0
  H  H2  1  0.60679000  0.85494000  0.42934000  1.0
  H  H3  1  0.39320000  0.14506000  0.57066000  1.0
  H  H4  1  0.57380000  0.64667000  0.37128000  1.0
  H  H5  1  0.42619000  0.35333000  0.62872000  1.0
  H  H6  1  0.17894000  0.30666000  0.19009000  1.0
  H  H7  1  0.82105000  0.69333000  0.80991000  1.0
  H  H8  1  0.88819000  0.99050000  0.22425000  1.0
  H  H9  1  0.11180000  0.00951000  0.77575000  1.0
  H  H10  1  0.96448000  0.79022000  0.33619000  1.0
  H  H11  1  0.03551000  0.20979000  0.66382000  1.0
  H  H12  1  0.33279000  0.90727000  0.40830000  1.0
  H  H13  1  0.66721000  0.09274000  0.59170000  1.0
  H  H14  1  0.72909000  0.48884000  0.29506000  1.0
  H  H15  1  0.27091000  0.51116000  0.70493000  1.0
  H  H16  1  0.60874000  0.94167000  0.02212000  1.0
  H  H17  1  0.39127000  0.05833000  0.97787000  1.0
  H  H18  1  0.38705000  0.93846000  0.13562000  1.0
  H  H19  1  0.61296000  0.06154000  0.86437000  1.0
  H  H20  1  0.37294000  0.71470000  0.24873000  1.0
  H  H21  1  0.62706000  0.28530000  0.75127000  1.0
  H  H22  1  0.98948000  0.54562000  0.15087000  1.0
  H  H23  1  0.01052000  0.45438000  0.84913000  1.0
  H  H24  1  0.79800000  0.36722000  0.06702000  1.0
  H  H25  1  0.20201000  0.63278000  0.93298000  1.0
  H  H26  1  0.76605000  0.32934000  0.17362000  1.0
  H  H27  1  0.23396000  0.67066000  0.82638000  1.0
  H  H28  1  0.83882000  0.83135000  0.95801000  1.0
  H  H29  1  0.16119000  0.16865000  0.04199000  1.0
  H  H30  1  0.78354000  0.56202000  0.96227000  1.0
  H  H31  1  0.21647000  0.43798000  0.03773000  1.0
  H  H32  1  0.00749000  0.76205000  0.02803000  1.0
  H  H33  1  0.99252000  0.23794000  0.97197000  1.0
  C  C34  1  0.68846000  0.23502000  0.38795000  1.0
  C  C35  1  0.31154000  0.76498000  0.61206000  1.0
  C  C36  1  0.46824000  0.17133000  0.34124000  1.0
  C  C37  1  0.53175000  0.82868000  0.65876000  1.0
  C  C38  1  0.42252000  0.28976000  0.28007000  1.0
  C  C39  1  0.57748000  0.71024000  0.71992000  1.0
  C  C40  1  0.21260000  0.21805000  0.23753000  1.0
  C  C41  1  0.78739000  0.78195000  0.76247000  1.0
  C  C42  1  0.04945000  0.03996000  0.25700000  1.0
  C  C43  1  0.95054000  0.96005000  0.74301000  1.0
  C  C44  1  0.09144000  0.92661000  0.31875000  1.0
  C  C45  1  0.90855000  0.07339000  0.68125000  1.0
  C  C46  1  0.29915000  0.99245000  0.35942000  1.0
  C  C47  1  0.70085000  0.00756000  0.64059000  1.0
  C  C48  1  0.57526000  0.58601000  0.19659000  1.0
  C  C49  1  0.42474000  0.41399000  0.80341000  1.0
  C  C50  1  0.69641000  0.58274000  0.13193000  1.0
  C  C51  1  0.30359000  0.41726000  0.86807000  1.0
  C  C52  1  0.70754000  0.71327000  0.06871000  1.0
  C  C53  1  0.29246000  0.28673000  0.93129000  1.0
  C  C54  1  0.59534000  0.83900000  0.07057000  1.0
  C  C55  1  0.40467000  0.16100000  0.92942000  1.0
  C  C56  1  0.47139000  0.83739000  0.13378000  1.0
  C  C57  1  0.52862000  0.16260000  0.86622000  1.0
  C  C58  1  0.46182000  0.71113000  0.19705000  1.0
  C  C59  1  0.53818000  0.28887000  0.80294000  1.0
  C  C60  1  0.81775000  0.44863000  0.13112000  1.0
  C  C61  1  0.18225000  0.55137000  0.86888000  1.0
  C  C62  1  0.84103000  0.71816000  0.00063000  1.0
  C  C63  1  0.15897000  0.28183000  0.99937000  1.0
  N  N64  1  0.58321000  0.47551000  0.26591000  1.0
  N  N65  1  0.41679000  0.52449000  0.73408000  1.0
  O  O66  1  0.83532000  0.41547000  0.37990000  1.0
  O  O67  1  0.16467000  0.58453000  0.62010000  1.0
  O  O68  1  0.72532000  0.11410000  0.43560000  1.0
  O  O69  1  0.27468000  0.88590000  0.56440000  1.0
  O  O70  1  0.55153000  0.69739000  0.42697000  1.0
  O  O71  1  0.44847000  0.30261000  0.57303000  1.0
