# generated using pymatgen
data_ZnH12C19N2O5
_symmetry_space_group_name_H-M   'P 1'
_cell_length_a   9.80414000
_cell_length_b   10.20010000
_cell_length_c   23.03800000
_cell_angle_alpha   94.14790000
_cell_angle_beta   89.99990000
_cell_angle_gamma   89.99990000
_symmetry_Int_Tables_number   1
_chemical_formula_structural   ZnH12C19N2O5
_chemical_formula_sum   'Zn4 H48 C76 N8 O20'
_cell_volume   2297.83929002
_cell_formula_units_Z   4
loop_
 _symmetry_equiv_pos_site_id
 _symmetry_equiv_pos_as_xyz
  1  'x, y, z'
loop_
 _atom_site_type_symbol
 _atom_site_label
 _atom_site_symmetry_multiplicity
 _atom_site_fract_x
 _atom_site_fract_y
 _atom_site_fract_z
 _atom_site_occupancy
  Zn  Zn0  1  0.87368000  0.43784000  0.48872000  1.0
  Zn  Zn1  1  0.37369000  0.06217000  0.01128000  1.0
  Zn  Zn2  1  0.12631000  0.56217000  0.51129000  1.0
  Zn  Zn3  1  0.62631000  0.93783000  0.98872000  1.0
  H  H4  1  0.52459000  0.54417000  0.04659000  1.0
  H  H5  1  0.02459000  0.95583000  0.45341000  1.0
  H  H6  1  0.47541000  0.45582000  0.95341000  1.0
  H  H7  1  0.97540000  0.04417000  0.54659000  1.0
  H  H8  1  0.35414000  0.48753000  0.23228000  1.0
  H  H9  1  0.85414000  0.01247000  0.26772000  1.0
  H  H10  1  0.64587000  0.51248000  0.76772000  1.0
  H  H11  1  0.14586000  0.98752000  0.73228000  1.0
  H  H12  1  0.17002000  0.76496000  0.10303000  1.0
  H  H13  1  0.67002000  0.73504000  0.39697000  1.0
  H  H14  1  0.82998000  0.23503000  0.89697000  1.0
  H  H15  1  0.32997000  0.26496000  0.60303000  1.0
  H  H16  1  0.99968000  0.24111000  0.20486000  1.0
  H  H17  1  0.49966000  0.25888000  0.29514000  1.0
  H  H18  1  0.00033000  0.75888000  0.79514000  1.0
  H  H19  1  0.50033000  0.74111000  0.70486000  1.0
  H  H20  1  0.43553000  0.34768000  0.09468000  1.0
  H  H21  1  0.93553000  0.15232000  0.40532000  1.0
  H  H22  1  0.56448000  0.65232000  0.90532000  1.0
  H  H23  1  0.06447000  0.84767000  0.59468000  1.0
  H  H24  1  0.94194000  0.27794000  0.31089000  1.0
  H  H25  1  0.44192000  0.22206000  0.18912000  1.0
  H  H26  1  0.05808000  0.72205000  0.68912000  1.0
  H  H27  1  0.55808000  0.77794000  0.81088000  1.0
  H  H28  1  0.75555000  0.18952000  0.51837000  1.0
  H  H29  1  0.25554000  0.31048000  0.98163000  1.0
  H  H30  1  0.24445000  0.81048000  0.48163000  1.0
  H  H31  1  0.74446000  0.68952000  0.01837000  1.0
  H  H32  1  0.29730000  0.52037000  0.33814000  1.0
  H  H33  1  0.79728000  0.97964000  0.16186000  1.0
  H  H34  1  0.70271000  0.47964000  0.66187000  1.0
  H  H35  1  0.20271000  0.02036000  0.83813000  1.0
  H  H36  1  0.37473000  0.39509000  0.41935000  1.0
  H  H37  1  0.87473000  0.10491000  0.08065000  1.0
  H  H38  1  0.62527000  0.60491000  0.58064000  1.0
  H  H39  1  0.12527000  0.89509000  0.91935000  1.0
  H  H40  1  0.08465000  0.57233000  0.15412000  1.0
  H  H41  1  0.58465000  0.92766000  0.34588000  1.0
  H  H42  1  0.91535000  0.42766000  0.84588000  1.0
  H  H43  1  0.41534000  0.07233000  0.65412000  1.0
  H  H44  1  0.60668000  0.50145000  0.43181000  1.0
  H  H45  1  0.10668000  0.99854000  0.06819000  1.0
  H  H46  1  0.39332000  0.49855000  0.56820000  1.0
  H  H47  1  0.89332000  0.00145000  0.93180000  1.0
  H  H48  1  0.34158000  0.16907000  0.45504000  1.0
  H  H49  1  0.84158000  0.33093000  0.04496000  1.0
  H  H50  1  0.65841000  0.83093000  0.54496000  1.0
  H  H51  1  0.15842000  0.66907000  0.95504000  1.0
  C  C52  1  0.11675000  0.40026000  0.33110000  1.0
  C  C53  1  0.61673000  0.09975000  0.16890000  1.0
  C  C54  1  0.88327000  0.59975000  0.66890000  1.0
  C  C55  1  0.38327000  0.90025000  0.83110000  1.0
  C  C56  1  0.42756000  0.54934000  0.06963000  1.0
  C  C57  1  0.92756000  0.95067000  0.43037000  1.0
  C  C58  1  0.57244000  0.45066000  0.93037000  1.0
  C  C59  1  0.07244000  0.04934000  0.56963000  1.0
  C  C60  1  0.40496000  0.78440000  0.04320000  1.0
  C  C61  1  0.90497000  0.71561000  0.45680000  1.0
  C  C62  1  0.59504000  0.21560000  0.95680000  1.0
  C  C63  1  0.09502000  0.28439000  0.54320000  1.0
  C  C64  1  0.26505000  0.44047000  0.24996000  1.0
  C  C65  1  0.76503000  0.05954000  0.25004000  1.0
  C  C66  1  0.73496000  0.55953000  0.75004000  1.0
  C  C67  1  0.23496000  0.94046000  0.74996000  1.0
  C  C68  1  0.22830000  0.67395000  0.10189000  1.0
  C  C69  1  0.72831000  0.82605000  0.39811000  1.0
  C  C70  1  0.77170000  0.32604000  0.89810000  1.0
  C  C71  1  0.27169000  0.17395000  0.60190000  1.0
  C  C72  1  0.35280000  0.66677000  0.07174000  1.0
  C  C73  1  0.85281000  0.83324000  0.42826000  1.0
  C  C74  1  0.64720000  0.33323000  0.92826000  1.0
  C  C75  1  0.14718000  0.16676000  0.57174000  1.0
  C  C76  1  0.06497000  0.30086000  0.23453000  1.0
  C  C77  1  0.56495000  0.19915000  0.26547000  1.0
  C  C78  1  0.93505000  0.69915000  0.76547000  1.0
  C  C79  1  0.43505000  0.80085000  0.73453000  1.0
  C  C80  1  0.17968000  0.36249000  0.21291000  1.0
  C  C81  1  0.67968000  0.13751000  0.28709000  1.0
  C  C82  1  0.82032000  0.63751000  0.78709000  1.0
  C  C83  1  0.32032000  0.86249000  0.71291000  1.0
  C  C84  1  0.37982000  0.44041000  0.09679000  1.0
  C  C85  1  0.87982000  0.05959000  0.40321000  1.0
  C  C86  1  0.62018000  0.55959000  0.90321000  1.0
  C  C87  1  0.12017000  0.94040000  0.59679000  1.0
  C  C88  1  0.03356000  0.32102000  0.29346000  1.0
  C  C89  1  0.53355000  0.17898000  0.20654000  1.0
  C  C90  1  0.96645000  0.67898000  0.70654000  1.0
  C  C91  1  0.46645000  0.82102000  0.79346000  1.0
  C  C92  1  0.54800000  0.16195000  0.48762000  1.0
  C  C93  1  0.04799000  0.33804000  0.01238000  1.0
  C  C94  1  0.45200000  0.83804000  0.51238000  1.0
  C  C95  1  0.95200000  0.66196000  0.98762000  1.0
  C  C96  1  0.07876000  0.42781000  0.39359000  1.0
  C  C97  1  0.57874000  0.07220000  0.10641000  1.0
  C  C98  1  0.92127000  0.57220000  0.60642000  1.0
  C  C99  1  0.42125000  0.92780000  0.89359000  1.0
  C  C100  1  0.25716000  0.45118000  0.12744000  1.0
  C  C101  1  0.75716000  0.04881000  0.37256000  1.0
  C  C102  1  0.74285000  0.54881000  0.87256000  1.0
  C  C103  1  0.24284000  0.95118000  0.62744000  1.0
  C  C104  1  0.67000000  0.23133000  0.49576000  1.0
  C  C105  1  0.17000000  0.26867000  0.00424000  1.0
  C  C106  1  0.33000000  0.76867000  0.50424000  1.0
  C  C107  1  0.83000000  0.73133000  0.99576000  1.0
  C  C108  1  0.23337000  0.45844000  0.30878000  1.0
  C  C109  1  0.73336000  0.04157000  0.19122000  1.0
  C  C110  1  0.76664000  0.54157000  0.69122000  1.0
  C  C111  1  0.26663000  0.95844000  0.80878000  1.0
  C  C112  1  0.45822000  0.34415000  0.43949000  1.0
  C  C113  1  0.95822000  0.15585000  0.06051000  1.0
  C  C114  1  0.54178000  0.65585000  0.56051000  1.0
  C  C115  1  0.04178000  0.84415000  0.93949000  1.0
  C  C116  1  0.18054000  0.56716000  0.13010000  1.0
  C  C117  1  0.68055000  0.93284000  0.36990000  1.0
  C  C118  1  0.81946000  0.43284000  0.86990000  1.0
  C  C119  1  0.31945000  0.06716000  0.63010000  1.0
  C  C120  1  0.58513000  0.40488000  0.44707000  1.0
  C  C121  1  0.08513000  0.09512000  0.05293000  1.0
  C  C122  1  0.41488000  0.59513000  0.55293000  1.0
  C  C123  1  0.91487000  0.90487000  0.94707000  1.0
  C  C124  1  0.43878000  0.22036000  0.45968000  1.0
  C  C125  1  0.93878000  0.27964000  0.04031000  1.0
  C  C126  1  0.56122000  0.77964000  0.54031000  1.0
  C  C127  1  0.06122000  0.72036000  0.95969000  1.0
  N  N128  1  0.68844000  0.34938000  0.47508000  1.0
  N  N129  1  0.18843000  0.15061000  0.02492000  1.0
  N  N130  1  0.31156000  0.65062000  0.52492000  1.0
  N  N131  1  0.81156000  0.84939000  0.97508000  1.0
  N  N132  1  0.54783000  0.03682000  0.50971000  1.0
  N  N133  1  0.04783000  0.46317000  0.99029000  1.0
  N  N134  1  0.45216000  0.96317000  0.49029000  1.0
  N  N135  1  0.95216000  0.53683000  0.00971000  1.0
  O  O136  1  0.20851000  0.34212000  0.15410000  1.0
  O  O137  1  0.70850000  0.15788000  0.34590000  1.0
  O  O138  1  0.79151000  0.65788000  0.84590000  1.0
  O  O139  1  0.29150000  0.84212000  0.65410000  1.0
  O  O140  1  0.52587000  0.77912000  0.02288000  1.0
  O  O141  1  0.02588000  0.72089000  0.47713000  1.0
  O  O142  1  0.47413000  0.22088000  0.97712000  1.0
  O  O143  1  0.97411000  0.27911000  0.52288000  1.0
  O  O144  1  0.32408000  0.88212000  0.04146000  1.0
  O  O145  1  0.82408000  0.61789000  0.45854000  1.0
  O  O146  1  0.67592000  0.11788000  0.95854000  1.0
  O  O147  1  0.17590000  0.38210000  0.54146000  1.0
  O  O148  1  0.16425000  0.49223000  0.42634000  1.0
  O  O149  1  0.66424000  0.00778000  0.07366000  1.0
  O  O150  1  0.83576000  0.50777000  0.57366000  1.0
  O  O151  1  0.33576000  0.99222000  0.92634000  1.0
  O  O152  1  0.96320000  0.38642000  0.40972000  1.0
  O  O153  1  0.46319000  0.11359000  0.09028000  1.0
  O  O154  1  0.03680000  0.61359000  0.59029000  1.0
  O  O155  1  0.53680000  0.88641000  0.90971000  1.0
