# generated using pymatgen
data_AgH9C12(NO2)2
_symmetry_space_group_name_H-M   'P 1'
_cell_length_a   7.30594000
_cell_length_b   7.30592000
_cell_length_c   12.17730000
_cell_angle_alpha   75.23240000
_cell_angle_beta   75.23220000
_cell_angle_gamma   64.86630000
_symmetry_Int_Tables_number   1
_chemical_formula_structural   AgH9C12(NO2)2
_chemical_formula_sum   'Ag2 H18 C24 N4 O8'
_cell_volume   560.96488121
_cell_formula_units_Z   2
loop_
 _symmetry_equiv_pos_site_id
 _symmetry_equiv_pos_as_xyz
  1  'x, y, z'
loop_
 _atom_site_type_symbol
 _atom_site_label
 _atom_site_symmetry_multiplicity
 _atom_site_fract_x
 _atom_site_fract_y
 _atom_site_fract_z
 _atom_site_occupancy
  Ag  Ag0  1  0.00000000  0.00001000  0.00000000  1.0
  Ag  Ag1  1  0.00000000  0.00000000  0.50000000  1.0
  H  H2  1  0.52361000  0.65961000  0.17746000  1.0
  H  H3  1  0.65961000  0.52360000  0.67746000  1.0
  H  H4  1  0.47639000  0.34039000  0.82254000  1.0
  H  H5  1  0.34039000  0.47639000  0.32254000  1.0
  H  H6  1  0.65717000  0.28524000  0.15705000  1.0
  H  H7  1  0.28525000  0.65717000  0.65705000  1.0
  H  H8  1  0.34283000  0.71476000  0.84294000  1.0
  H  H9  1  0.71476000  0.34283000  0.34295000  1.0
  H  H10  1  0.96099000  0.40096000  0.82599000  1.0
  H  H11  1  0.40097000  0.96098000  0.32600000  1.0
  H  H12  1  0.03902000  0.59904000  0.17401000  1.0
  H  H13  1  0.59903000  0.03901000  0.67401000  1.0
  H  H14  1  0.63684000  0.89889000  0.01734000  1.0
  H  H15  1  0.89889000  0.63683000  0.51734000  1.0
  H  H16  1  0.36316000  0.10111000  0.98266000  1.0
  H  H17  1  0.10111000  0.36316000  0.48266000  1.0
  H  H18  1  0.91761000  0.08236000  0.75001000  1.0
  H  H19  1  0.08237000  0.91763000  0.25000000  1.0
  C  C20  1  0.62197000  0.60502000  0.09918000  1.0
  C  C21  1  0.60502000  0.62196000  0.59918000  1.0
  C  C22  1  0.37803000  0.39498000  0.90082000  1.0
  C  C23  1  0.39498000  0.37803000  0.40082000  1.0
  C  C24  1  0.69362000  0.39991000  0.08841000  1.0
  C  C25  1  0.39991000  0.69361000  0.58841000  1.0
  C  C26  1  0.30638000  0.60010000  0.91159000  1.0
  C  C27  1  0.60009000  0.30638000  0.41159000  1.0
  C  C28  1  0.86375000  0.46153000  0.90295000  1.0
  C  C29  1  0.46153000  0.86375000  0.40295000  1.0
  C  C30  1  0.13625000  0.53848000  0.09705000  1.0
  C  C31  1  0.53847000  0.13625000  0.59705000  1.0
  C  C32  1  0.79784000  0.66973000  0.90682000  1.0
  C  C33  1  0.66973000  0.79784000  0.40682000  1.0
  C  C34  1  0.20216000  0.33027000  0.09318000  1.0
  C  C35  1  0.33027000  0.20216000  0.59318000  1.0
  C  C36  1  0.67996000  0.74069000  0.00868000  1.0
  C  C37  1  0.74069000  0.67996000  0.50869000  1.0
  C  C38  1  0.32004000  0.25931000  0.99131000  1.0
  C  C39  1  0.25931000  0.32003000  0.49131000  1.0
  C  C40  1  0.86608000  0.80507000  0.80429000  1.0
  C  C41  1  0.80507000  0.86608000  0.30430000  1.0
  C  C42  1  0.13392000  0.19494000  0.19571000  1.0
  C  C43  1  0.19493000  0.13392000  0.69571000  1.0
  N  N44  1  0.81768000  0.32780000  0.99264000  1.0
  N  N45  1  0.32780000  0.81768000  0.49265000  1.0
  N  N46  1  0.18231000  0.67220000  0.00735000  1.0
  N  N47  1  0.67220000  0.18232000  0.50735000  1.0
  O  O48  1  0.95876000  0.73637000  0.71299000  1.0
  O  O49  1  0.73636000  0.95876000  0.21300000  1.0
  O  O50  1  0.04124000  0.26365000  0.28700000  1.0
  O  O51  1  0.26364000  0.04124000  0.78700000  1.0
  O  O52  1  0.82156000  0.99022000  0.82079000  1.0
  O  O53  1  0.99022000  0.82157000  0.32079000  1.0
  O  O54  1  0.17843000  0.00979000  0.17921000  1.0
  O  O55  1  0.00979000  0.17844000  0.67921000  1.0
