# generated using pymatgen
data_NdH19C27O8
_symmetry_space_group_name_H-M   'P 1'
_cell_length_a   8.55067000
_cell_length_b   13.23690000
_cell_length_c   15.45440000
_cell_angle_alpha   104.14300000
_cell_angle_beta   92.96880000
_cell_angle_gamma   101.30300000
_symmetry_Int_Tables_number   1
_chemical_formula_structural   NdH19C27O8
_chemical_formula_sum   'Nd2 H38 C54 O16'
_cell_volume   1654.11327561
_cell_formula_units_Z   2
loop_
 _symmetry_equiv_pos_site_id
 _symmetry_equiv_pos_as_xyz
  1  'x, y, z'
loop_
 _atom_site_type_symbol
 _atom_site_label
 _atom_site_symmetry_multiplicity
 _atom_site_fract_x
 _atom_site_fract_y
 _atom_site_fract_z
 _atom_site_occupancy
  Nd  Nd0  1  0.08847000  0.16462000  0.54206000  1.0
  Nd  Nd1  1  0.91152000  0.83537000  0.45793000  1.0
  H  H2  1  0.42109000  0.31081000  0.55437000  1.0
  H  H3  1  0.57890000  0.68918000  0.44564000  1.0
  H  H4  1  0.27608000  0.35773000  0.52904000  1.0
  H  H5  1  0.72393000  0.64227000  0.47096000  1.0
  H  H6  1  0.75645000  0.15305000  0.57851000  1.0
  H  H7  1  0.24353000  0.84695000  0.42150000  1.0
  H  H8  1  0.73424000  0.05283000  0.49372000  1.0
  H  H9  1  0.26576000  0.94717000  0.50629000  1.0
  H  H10  1  0.89119000  0.38952000  0.80095000  1.0
  H  H11  1  0.10876000  0.61046000  0.19903000  1.0
  H  H12  1  0.89843000  0.69509000  0.66588000  1.0
  H  H13  1  0.10161000  0.30492000  0.33412000  1.0
  H  H14  1  0.51544000  0.04413000  0.89761000  1.0
  H  H15  1  0.48455000  0.95587000  0.10240000  1.0
  H  H16  1  0.38913000  0.14756000  0.81242000  1.0
  H  H17  1  0.61086000  0.85245000  0.18759000  1.0
  H  H18  1  0.91560000  0.15159000  0.23141000  1.0
  H  H19  1  0.08441000  0.84840000  0.76860000  1.0
  H  H20  1  0.65778000  0.86731000  0.65144000  1.0
  H  H21  1  0.34222000  0.13269000  0.34856000  1.0
  H  H22  1  0.69766000  0.99977000  0.95878000  1.0
  H  H23  1  0.30234000  0.00023000  0.04124000  1.0
  H  H24  1  0.52327000  0.96544000  0.56764000  1.0
  H  H25  1  0.47672000  0.03456000  0.43236000  1.0
  H  H26  1  0.80637000  0.55224000  0.88649000  1.0
  H  H27  1  0.19359000  0.44775000  0.11349000  1.0
  H  H28  1  0.99936000  0.84786000  0.25310000  1.0
  H  H29  1  0.00067000  0.15214000  0.74689000  1.0
  H  H30  1  0.98329000  0.53305000  0.58214000  1.0
  H  H31  1  0.01675000  0.46696000  0.41786000  1.0
  H  H32  1  0.91134000  0.77110000  0.09369000  1.0
  H  H33  1  0.08869000  0.22890000  0.90631000  1.0
  H  H34  1  0.91692000  0.73342000  0.95802000  1.0
  H  H35  1  0.08310000  0.26659000  0.04197000  1.0
  H  H36  1  0.83324000  0.07638000  0.07016000  1.0
  H  H37  1  0.16676000  0.92363000  0.92984000  1.0
  H  H38  1  0.67580000  0.75432000  0.71517000  1.0
  H  H39  1  0.32422000  0.24570000  0.28483000  1.0
  C  C40  1  0.84553000  0.63482000  0.78199000  1.0
  C  C41  1  0.15450000  0.36518000  0.21801000  1.0
  C  C42  1  0.89269000  0.45745000  0.77263000  1.0
  C  C43  1  0.10729000  0.54254000  0.22735000  1.0
  C  C44  1  0.89419000  0.62776000  0.69538000  1.0
  C  C45  1  0.10585000  0.37224000  0.30462000  1.0
  C  C46  1  0.94264000  0.45149000  0.68676000  1.0
  C  C47  1  0.05738000  0.54850000  0.31323000  1.0
  C  C48  1  0.52228000  0.02823000  0.82549000  1.0
  C  C49  1  0.47772000  0.97177000  0.17452000  1.0
  C  C50  1  0.44990000  0.08660000  0.77815000  1.0
  C  C51  1  0.55008000  0.91341000  0.22186000  1.0
  C  C52  1  0.59795000  0.94731000  0.78165000  1.0
  C  C53  1  0.40206000  0.05270000  0.21835000  1.0
  C  C54  1  0.35577000  0.11747000  0.63241000  1.0
  C  C55  1  0.64422000  0.88253000  0.36759000  1.0
  C  C56  1  0.91505000  0.06832000  0.20037000  1.0
  C  C57  1  0.08494000  0.93167000  0.79963000  1.0
  C  C58  1  0.59796000  0.92755000  0.68792000  1.0
  C  C59  1  0.40203000  0.07245000  0.31209000  1.0
  C  C60  1  0.72421000  0.92417000  0.92373000  1.0
  C  C61  1  0.27578000  0.07584000  0.07628000  1.0
  C  C62  1  0.96233000  0.00536000  0.25346000  1.0
  C  C63  1  0.03764000  0.99464000  0.74654000  1.0
  C  C64  1  0.44718000  0.06380000  0.68453000  1.0
  C  C65  1  0.55281000  0.93620000  0.31548000  1.0
  C  C66  1  0.80824000  0.87046000  0.97158000  1.0
  C  C67  1  0.19177000  0.12953000  0.02843000  1.0
  C  C68  1  0.52249000  0.98379000  0.64012000  1.0
  C  C69  1  0.47749000  0.01620000  0.35988000  1.0
  C  C70  1  0.84600000  0.54846000  0.81997000  1.0
  C  C71  1  0.15399000  0.45154000  0.18001000  1.0
  C  C72  1  0.96233000  0.89825000  0.21341000  1.0
  C  C73  1  0.03769000  0.10174000  0.78658000  1.0
  C  C74  1  0.67763000  0.88543000  0.83128000  1.0
  C  C75  1  0.32238000  0.11459000  0.16873000  1.0
  C  C76  1  0.94334000  0.53741000  0.64858000  1.0
  C  C77  1  0.05668000  0.46258000  0.35142000  1.0
  C  C78  1  0.99466000  0.35465000  0.63733000  1.0
  C  C79  1  0.00536000  0.64535000  0.36267000  1.0
  C  C80  1  0.00943000  0.05362000  0.35042000  1.0
  C  C81  1  0.99056000  0.94638000  0.64957000  1.0
  C  C82  1  0.91332000  0.85519000  0.12240000  1.0
  C  C83  1  0.08668000  0.14481000  0.87760000  1.0
  C  C84  1  0.86297000  0.91683000  0.06831000  1.0
  C  C85  1  0.13701000  0.08317000  0.93170000  1.0
  C  C86  1  0.84453000  0.77437000  0.92417000  1.0
  C  C87  1  0.15549000  0.22564000  0.07584000  1.0
  C  C88  1  0.86649000  0.02471000  0.10964000  1.0
  C  C89  1  0.13348000  0.97529000  0.89036000  1.0
  C  C90  1  0.79831000  0.73272000  0.83193000  1.0
  C  C91  1  0.20171000  0.26729000  0.16807000  1.0
  C  C92  1  0.71364000  0.78820000  0.78650000  1.0
  C  C93  1  0.28636000  0.21181000  0.21350000  1.0
  O  O94  1  0.33005000  0.29802000  0.50962000  1.0
  O  O95  1  0.66995000  0.70198000  0.49037000  1.0
  O  O96  1  0.01133000  0.99376000  0.40544000  1.0
  O  O97  1  0.98866000  0.00624000  0.59456000  1.0
  O  O98  1  0.32099000  0.07578000  0.54643000  1.0
  O  O99  1  0.67902000  0.92422000  0.45358000  1.0
  O  O100  1  0.78860000  0.13024000  0.51847000  1.0
  O  O101  1  0.21139000  0.86976000  0.48154000  1.0
  O  O102  1  0.30444000  0.19956000  0.67007000  1.0
  O  O103  1  0.69555000  0.80045000  0.32992000  1.0
  O  O104  1  0.06081000  0.35443000  0.56435000  1.0
  O  O105  1  0.93922000  0.64555000  0.43565000  1.0
  O  O106  1  0.04756000  0.15452000  0.38082000  1.0
  O  O107  1  0.95240000  0.84546000  0.61916000  1.0
  O  O108  1  0.97202000  0.27136000  0.66751000  1.0
  O  O109  1  0.02798000  0.72863000  0.33249000  1.0
