# generated using pymatgen
data_CuH17C20N3O4
_symmetry_space_group_name_H-M   'P 1'
_cell_length_a   8.01245000
_cell_length_b   8.23129000
_cell_length_c   14.28350000
_cell_angle_alpha   80.42610000
_cell_angle_beta   89.38480000
_cell_angle_gamma   102.67910000
_symmetry_Int_Tables_number   1
_chemical_formula_structural   CuH17C20N3O4
_chemical_formula_sum   'Cu2 H34 C40 N6 O8'
_cell_volume   905.17070756
_cell_formula_units_Z   2
loop_
 _symmetry_equiv_pos_site_id
 _symmetry_equiv_pos_as_xyz
  1  'x, y, z'
loop_
 _atom_site_type_symbol
 _atom_site_label
 _atom_site_symmetry_multiplicity
 _atom_site_fract_x
 _atom_site_fract_y
 _atom_site_fract_z
 _atom_site_occupancy
  Cu  Cu0  1  0.50000000  0.00000000  0.00000000  1.0
  Cu  Cu1  1  0.50000000  0.50000000  0.50000000  1.0
  H  H2  1  0.79109000  0.27715000  0.91661000  1.0
  H  H3  1  0.20891000  0.72285000  0.08339000  1.0
  H  H4  1  0.32090000  0.02119000  0.81752000  1.0
  H  H5  1  0.67910000  0.97882000  0.18248000  1.0
  H  H6  1  0.06780000  0.10900000  0.75376000  1.0
  H  H7  1  0.93221000  0.89101000  0.24623000  1.0
  H  H8  1  0.99377000  0.27398000  0.02136000  1.0
  H  H9  1  0.00622000  0.72601000  0.97864000  1.0
  H  H10  1  0.25101000  0.17173000  0.07541000  1.0
  H  H11  1  0.74898000  0.82825000  0.92460000  1.0
  H  H12  1  0.41408000  0.40289000  0.70158000  1.0
  H  H13  1  0.58592000  0.59711000  0.29841000  1.0
  H  H14  1  0.55548000  0.31073000  0.84921000  1.0
  H  H15  1  0.44451000  0.68927000  0.15079000  1.0
  H  H16  1  0.98923000  0.29422000  0.66999000  1.0
  H  H17  1  0.01079000  0.70581000  0.33002000  1.0
  H  H18  1  0.82789000  0.38229000  0.53185000  1.0
  H  H19  1  0.17212000  0.61773000  0.46815000  1.0
  H  H20  1  0.83300000  0.01681000  0.43174000  1.0
  H  H21  1  0.16700000  0.98319000  0.56826000  1.0
  H  H22  1  0.14095000  0.10924000  0.37497000  1.0
  H  H23  1  0.85904000  0.89075000  0.62504000  1.0
  H  H24  1  0.22191000  0.31184000  0.22228000  1.0
  H  H25  1  0.77809000  0.68814000  0.77772000  1.0
  H  H26  1  0.99843000  0.42849000  0.13304000  1.0
  H  H27  1  0.00158000  0.57151000  0.86696000  1.0
  H  H28  1  0.54577000  0.99270000  0.40377000  1.0
  H  H29  1  0.45423000  0.00730000  0.59623000  1.0
  H  H30  1  0.46825000  0.09847000  0.30174000  1.0
  H  H31  1  0.53175000  0.90153000  0.69826000  1.0
  H  H32  1  0.71227000  0.50328000  0.14891000  1.0
  H  H33  1  0.28773000  0.49671000  0.85110000  1.0
  H  H34  1  0.54099000  0.35084000  0.21553000  1.0
  H  H35  1  0.45901000  0.64915000  0.78447000  1.0
  C  C36  1  0.24587000  0.07882000  0.86062000  1.0
  C  C37  1  0.75413000  0.92118000  0.13938000  1.0
  C  C38  1  0.10376000  0.13243000  0.82420000  1.0
  C  C39  1  0.89624000  0.86757000  0.17580000  1.0
  C  C40  1  0.00601000  0.20313000  0.88200000  1.0
  C  C41  1  0.99399000  0.79687000  0.11800000  1.0
  C  C42  1  0.06347000  0.21880000  0.97393000  1.0
  C  C43  1  0.93652000  0.78119000  0.02607000  1.0
  C  C44  1  0.20620000  0.16205000  0.00453000  1.0
  C  C45  1  0.79379000  0.83793000  0.99547000  1.0
  C  C46  1  0.54012000  0.37433000  0.69842000  1.0
  C  C47  1  0.45988000  0.62567000  0.30158000  1.0
  C  C48  1  0.61859000  0.32246000  0.77974000  1.0
  C  C49  1  0.38140000  0.67754000  0.22026000  1.0
  C  C50  1  0.78381000  0.29032000  0.77362000  1.0
  C  C51  1  0.21618000  0.70969000  0.22638000  1.0
  C  C52  1  0.86041000  0.31083000  0.68200000  1.0
  C  C53  1  0.13960000  0.68918000  0.31801000  1.0
  C  C54  1  0.77208000  0.36423000  0.60380000  1.0
  C  C55  1  0.22794000  0.63579000  0.39620000  1.0
  C  C56  1  0.79068000  0.29137000  0.23179000  1.0
  C  C57  1  0.20933000  0.70862000  0.76821000  1.0
  C  C58  1  0.74339000  0.17252000  0.31616000  1.0
  C  C59  1  0.25661000  0.82747000  0.68384000  1.0
  C  C60  1  0.87131000  0.10760000  0.36604000  1.0
  C  C61  1  0.12869000  0.89239000  0.63397000  1.0
  C  C62  1  0.04285000  0.15681000  0.33351000  1.0
  C  C63  1  0.95714000  0.84318000  0.66650000  1.0
  C  C64  1  0.08843000  0.27141000  0.24870000  1.0
  C  C65  1  0.91158000  0.72857000  0.75130000  1.0
  C  C66  1  0.96284000  0.33747000  0.19870000  1.0
  C  C67  1  0.03717000  0.66252000  0.80130000  1.0
  C  C68  1  0.56203000  0.11595000  0.35706000  1.0
  C  C69  1  0.43796000  0.88405000  0.64294000  1.0
  C  C70  1  0.50716000  0.23439000  0.41743000  1.0
  C  C71  1  0.49284000  0.76562000  0.58257000  1.0
  C  C72  1  0.66072000  0.36776000  0.17365000  1.0
  C  C73  1  0.33929000  0.63223000  0.82636000  1.0
  C  C74  1  0.62569000  0.28288000  0.08642000  1.0
  C  C75  1  0.37431000  0.71712000  0.91358000  1.0
  N  N76  1  0.29820000  0.09096000  0.94935000  1.0
  N  N77  1  0.70179000  0.90904000  0.05065000  1.0
  N  N78  1  0.85594000  0.25121000  0.85927000  1.0
  N  N79  1  0.14405000  0.74878000  0.14073000  1.0
  N  N80  1  0.61547000  0.39756000  0.61077000  1.0
  N  N81  1  0.38454000  0.60245000  0.38923000  1.0
  O  O82  1  0.36782000  0.18801000  0.46502000  1.0
  O  O83  1  0.63218000  0.81199000  0.53497000  1.0
  O  O84  1  0.70622000  0.34986000  0.00876000  1.0
  O  O85  1  0.29378000  0.65014000  0.99124000  1.0
  O  O86  1  0.51679000  0.13848000  0.10172000  1.0
  O  O87  1  0.48321000  0.86152000  0.89828000  1.0
  O  O88  1  0.61137000  0.38006000  0.41567000  1.0
  O  O89  1  0.38864000  0.61995000  0.58432000  1.0
