# generated using pymatgen
data_ZnH22C33N7ClO4
_symmetry_space_group_name_H-M   'P 1'
_cell_length_a   11.58040000
_cell_length_b   14.29730000
_cell_length_c   20.13270000
_cell_angle_alpha   89.99990000
_cell_angle_beta   89.99980000
_cell_angle_gamma   84.63200000
_symmetry_Int_Tables_number   1
_chemical_formula_structural   ZnH22C33N7ClO4
_chemical_formula_sum   'Zn4 H88 C132 N28 Cl4 O16'
_cell_volume   3318.72119396
_cell_formula_units_Z   4
loop_
 _symmetry_equiv_pos_site_id
 _symmetry_equiv_pos_as_xyz
  1  'x, y, z'
loop_
 _atom_site_type_symbol
 _atom_site_label
 _atom_site_symmetry_multiplicity
 _atom_site_fract_x
 _atom_site_fract_y
 _atom_site_fract_z
 _atom_site_occupancy
  Zn  Zn0  1  0.94082000  0.21319000  0.00641000  1.0
  Zn  Zn1  1  0.55919000  0.78681000  0.50641000  1.0
  Zn  Zn2  1  0.05919000  0.78680000  0.99359000  1.0
  Zn  Zn3  1  0.44082000  0.21320000  0.49359000  1.0
  H  H4  1  0.87974000  0.16831000  0.25703000  1.0
  H  H5  1  0.62026000  0.83168000  0.75703000  1.0
  H  H6  1  0.12027000  0.83168000  0.74297000  1.0
  H  H7  1  0.37974000  0.16833000  0.24297000  1.0
  H  H8  1  0.59729000  0.89921000  0.85731000  1.0
  H  H9  1  0.90272000  0.10079000  0.35731000  1.0
  H  H10  1  0.40272000  0.10078000  0.14269000  1.0
  H  H11  1  0.09729000  0.89921000  0.64269000  1.0
  H  H12  1  0.51516000  0.19351000  0.98524000  1.0
  H  H13  1  0.98486000  0.80648000  0.48524000  1.0
  H  H14  1  0.48485000  0.80649000  0.01475000  1.0
  H  H15  1  0.01515000  0.19352000  0.51476000  1.0
  H  H16  1  0.97685000  0.30134000  0.86792000  1.0
  H  H17  1  0.52316000  0.69866000  0.36792000  1.0
  H  H18  1  0.02315000  0.69865000  0.13208000  1.0
  H  H19  1  0.47685000  0.30134000  0.63208000  1.0
  H  H20  1  0.01174000  0.00510000  0.05207000  1.0
  H  H21  1  0.48825000  0.99490000  0.55206000  1.0
  H  H22  1  0.98824000  0.99489000  0.94793000  1.0
  H  H23  1  0.51175000  0.00510000  0.44793000  1.0
  H  H24  1  0.32991000  0.26346000  0.96839000  1.0
  H  H25  1  0.17011000  0.73653000  0.46839000  1.0
  H  H26  1  0.67010000  0.73653000  0.03160000  1.0
  H  H27  1  0.82990000  0.26347000  0.53161000  1.0
  H  H28  1  0.34230000  0.18223000  0.03468000  1.0
  H  H29  1  0.15772000  0.81776000  0.53468000  1.0
  H  H30  1  0.65772000  0.81776000  0.96532000  1.0
  H  H31  1  0.84229000  0.18224000  0.46532000  1.0
  H  H32  1  0.81851000  0.57092000  0.00148000  1.0
  H  H33  1  0.68149000  0.42908000  0.50148000  1.0
  H  H34  1  0.18148000  0.42908000  0.99852000  1.0
  H  H35  1  0.31851000  0.57093000  0.49852000  1.0
  H  H36  1  0.76145000  0.98519000  0.90040000  1.0
  H  H37  1  0.73856000  0.01480000  0.40040000  1.0
  H  H38  1  0.23856000  0.01481000  0.09960000  1.0
  H  H39  1  0.26145000  0.98521000  0.59960000  1.0
  H  H40  1  0.95602000  0.46211000  0.81538000  1.0
  H  H41  1  0.54399000  0.53789000  0.31538000  1.0
  H  H42  1  0.04399000  0.53789000  0.18462000  1.0
  H  H43  1  0.45602000  0.46211000  0.68462000  1.0
  H  H44  1  0.17344000  0.24646000  0.32918000  1.0
  H  H45  1  0.32655000  0.75353000  0.82918000  1.0
  H  H46  1  0.82655000  0.75353000  0.67083000  1.0
  H  H47  1  0.67344000  0.24647000  0.17082000  1.0
  H  H48  1  0.46799000  0.57921000  0.01353000  1.0
  H  H49  1  0.03199000  0.42078000  0.51353000  1.0
  H  H50  1  0.53200000  0.42078000  0.98647000  1.0
  H  H51  1  0.96798000  0.57921000  0.48647000  1.0
  H  H52  1  0.99276000  0.91048000  0.15374000  1.0
  H  H53  1  0.50723000  0.08952000  0.65374000  1.0
  H  H54  1  0.00722000  0.08951000  0.84625000  1.0
  H  H55  1  0.49276000  0.91049000  0.34625000  1.0
  H  H56  1  0.07785000  0.30506000  0.43271000  1.0
  H  H57  1  0.42214000  0.69495000  0.93271000  1.0
  H  H58  1  0.92214000  0.69494000  0.56730000  1.0
  H  H59  1  0.57786000  0.30505000  0.06730000  1.0
  H  H60  1  0.92119000  0.99412000  0.25934000  1.0
  H  H61  1  0.57881000  0.00588000  0.75934000  1.0
  H  H62  1  0.07881000  0.00587000  0.74066000  1.0
  H  H63  1  0.42119000  0.99413000  0.24066000  1.0
  H  H64  1  0.78805000  0.41898000  0.31149000  1.0
  H  H65  1  0.71195000  0.58103000  0.81149000  1.0
  H  H66  1  0.21195000  0.58103000  0.68851000  1.0
  H  H67  1  0.28806000  0.41897000  0.18851000  1.0
  H  H68  1  0.87623000  0.59991000  0.88712000  1.0
  H  H69  1  0.62377000  0.40008000  0.38712000  1.0
  H  H70  1  0.12377000  0.40008000  0.11288000  1.0
  H  H71  1  0.37623000  0.59991000  0.61288000  1.0
  H  H72  1  0.87892000  0.39709000  0.42460000  1.0
  H  H73  1  0.62108000  0.60293000  0.92460000  1.0
  H  H74  1  0.12107000  0.60292000  0.57540000  1.0
  H  H75  1  0.37892000  0.39708000  0.07540000  1.0
  H  H76  1  0.72878000  0.59332000  0.20481000  1.0
  H  H77  1  0.77122000  0.40669000  0.70482000  1.0
  H  H78  1  0.27123000  0.40669000  0.79518000  1.0
  H  H79  1  0.22876000  0.59332000  0.29519000  1.0
  H  H80  1  0.41531000  0.69786000  0.10068000  1.0
  H  H81  1  0.08468000  0.30213000  0.60068000  1.0
  H  H82  1  0.58469000  0.30214000  0.89932000  1.0
  H  H83  1  0.91530000  0.69786000  0.39932000  1.0
  H  H84  1  0.55060000  0.70838000  0.19887000  1.0
  H  H85  1  0.94940000  0.29162000  0.69888000  1.0
  H  H86  1  0.44942000  0.29163000  0.80112000  1.0
  H  H87  1  0.05058000  0.70838000  0.30113000  1.0
  H  H88  1  0.25913000  0.08297000  0.92862000  1.0
  H  H89  1  0.24088000  0.91702000  0.42862000  1.0
  H  H90  1  0.74088000  0.91702000  0.07138000  1.0
  H  H91  1  0.75912000  0.08297000  0.57138000  1.0
  C  C92  1  0.86234000  0.42016000  0.99561000  1.0
  C  C93  1  0.63766000  0.57984000  0.49561000  1.0
  C  C94  1  0.13766000  0.57984000  0.00440000  1.0
  C  C95  1  0.36234000  0.42016000  0.50440000  1.0
  C  C96  1  0.92596000  0.17871000  0.15356000  1.0
  C  C97  1  0.57403000  0.82129000  0.65355000  1.0
  C  C98  1  0.07403000  0.82129000  0.84644000  1.0
  C  C99  1  0.42597000  0.17872000  0.34645000  1.0
  C  C100  1  0.84080000  0.39623000  0.06577000  1.0
  C  C101  1  0.65919000  0.60377000  0.56577000  1.0
  C  C102  1  0.15919000  0.60377000  0.93423000  1.0
  C  C103  1  0.34080000  0.39624000  0.43423000  1.0
  C  C104  1  0.88268000  0.35148000  0.19561000  1.0
  C  C105  1  0.61732000  0.64852000  0.69561000  1.0
  C  C106  1  0.11732000  0.64852000  0.80439000  1.0
  C  C107  1  0.38268000  0.35149000  0.30439000  1.0
  C  C108  1  0.91071000  0.13028000  0.21274000  1.0
  C  C109  1  0.58928000  0.86972000  0.71274000  1.0
  C  C110  1  0.08928000  0.86971000  0.78726000  1.0
  C  C111  1  0.41072000  0.13029000  0.28726000  1.0
  C  C112  1  0.64580000  0.09612000  0.94417000  1.0
  C  C113  1  0.85420000  0.90387000  0.44418000  1.0
  C  C114  1  0.35419000  0.90388000  0.05582000  1.0
  C  C115  1  0.14580000  0.09613000  0.55583000  1.0
  C  C116  1  0.69131000  0.52836000  0.11135000  1.0
  C  C117  1  0.80867000  0.47164000  0.61136000  1.0
  C  C118  1  0.30868000  0.47164000  0.88864000  1.0
  C  C119  1  0.19131000  0.52836000  0.38865000  1.0
  C  C120  1  0.58033000  0.96522000  0.88420000  1.0
  C  C121  1  0.91967000  0.03478000  0.38420000  1.0
  C  C122  1  0.41967000  0.03478000  0.11580000  1.0
  C  C123  1  0.08034000  0.96522000  0.61580000  1.0
  C  C124  1  0.43726000  0.08513000  0.93033000  1.0
  C  C125  1  0.06275000  0.91487000  0.43034000  1.0
  C  C126  1  0.56275000  0.91487000  0.06966000  1.0
  C  C127  1  0.93725000  0.08513000  0.56967000  1.0
  C  C128  1  0.53075000  0.12985000  0.95587000  1.0
  C  C129  1  0.96926000  0.87015000  0.45588000  1.0
  C  C130  1  0.46925000  0.87015000  0.04412000  1.0
  C  C131  1  0.03075000  0.12986000  0.54413000  1.0
  C  C132  1  0.78719000  0.45278000  0.11774000  1.0
  C  C133  1  0.71280000  0.54722000  0.61775000  1.0
  C  C134  1  0.21280000  0.54722000  0.88226000  1.0
  C  C135  1  0.28719000  0.45278000  0.38226000  1.0
  C  C136  1  0.17040000  0.21669000  0.00045000  1.0
  C  C137  1  0.32962000  0.78331000  0.50044000  1.0
  C  C138  1  0.82962000  0.78331000  0.99955000  1.0
  C  C139  1  0.67039000  0.21669000  0.49955000  1.0
  C  C140  1  0.73723000  0.15397000  0.97033000  1.0
  C  C141  1  0.76278000  0.84602000  0.47034000  1.0
  C  C142  1  0.26278000  0.84603000  0.02966000  1.0
  C  C143  1  0.23722000  0.15399000  0.52967000  1.0
  C  C144  1  0.93941000  0.36302000  0.89508000  1.0
  C  C145  1  0.56059000  0.63698000  0.39508000  1.0
  C  C146  1  0.06059000  0.63697000  0.10492000  1.0
  C  C147  1  0.43941000  0.36302000  0.60492000  1.0
  C  C148  1  0.98264000  0.03905000  0.09828000  1.0
  C  C149  1  0.51736000  0.96095000  0.59827000  1.0
  C  C150  1  0.01735000  0.96095000  0.90172000  1.0
  C  C151  1  0.48264000  0.03905000  0.40172000  1.0
  C  C152  1  0.29903000  0.19725000  0.98643000  1.0
  C  C153  1  0.20099000  0.80275000  0.48643000  1.0
  C  C154  1  0.70098000  0.80275000  0.01357000  1.0
  C  C155  1  0.79902000  0.19725000  0.51357000  1.0
  C  C156  1  0.85007000  0.51169000  0.97056000  1.0
  C  C157  1  0.64993000  0.48831000  0.47055000  1.0
  C  C158  1  0.14992000  0.48831000  0.02945000  1.0
  C  C159  1  0.35007000  0.51169000  0.52945000  1.0
  C  C160  1  0.46562000  0.00178000  0.89364000  1.0
  C  C161  1  0.03439000  0.99821000  0.39365000  1.0
  C  C162  1  0.53438000  0.99821000  0.10635000  1.0
  C  C163  1  0.96562000  0.00178000  0.60635000  1.0
  C  C164  1  0.89943000  0.28120000  0.14556000  1.0
  C  C165  1  0.60058000  0.71879000  0.64556000  1.0
  C  C166  1  0.10057000  0.71879000  0.85444000  1.0
  C  C167  1  0.39943000  0.28121000  0.35444000  1.0
  C  C168  1  0.67165000  0.01247000  0.90866000  1.0
  C  C169  1  0.82837000  0.98752000  0.40867000  1.0
  C  C170  1  0.32836000  0.98753000  0.09133000  1.0
  C  C171  1  0.17164000  0.01248000  0.59134000  1.0
  C  C172  1  0.92819000  0.45224000  0.86643000  1.0
  C  C173  1  0.57181000  0.54777000  0.36642000  1.0
  C  C174  1  0.07181000  0.54776000  0.13357000  1.0
  C  C175  1  0.42819000  0.45224000  0.63358000  1.0
  C  C176  1  0.08765000  0.28503000  0.32695000  1.0
  C  C177  1  0.41234000  0.71497000  0.82695000  1.0
  C  C178  1  0.91233000  0.71496000  0.67306000  1.0
  C  C179  1  0.58766000  0.28503000  0.17305000  1.0
  C  C180  1  0.93366000  0.34253000  0.26275000  1.0
  C  C181  1  0.56634000  0.65748000  0.76275000  1.0
  C  C182  1  0.06634000  0.65747000  0.73725000  1.0
  C  C183  1  0.43366000  0.34253000  0.23725000  1.0
  C  C184  1  0.52526000  0.58534000  0.05616000  1.0
  C  C185  1  0.97473000  0.41465000  0.55617000  1.0
  C  C186  1  0.47473000  0.41465000  0.94384000  1.0
  C  C187  1  0.02526000  0.58534000  0.44384000  1.0
  C  C188  1  0.97227000  0.98627000  0.15584000  1.0
  C  C189  1  0.52773000  0.01373000  0.65584000  1.0
  C  C190  1  0.02772000  0.01372000  0.84416000  1.0
  C  C191  1  0.47227000  0.98628000  0.34416000  1.0
  C  C192  1  0.03356000  0.31904000  0.38541000  1.0
  C  C193  1  0.46644000  0.68096000  0.88540000  1.0
  C  C194  1  0.96643000  0.68095000  0.61460000  1.0
  C  C195  1  0.53356000  0.31904000  0.11460000  1.0
  C  C196  1  0.93372000  0.03280000  0.21366000  1.0
  C  C197  1  0.56628000  0.96720000  0.71366000  1.0
  C  C198  1  0.06627000  0.96719000  0.78634000  1.0
  C  C199  1  0.43372000  0.03281000  0.28634000  1.0
  C  C200  1  0.87347000  0.38150000  0.31804000  1.0
  C  C201  1  0.62653000  0.61852000  0.81804000  1.0
  C  C202  1  0.12653000  0.61851000  0.68196000  1.0
  C  C203  1  0.37347000  0.38150000  0.18196000  1.0
  C  C204  1  0.88360000  0.52787000  0.90538000  1.0
  C  C205  1  0.61640000  0.47212000  0.40538000  1.0
  C  C206  1  0.11640000  0.47212000  0.09462000  1.0
  C  C207  1  0.38360000  0.52788000  0.59462000  1.0
  C  C208  1  0.92437000  0.36880000  0.38050000  1.0
  C  C209  1  0.57563000  0.63121000  0.88050000  1.0
  C  C210  1  0.07563000  0.63120000  0.61950000  1.0
  C  C211  1  0.42437000  0.36879000  0.11950000  1.0
  C  C212  1  0.66916000  0.59380000  0.16299000  1.0
  C  C213  1  0.83084000  0.40620000  0.66300000  1.0
  C  C214  1  0.33085000  0.40621000  0.83700000  1.0
  C  C215  1  0.16914000  0.59379000  0.33701000  1.0
  C  C216  1  0.49481000  0.65135000  0.10586000  1.0
  C  C217  1  0.00518000  0.34864000  0.60586000  1.0
  C  C218  1  0.50519000  0.34865000  0.89414000  1.0
  C  C219  1  0.99480000  0.65135000  0.39414000  1.0
  C  C220  1  0.56960000  0.65634000  0.15980000  1.0
  C  C221  1  0.93040000  0.34366000  0.65980000  1.0
  C  C222  1  0.43041000  0.34366000  0.84020000  1.0
  C  C223  1  0.06958000  0.65634000  0.34020000  1.0
  N  N224  1  0.04005000  0.29547000  0.26656000  1.0
  N  N225  1  0.45995000  0.70453000  0.76656000  1.0
  N  N226  1  0.95994000  0.70452000  0.73344000  1.0
  N  N227  1  0.54006000  0.29548000  0.23344000  1.0
  N  N228  1  0.90778000  0.34744000  0.95770000  1.0
  N  N229  1  0.59223000  0.65256000  0.45770000  1.0
  N  N230  1  0.09223000  0.65256000  0.04230000  1.0
  N  N231  1  0.40777000  0.34744000  0.54230000  1.0
  N  N232  1  0.95899000  0.13240000  0.09709000  1.0
  N  N233  1  0.54100000  0.86760000  0.59709000  1.0
  N  N234  1  0.04099000  0.86759000  0.90291000  1.0
  N  N235  1  0.45900000  0.13241000  0.40291000  1.0
  N  N236  1  0.62144000  0.52534000  0.05799000  1.0
  N  N237  1  0.87855000  0.47466000  0.55799000  1.0
  N  N238  1  0.37855000  0.47466000  0.94201000  1.0
  N  N239  1  0.12144000  0.52534000  0.44201000  1.0
  N  N240  1  0.88569000  0.31037000  0.08311000  1.0
  N  N241  1  0.61432000  0.68963000  0.58311000  1.0
  N  N242  1  0.11431000  0.68963000  0.91689000  1.0
  N  N243  1  0.38569000  0.31037000  0.41689000  1.0
  N  N244  1  0.81934000  0.43116000  0.18025000  1.0
  N  N245  1  0.68065000  0.56884000  0.68025000  1.0
  N  N246  1  0.18065000  0.56883000  0.81975000  1.0
  N  N247  1  0.31934000  0.43117000  0.31975000  1.0
  N  N248  1  0.32542000  0.12215000  0.93968000  1.0
  N  N249  1  0.17458000  0.87785000  0.43968000  1.0
  N  N250  1  0.67458000  0.87785000  0.06031000  1.0
  N  N251  1  0.82542000  0.12215000  0.56032000  1.0
  Cl  Cl252  1  0.35281000  0.94583000  0.85997000  1.0
  Cl  Cl253  1  0.14720000  0.05417000  0.35998000  1.0
  Cl  Cl254  1  0.64720000  0.05417000  0.14002000  1.0
  Cl  Cl255  1  0.85282000  0.94582000  0.64002000  1.0
  O  O256  1  0.14052000  0.27650000  0.04409000  1.0
  O  O257  1  0.35952000  0.72350000  0.54409000  1.0
  O  O258  1  0.85951000  0.72350000  0.95591000  1.0
  O  O259  1  0.64050000  0.27650000  0.45591000  1.0
  O  O260  1  0.84464000  0.12404000  0.95869000  1.0
  O  O261  1  0.65537000  0.87597000  0.45870000  1.0
  O  O262  1  0.15536000  0.87596000  0.04131000  1.0
  O  O263  1  0.34464000  0.12405000  0.54131000  1.0
  O  O264  1  0.09953000  0.17073000  0.96665000  1.0
  O  O265  1  0.40048000  0.82927000  0.46663000  1.0
  O  O266  1  0.90048000  0.82927000  0.03336000  1.0
  O  O267  1  0.59952000  0.17073000  0.53336000  1.0
  O  O268  1  0.70767000  0.22880000  0.00127000  1.0
  O  O269  1  0.79234000  0.77119000  0.50128000  1.0
  O  O270  1  0.29234000  0.77120000  0.99871000  1.0
  O  O271  1  0.20766000  0.22882000  0.49872000  1.0
