# generated using pymatgen
data_Zn4H25C82N4Cl(O4F5)4
_symmetry_space_group_name_H-M   'P 1'
_cell_length_a   16.52810000
_cell_length_b   17.94130000
_cell_length_c   29.05860000
_cell_angle_alpha   90.27970000
_cell_angle_beta   89.99720000
_cell_angle_gamma   89.94410000
_symmetry_Int_Tables_number   1
_chemical_formula_structural   Zn4H25C82N4Cl(O4F5)4
_chemical_formula_sum   'Zn4 H25 C82 N4 Cl1 O16 F20'
_cell_volume   8616.80261416
_cell_formula_units_Z   1
loop_
 _symmetry_equiv_pos_site_id
 _symmetry_equiv_pos_as_xyz
  1  'x, y, z'
loop_
 _atom_site_type_symbol
 _atom_site_label
 _atom_site_symmetry_multiplicity
 _atom_site_fract_x
 _atom_site_fract_y
 _atom_site_fract_z
 _atom_site_occupancy
  Zn  Zn0  1  0.58340000  0.49976000  0.50236000  1.0
  Zn  Zn1  1  0.41590000  0.50005000  0.49950000  1.0
  Zn  Zn2  1  0.41590000  0.50189000  0.88433000  1.0
  Zn  Zn3  1  0.58338000  0.50175000  0.88377000  1.0
  H  H4  1  0.28677000  0.58142000  0.55163000  1.0
  H  H5  1  0.28704000  0.41785000  0.44913000  1.0
  H  H6  1  0.71325000  0.58202000  0.55180000  1.0
  H  H7  1  0.71242000  0.41814000  0.44957000  1.0
  H  H8  1  0.63050000  0.73781000  0.50047000  1.0
  H  H9  1  0.36920000  0.73901000  0.50006000  1.0
  H  H10  1  0.63050000  0.26184000  0.50021000  1.0
  H  H11  1  0.36920000  0.26109000  0.49988000  1.0
  H  H12  1  0.36904000  0.50080000  0.73669000  1.0
  H  H13  1  0.68797000  0.55054000  0.73424000  1.0
  H  H14  1  0.68754000  0.45108000  0.73429000  1.0
  H  H15  1  0.68383000  0.45081000  0.64734000  1.0
  H  H16  1  0.68439000  0.55022000  0.64773000  1.0
  H  H17  1  0.36917000  0.50211000  0.03115000  1.0
  H  H18  1  0.63053000  0.50224000  0.03090000  1.0
  H  H19  1  0.37029000  0.50032000  0.35388000  1.0
  H  H20  1  0.63158000  0.50058000  0.35378000  1.0
  H  H21  1  0.71298000  0.58383000  0.83365000  1.0
  H  H22  1  0.71233000  0.42059000  0.93529000  1.0
  H  H23  1  0.28661000  0.58366000  0.83407000  1.0
  H  H24  1  0.28691000  0.42034000  0.93569000  1.0
  H  H25  1  0.36946000  0.74055000  0.88392000  1.0
  H  H26  1  0.63077000  0.74038000  0.88401000  1.0
  H  H27  1  0.36944000  0.26355000  0.88455000  1.0
  H  H28  1  0.63077000  0.26321000  0.88463000  1.0
  C  C29  1  0.49902000  0.64627000  0.50107000  1.0
  C  C30  1  0.49992000  0.50092000  0.59099000  1.0
  C  C31  1  0.49908000  0.35361000  0.49983000  1.0
  C  C32  1  0.50044000  0.49943000  0.41064000  1.0
  C  C33  1  0.50011000  0.64827000  0.88361000  1.0
  C  C34  1  0.49857000  0.50149000  0.79404000  1.0
  C  C35  1  0.50016000  0.35550000  0.88489000  1.0
  C  C36  1  0.49962000  0.50173000  0.97423000  1.0
  C  C37  1  0.25127000  0.54577000  0.52887000  1.0
  C  C38  1  0.16738000  0.54666000  0.52932000  1.0
  C  C39  1  0.12172000  0.49996000  0.50010000  1.0
  C  C40  1  0.16749000  0.45312000  0.47097000  1.0
  C  C41  1  0.25135000  0.45398000  0.47155000  1.0
  C  C42  1  0.03673000  0.50002000  0.50004000  1.0
  C  C43  1  0.96309000  0.50005000  0.49998000  1.0
  C  C44  1  0.87811000  0.50016000  0.50011000  1.0
  C  C45  1  0.83256000  0.54696000  0.52938000  1.0
  C  C46  1  0.74869000  0.54600000  0.52919000  1.0
  C  C47  1  0.74817000  0.45420000  0.47197000  1.0
  C  C48  1  0.83207000  0.45342000  0.47110000  1.0
  C  C49  1  0.49977000  0.72986000  0.50060000  1.0
  C  C50  1  0.57356000  0.76827000  0.50049000  1.0
  C  C51  1  0.57262000  0.84531000  0.50020000  1.0
  C  C52  1  0.50051000  0.88767000  0.50006000  1.0
  C  C53  1  0.42802000  0.84602000  0.50003000  1.0
  C  C54  1  0.42637000  0.76901000  0.50024000  1.0
  C  C55  1  0.50079000  0.96596000  0.49996000  1.0
  C  C56  1  0.50080000  0.03392000  0.49994000  1.0
  C  C57  1  0.50052000  0.11222000  0.49990000  1.0
  C  C58  1  0.57262000  0.15444000  0.49995000  1.0
  C  C59  1  0.57357000  0.23148000  0.49997000  1.0
  C  C60  1  0.49978000  0.27002000  0.49983000  1.0
  C  C61  1  0.42638000  0.23100000  0.49980000  1.0
  C  C62  1  0.42803000  0.15399000  0.49986000  1.0
  C  C63  1  0.49873000  0.50123000  0.74266000  1.0
  C  C64  1  0.49559000  0.50113000  0.64247000  1.0
  C  C65  1  0.56916000  0.50116000  0.71640000  1.0
  C  C66  1  0.42385000  0.50111000  0.66959000  1.0
  C  C67  1  0.56689000  0.50108000  0.66840000  1.0
  C  C68  1  0.42587000  0.50110000  0.71774000  1.0
  C  C69  1  0.66068000  0.50078000  0.71845000  1.0
  C  C70  1  0.65842000  0.50062000  0.66405000  1.0
  C  C71  1  0.49985000  0.50171000  0.02578000  1.0
  C  C72  1  0.42628000  0.50169000  0.04977000  1.0
  C  C73  1  0.42770000  0.50143000  0.09731000  1.0
  C  C74  1  0.50010000  0.50126000  0.12313000  1.0
  C  C75  1  0.57236000  0.50150000  0.09717000  1.0
  C  C76  1  0.57354000  0.50176000  0.04962000  1.0
  C  C77  1  0.50028000  0.50100000  0.17144000  1.0
  C  C78  1  0.50057000  0.50086000  0.21338000  1.0
  C  C79  1  0.50073000  0.50067000  0.26171000  1.0
  C  C80  1  0.42845000  0.50056000  0.28763000  1.0
  C  C81  1  0.42727000  0.50021000  0.33515000  1.0
  C  C82  1  0.50093000  0.49998000  0.35906000  1.0
  C  C83  1  0.57452000  0.50034000  0.33513000  1.0
  C  C84  1  0.57310000  0.50063000  0.28757000  1.0
  C  C85  1  0.74845000  0.54802000  0.85615000  1.0
  C  C86  1  0.83233000  0.54911000  0.85599000  1.0
  C  C87  1  0.87792000  0.50267000  0.88517000  1.0
  C  C88  1  0.83196000  0.45604000  0.91402000  1.0
  C  C89  1  0.74807000  0.45661000  0.91309000  1.0
  C  C90  1  0.96291000  0.50268000  0.88537000  1.0
  C  C91  1  0.03653000  0.50258000  0.88535000  1.0
  C  C92  1  0.12152000  0.50246000  0.88524000  1.0
  C  C93  1  0.16718000  0.54895000  0.85617000  1.0
  C  C94  1  0.25105000  0.54787000  0.85652000  1.0
  C  C95  1  0.25124000  0.45637000  0.91343000  1.0
  C  C96  1  0.16736000  0.45573000  0.91414000  1.0
  C  C97  1  0.50011000  0.73188000  0.88370000  1.0
  C  C98  1  0.42651000  0.77073000  0.88375000  1.0
  C  C99  1  0.42777000  0.84774000  0.88377000  1.0
  C  C100  1  0.50007000  0.88967000  0.88380000  1.0
  C  C101  1  0.57239000  0.84765000  0.88381000  1.0
  C  C102  1  0.57370000  0.77063000  0.88379000  1.0
  C  C103  1  0.50004000  0.96795000  0.88393000  1.0
  C  C104  1  0.50001000  0.03589000  0.88416000  1.0
  C  C105  1  0.50004000  0.11417000  0.88440000  1.0
  C  C106  1  0.42774000  0.15623000  0.88448000  1.0
  C  C107  1  0.42649000  0.23325000  0.88464000  1.0
  C  C108  1  0.50011000  0.27193000  0.88476000  1.0
  C  C109  1  0.57369000  0.23306000  0.88469000  1.0
  C  C110  1  0.57237000  0.15604000  0.88454000  1.0
  N  N111  1  0.29129000  0.49989000  0.50020000  1.0
  N  N112  1  0.70834000  0.49999000  0.50080000  1.0
  N  N113  1  0.70821000  0.50214000  0.88440000  1.0
  N  N114  1  0.29116000  0.50202000  0.88488000  1.0
  Cl  Cl115  1  0.32722000  0.50084000  0.64590000  1.0
  O  O116  1  0.56749000  0.61349000  0.50251000  1.0
  O  O117  1  0.43014000  0.61470000  0.49996000  1.0
  O  O118  1  0.43399000  0.50063000  0.56852000  1.0
  O  O119  1  0.57072000  0.50092000  0.57336000  1.0
  O  O120  1  0.43027000  0.38536000  0.49836000  1.0
  O  O121  1  0.56759000  0.38622000  0.50134000  1.0
  O  O122  1  0.56852000  0.49902000  0.43112000  1.0
  O  O123  1  0.43115000  0.49946000  0.42989000  1.0
  O  O124  1  0.43144000  0.61612000  0.88387000  1.0
  O  O125  1  0.56882000  0.61600000  0.88330000  1.0
  O  O126  1  0.56761000  0.50134000  0.81365000  1.0
  O  O127  1  0.43013000  0.50186000  0.81424000  1.0
  O  O128  1  0.56889000  0.38760000  0.88474000  1.0
  O  O129  1  0.43148000  0.38777000  0.88509000  1.0
  O  O130  1  0.43078000  0.50174000  0.95451000  1.0
  O  O131  1  0.56816000  0.50176000  0.95417000  1.0
  F  F132  1  0.12847000  0.40666000  0.44205000  1.0
  F  F133  1  0.12819000  0.59306000  0.55826000  1.0
  F  F134  1  0.87089000  0.40698000  0.44203000  1.0
  F  F135  1  0.87182000  0.59345000  0.55822000  1.0
  F  F136  1  0.35720000  0.88429000  0.49980000  1.0
  F  F137  1  0.64380000  0.88289000  0.50007000  1.0
  F  F138  1  0.35723000  0.11584000  0.49993000  1.0
  F  F139  1  0.64380000  0.11672000  0.50003000  1.0
  F  F140  1  0.64338000  0.50149000  0.12055000  1.0
  F  F141  1  0.35682000  0.50135000  0.12082000  1.0
  F  F142  1  0.64400000  0.50090000  0.26408000  1.0
  F  F143  1  0.35744000  0.50079000  0.26424000  1.0
  F  F144  1  0.87082000  0.40995000  0.94298000  1.0
  F  F145  1  0.87156000  0.59542000  0.82731000  1.0
  F  F146  1  0.12836000  0.40953000  0.94295000  1.0
  F  F147  1  0.12803000  0.59529000  0.82746000  1.0
  F  F148  1  0.64337000  0.88554000  0.88390000  1.0
  F  F149  1  0.35676000  0.88572000  0.88383000  1.0
  F  F150  1  0.64334000  0.11803000  0.88449000  1.0
  F  F151  1  0.35674000  0.11840000  0.88438000  1.0
