# generated using pymatgen
data_ZnH30C34(NO3)2
_symmetry_space_group_name_H-M   'P 1'
_cell_length_a   6.87371000
_cell_length_b   9.10360000
_cell_length_c   25.51000000
_cell_angle_alpha   79.87500000
_cell_angle_beta   89.96430000
_cell_angle_gamma   67.86900000
_symmetry_Int_Tables_number   1
_chemical_formula_structural   ZnH30C34(NO3)2
_chemical_formula_sum   'Zn2 H60 C68 N4 O12'
_cell_volume   1451.89334812
_cell_formula_units_Z   2
loop_
 _symmetry_equiv_pos_site_id
 _symmetry_equiv_pos_as_xyz
  1  'x, y, z'
loop_
 _atom_site_type_symbol
 _atom_site_label
 _atom_site_symmetry_multiplicity
 _atom_site_fract_x
 _atom_site_fract_y
 _atom_site_fract_z
 _atom_site_occupancy
  Zn  Zn0  1  0.99370000  0.00025000  0.24992000  1.0
  Zn  Zn1  1  0.00630000  0.99975000  0.75008000  1.0
  H  H2  1  0.97907000  0.46930000  0.46125000  1.0
  H  H3  1  0.44769000  0.53137000  0.03848000  1.0
  H  H4  1  0.02091000  0.53070000  0.53875000  1.0
  H  H5  1  0.55231000  0.46863000  0.96152000  1.0
  H  H6  1  0.39152000  0.18053000  0.32495000  1.0
  H  H7  1  0.57151000  0.81969000  0.17490000  1.0
  H  H8  1  0.60847000  0.81948000  0.67505000  1.0
  H  H9  1  0.42850000  0.18030000  0.82510000  1.0
  H  H10  1  0.55999000  0.28931000  0.38424000  1.0
  H  H11  1  0.84884000  0.71089000  0.11562000  1.0
  H  H12  1  0.43999000  0.71071000  0.61576000  1.0
  H  H13  1  0.15117000  0.28911000  0.88438000  1.0
  H  H14  1  0.81098000  0.36272000  0.40005000  1.0
  H  H15  1  0.17289000  0.63794000  0.09967000  1.0
  H  H16  1  0.18901000  0.63727000  0.59995000  1.0
  H  H17  1  0.82712000  0.36206000  0.90033000  1.0
  H  H18  1  0.45231000  0.88039000  0.52493000  1.0
  H  H19  1  0.33231000  0.11936000  0.97539000  1.0
  H  H20  1  0.54766000  0.11962000  0.47507000  1.0
  H  H21  1  0.66770000  0.88063000  0.02461000  1.0
  H  H22  1  0.15044000  0.07498000  0.46585000  1.0
  H  H23  1  0.22403000  0.92512000  0.03449000  1.0
  H  H24  1  0.84953000  0.92503000  0.53415000  1.0
  H  H25  1  0.77598000  0.07488000  0.96551000  1.0
  H  H26  1  0.07023000  0.69132000  0.40344000  1.0
  H  H27  1  0.75941000  0.30927000  0.09643000  1.0
  H  H28  1  0.92977000  0.30869000  0.59655000  1.0
  H  H29  1  0.24059000  0.69073000  0.90357000  1.0
  H  H30  1  0.95666000  0.97993000  0.40500000  1.0
  H  H31  1  0.93436000  0.02042000  0.09512000  1.0
  H  H32  1  0.04333000  0.02008000  0.59500000  1.0
  H  H33  1  0.06565000  0.97958000  0.90488000  1.0
  H  H34  1  0.55185000  0.26870000  0.25063000  1.0
  H  H35  1  0.82101000  0.73135000  0.24937000  1.0
  H  H36  1  0.44815000  0.73130000  0.74937000  1.0
  H  H37  1  0.17899000  0.26864000  0.75063000  1.0
  H  H38  1  0.31764000  0.30906000  0.10044000  1.0
  H  H39  1  0.62649000  0.69121000  0.39956000  1.0
  H  H40  1  0.68236000  0.69094000  0.89956000  1.0
  H  H41  1  0.37351000  0.30879000  0.60044000  1.0
  H  H42  1  0.28716000  0.13408000  0.13740000  1.0
  H  H43  1  0.42141000  0.86601000  0.36258000  1.0
  H  H44  1  0.71285000  0.86592000  0.86260000  1.0
  H  H45  1  0.57859000  0.13399000  0.63742000  1.0
  H  H46  1  0.54566000  0.13208000  0.12653000  1.0
  H  H47  1  0.67780000  0.86825000  0.37342000  1.0
  H  H48  1  0.45434000  0.86792000  0.87347000  1.0
  H  H49  1  0.32220000  0.13175000  0.62658000  1.0
  H  H50  1  0.07567000  0.30540000  0.20031000  1.0
  H  H51  1  0.38109000  0.69490000  0.29967000  1.0
  H  H52  1  0.92433000  0.69461000  0.79969000  1.0
  H  H53  1  0.61891000  0.30510000  0.70033000  1.0
  H  H54  1  0.12195000  0.48386000  0.17289000  1.0
  H  H55  1  0.60526000  0.51635000  0.32708000  1.0
  H  H56  1  0.87805000  0.51614000  0.82711000  1.0
  H  H57  1  0.39475000  0.48365000  0.67292000  1.0
  H  H58  1  0.20875000  0.38604000  0.24027000  1.0
  H  H59  1  0.59479000  0.61421000  0.25970000  1.0
  H  H60  1  0.79126000  0.61396000  0.75973000  1.0
  H  H61  1  0.40521000  0.38579000  0.74030000  1.0
  C  C62  1  0.08848000  0.26719000  0.35748000  1.0
  C  C63  1  0.35498000  0.73328000  0.14229000  1.0
  C  C64  1  0.91151000  0.73281000  0.64253000  1.0
  C  C65  1  0.64504000  0.26672000  0.85771000  1.0
  C  C66  1  0.06975000  0.40889000  0.43074000  1.0
  C  C67  1  0.47789000  0.59180000  0.06900000  1.0
  C  C68  1  0.93025000  0.59111000  0.56926000  1.0
  C  C69  1  0.52212000  0.40820000  0.93100000  1.0
  C  C70  1  0.56489000  0.33272000  0.49887000  1.0
  C  C71  1  0.89800000  0.66734000  0.00100000  1.0
  C  C72  1  0.43509000  0.66729000  0.50113000  1.0
  C  C73  1  0.10200000  0.33266000  0.99900000  1.0
  C  C74  1  0.32367000  0.61254000  0.46574000  1.0
  C  C75  1  0.93545000  0.38763000  0.03428000  1.0
  C  C76  1  0.67632000  0.38747000  0.53426000  1.0
  C  C77  1  0.06456000  0.61236000  0.96572000  1.0
  C  C78  1  0.28243000  0.38817000  0.42755000  1.0
  C  C79  1  0.66992000  0.61236000  0.07224000  1.0
  C  C80  1  0.71756000  0.61184000  0.57245000  1.0
  C  C81  1  0.33008000  0.38763000  0.92776000  1.0
  C  C82  1  0.30025000  0.24672000  0.35415000  1.0
  C  C83  1  0.54632000  0.75367000  0.14565000  1.0
  C  C84  1  0.69974000  0.75329000  0.64586000  1.0
  C  C85  1  0.45370000  0.24632000  0.85435000  1.0
  C  C86  1  0.39524000  0.30711000  0.38836000  1.0
  C  C87  1  0.70175000  0.69329000  0.11145000  1.0
  C  C88  1  0.60475000  0.69289000  0.61164000  1.0
  C  C89  1  0.29826000  0.30670000  0.88855000  1.0
  C  C90  1  0.97421000  0.34964000  0.39608000  1.0
  C  C91  1  0.32303000  0.65097000  0.10365000  1.0
  C  C92  1  0.02578000  0.65036000  0.60392000  1.0
  C  C93  1  0.67698000  0.34902000  0.89635000  1.0
  C  C94  1  0.39044000  0.44583000  0.46487000  1.0
  C  C95  1  0.83588000  0.55445000  0.03500000  1.0
  C  C96  1  0.60955000  0.55419000  0.53513000  1.0
  C  C97  1  0.16413000  0.44555000  0.96500000  1.0
  C  C98  1  0.36773000  0.83728000  0.49921000  1.0
  C  C99  1  0.20437000  0.16260000  0.00105000  1.0
  C  C100  1  0.63226000  0.16272000  0.50079000  1.0
  C  C101  1  0.79563000  0.83739000  0.99895000  1.0
  C  C102  1  0.98908000  0.19741000  0.32143000  1.0
  C  C103  1  0.18579000  0.80303000  0.17833000  1.0
  C  C104  1  0.01091000  0.80260000  0.67857000  1.0
  C  C105  1  0.81421000  0.19697000  0.82167000  1.0
  C  C106  1  0.19944000  0.94640000  0.46600000  1.0
  C  C107  1  0.14466000  0.05369000  0.03429000  1.0
  C  C108  1  0.80055000  0.05361000  0.53400000  1.0
  C  C109  1  0.85535000  0.94630000  0.96571000  1.0
  C  C110  1  0.15149000  0.73092000  0.43116000  1.0
  C  C111  1  0.88079000  0.26943000  0.06884000  1.0
  C  C112  1  0.84850000  0.26909000  0.56884000  1.0
  C  C113  1  0.11921000  0.73056000  0.93116000  1.0
  C  C114  1  0.08893000  0.89262000  0.43170000  1.0
  C  C115  1  0.97988000  0.10764000  0.06845000  1.0
  C  C116  1  0.91106000  0.10738000  0.56830000  1.0
  C  C117  1  0.02013000  0.89236000  0.93155000  1.0
  C  C118  1  0.56575000  0.22418000  0.21280000  1.0
  C  C119  1  0.79051000  0.77575000  0.28722000  1.0
  C  C120  1  0.43426000  0.77582000  0.78720000  1.0
  C  C121  1  0.20950000  0.22425000  0.71278000  1.0
  C  C122  1  0.38484000  0.20646000  0.13379000  1.0
  C  C123  1  0.59134000  0.79377000  0.36619000  1.0
  C  C124  1  0.61516000  0.79355000  0.86621000  1.0
  C  C125  1  0.40867000  0.20623000  0.63381000  1.0
  C  C126  1  0.18667000  0.36613000  0.19995000  1.0
  C  C127  1  0.55269000  0.63409000  0.30003000  1.0
  C  C128  1  0.81333000  0.63387000  0.80005000  1.0
  C  C129  1  0.44731000  0.36590000  0.69997000  1.0
  N  N130  1  0.38790000  0.26470000  0.18333000  1.0
  N  N131  1  0.65273000  0.73545000  0.31667000  1.0
  N  N132  1  0.61210000  0.73531000  0.81667000  1.0
  N  N133  1  0.34727000  0.26454000  0.68333000  1.0
  O  O134  1  0.12025000  0.09996000  0.29422000  1.0
  O  O135  1  0.21955000  0.90059000  0.20551000  1.0
  O  O136  1  0.87974000  0.90005000  0.70578000  1.0
  O  O137  1  0.78045000  0.09941000  0.79449000  1.0
  O  O138  1  0.79423000  0.23281000  0.31912000  1.0
  O  O139  1  0.02644000  0.76740000  0.18071000  1.0
  O  O140  1  0.20577000  0.76719000  0.68088000  1.0
  O  O141  1  0.97357000  0.23260000  0.81929000  1.0
  O  O142  1  0.74416000  0.13903000  0.19898000  1.0
  O  O143  1  0.88426000  0.86062000  0.30108000  1.0
  O  O144  1  0.25584000  0.86097000  0.80102000  1.0
  O  O145  1  0.11575000  0.13938000  0.69892000  1.0
