# generated using pymatgen
data_ZnH13C20N2O5
_symmetry_space_group_name_H-M   'P 1'
_cell_length_a   12.26200000
_cell_length_b   15.60000000
_cell_length_c   26.52890000
_cell_angle_alpha   90.00030000
_cell_angle_beta   90.00020000
_cell_angle_gamma   96.61130000
_symmetry_Int_Tables_number   1
_chemical_formula_structural   ZnH13C20N2O5
_chemical_formula_sum   'Zn8 H104 C160 N16 O40'
_cell_volume   5040.89304706
_cell_formula_units_Z   8
loop_
 _symmetry_equiv_pos_site_id
 _symmetry_equiv_pos_as_xyz
  1  'x, y, z'
loop_
 _atom_site_type_symbol
 _atom_site_label
 _atom_site_symmetry_multiplicity
 _atom_site_fract_x
 _atom_site_fract_y
 _atom_site_fract_z
 _atom_site_occupancy
  Zn  Zn0  1  0.77527000  0.77937000  0.75740000  1.0
  Zn  Zn1  1  0.61815000  0.59054000  0.73694000  1.0
  Zn  Zn2  1  0.22473000  0.72063000  0.25740000  1.0
  Zn  Zn3  1  0.38185000  0.90946000  0.23694000  1.0
  Zn  Zn4  1  0.22473000  0.22063000  0.24260000  1.0
  Zn  Zn5  1  0.38185000  0.40946000  0.26306000  1.0
  Zn  Zn6  1  0.77527000  0.27937000  0.74260000  1.0
  Zn  Zn7  1  0.61815000  0.09054000  0.76306000  1.0
  H  H8  1  0.42069000  0.67232000  0.63056000  1.0
  H  H9  1  0.31195000  0.73585000  0.56264000  1.0
  H  H10  1  0.45955000  0.98995000  0.60276000  1.0
  H  H11  1  0.57541000  0.92586000  0.66736000  1.0
  H  H12  1  0.18620000  0.94246000  0.47529000  1.0
  H  H13  1  0.22095000  0.93508000  0.38247000  1.0
  H  H14  1  0.52618000  0.83443000  0.41124000  1.0
  H  H15  1  0.49232000  0.84062000  0.50386000  1.0
  H  H16  1  0.84100000  0.49824000  0.62408000  1.0
  H  H17  1  0.99304000  0.48020000  0.56343000  1.0
  H  H18  1  0.17277000  0.71445000  0.61961000  1.0
  H  H19  1  0.02003000  0.73187000  0.67987000  1.0
  H  H20  1  0.33163000  0.57774000  0.49197000  1.0
  H  H21  1  0.33957000  0.63630000  0.40399000  1.0
  H  H22  1  0.02985000  0.73347000  0.42612000  1.0
  H  H23  1  0.02201000  0.67742000  0.51448000  1.0
  H  H24  1  0.39093000  0.52789000  0.76743000  1.0
  H  H25  1  0.26583000  0.38846000  0.76370000  1.0
  H  H26  1  0.51781000  0.28125000  0.67821000  1.0
  H  H27  1  0.63154000  0.42384000  0.68496000  1.0
  H  H28  1  0.35248000  0.18804000  0.69746000  1.0
  H  H29  1  0.04033000  0.17902000  0.69962000  1.0
  H  H30  1  0.87164000  0.08594000  0.68917000  1.0
  H  H31  1  0.75955000  0.94358000  0.70167000  1.0
  H  H32  1  0.01010000  0.84581000  0.78005000  1.0
  H  H33  1  0.13495000  0.98455000  0.76965000  1.0
  H  H34  1  0.57930000  0.82768000  0.13056000  1.0
  H  H35  1  0.68805000  0.76415000  0.06265000  1.0
  H  H36  1  0.54045000  0.51004000  0.10276000  1.0
  H  H37  1  0.42459000  0.57414000  0.16736000  1.0
  H  H38  1  0.81380000  0.55753000  0.97529000  1.0
  H  H39  1  0.77904000  0.56492000  0.88247000  1.0
  H  H40  1  0.47382000  0.66557000  0.91125000  1.0
  H  H41  1  0.50769000  0.65938000  0.00386000  1.0
  H  H42  1  0.15901000  0.00176000  0.12408000  1.0
  H  H43  1  0.00696000  0.01981000  0.06343000  1.0
  H  H44  1  0.82724000  0.78555000  0.11961000  1.0
  H  H45  1  0.97997000  0.76813000  0.17987000  1.0
  H  H46  1  0.66837000  0.92227000  0.99197000  1.0
  H  H47  1  0.66042000  0.86370000  0.90399000  1.0
  H  H48  1  0.97015000  0.76654000  0.92612000  1.0
  H  H49  1  0.97798000  0.82258000  0.01448000  1.0
  H  H50  1  0.60907000  0.97212000  0.26743000  1.0
  H  H51  1  0.73417000  0.11154000  0.26371000  1.0
  H  H52  1  0.48219000  0.21875000  0.17821000  1.0
  H  H53  1  0.36846000  0.07616000  0.18496000  1.0
  H  H54  1  0.64751000  0.31196000  0.19747000  1.0
  H  H55  1  0.95967000  0.32098000  0.19962000  1.0
  H  H56  1  0.12836000  0.41406000  0.18917000  1.0
  H  H57  1  0.24044000  0.55642000  0.20167000  1.0
  H  H58  1  0.98991000  0.65419000  0.28005000  1.0
  H  H59  1  0.86505000  0.51545000  0.26965000  1.0
  H  H60  1  0.57931000  0.32768000  0.36944000  1.0
  H  H61  1  0.68805000  0.26416000  0.43736000  1.0
  H  H62  1  0.54045000  0.01004000  0.39724000  1.0
  H  H63  1  0.42459000  0.07414000  0.33264000  1.0
  H  H64  1  0.81380000  0.05753000  0.52471000  1.0
  H  H65  1  0.77904000  0.06491000  0.61753000  1.0
  H  H66  1  0.47382000  0.16557000  0.58876000  1.0
  H  H67  1  0.50769000  0.15938000  0.49614000  1.0
  H  H68  1  0.15900000  0.50176000  0.37592000  1.0
  H  H69  1  0.00696000  0.51981000  0.43657000  1.0
  H  H70  1  0.82723000  0.28555000  0.38039000  1.0
  H  H71  1  0.97997000  0.26813000  0.32013000  1.0
  H  H72  1  0.66837000  0.42227000  0.50803000  1.0
  H  H73  1  0.66043000  0.36370000  0.59601000  1.0
  H  H74  1  0.97015000  0.26654000  0.57388000  1.0
  H  H75  1  0.97798000  0.32258000  0.48552000  1.0
  H  H76  1  0.60907000  0.47212000  0.23257000  1.0
  H  H77  1  0.73417000  0.61154000  0.23630000  1.0
  H  H78  1  0.48219000  0.71875000  0.32178000  1.0
  H  H79  1  0.36846000  0.57617000  0.31504000  1.0
  H  H80  1  0.64751000  0.81196000  0.30253000  1.0
  H  H81  1  0.95967000  0.82098000  0.30038000  1.0
  H  H82  1  0.12836000  0.91406000  0.31083000  1.0
  H  H83  1  0.24045000  0.05642000  0.29833000  1.0
  H  H84  1  0.98991000  0.15419000  0.21995000  1.0
  H  H85  1  0.86505000  0.01545000  0.23035000  1.0
  H  H86  1  0.42069000  0.17232000  0.86944000  1.0
  H  H87  1  0.31195000  0.23585000  0.93736000  1.0
  H  H88  1  0.45955000  0.48996000  0.89724000  1.0
  H  H89  1  0.57540000  0.42586000  0.83264000  1.0
  H  H90  1  0.18620000  0.44247000  0.02471000  1.0
  H  H91  1  0.22096000  0.43508000  0.11753000  1.0
  H  H92  1  0.52619000  0.33443000  0.08876000  1.0
  H  H93  1  0.49232000  0.34062000  0.99614000  1.0
  H  H94  1  0.84100000  0.99824000  0.87592000  1.0
  H  H95  1  0.99304000  0.98020000  0.93657000  1.0
  H  H96  1  0.17277000  0.21445000  0.88039000  1.0
  H  H97  1  0.02002000  0.23187000  0.82013000  1.0
  H  H98  1  0.33163000  0.07774000  0.00803000  1.0
  H  H99  1  0.33957000  0.13630000  0.09601000  1.0
  H  H100  1  0.02985000  0.23346000  0.07388000  1.0
  H  H101  1  0.02202000  0.17742000  0.98552000  1.0
  H  H102  1  0.39093000  0.02788000  0.73257000  1.0
  H  H103  1  0.26583000  0.88846000  0.73630000  1.0
  H  H104  1  0.51781000  0.78125000  0.82179000  1.0
  H  H105  1  0.63154000  0.92384000  0.81504000  1.0
  H  H106  1  0.35249000  0.68804000  0.80254000  1.0
  H  H107  1  0.04034000  0.67902000  0.80038000  1.0
  H  H108  1  0.87164000  0.58594000  0.81083000  1.0
  H  H109  1  0.75956000  0.44358000  0.79833000  1.0
  H  H110  1  0.01009000  0.34581000  0.71995000  1.0
  H  H111  1  0.13495000  0.48455000  0.73035000  1.0
  C  C112  1  0.57248000  0.75610000  0.69138000  1.0
  C  C113  1  0.50479000  0.79534000  0.65292000  1.0
  C  C114  1  0.42937000  0.74166000  0.62387000  1.0
  C  C115  1  0.36782000  0.77671000  0.58678000  1.0
  C  C116  1  0.37937000  0.86608000  0.58005000  1.0
  C  C117  1  0.45229000  0.92061000  0.60904000  1.0
  C  C118  1  0.51616000  0.88467000  0.64500000  1.0
  C  C119  1  0.33717000  0.89259000  0.49457000  1.0
  C  C120  1  0.26018000  0.91881000  0.46062000  1.0
  C  C121  1  0.28002000  0.91466000  0.40923000  1.0
  C  C122  1  0.37614000  0.88462000  0.39102000  1.0
  C  C123  1  0.45138000  0.85734000  0.42558000  1.0
  C  C124  1  0.43279000  0.86088000  0.47722000  1.0
  C  C125  1  0.40212000  0.88568000  0.33630000  1.0
  C  C126  1  0.83105000  0.62938000  0.69140000  1.0
  C  C127  1  0.92104000  0.61663000  0.65530000  1.0
  C  C128  1  0.91359000  0.54545000  0.62273000  1.0
  C  C129  1  0.99807000  0.53537000  0.58884000  1.0
  C  C130  1  0.08992000  0.59721000  0.58789000  1.0
  C  C131  1  0.09947000  0.66788000  0.62048000  1.0
  C  C132  1  0.01469000  0.67734000  0.65405000  1.0
  C  C133  1  0.17571000  0.62272000  0.50779000  1.0
  C  C134  1  0.26612000  0.61207000  0.47704000  1.0
  C  C135  1  0.26991000  0.64466000  0.42823000  1.0
  C  C136  1  0.18406000  0.68747000  0.40911000  1.0
  C  C137  1  0.09585000  0.69950000  0.44091000  1.0
  C  C138  1  0.09110000  0.66799000  0.49012000  1.0
  C  C139  1  0.18202000  0.71579000  0.35539000  1.0
  C  C140  1  0.41380000  0.47173000  0.74730000  1.0
  C  C141  1  0.34563000  0.39472000  0.74523000  1.0
  C  C142  1  0.38178000  0.32365000  0.72026000  1.0
  C  C143  1  0.48536000  0.33486000  0.69715000  1.0
  C  C144  1  0.54924000  0.41401000  0.70105000  1.0
  C  C145  1  0.31773000  0.23902000  0.71849000  1.0
  C  C146  1  0.07716000  0.13034000  0.72185000  1.0
  C  C147  1  0.01365000  0.04602000  0.72769000  1.0
  C  C148  1  0.90696000  0.03352000  0.70801000  1.0
  C  C149  1  0.84359000  0.95492000  0.71554000  1.0
  C  C150  1  0.98447000  0.90043000  0.75934000  1.0
  C  C151  1  0.05267000  0.97703000  0.75358000  1.0
  C  C152  1  0.42752000  0.74390000  0.19138000  1.0
  C  C153  1  0.49521000  0.70465000  0.15292000  1.0
  C  C154  1  0.57061000  0.75834000  0.12387000  1.0
  C  C155  1  0.63217000  0.72329000  0.08678000  1.0
  C  C156  1  0.62062000  0.63392000  0.08005000  1.0
  C  C157  1  0.54770000  0.57939000  0.10904000  1.0
  C  C158  1  0.48384000  0.61533000  0.14500000  1.0
  C  C159  1  0.66283000  0.60741000  0.99457000  1.0
  C  C160  1  0.73982000  0.58118000  0.96062000  1.0
  C  C161  1  0.71998000  0.58533000  0.90923000  1.0
  C  C162  1  0.62386000  0.61537000  0.89102000  1.0
  C  C163  1  0.54862000  0.64265000  0.92558000  1.0
  C  C164  1  0.56722000  0.63912000  0.97722000  1.0
  C  C165  1  0.59788000  0.61432000  0.83630000  1.0
  C  C166  1  0.16895000  0.87063000  0.19140000  1.0
  C  C167  1  0.07897000  0.88338000  0.15530000  1.0
  C  C168  1  0.08641000  0.95455000  0.12273000  1.0
  C  C169  1  0.00194000  0.96463000  0.08884000  1.0
  C  C170  1  0.91008000  0.90280000  0.08789000  1.0
  C  C171  1  0.90053000  0.83212000  0.12048000  1.0
  C  C172  1  0.98532000  0.82266000  0.15405000  1.0
  C  C173  1  0.82429000  0.87729000  0.00779000  1.0
  C  C174  1  0.73388000  0.88793000  0.97704000  1.0
  C  C175  1  0.73009000  0.85535000  0.92823000  1.0
  C  C176  1  0.81594000  0.81253000  0.90911000  1.0
  C  C177  1  0.90415000  0.80050000  0.94090000  1.0
  C  C178  1  0.90890000  0.83202000  0.99012000  1.0
  C  C179  1  0.81798000  0.78421000  0.85539000  1.0
  C  C180  1  0.58619000  0.02828000  0.24730000  1.0
  C  C181  1  0.65436000  0.10529000  0.24523000  1.0
  C  C182  1  0.61821000  0.17636000  0.22026000  1.0
  C  C183  1  0.51463000  0.16514000  0.19715000  1.0
  C  C184  1  0.45075000  0.08599000  0.20105000  1.0
  C  C185  1  0.68227000  0.26098000  0.21849000  1.0
  C  C186  1  0.92284000  0.36966000  0.22185000  1.0
  C  C187  1  0.98635000  0.45398000  0.22769000  1.0
  C  C188  1  0.09304000  0.46648000  0.20801000  1.0
  C  C189  1  0.15641000  0.54508000  0.21554000  1.0
  C  C190  1  0.01553000  0.59957000  0.25934000  1.0
  C  C191  1  0.94733000  0.52297000  0.25358000  1.0
  C  C192  1  0.42752000  0.24390000  0.30862000  1.0
  C  C193  1  0.49521000  0.20466000  0.34708000  1.0
  C  C194  1  0.57062000  0.25834000  0.37613000  1.0
  C  C195  1  0.63218000  0.22329000  0.41322000  1.0
  C  C196  1  0.62062000  0.13392000  0.41995000  1.0
  C  C197  1  0.54770000  0.07939000  0.39096000  1.0
  C  C198  1  0.48384000  0.11533000  0.35500000  1.0
  C  C199  1  0.66283000  0.10741000  0.50543000  1.0
  C  C200  1  0.73982000  0.08118000  0.53938000  1.0
  C  C201  1  0.71998000  0.08533000  0.59077000  1.0
  C  C202  1  0.62386000  0.11537000  0.60898000  1.0
  C  C203  1  0.54862000  0.14265000  0.57442000  1.0
  C  C204  1  0.56722000  0.13912000  0.52278000  1.0
  C  C205  1  0.59787000  0.11430000  0.66370000  1.0
  C  C206  1  0.16895000  0.37063000  0.30860000  1.0
  C  C207  1  0.07897000  0.38338000  0.34470000  1.0
  C  C208  1  0.08641000  0.45455000  0.37727000  1.0
  C  C209  1  0.00194000  0.46463000  0.41116000  1.0
  C  C210  1  0.91008000  0.40280000  0.41212000  1.0
  C  C211  1  0.90053000  0.33212000  0.37952000  1.0
  C  C212  1  0.98532000  0.32266000  0.34595000  1.0
  C  C213  1  0.82429000  0.37729000  0.49221000  1.0
  C  C214  1  0.73388000  0.38793000  0.52296000  1.0
  C  C215  1  0.73009000  0.35535000  0.57177000  1.0
  C  C216  1  0.81594000  0.31253000  0.59089000  1.0
  C  C217  1  0.90415000  0.30050000  0.55910000  1.0
  C  C218  1  0.90890000  0.33202000  0.50988000  1.0
  C  C219  1  0.81799000  0.28422000  0.64461000  1.0
  C  C220  1  0.58619000  0.52828000  0.25270000  1.0
  C  C221  1  0.65436000  0.60529000  0.25476000  1.0
  C  C222  1  0.61821000  0.67636000  0.27973000  1.0
  C  C223  1  0.51463000  0.66515000  0.30285000  1.0
  C  C224  1  0.45075000  0.58599000  0.29895000  1.0
  C  C225  1  0.68227000  0.76098000  0.28151000  1.0
  C  C226  1  0.92284000  0.86966000  0.27815000  1.0
  C  C227  1  0.98636000  0.95398000  0.27232000  1.0
  C  C228  1  0.09304000  0.96648000  0.29199000  1.0
  C  C229  1  0.15641000  0.04508000  0.28446000  1.0
  C  C230  1  0.01553000  0.09957000  0.24066000  1.0
  C  C231  1  0.94733000  0.02297000  0.24642000  1.0
  C  C232  1  0.57248000  0.25610000  0.80862000  1.0
  C  C233  1  0.50479000  0.29535000  0.84708000  1.0
  C  C234  1  0.42938000  0.24166000  0.87613000  1.0
  C  C235  1  0.36782000  0.27671000  0.91323000  1.0
  C  C236  1  0.37938000  0.36608000  0.91995000  1.0
  C  C237  1  0.45230000  0.42061000  0.89096000  1.0
  C  C238  1  0.51616000  0.38467000  0.85500000  1.0
  C  C239  1  0.33717000  0.39259000  0.00543000  1.0
  C  C240  1  0.26018000  0.41882000  0.03938000  1.0
  C  C241  1  0.28002000  0.41466000  0.09077000  1.0
  C  C242  1  0.37614000  0.38463000  0.10898000  1.0
  C  C243  1  0.45138000  0.35735000  0.07442000  1.0
  C  C244  1  0.43279000  0.36088000  0.02278000  1.0
  C  C245  1  0.40212000  0.38569000  0.16370000  1.0
  C  C246  1  0.83106000  0.12937000  0.80860000  1.0
  C  C247  1  0.92104000  0.11662000  0.84470000  1.0
  C  C248  1  0.91359000  0.04545000  0.87727000  1.0
  C  C249  1  0.99807000  0.03537000  0.91116000  1.0
  C  C250  1  0.08992000  0.09721000  0.91211000  1.0
  C  C251  1  0.09947000  0.16788000  0.87952000  1.0
  C  C252  1  0.01468000  0.17734000  0.84595000  1.0
  C  C253  1  0.17571000  0.12272000  0.99221000  1.0
  C  C254  1  0.26612000  0.11207000  0.02296000  1.0
  C  C255  1  0.26991000  0.14465000  0.07177000  1.0
  C  C256  1  0.18406000  0.18747000  0.09089000  1.0
  C  C257  1  0.09585000  0.19950000  0.05910000  1.0
  C  C258  1  0.09110000  0.16799000  0.00988000  1.0
  C  C259  1  0.18201000  0.21578000  0.14461000  1.0
  C  C260  1  0.41380000  0.97173000  0.75270000  1.0
  C  C261  1  0.34563000  0.89471000  0.75477000  1.0
  C  C262  1  0.38178000  0.82365000  0.77974000  1.0
  C  C263  1  0.48537000  0.83486000  0.80285000  1.0
  C  C264  1  0.54924000  0.91401000  0.79895000  1.0
  C  C265  1  0.31773000  0.73902000  0.78151000  1.0
  C  C266  1  0.07717000  0.63034000  0.77814000  1.0
  C  C267  1  0.01365000  0.54602000  0.77231000  1.0
  C  C268  1  0.90696000  0.53352000  0.79199000  1.0
  C  C269  1  0.84359000  0.45492000  0.78446000  1.0
  C  C270  1  0.98447000  0.40043000  0.74066000  1.0
  C  C271  1  0.05267000  0.47703000  0.74642000  1.0
  N  N272  1  0.51475000  0.48121000  0.72593000  1.0
  N  N273  1  0.22523000  0.22543000  0.74210000  1.0
  N  N274  1  0.17160000  0.14632000  0.74348000  1.0
  N  N275  1  0.88089000  0.88929000  0.74087000  1.0
  N  N276  1  0.48524000  0.01879000  0.22594000  1.0
  N  N277  1  0.77477000  0.27457000  0.24210000  1.0
  N  N278  1  0.82840000  0.35368000  0.24348000  1.0
  N  N279  1  0.11911000  0.61071000  0.24087000  1.0
  N  N280  1  0.48524000  0.51879000  0.27406000  1.0
  N  N281  1  0.77477000  0.77457000  0.25790000  1.0
  N  N282  1  0.82841000  0.85369000  0.25652000  1.0
  N  N283  1  0.11911000  0.11071000  0.25913000  1.0
  N  N284  1  0.51475000  0.98121000  0.77406000  1.0
  N  N285  1  0.22523000  0.72543000  0.75790000  1.0
  N  N286  1  0.17160000  0.64631000  0.75652000  1.0
  N  N287  1  0.88089000  0.38929000  0.75913000  1.0
  O  O288  1  0.54249000  0.67734000  0.70217000  1.0
  O  O289  1  0.65414000  0.80333000  0.71035000  1.0
  O  O290  1  0.31436000  0.90258000  0.54490000  1.0
  O  O291  1  0.49499000  0.87107000  0.32081000  1.0
  O  O292  1  0.32460000  0.90497000  0.30599000  1.0
  O  O293  1  0.74321000  0.57682000  0.68988000  1.0
  O  O294  1  0.84989000  0.69266000  0.72182000  1.0
  O  O295  1  0.17670000  0.58658000  0.55521000  1.0
  O  O296  1  0.10102000  0.74821000  0.33777000  1.0
  O  O297  1  0.26638000  0.70155000  0.32777000  1.0
  O  O298  1  0.45751000  0.82265000  0.20217000  1.0
  O  O299  1  0.34587000  0.69666000  0.21036000  1.0
  O  O300  1  0.68564000  0.59742000  0.04490000  1.0
  O  O301  1  0.50501000  0.62894000  0.82081000  1.0
  O  O302  1  0.67540000  0.59503000  0.80599000  1.0
  O  O303  1  0.25680000  0.92318000  0.18988000  1.0
  O  O304  1  0.15012000  0.80734000  0.22182000  1.0
  O  O305  1  0.82331000  0.91342000  0.05521000  1.0
  O  O306  1  0.89899000  0.75180000  0.83777000  1.0
  O  O307  1  0.73362000  0.79845000  0.82777000  1.0
  O  O308  1  0.45752000  0.32266000  0.29783000  1.0
  O  O309  1  0.34587000  0.19667000  0.28964000  1.0
  O  O310  1  0.68564000  0.09742000  0.45510000  1.0
  O  O311  1  0.50501000  0.12892000  0.67919000  1.0
  O  O312  1  0.67540000  0.09501000  0.69401000  1.0
  O  O313  1  0.25680000  0.42318000  0.31012000  1.0
  O  O314  1  0.15012000  0.30734000  0.27818000  1.0
  O  O315  1  0.82330000  0.41342000  0.44479000  1.0
  O  O316  1  0.89899000  0.25180000  0.66223000  1.0
  O  O317  1  0.73363000  0.29845000  0.67223000  1.0
  O  O318  1  0.54249000  0.17734000  0.79783000  1.0
  O  O319  1  0.65414000  0.30333000  0.78964000  1.0
  O  O320  1  0.31436000  0.40258000  0.95510000  1.0
  O  O321  1  0.49499000  0.37108000  0.17919000  1.0
  O  O322  1  0.32460000  0.40497000  0.19401000  1.0
  O  O323  1  0.74321000  0.07681000  0.81012000  1.0
  O  O324  1  0.84988000  0.19266000  0.77818000  1.0
  O  O325  1  0.17671000  0.08659000  0.94479000  1.0
  O  O326  1  0.10101000  0.24821000  0.16223000  1.0
  O  O327  1  0.26637000  0.20154000  0.17223000  1.0
