# generated using pymatgen
data_Ag2H16C14S2O15
_symmetry_space_group_name_H-M   'P 1'
_cell_length_a   8.50928000
_cell_length_b   10.65600000
_cell_length_c   12.52874498
_cell_angle_alpha   65.05182207
_cell_angle_beta   75.20603605
_cell_angle_gamma   84.48680000
_symmetry_Int_Tables_number   1
_chemical_formula_structural   Ag2H16C14S2O15
_chemical_formula_sum   'Ag4 H32 C28 S4 O30'
_cell_volume   995.80494759
_cell_formula_units_Z   2
loop_
 _symmetry_equiv_pos_site_id
 _symmetry_equiv_pos_as_xyz
  1  'x, y, z'
loop_
 _atom_site_type_symbol
 _atom_site_label
 _atom_site_symmetry_multiplicity
 _atom_site_fract_x
 _atom_site_fract_y
 _atom_site_fract_z
 _atom_site_occupancy
  Ag  Ag0  1  0.48104000  0.78660000  0.58989000  1.0
  Ag  Ag1  1  0.51896000  0.21339000  0.41014000  1.0
  Ag  Ag2  1  0.91760000  0.65250000  0.37923000  1.0
  Ag  Ag3  1  0.08243000  0.34749000  0.62078000  1.0
  H  H4  1  0.78560000  0.09564000  0.87072000  1.0
  H  H5  1  0.21438000  0.90437000  0.12926000  1.0
  H  H6  1  0.12198000  0.34374000  0.84939000  1.0
  H  H7  1  0.87803000  0.65626000  0.15061000  1.0
  H  H8  1  0.72225000  0.41825000  0.13142000  1.0
  H  H9  1  0.27772000  0.58172000  0.86860000  1.0
  H  H10  1  0.37916000  0.15071000  0.18939000  1.0
  H  H11  1  0.62082000  0.84926000  0.81062000  1.0
  H  H12  1  0.21533000  0.69516000  0.51093000  1.0
  H  H13  1  0.78469000  0.30485000  0.48907000  1.0
  H  H14  1  0.14688000  0.77981000  0.59308000  1.0
  H  H15  1  0.85314000  0.22020000  0.40692000  1.0
  H  H16  1  0.83973000  0.93255000  0.68443000  1.0
  H  H17  1  0.16026000  0.06743000  0.31557000  1.0
  H  H18  1  0.69465000  0.96465000  0.62286000  1.0
  H  H19  1  0.30535000  0.03535000  0.37712000  1.0
  H  H20  1  0.66515000  0.58446000  0.29918000  1.0
  H  H21  1  0.33488000  0.41555000  0.70082000  1.0
  H  H22  1  0.79228000  0.45986000  0.31831000  1.0
  H  H23  1  0.20776000  0.54014000  0.68169000  1.0
  H  H24  1  0.60284000  0.83427000  0.34597000  1.0
  H  H25  1  0.39715000  0.16575000  0.65401000  1.0
  H  H26  1  0.54841000  0.86214000  0.15315000  1.0
  H  H27  1  0.45156000  0.13788000  0.84684000  1.0
  H  H28  1  0.98037000  0.14955000  0.14811000  1.0
  H  H29  1  0.01962000  0.85046000  0.85187000  1.0
  H  H30  1  0.87841000  0.63986000  0.65369000  1.0
  H  H31  1  0.12162000  0.36012000  0.34633000  1.0
  H  H32  1  0.93732000  0.64395000  0.83768000  1.0
  H  H33  1  0.06269000  0.35603000  0.16235000  1.0
  H  H34  1  0.52152000  0.31487000  0.88284000  1.0
  H  H35  1  0.47846000  0.68514000  0.11716000  1.0
  C  C36  1  0.79641000  0.99101000  0.25916000  1.0
  C  C37  1  0.20358000  0.00901000  0.74082000  1.0
  C  C38  1  0.67469000  0.90887000  0.26068000  1.0
  C  C39  1  0.32529000  0.09115000  0.73930000  1.0
  C  C40  1  0.64442000  0.92245000  0.15305000  1.0
  C  C41  1  0.35555000  0.07757000  0.84694000  1.0
  C  C42  1  0.73637000  0.01631000  0.04134000  1.0
  C  C43  1  0.26361000  0.98371000  0.95865000  1.0
  C  C44  1  0.85861000  0.09901000  0.04048000  1.0
  C  C45  1  0.14138000  0.90100000  0.95950000  1.0
  C  C46  1  0.88666000  0.08544000  0.15028000  1.0
  C  C47  1  0.11334000  0.91457000  0.84970000  1.0
  C  C48  1  0.95436000  0.19822000  0.92471000  1.0
  C  C49  1  0.04564000  0.80178000  0.07529000  1.0
  C  C50  1  0.69952000  0.47339000  0.75794000  1.0
  C  C51  1  0.30049000  0.52661000  0.24208000  1.0
  C  C52  1  0.81567000  0.56831000  0.74415000  1.0
  C  C53  1  0.18436000  0.43167000  0.25587000  1.0
  C  C54  1  0.84746000  0.57242000  0.84555000  1.0
  C  C55  1  0.15255000  0.42755000  0.15448000  1.0
  C  C56  1  0.76320000  0.48302000  0.96252000  1.0
  C  C57  1  0.23679000  0.51696000  0.03751000  1.0
  C  C58  1  0.64299000  0.39008000  0.97593000  1.0
  C  C59  1  0.35700000  0.60990000  0.02409000  1.0
  C  C60  1  0.61308000  0.38650000  0.87214000  1.0
  C  C61  1  0.38692000  0.61350000  0.12786000  1.0
  C  C62  1  0.55252000  0.29770000  0.09822000  1.0
  C  C63  1  0.44746000  0.70227000  0.90180000  1.0
  S  S64  1  0.84073000  0.97141000  0.39542000  1.0
  S  S65  1  0.15927000  0.02860000  0.60456000  1.0
  S  S66  1  0.66441000  0.46461000  0.62817000  1.0
  S  S67  1  0.33561000  0.53540000  0.37184000  1.0
  O  O68  1  0.68065000  0.97985000  0.47686000  1.0
  O  O69  1  0.31935000  0.02015000  0.52313000  1.0
  O  O70  1  0.91850000  0.83766000  0.44648000  1.0
  O  O71  1  0.08150000  0.16236000  0.55350000  1.0
  O  O72  1  0.94737000  0.09008000  0.36381000  1.0
  O  O73  1  0.05262000  0.90992000  0.63618000  1.0
  O  O74  1  0.70589000  0.02482000  0.93883000  1.0
  O  O75  1  0.29409000  0.97519000  0.06116000  1.0
  O  O76  1  0.93275000  0.20750000  0.82585000  1.0
  O  O77  1  0.06725000  0.79252000  0.17413000  1.0
  O  O78  1  0.05986000  0.27378000  0.93306000  1.0
  O  O79  1  0.94015000  0.72621000  0.06693000  1.0
  O  O80  1  0.81304000  0.40822000  0.57142000  1.0
  O  O81  1  0.18699000  0.59181000  0.42857000  1.0
  O  O82  1  0.63932000  0.60871000  0.54447000  1.0
  O  O83  1  0.36070000  0.39131000  0.45554000  1.0
  O  O84  1  0.52441000  0.37169000  0.66940000  1.0
  O  O85  1  0.47562000  0.62832000  0.33059000  1.0
  O  O86  1  0.79734000  0.48899000  0.05877000  1.0
  O  O87  1  0.20264000  0.51098000  0.94126000  1.0
  O  O88  1  0.58332000  0.29983000  0.19116000  1.0
  O  O89  1  0.41665000  0.70013000  0.80886000  1.0
  O  O90  1  0.44374000  0.21708000  0.10166000  1.0
  O  O91  1  0.55625000  0.78291000  0.89834000  1.0
  O  O92  1  0.22380000  0.70705000  0.58340000  1.0
  O  O93  1  0.77622000  0.29297000  0.41659000  1.0
  O  O94  1  0.72145000  0.95020000  0.69934000  1.0
  O  O95  1  0.27853000  0.04978000  0.30065000  1.0
  O  O96  1  0.78336000  0.56292000  0.27805000  1.0
  O  O97  1  0.21668000  0.43709000  0.72195000  1.0
