# generated using pymatgen
data_Zn4H66C91(N2O)8
_symmetry_space_group_name_H-M   'P 1'
_cell_length_a   19.38930000
_cell_length_b   19.49460000
_cell_length_c   20.24450000
_cell_angle_alpha   107.79400000
_cell_angle_beta   104.99800000
_cell_angle_gamma   113.55200000
_symmetry_Int_Tables_number   1
_chemical_formula_structural   Zn4H66C91(N2O)8
_chemical_formula_sum   'Zn4 H66 C91 N16 O8'
_cell_volume   6009.62161655
_cell_formula_units_Z   1
loop_
 _symmetry_equiv_pos_site_id
 _symmetry_equiv_pos_as_xyz
  1  'x, y, z'
loop_
 _atom_site_type_symbol
 _atom_site_label
 _atom_site_symmetry_multiplicity
 _atom_site_fract_x
 _atom_site_fract_y
 _atom_site_fract_z
 _atom_site_occupancy
  Zn  Zn0  1  0.10055000  0.08928000  0.48937000  1.0
  Zn  Zn1  1  0.87930000  0.88643000  0.50475000  1.0
  Zn  Zn2  1  0.98363000  0.88448000  0.39693000  1.0
  Zn  Zn3  1  0.00676000  0.09138000  0.59965000  1.0
  H  H4  1  0.18913000  0.12330000  0.37365000  1.0
  H  H5  1  0.72123000  0.39777000  0.44665000  1.0
  H  H6  1  0.72446000  0.87104000  0.55272000  1.0
  H  H7  1  0.74004000  0.28245000  0.45572000  1.0
  H  H8  1  0.82219000  0.21131000  0.45461000  1.0
  H  H9  1  0.10278000  0.44928000  0.42049000  1.0
  H  H10  1  0.08296000  0.56400000  0.40959000  1.0
  H  H11  1  0.44984000  0.07175000  0.44599000  1.0
  H  H12  1  0.58495000  0.08519000  0.46746000  1.0
  H  H13  1  0.69900000  0.06724000  0.53164000  1.0
  H  H14  1  0.87925000  0.90849000  0.26516000  1.0
  H  H15  1  0.81051000  0.68970000  0.48410000  1.0
  H  H16  1  0.68529000  0.96562000  0.69206000  1.0
  H  H17  1  0.57015000  0.94019000  0.73269000  1.0
  H  H18  1  0.43553000  0.93212000  0.71602000  1.0
  H  H19  1  0.20465000  0.43606000  0.78341000  1.0
  H  H20  1  0.62013000  0.78152000  0.27143000  1.0
  H  H21  1  0.50632000  0.56056000  0.84930000  1.0
  H  H22  1  0.62270000  0.83068000  0.04586000  1.0
  H  H23  1  0.40479000  0.41824000  0.74081000  1.0
  H  H24  1  0.89590000  0.16286000  0.53634000  1.0
  H  H25  1  0.54361000  0.67461000  0.96050000  1.0
  H  H26  1  0.14777000  0.10187000  0.73411000  1.0
  H  H27  1  0.30604000  0.57658000  0.89342000  1.0
  H  H28  1  0.48980000  0.70154000  0.15130000  1.0
  H  H29  1  0.11753000  0.85748000  0.17204000  1.0
  H  H30  1  0.22645000  0.08578000  0.82971000  1.0
  H  H31  1  0.04624000  0.81848000  0.71248000  1.0
  H  H32  1  0.13882000  0.88514000  0.96905000  1.0
  H  H33  1  0.27196000  0.13174000  0.17371000  1.0
  H  H34  1  0.27144000  0.07975000  0.95159000  1.0
  H  H35  1  0.22104000  0.12631000  0.27226000  1.0
  H  H36  1  0.16812000  0.86322000  0.07323000  1.0
  H  H37  1  0.99037000  0.82932000  0.59980000  1.0
  H  H38  1  0.09044000  0.81296000  0.83488000  1.0
  H  H39  1  0.03007000  0.17225000  0.39507000  1.0
  H  H40  1  0.88039000  0.14239000  0.65800000  1.0
  H  H41  1  0.03262000  0.85130000  0.24251000  1.0
  H  H42  1  0.27623000  0.29092000  0.60432000  1.0
  H  H43  1  0.21404000  0.81254000  0.50860000  1.0
  H  H44  1  0.21840000  0.83320000  0.42848000  1.0
  H  H45  1  0.13937000  0.73290000  0.41173000  1.0
  H  H46  1  0.11927000  0.33193000  0.55011000  1.0
  H  H47  1  0.15580000  0.43120000  0.54735000  1.0
  H  H48  1  0.26324000  0.11501000  0.60357000  1.0
  H  H49  1  0.19119000  0.36261000  0.50937000  1.0
  H  H50  1  0.25651000  0.00912000  0.68516000  1.0
  H  H51  1  0.36174000  0.05165000  0.75357000  1.0
  H  H52  1  0.27596000  0.96029000  0.74386000  1.0
  H  H53  1  0.34228000  0.04102000  0.43370000  1.0
  H  H54  1  0.72577000  0.97014000  0.09900000  1.0
  H  H55  1  0.75566000  0.89631000  0.06046000  1.0
  H  H56  1  0.83416000  0.00205000  0.13364000  1.0
  H  H57  1  0.43294000  0.78547000  0.11055000  1.0
  H  H58  1  0.32347000  0.70711000  0.05658000  1.0
  H  H59  1  0.14141000  0.28550000  0.74469000  1.0
  H  H60  1  0.37566000  0.77041000  0.01678000  1.0
  H  H61  1  0.65664000  0.93131000  0.34008000  1.0
  H  H62  1  0.74038000  0.00771000  0.43476000  1.0
  H  H63  1  0.64380000  0.92805000  0.42414000  1.0
  H  H64  1  0.40722000  0.06501000  0.09242000  1.0
  H  H65  1  0.38649000  0.10478000  0.17278000  1.0
  H  H66  1  0.42817000  0.17107000  0.13102000  1.0
  H  H67  1  0.95220000  0.69904000  0.35014000  1.0
  H  H68  1  0.00179000  0.63395000  0.41030000  1.0
  H  H69  1  0.77073000  0.52818000  0.43042000  1.0
  C  C70  1  0.14482000  0.05630000  0.34980000  1.0
  C  C71  1  0.21724000  0.04840000  0.56587000  1.0
  C  C72  1  0.16349000  0.27296000  0.70078000  1.0
  C  C73  1  0.77465000  0.93625000  0.57839000  1.0
  C  C74  1  0.91781000  0.70882000  0.38300000  1.0
  C  C75  1  0.23578000  0.32705000  0.69797000  1.0
  C  C76  1  0.87936000  0.66037000  0.41589000  1.0
  C  C77  1  0.23010000  0.98040000  0.54529000  1.0
  C  C78  1  0.09049000  0.96140000  0.69476000  1.0
  C  C79  1  0.95406000  0.58398000  0.41476000  1.0
  C  C80  1  0.88463000  0.58850000  0.41871000  1.0
  C  C81  1  0.77326000  0.01008000  0.61076000  1.0
  C  C82  1  0.82541000  0.52588000  0.42787000  1.0
  C  C83  1  0.83439000  0.45937000  0.43306000  1.0
  C  C84  1  0.90528000  0.45540000  0.42874000  1.0
  C  C85  1  0.85352000  0.90647000  0.30664000  1.0
  C  C86  1  0.96569000  0.51905000  0.41949000  1.0
  C  C87  1  0.77522000  0.39472000  0.44290000  1.0
  C  C88  1  0.78570000  0.33087000  0.44800000  1.0
  C  C89  1  0.85642000  0.32570000  0.44402000  1.0
  C  C90  1  0.91650000  0.38948000  0.43463000  1.0
  C  C91  1  0.98870000  0.38755000  0.43223000  1.0
  C  C92  1  0.77345000  0.88985000  0.29906000  1.0
  C  C93  1  0.04853000  0.45221000  0.42305000  1.0
  C  C94  1  0.03717000  0.51506000  0.41673000  1.0
  C  C95  1  0.86909000  0.26113000  0.44916000  1.0
  C  C96  1  0.93983000  0.25816000  0.44738000  1.0
  C  C97  1  0.93111000  0.15500000  0.50371000  1.0
  C  C98  1  0.99970000  0.32283000  0.43996000  1.0
  C  C99  1  0.35090000  0.96892000  0.61695000  1.0
  C  C100  1  0.31263000  0.98854000  0.56243000  1.0
  C  C101  1  0.35391000  0.01570000  0.51928000  1.0
  C  C102  1  0.43267000  0.02507000  0.53011000  1.0
  C  C103  1  0.95426000  0.19332000  0.45812000  1.0
  C  C104  1  0.46963000  0.00339000  0.58498000  1.0
  C  C105  1  0.42866000  0.97483000  0.62870000  1.0
  C  C106  1  0.47639000  0.05437000  0.48816000  1.0
  C  C107  1  0.55252000  0.06256000  0.49992000  1.0
  C  C108  1  0.59066000  0.04037000  0.55379000  1.0
  C  C109  1  0.77763000  0.89617000  0.37168000  1.0
  C  C110  1  0.54798000  0.00984000  0.59583000  1.0
  C  C111  1  0.58410000  0.98491000  0.64808000  1.0
  C  C112  1  0.54172000  0.95759000  0.69171000  1.0
  C  C113  1  0.46740000  0.95314000  0.68271000  1.0
  C  C114  1  0.23312000  0.27545000  0.63008000  1.0
  C  C115  1  0.66680000  0.04455000  0.56417000  1.0
  C  C116  1  0.69994000  0.01550000  0.61178000  1.0
  C  C117  1  0.65882000  0.98682000  0.65387000  1.0
  C  C118  1  0.29688000  0.41478000  0.75539000  1.0
  C  C119  1  0.27118000  0.46280000  0.79844000  1.0
  C  C120  1  0.32810000  0.54255000  0.86008000  1.0
  C  C121  1  0.00059000  0.16051000  0.43242000  1.0
  C  C122  1  0.41484000  0.57906000  0.88182000  1.0
  C  C123  1  0.43976000  0.53338000  0.83469000  1.0
  C  C124  1  0.38249000  0.45318000  0.77326000  1.0
  C  C125  1  0.84519000  0.70364000  0.45079000  1.0
  C  C126  1  0.62279000  0.82099000  0.09606000  1.0
  C  C127  1  0.69624000  0.86771000  0.16492000  1.0
  C  C128  1  0.62057000  0.79448000  0.22280000  1.0
  C  C129  1  0.54710000  0.74934000  0.15534000  1.0
  C  C130  1  0.54808000  0.75969000  0.08988000  1.0
  C  C131  1  0.47960000  0.65550000  0.95232000  1.0
  C  C132  1  0.47353000  0.69860000  0.01544000  1.0
  C  C133  1  0.85326000  0.07451000  0.63010000  1.0
  C  C134  1  0.69722000  0.85324000  0.22956000  1.0
  C  C135  1  0.16335000  0.99115000  0.22924000  1.0
  C  C136  1  0.14861000  0.91049000  0.49424000  1.0
  C  C137  1  0.15090000  0.91805000  0.17257000  1.0
  C  C138  1  0.17965000  0.92123000  0.11671000  1.0
  C  C139  1  0.22244000  0.99784000  0.11484000  1.0
  C  C140  1  0.23933000  0.07169000  0.17419000  1.0
  C  C141  1  0.21014000  0.06822000  0.22957000  1.0
  C  C142  1  0.22266000  0.02224000  0.89925000  1.0
  C  C143  1  0.19659000  0.02519000  0.83007000  1.0
  C  C144  1  0.09612000  0.87621000  0.76454000  1.0
  C  C145  1  0.06579000  0.91770000  0.28352000  1.0
  C  C146  1  0.12126000  0.87307000  0.83377000  1.0
  C  C147  1  0.10216000  0.03648000  0.69196000  1.0
  C  C148  1  0.18212000  0.94654000  0.90390000  1.0
  C  C149  1  0.24110000  0.00330000  0.04991000  1.0
  C  C150  1  0.18951000  0.94239000  0.97567000  1.0
  C  C151  1  0.12975000  0.95356000  0.76183000  1.0
  C  C152  1  0.12766000  0.98806000  0.28427000  1.0
  C  C153  1  0.17684000  0.80085000  0.45087000  1.0
  C  C154  1  0.13791000  0.36495000  0.51662000  1.0
  C  C155  1  0.30075000  0.99354000  0.71293000  1.0
  C  C156  1  0.77069000  0.94969000  0.11283000  1.0
  C  C157  1  0.38223000  0.73861000  0.05254000  1.0
  C  C158  1  0.02161000  0.89750000  0.62369000  1.0
  C  C159  1  0.68817000  0.94188000  0.39898000  1.0
  C  C160  1  0.38615000  0.10633000  0.11878000  1.0
  N  N161  1  0.09731000  0.02873000  0.38463000  1.0
  N  N162  1  0.89910000  0.91830000  0.37634000  1.0
  N  N163  1  0.96272000  0.10497000  0.50587000  1.0
  N  N164  1  0.85247000  0.91276000  0.41689000  1.0
  N  N165  1  0.00515000  0.10825000  0.46174000  1.0
  N  N166  1  0.89866000  0.04145000  0.61094000  1.0
  N  N167  1  0.04785000  0.94233000  0.34326000  1.0
  N  N168  1  0.16435000  0.19753000  0.59528000  1.0
  N  N169  1  0.86314000  0.77281000  0.44035000  1.0
  N  N170  1  0.09300000  0.93586000  0.48668000  1.0
  N  N171  1  0.04379000  0.01770000  0.62549000  1.0
  N  N172  1  0.99441000  0.93254000  0.58348000  1.0
  N  N173  1  0.13562000  0.02137000  0.53086000  1.0
  N  N174  1  0.12150000  0.19617000  0.63975000  1.0
  N  N175  1  0.90842000  0.77568000  0.39776000  1.0
  N  N176  1  0.84932000  0.95514000  0.57791000  1.0
  O  O177  1  0.11757000  0.82709000  0.45201000  1.0
  O  O178  1  0.07169000  0.32398000  0.44014000  1.0
  O  O179  1  0.31100000  0.93667000  0.65683000  1.0
  O  O180  1  0.31214000  0.03044000  0.46464000  1.0
  O  O181  1  0.77080000  0.92834000  0.17429000  1.0
  O  O182  1  0.39656000  0.67308000  0.01634000  1.0
  O  O183  1  0.71881000  0.88552000  0.39889000  1.0
  O  O184  1  0.30472000  0.08073000  0.06560000  1.0
