# generated using pymatgen
data_MnH12C16(N3O2)2
_symmetry_space_group_name_H-M   'P 1'
_cell_length_a   6.64867000
_cell_length_b   10.05220000
_cell_length_c   12.57110000
_cell_angle_alpha   66.49600000
_cell_angle_beta   80.97960000
_cell_angle_gamma   89.98960000
_symmetry_Int_Tables_number   1
_chemical_formula_structural   MnH12C16(N3O2)2
_chemical_formula_sum   'Mn2 H24 C32 N12 O8'
_cell_volume   759.13274453
_cell_formula_units_Z   2
loop_
 _symmetry_equiv_pos_site_id
 _symmetry_equiv_pos_as_xyz
  1  'x, y, z'
loop_
 _atom_site_type_symbol
 _atom_site_label
 _atom_site_symmetry_multiplicity
 _atom_site_fract_x
 _atom_site_fract_y
 _atom_site_fract_z
 _atom_site_occupancy
  Mn  Mn0  1  0.24990000  0.92932000  0.00004000  1.0
  Mn  Mn1  1  0.75009000  0.07068000  0.99997000  1.0
  H  H2  1  0.98656000  0.04099000  0.58504000  1.0
  H  H3  1  0.51313000  0.62609000  0.41474000  1.0
  H  H4  1  0.01343000  0.95902000  0.41495000  1.0
  H  H5  1  0.48687000  0.37390000  0.58526000  1.0
  H  H6  1  0.39578000  0.79062000  0.56069000  1.0
  H  H7  1  0.10447000  0.35185000  0.43857000  1.0
  H  H8  1  0.60421000  0.20938000  0.43932000  1.0
  H  H9  1  0.89554000  0.64815000  0.56143000  1.0
  H  H10  1  0.06696000  0.69985000  0.70217000  1.0
  H  H11  1  0.43318000  0.40245000  0.29686000  1.0
  H  H12  1  0.93305000  0.30014000  0.29783000  1.0
  H  H13  1  0.56683000  0.59756000  0.70313000  1.0
  H  H14  1  0.90359000  0.79312000  0.94715000  1.0
  H  H15  1  0.59591000  0.74080000  0.05238000  1.0
  H  H16  1  0.09640000  0.20688000  0.05286000  1.0
  H  H17  1  0.40408000  0.25920000  0.94762000  1.0
  H  H18  1  0.00509000  0.62076000  0.99321000  1.0
  H  H19  1  0.49480000  0.61464000  0.00596000  1.0
  H  H20  1  0.99492000  0.37924000  0.00679000  1.0
  H  H21  1  0.50519000  0.38537000  0.99403000  1.0
  H  H22  1  0.85357000  0.67270000  0.87968000  1.0
  H  H23  1  0.64652000  0.55312000  0.11937000  1.0
  H  H24  1  0.14643000  0.32729000  0.12033000  1.0
  H  H25  1  0.35347000  0.44689000  0.88063000  1.0
  C  C26  1  0.47470000  0.89984000  0.77595000  1.0
  C  C27  1  0.02508000  0.67602000  0.22379000  1.0
  C  C28  1  0.52530000  0.10015000  0.22405000  1.0
  C  C29  1  0.97492000  0.32399000  0.77621000  1.0
  C  C30  1  0.51868000  0.87806000  0.67147000  1.0
  C  C31  1  0.98132000  0.54989000  0.32816000  1.0
  C  C32  1  0.48133000  0.12194000  0.32853000  1.0
  C  C33  1  0.01869000  0.45011000  0.67183000  1.0
  C  C34  1  0.36854000  0.80674000  0.64242000  1.0
  C  C35  1  0.13164000  0.44965000  0.35693000  1.0
  C  C36  1  0.63146000  0.19325000  0.35758000  1.0
  C  C37  1  0.86837000  0.55035000  0.64307000  1.0
  C  C38  1  0.18772000  0.75557000  0.72103000  1.0
  C  C39  1  0.31241000  0.47704000  0.27824000  1.0
  C  C40  1  0.81228000  0.24443000  0.27898000  1.0
  C  C41  1  0.68760000  0.52297000  0.72176000  1.0
  C  C42  1  0.15692000  0.77536000  0.82700000  1.0
  C  C43  1  0.34298000  0.60273000  0.17241000  1.0
  C  C44  1  0.84308000  0.22463000  0.17300000  1.0
  C  C45  1  0.65702000  0.39728000  0.82759000  1.0
  C  C46  1  0.96815000  0.71218000  0.91603000  1.0
  C  C47  1  0.53167000  0.62878000  0.08328000  1.0
  C  C48  1  0.03185000  0.28782000  0.08398000  1.0
  C  C49  1  0.46832000  0.37123000  0.91672000  1.0
  C  C50  1  0.62719000  0.97668000  0.80585000  1.0
  C  C51  1  0.87241000  0.78261000  0.19404000  1.0
  C  C52  1  0.37281000  0.02332000  0.19415000  1.0
  C  C53  1  0.12758000  0.21739000  0.80596000  1.0
  C  C54  1  0.72023000  0.92667000  0.59872000  1.0
  C  C55  1  0.77976000  0.52578000  0.40100000  1.0
  C  C56  1  0.27978000  0.07333000  0.40127000  1.0
  C  C57  1  0.22024000  0.47422000  0.59900000  1.0
  N  N58  1  0.29692000  0.84880000  0.85280000  1.0
  N  N59  1  0.20282000  0.70184000  0.14685000  1.0
  N  N60  1  0.70309000  0.15120000  0.14720000  1.0
  N  N61  1  0.79718000  0.29816000  0.85315000  1.0
  N  N62  1  0.80432000  0.02767000  0.73591000  1.0
  N  N63  1  0.69525000  0.76362000  0.26398000  1.0
  N  N64  1  0.19568000  0.97233000  0.26408000  1.0
  N  N65  1  0.30475000  0.23638000  0.73602000  1.0
  N  N66  1  0.84218000  0.00222000  0.63598000  1.0
  N  N67  1  0.65754000  0.63836000  0.36380000  1.0
  N  N68  1  0.15782000  0.99778000  0.36402000  1.0
  N  N69  1  0.34246000  0.36164000  0.63620000  1.0
  O  O70  1  0.58297000  0.98982000  0.90638000  1.0
  O  O71  1  0.91663000  0.89624000  0.09364000  1.0
  O  O72  1  0.41703000  0.01018000  0.09361000  1.0
  O  O73  1  0.08336000  0.10376000  0.90636000  1.0
  O  O74  1  0.77898000  0.89974000  0.50929000  1.0
  O  O75  1  0.72122000  0.40958000  0.49042000  1.0
  O  O76  1  0.22101000  0.10027000  0.49072000  1.0
  O  O77  1  0.27878000  0.59042000  0.50957000  1.0
