# generated using pymatgen
data_CoH9C5SNO6
_symmetry_space_group_name_H-M   'P 1'
_cell_length_a   4.94074000
_cell_length_b   9.37374038
_cell_length_c   9.93373000
_cell_angle_alpha   89.99984496
_cell_angle_beta   89.99990000
_cell_angle_gamma   100.86924774
_symmetry_Int_Tables_number   1
_chemical_formula_structural   CoH9C5SNO6
_chemical_formula_sum   'Co2 H18 C10 S2 N2 O12'
_cell_volume   451.80946389
_cell_formula_units_Z   2
loop_
 _symmetry_equiv_pos_site_id
 _symmetry_equiv_pos_as_xyz
  1  'x, y, z'
loop_
 _atom_site_type_symbol
 _atom_site_label
 _atom_site_symmetry_multiplicity
 _atom_site_fract_x
 _atom_site_fract_y
 _atom_site_fract_z
 _atom_site_occupancy
  Co  Co0  1  0.85204000  0.43449000  0.60628000  1.0
  Co  Co1  1  0.14796000  0.56552000  0.10627000  1.0
  H  H2  1  0.38268000  0.29468000  0.65375000  1.0
  H  H3  1  0.61733000  0.70533000  0.15376000  1.0
  H  H4  1  0.45939000  0.07926000  0.61815000  1.0
  H  H5  1  0.54059000  0.92074000  0.11815000  1.0
  H  H6  1  0.40004000  0.39616000  0.85372000  1.0
  H  H7  1  0.59996000  0.60383000  0.35371000  1.0
  H  H8  1  0.23882000  0.14063000  0.90271000  1.0
  H  H9  1  0.76119000  0.85938000  0.40271000  1.0
  H  H10  1  0.50532000  0.18992000  0.02409000  1.0
  H  H11  1  0.49468000  0.81008000  0.52409000  1.0
  H  H12  1  0.45842000  0.57508000  0.59826000  1.0
  H  H13  1  0.54162000  0.42492000  0.09826000  1.0
  H  H14  1  0.64700000  0.63511000  0.72546000  1.0
  H  H15  1  0.35297000  0.36488000  0.22544000  1.0
  H  H16  1  0.43855000  0.19139000  0.34993000  1.0
  H  H17  1  0.56144000  0.80861000  0.84995000  1.0
  H  H18  1  0.25539000  0.28012000  0.43168000  1.0
  H  H19  1  0.74460000  0.71988000  0.93170000  1.0
  C  C20  1  0.63163000  0.14318000  0.67500000  1.0
  C  C21  1  0.36835000  0.85682000  0.17500000  1.0
  C  C22  1  0.90360000  0.14687000  0.60298000  1.0
  C  C23  1  0.09638000  0.85313000  0.10298000  1.0
  C  C24  1  0.55444000  0.32590000  0.84302000  1.0
  C  C25  1  0.44555000  0.67410000  0.34302000  1.0
  C  C26  1  0.82951000  0.41303000  0.89316000  1.0
  C  C27  1  0.17054000  0.58698000  0.39313000  1.0
  C  C28  1  0.46016000  0.18209000  0.91633000  1.0
  C  C29  1  0.53986000  0.81791000  0.41633000  1.0
  S  S30  1  0.66555000  0.06286000  0.84029000  1.0
  S  S31  1  0.33446000  0.93714000  0.34028000  1.0
  N  N32  1  0.57245000  0.29255000  0.69637000  1.0
  N  N33  1  0.42754000  0.70746000  0.19636000  1.0
  O  O34  1  0.00019000  0.03575000  0.58723000  1.0
  O  O35  1  0.99980000  0.96424000  0.08724000  1.0
  O  O36  1  0.02859000  0.27741000  0.56466000  1.0
  O  O37  1  0.97141000  0.72259000  0.06464000  1.0
  O  O38  1  0.01445000  0.46398000  0.80977000  1.0
  O  O39  1  0.98554000  0.53600000  0.30976000  1.0
  O  O40  1  0.84640000  0.43460000  0.02129000  1.0
  O  O41  1  0.15360000  0.56539000  0.52131000  1.0
  O  O42  1  0.65245000  0.59200000  0.63203000  1.0
  O  O43  1  0.34756000  0.40801000  0.13203000  1.0
  O  O44  1  0.41114000  0.29105000  0.36680000  1.0
  O  O45  1  0.58888000  0.70894000  0.86682000  1.0
