# generated using pymatgen
data_Zn4H16C40N4O13F8
_symmetry_space_group_name_H-M   'P 1'
_cell_length_a   23.84062207
_cell_length_b   23.84060000
_cell_length_c   23.83850000
_cell_angle_alpha   72.25900000
_cell_angle_beta   67.00006490
_cell_angle_gamma   107.73510883
_symmetry_Int_Tables_number   1
_chemical_formula_structural   Zn4H16C40N4O13F8
_chemical_formula_sum   'Zn8 H32 C80 N8 O26 F16'
_cell_volume   10399.85267192
_cell_formula_units_Z   2
loop_
 _symmetry_equiv_pos_site_id
 _symmetry_equiv_pos_as_xyz
  1  'x, y, z'
loop_
 _atom_site_type_symbol
 _atom_site_label
 _atom_site_symmetry_multiplicity
 _atom_site_fract_x
 _atom_site_fract_y
 _atom_site_fract_z
 _atom_site_occupancy
  Zn  Zn0  1  0.48709000  0.44414000  0.45596000  1.0
  Zn  Zn1  1  0.45598000  0.55589000  0.48707000  1.0
  Zn  Zn2  1  0.45703000  0.44412000  0.59991000  1.0
  Zn  Zn3  1  0.59990000  0.55588000  0.45703000  1.0
  Zn  Zn4  1  0.01292000  0.55695000  0.04295000  1.0
  Zn  Zn5  1  0.04403000  0.55695000  0.90007000  1.0
  Zn  Zn6  1  0.04296000  0.44306000  0.01292000  1.0
  Zn  Zn7  1  0.90010000  0.44306000  0.04402000  1.0
  H  H8  1  0.11378000  0.76500000  0.96389000  1.0
  H  H9  1  0.15128000  0.76507000  0.77099000  1.0
  H  H10  1  0.34718000  0.23636000  0.72869000  1.0
  H  H11  1  0.38932000  0.23642000  0.53492000  1.0
  H  H12  1  0.77109000  0.23499000  0.15121000  1.0
  H  H13  1  0.96392000  0.23497000  0.11376000  1.0
  H  H14  1  0.53494000  0.76363000  0.38928000  1.0
  H  H15  1  0.72866000  0.76362000  0.34719000  1.0
  H  H16  1  0.11072000  0.57581000  0.15287000  1.0
  H  H17  1  0.15284000  0.42417000  0.11080000  1.0
  H  H18  1  0.34875000  0.57770000  0.38622000  1.0
  H  H19  1  0.38619000  0.42230000  0.34879000  1.0
  H  H20  1  0.96507000  0.57580000  0.77130000  1.0
  H  H21  1  0.77134000  0.42417000  0.96504000  1.0
  H  H22  1  0.72891000  0.57769000  0.53609000  1.0
  H  H23  1  0.53606000  0.42229000  0.72897000  1.0
  H  H24  1  0.74988000  0.59184000  0.33369000  1.0
  H  H25  1  0.83142000  0.63415000  0.25951000  1.0
  H  H26  1  0.75012000  0.41643000  0.15804000  1.0
  H  H27  1  0.66859000  0.40907000  0.19725000  1.0
  H  H28  1  0.92553000  0.58358000  0.16630000  1.0
  H  H29  1  0.89367000  0.59094000  0.24048000  1.0
  H  H30  1  0.57447000  0.40818000  0.34193000  1.0
  H  H31  1  0.60632000  0.36586000  0.30272000  1.0
  H  H32  1  0.33368000  0.40816000  0.74991000  1.0
  H  H33  1  0.25950000  0.36584000  0.83145000  1.0
  H  H34  1  0.15808000  0.58361000  0.75008000  1.0
  H  H35  1  0.19731000  0.59098000  0.66854000  1.0
  H  H36  1  0.16629000  0.41641000  0.92554000  1.0
  H  H37  1  0.24046000  0.40905000  0.89370000  1.0
  H  H38  1  0.34198000  0.59186000  0.57444000  1.0
  H  H39  1  0.30277000  0.63418000  0.60629000  1.0
  C  C40  1  0.40898000  0.50000000  0.40899000  1.0
  C  C41  1  0.36052000  0.50000000  0.63948000  1.0
  C  C42  1  0.40963000  0.31924000  0.59039000  1.0
  C  C43  1  0.59099000  0.49999000  0.59103000  1.0
  C  C44  1  0.63948000  0.50001000  0.36051000  1.0
  C  C45  1  0.59038000  0.68077000  0.40963000  1.0
  C  C46  1  0.09104000  0.68203000  0.90893000  1.0
  C  C47  1  0.13948000  0.50000000  0.86051000  1.0
  C  C48  1  0.09037000  0.50000000  0.09039000  1.0
  C  C49  1  0.90901000  0.31799000  0.09099000  1.0
  C  C50  1  0.86053000  0.50001000  0.13947000  1.0
  C  C51  1  0.90963000  0.50000000  0.90960000  1.0
  C  C52  1  0.69543000  0.50001000  0.30456000  1.0
  C  C53  1  0.80457000  0.50000000  0.19543000  1.0
  C  C54  1  0.76683000  0.54426000  0.27634000  1.0
  C  C55  1  0.73317000  0.45683000  0.22256000  1.0
  C  C56  1  0.82061000  0.54318000  0.22365000  1.0
  C  C57  1  0.67939000  0.45574000  0.27742000  1.0
  C  C58  1  0.30458000  0.50001000  0.69542000  1.0
  C  C59  1  0.19543000  0.50000000  0.80457000  1.0
  C  C60  1  0.27634000  0.45574000  0.76684000  1.0
  C  C61  1  0.22259000  0.54320000  0.73314000  1.0
  C  C62  1  0.22365000  0.45682000  0.82061000  1.0
  C  C63  1  0.27745000  0.54428000  0.67937000  1.0
  C  C64  1  0.12860000  0.75717000  0.87137000  1.0
  C  C65  1  0.13551000  0.79208000  0.90823000  1.0
  C  C66  1  0.17039000  0.86159000  0.87251000  1.0
  C  C67  1  0.19972000  0.89939000  0.80027000  1.0
  C  C68  1  0.19123000  0.86162000  0.76583000  1.0
  C  C69  1  0.15661000  0.79211000  0.79960000  1.0
  C  C70  1  0.23507000  0.97002000  0.76496000  1.0
  C  C71  1  0.26578000  0.03134000  0.73429000  1.0
  C  C72  1  0.30110000  0.10196000  0.69899000  1.0
  C  C73  1  0.30845000  0.13975000  0.73367000  1.0
  C  C74  1  0.34283000  0.20925000  0.69994000  1.0
  C  C75  1  0.37212000  0.24414000  0.62793000  1.0
  C  C76  1  0.36657000  0.20928000  0.59078000  1.0
  C  C77  1  0.33153000  0.13978000  0.62653000  1.0
  C  C78  1  0.87143000  0.24283000  0.12856000  1.0
  C  C79  1  0.79967000  0.20792000  0.15656000  1.0
  C  C80  1  0.76589000  0.13842000  0.19119000  1.0
  C  C81  1  0.80032000  0.10063000  0.19968000  1.0
  C  C82  1  0.87254000  0.13841000  0.17037000  1.0
  C  C83  1  0.90827000  0.20792000  0.13548000  1.0
  C  C84  1  0.76499000  0.02999000  0.23504000  1.0
  C  C85  1  0.73433000  0.96868000  0.26572000  1.0
  C  C86  1  0.69901000  0.89805000  0.30106000  1.0
  C  C87  1  0.62656000  0.86026000  0.33147000  1.0
  C  C88  1  0.59080000  0.79075000  0.36653000  1.0
  C  C89  1  0.62793000  0.75588000  0.37210000  1.0
  C  C90  1  0.69993000  0.79075000  0.34282000  1.0
  C  C91  1  0.73367000  0.86025000  0.30842000  1.0
  C  C92  1  0.12790000  0.49999000  0.12796000  1.0
  C  C93  1  0.13345000  0.54268000  0.15727000  1.0
  C  C94  1  0.16849000  0.54198000  0.19174000  1.0
  C  C95  1  0.19889000  0.49993000  0.19915000  1.0
  C  C96  1  0.19155000  0.45791000  0.16870000  1.0
  C  C97  1  0.15718000  0.45727000  0.13357000  1.0
  C  C98  1  0.23419000  0.49992000  0.23447000  1.0
  C  C99  1  0.26490000  0.49994000  0.26508000  1.0
  C  C100  1  0.30026000  0.49997000  0.30035000  1.0
  C  C101  1  0.30876000  0.54290000  0.32964000  1.0
  C  C102  1  0.34340000  0.54376000  0.36451000  1.0
  C  C103  1  0.37140000  0.50000000  0.37143000  1.0
  C  C104  1  0.36447000  0.45623000  0.34344000  1.0
  C  C105  1  0.32959000  0.45707000  0.30881000  1.0
  C  C106  1  0.87208000  0.49998000  0.87205000  1.0
  C  C107  1  0.90922000  0.54268000  0.80002000  1.0
  C  C108  1  0.87347000  0.54196000  0.76627000  1.0
  C  C109  1  0.80102000  0.49991000  0.80093000  1.0
  C  C110  1  0.76635000  0.45789000  0.87341000  1.0
  C  C111  1  0.80008000  0.45725000  0.90918000  1.0
  C  C112  1  0.76570000  0.49990000  0.76563000  1.0
  C  C113  1  0.73501000  0.49992000  0.73500000  1.0
  C  C114  1  0.69967000  0.49995000  0.69971000  1.0
  C  C115  1  0.73410000  0.54288000  0.62748000  1.0
  C  C116  1  0.70032000  0.54376000  0.59175000  1.0
  C  C117  1  0.62856000  0.49999000  0.62860000  1.0
  C  C118  1  0.59172000  0.45622000  0.70037000  1.0
  C  C119  1  0.62744000  0.45705000  0.73416000  1.0
  N  N120  1  0.78910000  0.58910000  0.29881000  1.0
  N  N121  1  0.71090000  0.41210000  0.19999000  1.0
  N  N122  1  0.88791000  0.58791000  0.20119000  1.0
  N  N123  1  0.61209000  0.41091000  0.29998000  1.0
  N  N124  1  0.29879000  0.41089000  0.78913000  1.0
  N  N125  1  0.20004000  0.58795000  0.71085000  1.0
  N  N126  1  0.20118000  0.41208000  0.88793000  1.0
  N  N127  1  0.30003000  0.58913000  0.61206000  1.0
  O  O128  1  0.50000000  0.50000000  0.50000000  1.0
  O  O129  1  0.43096000  0.45727000  0.41597000  1.0
  O  O130  1  0.38064000  0.53623000  0.57567000  1.0
  O  O131  1  0.41009000  0.34812000  0.62748000  1.0
  O  O132  1  0.41595000  0.54273000  0.43097000  1.0
  O  O133  1  0.43803000  0.34813000  0.52440000  1.0
  O  O134  1  0.38809000  0.46378000  0.65560000  1.0
  O  O135  1  0.52628000  0.45728000  0.62679000  1.0
  O  O136  1  0.65559000  0.53623000  0.38809000  1.0
  O  O137  1  0.62675000  0.54271000  0.52631000  1.0
  O  O138  1  0.57568000  0.46379000  0.38062000  1.0
  O  O139  1  0.52441000  0.65189000  0.43802000  1.0
  O  O140  1  0.62747000  0.65189000  0.41008000  1.0
  O  O141  1  0.00000000  0.50001000  0.99999000  1.0
  O  O142  1  0.06904000  0.65307000  0.97366000  1.0
  O  O143  1  0.11938000  0.54370000  0.84439000  1.0
  O  O144  1  0.08991000  0.46244000  0.06197000  1.0
  O  O145  1  0.08409000  0.65309000  0.87316000  1.0
  O  O146  1  0.06198000  0.53757000  0.08989000  1.0
  O  O147  1  0.11189000  0.45631000  0.92432000  1.0
  O  O148  1  0.97372000  0.34694000  0.06900000  1.0
  O  O149  1  0.84442000  0.45632000  0.11937000  1.0
  O  O150  1  0.87325000  0.34694000  0.08403000  1.0
  O  O151  1  0.92432000  0.54369000  0.11190000  1.0
  O  O152  1  0.97560000  0.53758000  0.87250000  1.0
  O  O153  1  0.87254000  0.46245000  0.97558000  1.0
  F  F154  1  0.21863000  0.89589000  0.69651000  1.0
  F  F155  1  0.17724000  0.89582000  0.90759000  1.0
  F  F156  1  0.32561000  0.10557000  0.59123000  1.0
  F  F157  1  0.28016000  0.10550000  0.80318000  1.0
  F  F158  1  0.90759000  0.10414000  0.17725000  1.0
  F  F159  1  0.69657000  0.10416000  0.21859000  1.0
  F  F160  1  0.80317000  0.89448000  0.28014000  1.0
  F  F161  1  0.59129000  0.89448000  0.32553000  1.0
  F  F162  1  0.21983000  0.41669000  0.17466000  1.0
  F  F163  1  0.17441000  0.58319000  0.22003000  1.0
  F  F164  1  0.32271000  0.41513000  0.28143000  1.0
  F  F165  1  0.28137000  0.58483000  0.32276000  1.0
  F  F166  1  0.69685000  0.41667000  0.90868000  1.0
  F  F167  1  0.90875000  0.58317000  0.69676000  1.0
  F  F168  1  0.59239000  0.41513000  0.80348000  1.0
  F  F169  1  0.80342000  0.58481000  0.59241000  1.0
