# generated using pymatgen
data_Mn3H10C10O13
_symmetry_space_group_name_H-M   'P 1'
_cell_length_a   9.99195000
_cell_length_b   11.50100000
_cell_length_c   14.96310000
_cell_angle_alpha   91.18130000
_cell_angle_beta   90.00000000
_cell_angle_gamma   89.99990000
_symmetry_Int_Tables_number   1
_chemical_formula_structural   Mn3H10C10O13
_chemical_formula_sum   'Mn12 H40 C40 O52'
_cell_volume   1719.15534379
_cell_formula_units_Z   4
loop_
 _symmetry_equiv_pos_site_id
 _symmetry_equiv_pos_as_xyz
  1  'x, y, z'
loop_
 _atom_site_type_symbol
 _atom_site_label
 _atom_site_symmetry_multiplicity
 _atom_site_fract_x
 _atom_site_fract_y
 _atom_site_fract_z
 _atom_site_occupancy
  Mn  Mn0  1  0.08559000  0.24362000  0.86799000  1.0
  Mn  Mn1  1  0.41441000  0.74362000  0.36799000  1.0
  Mn  Mn2  1  0.91441000  0.75638000  0.13200000  1.0
  Mn  Mn3  1  0.58559000  0.25638000  0.63200000  1.0
  Mn  Mn4  1  0.90373000  0.26443000  0.68407000  1.0
  Mn  Mn5  1  0.59627000  0.76443000  0.18407000  1.0
  Mn  Mn6  1  0.09627000  0.73558000  0.31593000  1.0
  Mn  Mn7  1  0.40374000  0.23558000  0.81593000  1.0
  Mn  Mn8  1  0.00000000  0.50000000  0.00000000  1.0
  Mn  Mn9  1  0.50000000  0.00000000  0.50000000  1.0
  Mn  Mn10  1  0.00000000  0.00000000  0.00000000  1.0
  Mn  Mn11  1  0.50000000  0.50000000  0.50000000  1.0
  H  H12  1  0.26572000  0.12363000  0.63025000  1.0
  H  H13  1  0.23429000  0.62363000  0.13025000  1.0
  H  H14  1  0.73429000  0.87637000  0.36975000  1.0
  H  H15  1  0.76571000  0.37637000  0.86975000  1.0
  H  H16  1  0.97233000  0.53626000  0.72495000  1.0
  H  H17  1  0.52767000  0.03626000  0.22495000  1.0
  H  H18  1  0.02767000  0.46374000  0.27505000  1.0
  H  H19  1  0.47233000  0.96374000  0.77505000  1.0
  H  H20  1  0.40430000  0.44951000  0.95440000  1.0
  H  H21  1  0.09570000  0.94951000  0.45440000  1.0
  H  H22  1  0.59570000  0.55049000  0.04560000  1.0
  H  H23  1  0.90430000  0.05049000  0.54560000  1.0
  H  H24  1  0.79454000  0.02245000  0.76180000  1.0
  H  H25  1  0.70546000  0.52245000  0.26180000  1.0
  H  H26  1  0.20545000  0.97755000  0.23820000  1.0
  H  H27  1  0.29455000  0.47755000  0.73820000  1.0
  H  H28  1  0.82445000  0.31296000  0.07270000  1.0
  H  H29  1  0.67555000  0.81296000  0.57270000  1.0
  H  H30  1  0.17555000  0.68704000  0.92730000  1.0
  H  H31  1  0.32445000  0.18704000  0.42730000  1.0
  H  H32  1  0.30418000  0.99997000  0.00301000  1.0
  H  H33  1  0.19582000  0.49997000  0.50301000  1.0
  H  H34  1  0.69582000  0.00003000  0.99698000  1.0
  H  H35  1  0.80418000  0.50003000  0.49699000  1.0
  H  H36  1  0.56100000  0.21431000  0.04281000  1.0
  H  H37  1  0.93900000  0.71431000  0.54281000  1.0
  H  H38  1  0.43900000  0.78569000  0.95719000  1.0
  H  H39  1  0.06100000  0.28569000  0.45719000  1.0
  H  H40  1  0.62966000  0.30401000  0.21036000  1.0
  H  H41  1  0.87034000  0.80401000  0.71036000  1.0
  H  H42  1  0.37034000  0.69599000  0.78964000  1.0
  H  H43  1  0.12966000  0.19598000  0.28964000  1.0
  H  H44  1  0.38968000  0.36303000  0.28774000  1.0
  H  H45  1  0.11032000  0.86303000  0.78774000  1.0
  H  H46  1  0.61032000  0.63697000  0.71226000  1.0
  H  H47  1  0.88968000  0.13697000  0.21226000  1.0
  H  H48  1  0.20042000  0.30414000  0.15847000  1.0
  H  H49  1  0.29958000  0.80414000  0.65847000  1.0
  H  H50  1  0.79958000  0.69586000  0.84153000  1.0
  H  H51  1  0.70042000  0.19586000  0.34153000  1.0
  C  C52  1  0.18442000  0.16354000  0.67034000  1.0
  C  C53  1  0.31558000  0.66354000  0.17034000  1.0
  C  C54  1  0.81558000  0.83646000  0.32966000  1.0
  C  C55  1  0.68442000  0.33646000  0.82966000  1.0
  C  C56  1  0.99189000  0.48927000  0.78755000  1.0
  C  C57  1  0.50812000  0.98927000  0.28755000  1.0
  C  C58  1  0.00812000  0.51073000  0.21246000  1.0
  C  C59  1  0.49188000  0.01073000  0.71245000  1.0
  C  C60  1  0.29639000  0.42912000  0.94828000  1.0
  C  C61  1  0.20361000  0.92912000  0.44828000  1.0
  C  C62  1  0.70361000  0.57088000  0.05172000  1.0
  C  C63  1  0.79639000  0.07088000  0.55172000  1.0
  C  C64  1  0.86919000  0.04914000  0.81306000  1.0
  C  C65  1  0.63081000  0.54914000  0.31305000  1.0
  C  C66  1  0.13081000  0.95086000  0.18695000  1.0
  C  C67  1  0.36919000  0.45085000  0.68695000  1.0
  C  C68  1  0.88942000  0.25741000  0.03007000  1.0
  C  C69  1  0.61058000  0.75741000  0.53007000  1.0
  C  C70  1  0.11058000  0.74259000  0.96993000  1.0
  C  C71  1  0.38942000  0.24259000  0.46993000  1.0
  C  C72  1  0.28793000  0.06653000  0.95206000  1.0
  C  C73  1  0.21207000  0.56653000  0.45206000  1.0
  C  C74  1  0.71207000  0.93347000  0.04794000  1.0
  C  C75  1  0.78793000  0.43347000  0.54794000  1.0
  C  C76  1  0.50208000  0.24852000  0.09815000  1.0
  C  C77  1  0.99792000  0.74852000  0.59815000  1.0
  C  C78  1  0.49792000  0.75147000  0.90185000  1.0
  C  C79  1  0.00208000  0.25148000  0.40185000  1.0
  C  C80  1  0.53090000  0.29398000  0.18099000  1.0
  C  C81  1  0.96910000  0.79398000  0.68099000  1.0
  C  C82  1  0.46910000  0.70602000  0.81901000  1.0
  C  C83  1  0.03090000  0.20602000  0.31901000  1.0
  C  C84  1  0.40499000  0.32480000  0.22161000  1.0
  C  C85  1  0.09501000  0.82480000  0.72161000  1.0
  C  C86  1  0.59501000  0.67520000  0.77839000  1.0
  C  C87  1  0.90499000  0.17520000  0.27839000  1.0
  C  C88  1  0.30846000  0.29593000  0.16048000  1.0
  C  C89  1  0.19154000  0.79593000  0.66048000  1.0
  C  C90  1  0.69154000  0.70407000  0.83952000  1.0
  C  C91  1  0.80846000  0.20407000  0.33952000  1.0
  O  O92  1  0.20878000  0.18564000  0.75317000  1.0
  O  O93  1  0.29123000  0.68564000  0.25317000  1.0
  O  O94  1  0.79123000  0.81436000  0.24683000  1.0
  O  O95  1  0.70877000  0.31436000  0.74683000  1.0
  O  O96  1  0.07579000  0.18327000  0.63069000  1.0
  O  O97  1  0.42421000  0.68327000  0.13069000  1.0
  O  O98  1  0.92421000  0.81673000  0.36931000  1.0
  O  O99  1  0.57579000  0.31673000  0.86931000  1.0
  O  O100  1  0.00562000  0.37824000  0.77969000  1.0
  O  O101  1  0.49438000  0.87824000  0.27969000  1.0
  O  O102  1  0.99438000  0.62176000  0.22031000  1.0
  O  O103  1  0.50562000  0.12176000  0.72031000  1.0
  O  O104  1  0.99854000  0.54690000  0.85942000  1.0
  O  O105  1  0.50146000  0.04689000  0.35942000  1.0
  O  O106  1  0.00146000  0.45310000  0.14058000  1.0
  O  O107  1  0.49854000  0.95310000  0.64058000  1.0
  O  O108  1  0.26545000  0.34963000  0.88980000  1.0
  O  O109  1  0.23455000  0.84964000  0.38980000  1.0
  O  O110  1  0.73455000  0.65037000  0.11020000  1.0
  O  O111  1  0.76545000  0.15037000  0.61020000  1.0
  O  O112  1  0.21516000  0.48418000  0.99677000  1.0
  O  O113  1  0.28484000  0.98418000  0.49677000  1.0
  O  O114  1  0.78484000  0.51582000  0.00323000  1.0
  O  O115  1  0.71516000  0.01582000  0.50323000  1.0
  O  O116  1  0.92116000  0.15033000  0.80336000  1.0
  O  O117  1  0.57884000  0.65034000  0.30336000  1.0
  O  O118  1  0.07884000  0.84967000  0.19664000  1.0
  O  O119  1  0.42116000  0.34967000  0.69664000  1.0
  O  O120  1  0.89489000  0.97991000  0.87420000  1.0
  O  O121  1  0.60510000  0.47991000  0.37420000  1.0
  O  O122  1  0.10511000  0.02009000  0.12580000  1.0
  O  O123  1  0.39489000  0.52009000  0.62580000  1.0
  O  O124  1  0.96968000  0.31158000  0.97779000  1.0
  O  O125  1  0.53032000  0.81158000  0.47779000  1.0
  O  O126  1  0.03032000  0.68842000  0.02221000  1.0
  O  O127  1  0.46968000  0.18842000  0.52221000  1.0
  O  O128  1  0.87930000  0.14939000  0.03560000  1.0
  O  O129  1  0.62070000  0.64939000  0.53560000  1.0
  O  O130  1  0.12070000  0.85061000  0.96440000  1.0
  O  O131  1  0.37931000  0.35061000  0.46440000  1.0
  O  O132  1  0.16643000  0.10121000  0.94187000  1.0
  O  O133  1  0.33357000  0.60121000  0.44187000  1.0
  O  O134  1  0.83357000  0.89879000  0.05813000  1.0
  O  O135  1  0.66643000  0.39879000  0.55813000  1.0
  O  O136  1  0.38767000  0.10109000  0.90901000  1.0
  O  O137  1  0.11233000  0.60109000  0.40901000  1.0
  O  O138  1  0.61233000  0.89891000  0.09099000  1.0
  O  O139  1  0.88767000  0.39891000  0.59099000  1.0
  O  O140  1  0.36607000  0.24904000  0.08456000  1.0
  O  O141  1  0.13393000  0.74904000  0.58456000  1.0
  O  O142  1  0.63393000  0.75096000  0.91544000  1.0
  O  O143  1  0.86607000  0.25096000  0.41544000  1.0
