# generated using pymatgen
data_CuH29C32N5O6
_symmetry_space_group_name_H-M   'P 1'
_cell_length_a   7.28787000
_cell_length_b   9.18668000
_cell_length_c   12.49447494
_cell_angle_alpha   99.78403054
_cell_angle_beta   105.56361276
_cell_angle_gamma   106.80170000
_symmetry_Int_Tables_number   1
_chemical_formula_structural   CuH29C32N5O6
_chemical_formula_sum   'Cu1 H29 C32 N5 O6'
_cell_volume   743.14857284
_cell_formula_units_Z   1
loop_
 _symmetry_equiv_pos_site_id
 _symmetry_equiv_pos_as_xyz
  1  'x, y, z'
loop_
 _atom_site_type_symbol
 _atom_site_label
 _atom_site_symmetry_multiplicity
 _atom_site_fract_x
 _atom_site_fract_y
 _atom_site_fract_z
 _atom_site_occupancy
  Cu  Cu0  1  0.30969000  0.91689000  0.90138000  1.0
  H  H1  1  0.95302000  0.41808000  0.24866000  1.0
  H  H2  1  0.16203000  0.39129000  0.42677000  1.0
  H  H3  1  0.04923000  0.39601000  0.59829000  1.0
  H  H4  1  0.71216000  0.42047000  0.58581000  1.0
  H  H5  1  0.49341000  0.44279000  0.40169000  1.0
  H  H6  1  0.38739000  0.49970000  0.01062000  1.0
  H  H7  1  0.73549000  0.58228000  0.96842000  1.0
  H  H8  1  0.65186000  0.38335000  0.88801000  1.0
  H  H9  1  0.54824000  0.52898000  0.75309000  1.0
  H  H10  1  0.31947000  0.42876000  0.77684000  1.0
  H  H11  1  0.49132000  0.14553000  0.77899000  1.0
  H  H12  1  0.39990000  0.17354000  0.57644000  1.0
  H  H13  1  0.91258000  0.72450000  0.47851000  1.0
  H  H14  1  0.01821000  0.71895000  0.68220000  1.0
  H  H15  1  0.85247000  0.73599000  0.31343000  1.0
  H  H16  1  0.76970000  0.77330000  0.11530000  1.0
  H  H17  1  0.97374000  0.02420000  0.08470000  1.0
  H  H18  1  0.24215000  0.23097000  0.25503000  1.0
  H  H19  1  0.59681000  0.12346000  0.12343000  1.0
  H  H20  1  0.69546000  0.12038000  0.32780000  1.0
  H  H21  1  0.24611000  0.65166000  0.22368000  1.0
  H  H22  1  0.00992000  0.01982000  0.88147000  1.0
  H  H23  1  0.85495000  0.86320000  0.89473000  1.0
  H  H24  1  0.16142000  0.67637000  0.02015000  1.0
  H  H25  1  0.78441000  0.09755000  0.48571000  1.0
  H  H26  1  0.86554000  0.07086000  0.68668000  1.0
  H  H27  1  0.64943000  0.83074000  0.72357000  1.0
  H  H28  1  0.36463000  0.62722000  0.55726000  1.0
  H  H29  1  0.75804000  0.43593000  0.11584000  1.0
  C  C30  1  0.89542000  0.41921000  0.32084000  1.0
  C  C31  1  0.01725000  0.40519000  0.42289000  1.0
  C  C32  1  0.95245000  0.40585000  0.51849000  1.0
  C  C33  1  0.76378000  0.41976000  0.51148000  1.0
  C  C34  1  0.64096000  0.43215000  0.40924000  1.0
  C  C35  1  0.70468000  0.43143000  0.31257000  1.0
  C  C36  1  0.55722000  0.43594000  0.20413000  1.0
  C  C37  1  0.48054000  0.42706000  0.99958000  1.0
  C  C38  1  0.33342000  0.25243000  0.94690000  1.0
  C  C39  1  0.59875000  0.47768000  0.91905000  1.0
  C  C40  1  0.47164000  0.51985000  0.81795000  1.0
  C  C41  1  0.45533000  0.68071000  0.85916000  1.0
  C  C42  1  0.36216000  0.05689000  0.70927000  1.0
  C  C43  1  0.31151000  0.07175000  0.59747000  1.0
  C  C44  1  0.14723000  0.95247000  0.50947000  1.0
  C  C45  1  0.04209000  0.82217000  0.54096000  1.0
  C  C46  1  0.09967000  0.81695000  0.65498000  1.0
  C  C47  1  0.09133000  0.96636000  0.38961000  1.0
  C  C48  1  0.93720000  0.84444000  0.29818000  1.0
  C  C49  1  0.89186000  0.86427000  0.18732000  1.0
  C  C50  1  0.00304000  0.00408000  0.17007000  1.0
  C  C51  1  0.15377000  0.11942000  0.26578000  1.0
  C  C52  1  0.52169000  0.02195000  0.14973000  1.0
  C  C53  1  0.57493000  0.01823000  0.26401000  1.0
  C  C54  1  0.47612000  0.88456000  0.29428000  1.0
  C  C55  1  0.32382000  0.75909000  0.20452000  1.0
  C  C56  1  0.27801000  0.77179000  0.09196000  1.0
  C  C57  1  0.53077000  0.87426000  0.41505000  1.0
  C  C58  1  0.69285000  0.99463000  0.50403000  1.0
  C  C59  1  0.73830000  0.98031000  0.61629000  1.0
  C  C60  1  0.61936000  0.84652000  0.63710000  1.0
  C  C61  1  0.46207000  0.73266000  0.54366000  1.0
  N  N62  1  0.62284000  0.44791000  0.11268000  1.0
  N  N63  1  0.25704000  0.93253000  0.73851000  1.0
  N  N64  1  0.37519000  0.90125000  0.06440000  1.0
  N  N65  1  0.41756000  0.74384000  0.43506000  1.0
  N  N66  1  0.19697000  0.10290000  0.37323000  1.0
  O  O67  1  0.38139000  0.42850000  0.19791000  1.0
  O  O68  1  0.42615000  0.15322000  0.96003000  1.0
  O  O69  1  0.14848000  0.22236000  0.89558000  1.0
  O  O70  1  0.27577000  0.68610000  0.84363000  1.0
  O  O71  1  0.61602000  0.80014000  0.90722000  1.0
  O  O72  1  0.97965000  0.90558000  0.87530000  1.0
