# generated using pymatgen
data_CdH24(C11O2)4
_symmetry_space_group_name_H-M   'P 1'
_cell_length_a   9.91035000
_cell_length_b   14.35250000
_cell_length_c   15.20230000
_cell_angle_alpha   79.53820000
_cell_angle_beta   72.66820000
_cell_angle_gamma   85.31250000
_symmetry_Int_Tables_number   1
_chemical_formula_structural   CdH24(C11O2)4
_chemical_formula_sum   'Cd2 H48 C88 O16'
_cell_volume   2028.97546663
_cell_formula_units_Z   2
loop_
 _symmetry_equiv_pos_site_id
 _symmetry_equiv_pos_as_xyz
  1  'x, y, z'
loop_
 _atom_site_type_symbol
 _atom_site_label
 _atom_site_symmetry_multiplicity
 _atom_site_fract_x
 _atom_site_fract_y
 _atom_site_fract_z
 _atom_site_occupancy
  Cd  Cd0  1  0.24828000  0.50279000  0.75095000  1.0
  Cd  Cd1  1  0.74283000  0.49892000  0.24704000  1.0
  H  H2  1  0.10737000  0.82092000  0.79650000  1.0
  H  H3  1  0.76500000  0.99707000  0.94808000  1.0
  H  H4  1  0.98340000  0.94375000  0.88967000  1.0
  H  H5  1  0.10856000  0.75472000  0.59967000  1.0
  H  H6  1  0.73635000  0.61863000  0.59741000  1.0
  H  H7  1  0.66898000  0.76399000  0.50444000  1.0
  H  H8  1  0.36622000  0.24737000  0.92217000  1.0
  H  H9  1  0.76297000  0.37293000  0.89187000  1.0
  H  H10  1  0.83090000  0.22956000  0.98703000  1.0
  H  H11  1  0.39591000  0.18628000  0.70977000  1.0
  H  H12  1  0.73068000  0.00526000  0.55886000  1.0
  H  H13  1  0.51684000  0.06144000  0.61855000  1.0
  H  H14  1  0.02792000  0.20122000  0.82522000  1.0
  H  H15  1  0.03967000  0.19846000  0.66310000  1.0
  H  H16  1  0.05583000  0.39973000  0.96741000  1.0
  H  H17  1  0.98130000  0.09334000  0.46610000  1.0
  H  H18  1  0.31937000  0.72662000  0.62131000  1.0
  H  H19  1  0.17346000  0.27646000  0.87204000  1.0
  H  H20  1  0.46897000  0.80301000  0.66354000  1.0
  H  H21  1  0.46110000  0.80730000  0.82465000  1.0
  H  H22  1  0.43592000  0.60184000  0.52803000  1.0
  H  H23  1  0.57398000  0.88384000  0.95389000  1.0
  H  H24  1  0.78275000  0.56362000  0.72463000  1.0
  H  H25  1  0.70498000  0.41835000  0.76825000  1.0
  H  H26  1  0.59749000  0.81552000  0.28875000  1.0
  H  H27  1  0.26325000  0.99713000  0.43966000  1.0
  H  H28  1  0.47709000  0.94075000  0.37964000  1.0
  H  H29  1  0.64398000  0.73755000  0.04774000  1.0
  H  H30  1  0.21263000  0.64536000  0.13425000  1.0
  H  H31  1  0.14628000  0.78893000  0.03844000  1.0
  H  H32  1  0.90741000  0.24176000  0.37742000  1.0
  H  H33  1  0.23683000  0.39094000  0.42231000  1.0
  H  H34  1  0.30389000  0.24477000  0.51421000  1.0
  H  H35  1  0.88969000  0.18286000  0.20261000  1.0
  H  H36  1  0.22522000  0.00344000  0.05121000  1.0
  H  H37  1  0.01111000  0.05924000  0.11002000  1.0
  H  H38  1  0.52786000  0.20085000  0.33399000  1.0
  H  H39  1  0.53697000  0.19676000  0.17237000  1.0
  H  H40  1  0.56225000  0.40070000  0.47205000  1.0
  H  H41  1  0.43951000  0.10108000  0.01437000  1.0
  H  H42  1  0.81890000  0.72516000  0.12576000  1.0
  H  H43  1  0.67864000  0.27624000  0.37834000  1.0
  H  H44  1  0.96030000  0.79825000  0.17529000  1.0
  H  H45  1  0.94941000  0.80174000  0.33700000  1.0
  H  H46  1  0.94109000  0.60274000  0.03028000  1.0
  H  H47  1  0.03494000  0.90285000  0.51048000  1.0
  H  H48  1  0.29280000  0.60051000  0.24385000  1.0
  H  H49  1  0.20867000  0.45281000  0.28950000  1.0
  C  C50  1  0.03238000  0.70449000  0.90777000  1.0
  C  C51  1  0.11049000  0.63178000  0.85143000  1.0
  C  C52  1  0.04245000  0.80069000  0.86826000  1.0
  C  C53  1  0.97239000  0.86916000  0.92077000  1.0
  C  C54  1  0.84690000  0.84322000  0.50139000  1.0
  C  C55  1  0.92747000  0.67780000  0.60561000  1.0
  C  C56  1  0.97716000  0.59042000  0.65680000  1.0
  C  C57  1  0.96974000  0.84061000  0.52959000  1.0
  C  C58  1  0.01118000  0.75804000  0.57990000  1.0
  C  C59  1  0.80206000  0.68075000  0.57989000  1.0
  C  C60  1  0.76379000  0.76246000  0.52695000  1.0
  C  C61  1  0.64023000  0.15566000  0.00684000  1.0
  C  C62  1  0.55971000  0.31874000  0.89943000  1.0
  C  C63  1  0.51234000  0.40483000  0.84518000  1.0
  C  C64  1  0.50977000  0.16083000  0.98764000  1.0
  C  C65  1  0.46872000  0.24229000  0.93552000  1.0
  C  C66  1  0.69185000  0.31328000  0.91683000  1.0
  C  C67  1  0.73039000  0.23278000  0.97119000  1.0
  C  C68  1  0.47073000  0.30109000  0.59643000  1.0
  C  C69  1  0.39037000  0.37455000  0.65080000  1.0
  C  C70  1  0.46023000  0.20531000  0.63767000  1.0
  C  C71  1  0.52807000  0.13565000  0.58614000  1.0
  C  C72  1  0.09385000  0.14753000  0.78895000  1.0
  C  C73  1  0.18094000  0.07459000  0.64897000  1.0
  C  C74  1  0.19304000  0.07451000  0.55377000  1.0
  C  C75  1  0.09944000  0.14551000  0.69852000  1.0
  C  C76  1  0.32530000  0.92470000  0.65137000  1.0
  C  C77  1  0.32248000  0.92116000  0.55899000  1.0
  C  C78  1  0.25092000  0.00086000  0.69729000  1.0
  C  C79  1  0.39045000  0.84362000  0.50741000  1.0
  C  C80  1  0.44457000  0.67647000  0.49630000  1.0
  C  C81  1  0.25855000  0.99730000  0.51228000  1.0
  C  C82  1  0.37989000  0.74703000  0.54830000  1.0
  C  C83  1  0.17274000  0.08031000  0.83739000  1.0
  C  C84  1  0.17035000  0.08178000  0.93119000  1.0
  C  C85  1  0.24977000  0.00524000  0.79080000  1.0
  C  C86  1  0.10010000  0.15810000  0.98387000  1.0
  C  C87  1  0.04610000  0.32474000  0.99765000  1.0
  C  C88  1  0.23326000  0.00501000  0.97779000  1.0
  C  C89  1  0.11122000  0.25511000  0.94450000  1.0
  C  C90  1  0.40535000  0.85785000  0.69928000  1.0
  C  C91  1  0.32170000  0.93215000  0.83854000  1.0
  C  C92  1  0.30632000  0.93093000  0.93427000  1.0
  C  C93  1  0.40235000  0.86087000  0.78907000  1.0
  C  C94  1  0.52479000  0.70110000  0.40276000  1.0
  C  C95  1  0.60360000  0.62748000  0.34799000  1.0
  C  C96  1  0.53414000  0.79675000  0.36112000  1.0
  C  C97  1  0.46643000  0.86662000  0.41242000  1.0
  C  C98  1  0.35476000  0.84676000  0.99107000  1.0
  C  C99  1  0.43328000  0.68344000  0.09949000  1.0
  C  C100  1  0.47836000  0.59852000  0.15644000  1.0
  C  C101  1  0.49521000  0.83151000  0.99358000  1.0
  C  C102  1  0.53469000  0.75001000  0.04640000  1.0
  C  C103  1  0.29239000  0.69827000  0.09729000  1.0
  C  C104  1  0.25432000  0.77889000  0.04284000  1.0
  C  C105  1  0.14710000  0.15931000  0.49685000  1.0
  C  C106  1  0.06703000  0.32564000  0.39314000  1.0
  C  C107  1  0.01536000  0.41397000  0.34446000  1.0
  C  C108  1  0.03734000  0.15850000  0.45623000  1.0
  C  C109  1  0.99570000  0.24136000  0.40632000  1.0
  C  C110  1  0.18079000  0.32600000  0.43042000  1.0
  C  C111  1  0.21848000  0.24388000  0.48295000  1.0
  C  C112  1  0.96474000  0.29877000  0.09070000  1.0
  C  C113  1  0.88517000  0.37161000  0.14632000  1.0
  C  C114  1  0.95434000  0.20268000  0.13071000  1.0
  C  C115  1  0.02259000  0.13368000  0.07841000  1.0
  C  C116  1  0.59149000  0.14599000  0.29825000  1.0
  C  C117  1  0.67529000  0.07139000  0.15912000  1.0
  C  C118  1  0.68851000  0.07159000  0.06386000  1.0
  C  C119  1  0.59535000  0.14314000  0.20823000  1.0
  C  C120  1  0.82051000  0.92174000  0.16134000  1.0
  C  C121  1  0.82192000  0.91990000  0.06779000  1.0
  C  C122  1  0.74549000  0.99770000  0.20737000  1.0
  C  C123  1  0.89323000  0.84404000  0.01487000  1.0
  C  C124  1  0.95019000  0.67786000  0.00050000  1.0
  C  C125  1  0.75829000  0.99624000  0.02118000  1.0
  C  C126  1  0.88274000  0.74687000  0.05378000  1.0
  C  C127  1  0.67022000  0.07854000  0.34667000  1.0
  C  C128  1  0.67203000  0.08158000  0.43939000  1.0
  C  C129  1  0.74412000  0.00215000  0.30088000  1.0
  C  C130  1  0.60470000  0.15902000  0.49127000  1.0
  C  C131  1  0.55250000  0.32599000  0.50330000  1.0
  C  C132  1  0.73498000  0.00505000  0.48632000  1.0
  C  C133  1  0.61691000  0.25563000  0.45100000  1.0
  C  C134  1  0.89722000  0.85351000  0.21053000  1.0
  C  C135  1  0.81280000  0.92793000  0.34955000  1.0
  C  C136  1  0.80044000  0.92805000  0.44462000  1.0
  C  C137  1  0.89199000  0.85576000  0.30082000  1.0
  O  O138  1  0.06962000  0.54617000  0.87443000  1.0
  O  O139  1  0.28361000  0.34893000  0.72132000  1.0
  O  O140  1  0.10258000  0.56796000  0.64576000  1.0
  O  O141  1  0.87655000  0.53302000  0.71821000  1.0
  O  O142  1  0.38874000  0.43318000  0.85957000  1.0
  O  O143  1  0.61483000  0.45413000  0.77578000  1.0
  O  O144  1  0.21699000  0.65711000  0.78073000  1.0
  O  O145  1  0.42823000  0.46078000  0.62654000  1.0
  O  O146  1  0.56977000  0.54070000  0.37522000  1.0
  O  O147  1  0.77683000  0.34596000  0.21561000  1.0
  O  O148  1  0.59816000  0.56279000  0.13794000  1.0
  O  O149  1  0.37795000  0.55932000  0.23441000  1.0
  O  O150  1  0.89005000  0.43099000  0.34977000  1.0
  O  O151  1  0.11287000  0.47897000  0.29345000  1.0
  O  O152  1  0.70462000  0.65357000  0.27378000  1.0
  O  O153  1  0.92566000  0.45725000  0.12405000  1.0
