# generated using pymatgen
data_ZnH4(CN2)4
_symmetry_space_group_name_H-M   'P 1'
_cell_length_a   7.54617000
_cell_length_b   10.08640000
_cell_length_c   10.81250000
_cell_angle_alpha   111.93600000
_cell_angle_beta   90.00000000
_cell_angle_gamma   90.00000000
_symmetry_Int_Tables_number   1
_chemical_formula_structural   ZnH4(CN2)4
_chemical_formula_sum   'Zn4 H16 C16 N32'
_cell_volume   763.39697653
_cell_formula_units_Z   4
loop_
 _symmetry_equiv_pos_site_id
 _symmetry_equiv_pos_as_xyz
  1  'x, y, z'
loop_
 _atom_site_type_symbol
 _atom_site_label
 _atom_site_symmetry_multiplicity
 _atom_site_fract_x
 _atom_site_fract_y
 _atom_site_fract_z
 _atom_site_occupancy
  Zn  Zn0  1  0.81312000  0.08152000  0.16430000  1.0
  Zn  Zn1  1  0.18688000  0.58152000  0.16429000  1.0
  Zn  Zn2  1  0.76556000  0.71445000  0.58405000  1.0
  Zn  Zn3  1  0.23444000  0.21445000  0.58405000  1.0
  H  H4  1  0.57893000  0.54796000  0.06418000  1.0
  H  H5  1  0.42107000  0.04796000  0.06418000  1.0
  H  H6  1  0.77515000  0.64845000  0.07989000  1.0
  H  H7  1  0.22485000  0.14845000  0.07989000  1.0
  H  H8  1  0.74305000  0.76555000  0.31940000  1.0
  H  H9  1  0.25695000  0.26555000  0.31940000  1.0
  H  H10  1  0.55336000  0.78774000  0.23310000  1.0
  H  H11  1  0.44664000  0.28774000  0.23310000  1.0
  H  H12  1  0.68776000  0.16250000  0.89453000  1.0
  H  H13  1  0.31224000  0.66250000  0.89453000  1.0
  H  H14  1  0.63914000  0.05043000  0.72905000  1.0
  H  H15  1  0.36086000  0.55043000  0.72905000  1.0
  H  H16  1  0.92303000  0.20255000  0.77174000  1.0
  H  H17  1  0.07698000  0.70255000  0.77174000  1.0
  H  H18  1  0.01747000  0.09059000  0.84458000  1.0
  H  H19  1  0.98253000  0.59059000  0.84458000  1.0
  C  C20  1  0.79153000  0.47301000  0.14385000  1.0
  C  C21  1  0.20847000  0.97301000  0.14385000  1.0
  C  C22  1  0.69271000  0.59349000  0.12914000  1.0
  C  C23  1  0.30729000  0.09349000  0.12914000  1.0
  C  C24  1  0.62864000  0.70953000  0.26062000  1.0
  C  C25  1  0.37136000  0.20953000  0.26062000  1.0
  C  C26  1  0.51468000  0.65553000  0.34371000  1.0
  C  C27  1  0.48532000  0.15553000  0.34371000  1.0
  C  C28  1  0.71531000  0.94360000  0.85670000  1.0
  C  C29  1  0.28469000  0.44360000  0.85670000  1.0
  C  C30  1  0.73158000  0.06611000  0.81195000  1.0
  C  C31  1  0.26842000  0.56611000  0.81195000  1.0
  C  C32  1  0.91906000  0.09297000  0.77019000  1.0
  C  C33  1  0.08094000  0.59297000  0.77019000  1.0
  C  C34  1  0.98056000  0.99627000  0.63510000  1.0
  C  C35  1  0.01944000  0.49627000  0.63510000  1.0
  N  N36  1  0.85163000  0.27059000  0.15028000  1.0
  N  N37  1  0.14837000  0.77059000  0.15028000  1.0
  N  N38  1  0.00361000  0.33789000  0.16626000  1.0
  N  N39  1  0.99639000  0.83789000  0.16626000  1.0
  N  N40  1  0.96912000  0.46638000  0.16256000  1.0
  N  N41  1  0.03088000  0.96637000  0.16256000  1.0
  N  N42  1  0.71611000  0.35016000  0.13590000  1.0
  N  N43  1  0.28389000  0.85016000  0.13590000  1.0
  N  N44  1  0.35241000  0.59734000  0.31226000  1.0
  N  N45  1  0.64759000  0.09734000  0.31226000  1.0
  N  N46  1  0.29585000  0.56237000  0.41565000  1.0
  N  N47  1  0.70415000  0.06237000  0.41565000  1.0
  N  N48  1  0.41785000  0.59731000  0.50668000  1.0
  N  N49  1  0.58215000  0.09731000  0.50668000  1.0
  N  N50  1  0.55676000  0.65613000  0.46449000  1.0
  N  N51  1  0.44324000  0.15613000  0.46449000  1.0
  N  N52  1  0.71109000  0.95000000  0.98336000  1.0
  N  N53  1  0.28891000  0.45000000  0.98336000  1.0
  N  N54  1  0.68503000  0.81415000  0.97726000  1.0
  N  N55  1  0.31497000  0.31415000  0.97726000  1.0
  N  N56  1  0.67581000  0.72826000  0.85330000  1.0
  N  N57  1  0.32419000  0.22826000  0.85330000  1.0
  N  N58  1  0.69428000  0.80647000  0.77533000  1.0
  N  N59  1  0.30572000  0.30647000  0.77533000  1.0
  N  N60  1  0.93194000  0.86072000  0.56407000  1.0
  N  N61  1  0.06806000  0.36072000  0.56407000  1.0
  N  N62  1  0.02699000  0.81696000  0.44843000  1.0
  N  N63  1  0.97301000  0.31696000  0.44843000  1.0
  N  N64  1  0.12916000  0.92036000  0.44914000  1.0
  N  N65  1  0.87084000  0.42036000  0.44913000  1.0
  N  N66  1  0.10318000  0.03415000  0.56421000  1.0
  N  N67  1  0.89682000  0.53415000  0.56421000  1.0
