# generated using pymatgen
data_RbH3C4S(NO)2
_symmetry_space_group_name_H-M   'P 1'
_cell_length_a   6.99047000
_cell_length_b   6.99062000
_cell_length_c   7.69111000
_cell_angle_alpha   94.37040000
_cell_angle_beta   94.37700000
_cell_angle_gamma   114.67000000
_symmetry_Int_Tables_number   1
_chemical_formula_structural   RbH3C4S(NO)2
_chemical_formula_sum   'Rb2 H6 C8 S2 N4 O4'
_cell_volume   338.11568614
_cell_formula_units_Z   2
loop_
 _symmetry_equiv_pos_site_id
 _symmetry_equiv_pos_as_xyz
  1  'x, y, z'
loop_
 _atom_site_type_symbol
 _atom_site_label
 _atom_site_symmetry_multiplicity
 _atom_site_fract_x
 _atom_site_fract_y
 _atom_site_fract_z
 _atom_site_occupancy
  Rb  Rb0  1  0.74871000  0.25130000  0.50001000  1.0
  Rb  Rb1  1  0.25128000  0.74870000  0.50000000  1.0
  H  H2  1  0.09338000  0.44408000  0.90002000  1.0
  H  H3  1  0.55590000  0.90664000  0.10000000  1.0
  H  H4  1  0.90664000  0.55591000  0.09999000  1.0
  H  H5  1  0.44411000  0.09336000  0.89999000  1.0
  H  H6  1  0.15731000  0.15727000  0.35303000  1.0
  H  H7  1  0.84268000  0.84270000  0.64696000  1.0
  C  C8  1  0.26782000  0.26783000  0.87533000  1.0
  C  C9  1  0.73218000  0.73216000  0.12466000  1.0
  C  C10  1  0.11090000  0.31790000  0.13711000  1.0
  C  C11  1  0.68208000  0.88914000  0.86290000  1.0
  C  C12  1  0.88912000  0.68210000  0.86289000  1.0
  C  C13  1  0.31792000  0.11087000  0.13711000  1.0
  C  C14  1  0.18846000  0.18842000  0.21943000  1.0
  C  C15  1  0.81155000  0.81158000  0.78057000  1.0
  S  S16  1  0.30146000  0.30148000  0.66240000  1.0
  S  S17  1  0.69854000  0.69853000  0.33760000  1.0
  N  N18  1  0.15489000  0.35107000  0.96455000  1.0
  N  N19  1  0.64893000  0.84512000  0.03541000  1.0
  N  N20  1  0.84511000  0.64895000  0.03544000  1.0
  N  N21  1  0.35105000  0.15488000  0.96460000  1.0
  O  O22  1  0.00527000  0.40801000  0.20760000  1.0
  O  O23  1  0.59198000  0.99476000  0.79240000  1.0
  O  O24  1  0.99473000  0.59200000  0.79241000  1.0
  O  O25  1  0.40803000  0.00523000  0.20759000  1.0
