# generated using pymatgen
data_Zn2H18C27O11
_symmetry_space_group_name_H-M   'P 1'
_cell_length_a   7.37098000
_cell_length_b   22.12880000
_cell_length_c   28.27660000
_cell_angle_alpha   90.00070000
_cell_angle_beta   90.00080000
_cell_angle_gamma   80.63450000
_symmetry_Int_Tables_number   1
_chemical_formula_structural   Zn2H18C27O11
_chemical_formula_sum   'Zn8 H72 C108 O44'
_cell_volume   4550.74344841
_cell_formula_units_Z   4
loop_
 _symmetry_equiv_pos_site_id
 _symmetry_equiv_pos_as_xyz
  1  'x, y, z'
loop_
 _atom_site_type_symbol
 _atom_site_label
 _atom_site_symmetry_multiplicity
 _atom_site_fract_x
 _atom_site_fract_y
 _atom_site_fract_z
 _atom_site_occupancy
  Zn  Zn0  1  0.13069000  0.82459000  0.04070000  1.0
  Zn  Zn1  1  0.86929000  0.67540000  0.54070000  1.0
  Zn  Zn2  1  0.86932000  0.17541000  0.95930000  1.0
  Zn  Zn3  1  0.13070000  0.32459000  0.45930000  1.0
  Zn  Zn4  1  0.54702000  0.75737000  0.04678000  1.0
  Zn  Zn5  1  0.45295000  0.74263000  0.54678000  1.0
  Zn  Zn6  1  0.45299000  0.24264000  0.95322000  1.0
  Zn  Zn7  1  0.54704000  0.25737000  0.45322000  1.0
  H  H8  1  0.87205000  0.68394000  0.16234000  1.0
  H  H9  1  0.12793000  0.81605000  0.66234000  1.0
  H  H10  1  0.12795000  0.31606000  0.83766000  1.0
  H  H11  1  0.87206000  0.18394000  0.33767000  1.0
  H  H12  1  0.44488000  0.64301000  0.20006000  1.0
  H  H13  1  0.55511000  0.85698000  0.70005000  1.0
  H  H14  1  0.55512000  0.35699000  0.79994000  1.0
  H  H15  1  0.44488000  0.14301000  0.29995000  1.0
  H  H16  1  0.52685000  0.69109000  0.12688000  1.0
  H  H17  1  0.47313000  0.80891000  0.62688000  1.0
  H  H18  1  0.47316000  0.30891000  0.87312000  1.0
  H  H19  1  0.52686000  0.19109000  0.37312000  1.0
  H  H20  1  0.84802000  0.69405000  0.24352000  1.0
  H  H21  1  0.15198000  0.80596000  0.74352000  1.0
  H  H22  1  0.15198000  0.30596000  0.75648000  1.0
  H  H23  1  0.84803000  0.19404000  0.25648000  1.0
  H  H24  1  0.01858000  0.57095000  0.35881000  1.0
  H  H25  1  0.98142000  0.92905000  0.85881000  1.0
  H  H26  1  0.98142000  0.42905000  0.64119000  1.0
  H  H27  1  0.01859000  0.07095000  0.14119000  1.0
  H  H28  1  0.35640000  0.56732000  0.23482000  1.0
  H  H29  1  0.64358000  0.93268000  0.73482000  1.0
  H  H30  1  0.64360000  0.43269000  0.76518000  1.0
  H  H31  1  0.35641000  0.06731000  0.26518000  1.0
  H  H32  1  0.56033000  0.67135000  0.26928000  1.0
  H  H33  1  0.43966000  0.82864000  0.76928000  1.0
  H  H34  1  0.43967000  0.32865000  0.73072000  1.0
  H  H35  1  0.56033000  0.17135000  0.23072000  1.0
  H  H36  1  0.27582000  0.70209000  0.31574000  1.0
  H  H37  1  0.72417000  0.79789000  0.81575000  1.0
  H  H38  1  0.72418000  0.29790000  0.68426000  1.0
  H  H39  1  0.27583000  0.20210000  0.18425000  1.0
  H  H40  1  0.87726000  0.65291000  0.39803000  1.0
  H  H41  1  0.12273000  0.84709000  0.89803000  1.0
  H  H42  1  0.12273000  0.34709000  0.60197000  1.0
  H  H43  1  0.87728000  0.15291000  0.10197000  1.0
  H  H44  1  0.16506000  0.46649000  0.35697000  1.0
  H  H45  1  0.83493000  0.03351000  0.85696000  1.0
  H  H46  1  0.83493000  0.53352000  0.64303000  1.0
  H  H47  1  0.16507000  0.96649000  0.14303000  1.0
  H  H48  1  0.81930000  0.48943000  0.33341000  1.0
  H  H49  1  0.18070000  0.01056000  0.83342000  1.0
  H  H50  1  0.18070000  0.51057000  0.66659000  1.0
  H  H51  1  0.81930000  0.98943000  0.16659000  1.0
  H  H52  1  0.57305000  0.56032000  0.29375000  1.0
  H  H53  1  0.42694000  0.93967000  0.79376000  1.0
  H  H54  1  0.42695000  0.43967000  0.70625000  1.0
  H  H55  1  0.57306000  0.06033000  0.20624000  1.0
  H  H56  1  0.28840000  0.71139000  0.44067000  1.0
  H  H57  1  0.71159000  0.78859000  0.94068000  1.0
  H  H58  1  0.71159000  0.28860000  0.55933000  1.0
  H  H59  1  0.28842000  0.21140000  0.05932000  1.0
  H  H60  1  0.70479000  0.36702000  0.40427000  1.0
  H  H61  1  0.29520000  0.13298000  0.90426000  1.0
  H  H62  1  0.29519000  0.63298000  0.59574000  1.0
  H  H63  1  0.70480000  0.86702000  0.09573000  1.0
  H  H64  1  0.64570000  0.66885000  0.97651000  1.0
  H  H65  1  0.35429000  0.83115000  0.47651000  1.0
  H  H66  1  0.35431000  0.33115000  0.02349000  1.0
  H  H67  1  0.64570000  0.16886000  0.52349000  1.0
  H  H68  1  0.71149000  0.64346000  0.02598000  1.0
  H  H69  1  0.28850000  0.85654000  0.52598000  1.0
  H  H70  1  0.28851000  0.35654000  0.97402000  1.0
  H  H71  1  0.71151000  0.14346000  0.47402000  1.0
  H  H72  1  0.02761000  0.93975000  0.02817000  1.0
  H  H73  1  0.97239000  0.56025000  0.52817000  1.0
  H  H74  1  0.97239000  0.06025000  0.97183000  1.0
  H  H75  1  0.02761000  0.43975000  0.47183000  1.0
  H  H76  1  0.87304000  0.91594000  0.05657000  1.0
  H  H77  1  0.12695000  0.58406000  0.55657000  1.0
  H  H78  1  0.12696000  0.08406000  0.94343000  1.0
  H  H79  1  0.87304000  0.41594000  0.44343000  1.0
  C  C80  1  0.90772000  0.73914000  0.08144000  1.0
  C  C81  1  0.09226000  0.76086000  0.58143000  1.0
  C  C82  1  0.09229000  0.26087000  0.91856000  1.0
  C  C83  1  0.90773000  0.23914000  0.41857000  1.0
  C  C84  1  0.06012000  0.71421000  0.11346000  1.0
  C  C85  1  0.93987000  0.78579000  0.61345000  1.0
  C  C86  1  0.93989000  0.28580000  0.88654000  1.0
  C  C87  1  0.06013000  0.21421000  0.38655000  1.0
  C  C88  1  0.01667000  0.68571000  0.15554000  1.0
  C  C89  1  0.98332000  0.81428000  0.65553000  1.0
  C  C90  1  0.98334000  0.31430000  0.84446000  1.0
  C  C91  1  0.01667000  0.18571000  0.34447000  1.0
  C  C92  1  0.15081000  0.66022000  0.18782000  1.0
  C  C93  1  0.84918000  0.83977000  0.68782000  1.0
  C  C94  1  0.84920000  0.33978000  0.81218000  1.0
  C  C95  1  0.15082000  0.16022000  0.31219000  1.0
  C  C96  1  0.33551000  0.66227000  0.17582000  1.0
  C  C97  1  0.66448000  0.83772000  0.67582000  1.0
  C  C98  1  0.66449000  0.33773000  0.82418000  1.0
  C  C99  1  0.33552000  0.16227000  0.32418000  1.0
  C  C100  1  0.38278000  0.68960000  0.13465000  1.0
  C  C101  1  0.61721000  0.81040000  0.63464000  1.0
  C  C102  1  0.61723000  0.31040000  0.86535000  1.0
  C  C103  1  0.38278000  0.18960000  0.36536000  1.0
  C  C104  1  0.24724000  0.71731000  0.10274000  1.0
  C  C105  1  0.75274000  0.78268000  0.60273000  1.0
  C  C106  1  0.75277000  0.28269000  0.89726000  1.0
  C  C107  1  0.24726000  0.21731000  0.39727000  1.0
  C  C108  1  0.10637000  0.63350000  0.23344000  1.0
  C  C109  1  0.89361000  0.86650000  0.73344000  1.0
  C  C110  1  0.89363000  0.36651000  0.76656000  1.0
  C  C111  1  0.10637000  0.13349000  0.26656000  1.0
  C  C112  1  0.94416000  0.65597000  0.25825000  1.0
  C  C113  1  0.05584000  0.84403000  0.75825000  1.0
  C  C114  1  0.05585000  0.34404000  0.74175000  1.0
  C  C115  1  0.94416000  0.15596000  0.24176000  1.0
  C  C116  1  0.90969000  0.63325000  0.30317000  1.0
  C  C117  1  0.09031000  0.86675000  0.80317000  1.0
  C  C118  1  0.09032000  0.36676000  0.69683000  1.0
  C  C119  1  0.90969000  0.13325000  0.19683000  1.0
  C  C120  1  0.04181000  0.58762000  0.32340000  1.0
  C  C121  1  0.95818000  0.91238000  0.82339000  1.0
  C  C122  1  0.95818000  0.41239000  0.67660000  1.0
  C  C123  1  0.04183000  0.08762000  0.17661000  1.0
  C  C124  1  0.20512000  0.56451000  0.29960000  1.0
  C  C125  1  0.79487000  0.93549000  0.79960000  1.0
  C  C126  1  0.79487000  0.43550000  0.70040000  1.0
  C  C127  1  0.20513000  0.06451000  0.20040000  1.0
  C  C128  1  0.23326000  0.58696000  0.25433000  1.0
  C  C129  1  0.76673000  0.91304000  0.75433000  1.0
  C  C130  1  0.76674000  0.41305000  0.74567000  1.0
  C  C131  1  0.23327000  0.08695000  0.24567000  1.0
  C  C132  1  0.74138000  0.65739000  0.33008000  1.0
  C  C133  1  0.25861000  0.84261000  0.83008000  1.0
  C  C134  1  0.25862000  0.34261000  0.66992000  1.0
  C  C135  1  0.74139000  0.15739000  0.16991000  1.0
  C  C136  1  0.56918000  0.67416000  0.30774000  1.0
  C  C137  1  0.43081000  0.82583000  0.80774000  1.0
  C  C138  1  0.43081000  0.32584000  0.69226000  1.0
  C  C139  1  0.56919000  0.17416000  0.19226000  1.0
  C  C140  1  0.40878000  0.69172000  0.33333333  1.0
  C  C141  1  0.59121000  0.80826000  0.83335000  1.0
  C  C142  1  0.59122000  0.30827000  0.66666667  1.0
  C  C143  1  0.40880000  0.19173000  0.16665000  1.0
  C  C144  1  0.41456000  0.69468000  0.38292000  1.0
  C  C145  1  0.58543000  0.80531000  0.88292000  1.0
  C  C146  1  0.58543000  0.30531000  0.61709000  1.0
  C  C147  1  0.41458000  0.19469000  0.11708000  1.0
  C  C148  1  0.58743000  0.68090000  0.40613000  1.0
  C  C149  1  0.41256000  0.81910000  0.90613000  1.0
  C  C150  1  0.41256000  0.31910000  0.59388000  1.0
  C  C151  1  0.58745000  0.18090000  0.09387000  1.0
  C  C152  1  0.74666000  0.66218000  0.37922000  1.0
  C  C153  1  0.25334000  0.83783000  0.87922000  1.0
  C  C154  1  0.25334000  0.33783000  0.62078000  1.0
  C  C155  1  0.74667000  0.16217000  0.12078000  1.0
  C  C156  1  0.60550000  0.68783000  0.45777000  1.0
  C  C157  1  0.39448000  0.81217000  0.95777000  1.0
  C  C158  1  0.39449000  0.31217000  0.54223000  1.0
  C  C159  1  0.60554000  0.18783000  0.04223000  1.0
  C  C160  1  0.34917000  0.51956000  0.32237000  1.0
  C  C161  1  0.65083000  0.98044000  0.82237000  1.0
  C  C162  1  0.65084000  0.48044000  0.67763000  1.0
  C  C163  1  0.34917000  0.01956000  0.17763000  1.0
  C  C164  1  0.30714000  0.47292000  0.35160000  1.0
  C  C165  1  0.69285000  0.02708000  0.85160000  1.0
  C  C166  1  0.69285000  0.52709000  0.64840000  1.0
  C  C167  1  0.30715000  0.97291000  0.14840000  1.0
  C  C168  1  0.44532000  0.43162000  0.37392000  1.0
  C  C169  1  0.55467000  0.06839000  0.87391000  1.0
  C  C170  1  0.55466000  0.56839000  0.62609000  1.0
  C  C171  1  0.44533000  0.93161000  0.12608000  1.0
  C  C172  1  0.63186000  0.43822000  0.36764000  1.0
  C  C173  1  0.36813000  0.06178000  0.86764000  1.0
  C  C174  1  0.36812000  0.56178000  0.63237000  1.0
  C  C175  1  0.63187000  0.93822000  0.13236000  1.0
  C  C176  1  0.67565000  0.48473000  0.33841000  1.0
  C  C177  1  0.32434000  0.01527000  0.83841000  1.0
  C  C178  1  0.32434000  0.51528000  0.66160000  1.0
  C  C179  1  0.67566000  0.98472000  0.16159000  1.0
  C  C180  1  0.53635000  0.52399000  0.31593000  1.0
  C  C181  1  0.46364000  0.97601000  0.81593000  1.0
  C  C182  1  0.46365000  0.47601000  0.68407000  1.0
  C  C183  1  0.53636000  0.02399000  0.18407000  1.0
  C  C184  1  0.39673000  0.38130000  0.40330000  1.0
  C  C185  1  0.60328000  0.11870000  0.90330000  1.0
  C  C186  1  0.60326000  0.61870000  0.59670000  1.0
  C  C187  1  0.39673000  0.88130000  0.09670000  1.0
  O  O188  1  0.29484000  0.74442000  0.06338000  1.0
  O  O189  1  0.70514000  0.75558000  0.56337000  1.0
  O  O190  1  0.70517000  0.25558000  0.93662000  1.0
  O  O191  1  0.29486000  0.24442000  0.43663000  1.0
  O  O192  1  0.91675000  0.78222000  0.05164000  1.0
  O  O193  1  0.08324000  0.71777000  0.55164000  1.0
  O  O194  1  0.08327000  0.21778000  0.94835000  1.0
  O  O195  1  0.91676000  0.28223000  0.44836000  1.0
  O  O196  1  0.75864000  0.71601000  0.08453000  1.0
  O  O197  1  0.24134000  0.78398000  0.58453000  1.0
  O  O198  1  0.24136000  0.28399000  0.91547000  1.0
  O  O199  1  0.75866000  0.21602000  0.41547000  1.0
  O  O200  1  0.25439000  0.71065000  0.40649000  1.0
  O  O201  1  0.74560000  0.78933000  0.90650000  1.0
  O  O202  1  0.74560000  0.28933000  0.59351000  1.0
  O  O203  1  0.25441000  0.21067000  0.09350000  1.0
  O  O204  1  0.45731000  0.71002000  0.48092000  1.0
  O  O205  1  0.54267000  0.78998000  0.98092000  1.0
  O  O206  1  0.54268000  0.28998000  0.51908000  1.0
  O  O207  1  0.45734000  0.21002000  0.01908000  1.0
  O  O208  1  0.76286000  0.67267000  0.47654000  1.0
  O  O209  1  0.23713000  0.82732000  0.97654000  1.0
  O  O210  1  0.23714000  0.32732000  0.52346000  1.0
  O  O211  1  0.76289000  0.17268000  0.02346000  1.0
  O  O212  1  0.22849000  0.37998000  0.41222000  1.0
  O  O213  1  0.77152000  0.12002000  0.91222000  1.0
  O  O214  1  0.77150000  0.62002000  0.58778000  1.0
  O  O215  1  0.22849000  0.87998000  0.08778000  1.0
  O  O216  1  0.53146000  0.34128000  0.41856000  1.0
  O  O217  1  0.46855000  0.15873000  0.91856000  1.0
  O  O218  1  0.46851000  0.65872000  0.58144000  1.0
  O  O219  1  0.53147000  0.84128000  0.08144000  1.0
  O  O220  1  0.77009000  0.39990000  0.38950000  1.0
  O  O221  1  0.22991000  0.10010000  0.88950000  1.0
  O  O222  1  0.22990000  0.60010000  0.61051000  1.0
  O  O223  1  0.77010000  0.89990000  0.11050000  1.0
  O  O224  1  0.60279000  0.66190000  0.00832000  1.0
  O  O225  1  0.39720000  0.83810000  0.50832000  1.0
  O  O226  1  0.39722000  0.33810000  0.99168000  1.0
  O  O227  1  0.60280000  0.16190000  0.49168000  1.0
  O  O228  1  0.94145000  0.91079000  0.02607000  1.0
  O  O229  1  0.05855000  0.58921000  0.52608000  1.0
  O  O230  1  0.05855000  0.08921000  0.97392000  1.0
  O  O231  1  0.94145000  0.41079000  0.47393000  1.0
