# generated using pymatgen
data_Cu2H8C11N4O7
_symmetry_space_group_name_H-M   'P 1'
_cell_length_a   7.78006000
_cell_length_b   13.45730000
_cell_length_c   16.72440000
_cell_angle_alpha   89.95380000
_cell_angle_beta   99.32590000
_cell_angle_gamma   89.97530000
_symmetry_Int_Tables_number   1
_chemical_formula_structural   Cu2H8C11N4O7
_chemical_formula_sum   'Cu8 H32 C44 N16 O28'
_cell_volume   1727.87643660
_cell_formula_units_Z   4
loop_
 _symmetry_equiv_pos_site_id
 _symmetry_equiv_pos_as_xyz
  1  'x, y, z'
loop_
 _atom_site_type_symbol
 _atom_site_label
 _atom_site_symmetry_multiplicity
 _atom_site_fract_x
 _atom_site_fract_y
 _atom_site_fract_z
 _atom_site_occupancy
  Cu  Cu0  1  0.17228000  0.39927000  0.44821000  1.0
  Cu  Cu1  1  0.32834000  0.90074000  0.05101000  1.0
  Cu  Cu2  1  0.83018000  0.59961000  0.55047000  1.0
  Cu  Cu3  1  0.67009000  0.09942000  0.94934000  1.0
  Cu  Cu4  1  0.52380000  0.45947000  0.58579000  1.0
  Cu  Cu5  1  0.97552000  0.95858000  0.91324000  1.0
  Cu  Cu6  1  0.47730000  0.54059000  0.41259000  1.0
  Cu  Cu7  1  0.02368000  0.04209000  0.08716000  1.0
  H  H8  1  0.26690000  0.56120000  0.52036000  1.0
  H  H9  1  0.23033000  0.06222000  0.97898000  1.0
  H  H10  1  0.73289000  0.43826000  0.47826000  1.0
  H  H11  1  0.76885000  0.93857000  0.02150000  1.0
  H  H12  1  0.76684000  0.53507000  0.29475000  1.0
  H  H13  1  0.73380000  0.03500000  0.20467000  1.0
  H  H14  1  0.23479000  0.46497000  0.70559000  1.0
  H  H15  1  0.26508000  0.96458000  0.79454000  1.0
  H  H16  1  0.18344000  0.12100000  0.72620000  1.0
  H  H17  1  0.31433000  0.62017000  0.77472000  1.0
  H  H18  1  0.81646000  0.87951000  0.27406000  1.0
  H  H19  1  0.68204000  0.37959000  0.22545000  1.0
  H  H20  1  0.32151000  0.05829000  0.67834000  1.0
  H  H21  1  0.17912000  0.55709000  0.82394000  1.0
  H  H22  1  0.67970000  0.94295000  0.32211000  1.0
  H  H23  1  0.81954000  0.44268000  0.17752000  1.0
  H  H24  1  0.55677000  0.62946000  0.19410000  1.0
  H  H25  1  0.94412000  0.12796000  0.30590000  1.0
  H  H26  1  0.44270000  0.37136000  0.80775000  1.0
  H  H27  1  0.05674000  0.87128000  0.69261000  1.0
  H  H28  1  0.18318000  0.72118000  0.24086000  1.0
  H  H29  1  0.31839000  0.22176000  0.25885000  1.0
  H  H30  1  0.81714000  0.27807000  0.75674000  1.0
  H  H31  1  0.68203000  0.77691000  0.74359000  1.0
  H  H32  1  0.51738000  0.23690000  0.69332000  1.0
  H  H33  1  0.98243000  0.73615000  0.80738000  1.0
  H  H34  1  0.48177000  0.76524000  0.30768000  1.0
  H  H35  1  0.01703000  0.26472000  0.19253000  1.0
  H  H36  1  0.02280000  0.20885000  0.54549000  1.0
  H  H37  1  0.47697000  0.70865000  0.95533000  1.0
  H  H38  1  0.97801000  0.79125000  0.45438000  1.0
  H  H39  1  0.52131000  0.29118000  0.04539000  1.0
  C  C40  1  0.11880000  0.56523000  0.33261000  1.0
  C  C41  1  0.38245000  0.06655000  0.16626000  1.0
  C  C42  1  0.88323000  0.43395000  0.66555000  1.0
  C  C43  1  0.61637000  0.93329000  0.83443000  1.0
  C  C44  1  0.98901000  0.62198000  0.27388000  1.0
  C  C45  1  0.51202000  0.12229000  0.22564000  1.0
  C  C46  1  0.01200000  0.37770000  0.72512000  1.0
  C  C47  1  0.48761000  0.87701000  0.77503000  1.0
  C  C48  1  0.81189000  0.59604000  0.26047000  1.0
  C  C49  1  0.68891000  0.09572000  0.23919000  1.0
  C  C50  1  0.18889000  0.40409000  0.73967000  1.0
  C  C51  1  0.31081000  0.90366000  0.76049000  1.0
  C  C52  1  0.69416000  0.65000000  0.20512000  1.0
  C  C53  1  0.80687000  0.14889000  0.29487000  1.0
  C  C54  1  0.30549000  0.35055000  0.79584000  1.0
  C  C55  1  0.19401000  0.85033000  0.70437000  1.0
  C  C56  1  0.74987000  0.73167000  0.16373000  1.0
  C  C57  1  0.75164000  0.23041000  0.33647000  1.0
  C  C58  1  0.24887000  0.26894000  0.83697000  1.0
  C  C59  1  0.25036000  0.76878000  0.66315000  1.0
  C  C60  1  0.62472000  0.79093000  0.10383000  1.0
  C  C61  1  0.87712000  0.28947000  0.39619000  1.0
  C  C62  1  0.37290000  0.20973000  0.89733000  1.0
  C  C63  1  0.12630000  0.70992000  0.60262000  1.0
  C  C64  1  0.92739000  0.75759000  0.17812000  1.0
  C  C65  1  0.57428000  0.25678000  0.32214000  1.0
  C  C66  1  0.07160000  0.24258000  0.82150000  1.0
  C  C67  1  0.42755000  0.74208000  0.67866000  1.0
  C  C68  1  0.99844000  0.84505000  0.13848000  1.0
  C  C69  1  0.50344000  0.34393000  0.36213000  1.0
  C  C70  1  0.99972000  0.15518000  0.86086000  1.0
  C  C71  1  0.49886000  0.65471000  0.63900000  1.0
  C  C72  1  0.04549000  0.70212000  0.23186000  1.0
  C  C73  1  0.45590000  0.20215000  0.26799000  1.0
  C  C74  1  0.95467000  0.29756000  0.76684000  1.0
  C  C75  1  0.54461000  0.79674000  0.73340000  1.0
  C  C76  1  0.40672000  0.25039000  0.64619000  1.0
  C  C77  1  0.09322000  0.75010000  0.85430000  1.0
  C  C78  1  0.59287000  0.75107000  0.35442000  1.0
  C  C79  1  0.90602000  0.25063000  0.14576000  1.0
  C  C80  1  0.15145000  0.23586000  0.57036000  1.0
  C  C81  1  0.34846000  0.73580000  0.93026000  1.0
  C  C82  1  0.84889000  0.76469000  0.42974000  1.0
  C  C83  1  0.65022000  0.26439000  0.07020000  1.0
  N  N84  1  0.22809000  0.31559000  0.54710000  1.0
  N  N85  1  0.27227000  0.81608000  0.95279000  1.0
  N  N86  1  0.77200000  0.68493000  0.45281000  1.0
  N  N87  1  0.72687000  0.18439000  0.04742000  1.0
  N  N88  1  0.38847000  0.32464000  0.59393000  1.0
  N  N89  1  0.11187000  0.82500000  0.90583000  1.0
  N  N90  1  0.61117000  0.67640000  0.40632000  1.0
  N  N91  1  0.88761000  0.17582000  0.09411000  1.0
  N  N92  1  0.25973000  0.19259000  0.63279000  1.0
  N  N93  1  0.23995000  0.69206000  0.86824000  1.0
  N  N94  1  0.74031000  0.80850000  0.36772000  1.0
  N  N95  1  0.75874000  0.30823000  0.13216000  1.0
  N  N96  1  0.21712000  0.10535000  0.67061000  1.0
  N  N97  1  0.28265000  0.60469000  0.83072000  1.0
  N  N98  1  0.78352000  0.89547000  0.32974000  1.0
  N  N99  1  0.71556000  0.39538000  0.16984000  1.0
  O  O100  1  0.32810000  0.50101000  0.50394000  1.0
  O  O101  1  0.16919000  0.00208000  0.99569000  1.0
  O  O102  1  0.67231000  0.49871000  0.49462000  1.0
  O  O103  1  0.83004000  0.99859000  0.00463000  1.0
  O  O104  1  0.27711000  0.59336000  0.33948000  1.0
  O  O105  1  0.22398000  0.09461000  0.15966000  1.0
  O  O106  1  0.72437000  0.40692000  0.65898000  1.0
  O  O107  1  0.77520000  0.90595000  0.84091000  1.0
  O  O108  1  0.05756000  0.49390000  0.36943000  1.0
  O  O109  1  0.44394000  0.99620000  0.12867000  1.0
  O  O110  1  0.94585000  0.50389000  0.62774000  1.0
  O  O111  1  0.55416000  0.00336000  0.87205000  1.0
  O  O112  1  0.09575000  0.82635000  0.08780000  1.0
  O  O113  1  0.40795000  0.32504000  0.41353000  1.0
  O  O114  1  0.90045000  0.17398000  0.91067000  1.0
  O  O115  1  0.59803000  0.67346000  0.58912000  1.0
  O  O116  1  0.95902000  0.93122000  0.16368000  1.0
  O  O117  1  0.54090000  0.43020000  0.33632000  1.0
  O  O118  1  0.04087000  0.06897000  0.83643000  1.0
  O  O119  1  0.45720000  0.56843000  0.66314000  1.0
  O  O120  1  0.67721000  0.82959000  0.04354000  1.0
  O  O121  1  0.82452000  0.32922000  0.45596000  1.0
  O  O122  1  0.31989000  0.17192000  0.95780000  1.0
  O  O123  1  0.17961000  0.67217000  0.54224000  1.0
  O  O124  1  0.46773000  0.79682000  0.11855000  1.0
  O  O125  1  0.03449000  0.29438000  0.38175000  1.0
  O  O126  1  0.52964000  0.20290000  0.88244000  1.0
  O  O127  1  0.96938000  0.70325000  0.61736000  1.0
