# generated using pymatgen
data_CdH36C32I2(N3O)4
_symmetry_space_group_name_H-M   'P 1'
_cell_length_a   9.86193000
_cell_length_b   16.44040000
_cell_length_c   17.29874517
_cell_angle_alpha   79.37270701
_cell_angle_beta   73.44106573
_cell_angle_gamma   89.96550000
_symmetry_Int_Tables_number   1
_chemical_formula_structural   CdH36C32I2(N3O)4
_chemical_formula_sum   'Cd2 H72 C64 I4 N24 O8'
_cell_volume   2638.26227852
_cell_formula_units_Z   2
loop_
 _symmetry_equiv_pos_site_id
 _symmetry_equiv_pos_as_xyz
  1  'x, y, z'
loop_
 _atom_site_type_symbol
 _atom_site_label
 _atom_site_symmetry_multiplicity
 _atom_site_fract_x
 _atom_site_fract_y
 _atom_site_fract_z
 _atom_site_occupancy
  Cd  Cd0  1  0.99989000  0.50002000  0.00003000  1.0
  Cd  Cd1  1  0.00003000  0.00001000  0.00002000  1.0
  H  H2  1  0.95403000  0.89701000  0.77725000  1.0
  H  H3  1  0.64912000  0.94206000  0.74654000  1.0
  H  H4  1  0.96295000  0.05916000  0.61790000  1.0
  H  H5  1  0.91057000  0.99866000  0.71693000  1.0
  H  H6  1  0.91079000  0.91457000  0.57366000  1.0
  H  H7  1  0.79677000  0.89190000  0.67320000  1.0
  H  H8  1  0.30737000  0.00357000  0.56462000  1.0
  H  H9  1  0.17367000  0.06678000  0.54008000  1.0
  H  H10  1  0.73091000  0.09779000  0.50867000  1.0
  H  H11  1  0.90580000  0.06922000  0.50522000  1.0
  H  H12  1  0.24608000  0.63051000  0.85324000  1.0
  H  H13  1  0.26132000  0.76176000  0.75157000  1.0
  H  H14  1  0.82487000  0.79336000  0.87906000  1.0
  H  H15  1  0.82683000  0.66021000  0.97395000  1.0
  H  H16  1  0.10464000  0.02632000  0.81108000  1.0
  H  H17  1  0.32773000  0.02923000  0.69756000  1.0
  H  H18  1  0.51154000  0.89121000  0.87741000  1.0
  H  H19  1  0.28284000  0.89700000  0.98349000  1.0
  H  H20  1  0.73124000  0.60309000  0.22293000  1.0
  H  H21  1  0.39589000  0.55792000  0.25319000  1.0
  H  H22  1  0.58114000  0.44091000  0.38220000  1.0
  H  H23  1  0.62798000  0.50131000  0.28310000  1.0
  H  H24  1  0.48458000  0.58568000  0.42613000  1.0
  H  H25  1  0.47027000  0.60816000  0.32653000  1.0
  H  H26  1  0.87217000  0.49636000  0.43558000  1.0
  H  H27  1  0.71415000  0.43311000  0.45993000  1.0
  H  H28  1  0.24005000  0.40239000  0.49106000  1.0
  H  H29  1  0.41125000  0.43102000  0.49474000  1.0
  H  H30  1  0.09947000  0.86923000  0.14676000  1.0
  H  H31  1  0.01292000  0.73806000  0.24849000  1.0
  H  H32  1  0.70362000  0.70694000  0.12113000  1.0
  H  H33  1  0.80073000  0.83992000  0.02611000  1.0
  H  H34  1  0.91562000  0.47394000  0.18899000  1.0
  H  H35  1  0.02549000  0.47109000  0.30238000  1.0
  H  H36  1  0.38881000  0.60883000  0.12229000  1.0
  H  H37  1  0.26583000  0.60314000  0.01637000  1.0
  H  H38  1  0.04596000  0.10300000  0.22275000  1.0
  H  H39  1  0.35088000  0.05794000  0.25346000  1.0
  H  H40  1  0.03703000  0.94084000  0.38210000  1.0
  H  H41  1  0.08941000  0.00134000  0.28307000  1.0
  H  H42  1  0.08921000  0.08543000  0.42633000  1.0
  H  H43  1  0.20322000  0.10810000  0.32680000  1.0
  H  H44  1  0.69262000  0.99643000  0.43537000  1.0
  H  H45  1  0.82632000  0.93322000  0.45992000  1.0
  H  H46  1  0.26907000  0.90221000  0.49133000  1.0
  H  H47  1  0.09418000  0.93079000  0.49478000  1.0
  H  H48  1  0.75393000  0.36950000  0.14674000  1.0
  H  H49  1  0.73867000  0.23825000  0.24842000  1.0
  H  H50  1  0.17511000  0.20664000  0.12096000  1.0
  H  H51  1  0.17319000  0.33980000  0.02605000  1.0
  H  H52  1  0.89534000  0.97367000  0.18893000  1.0
  H  H53  1  0.67225000  0.97076000  0.30245000  1.0
  H  H54  1  0.48845000  0.10880000  0.12260000  1.0
  H  H55  1  0.71716000  0.10300000  0.01651000  1.0
  H  H56  1  0.26876000  0.39691000  0.77708000  1.0
  H  H57  1  0.60411000  0.44207000  0.74681000  1.0
  H  H58  1  0.41887000  0.55909000  0.61780000  1.0
  H  H59  1  0.37203000  0.49869000  0.71690000  1.0
  H  H60  1  0.51542000  0.41431000  0.57387000  1.0
  H  H61  1  0.52973000  0.39184000  0.67347000  1.0
  H  H62  1  0.12784000  0.50364000  0.56442000  1.0
  H  H63  1  0.28586000  0.56688000  0.54007000  1.0
  H  H64  1  0.75997000  0.59761000  0.50894000  1.0
  H  H65  1  0.58875000  0.56898000  0.50526000  1.0
  H  H66  1  0.90053000  0.13077000  0.85325000  1.0
  H  H67  1  0.98709000  0.26195000  0.75151000  1.0
  H  H68  1  0.29639000  0.29306000  0.87887000  1.0
  H  H69  1  0.19928000  0.16008000  0.97390000  1.0
  H  H70  1  0.08439000  0.52605000  0.81101000  1.0
  H  H71  1  0.97453000  0.52890000  0.69761000  1.0
  H  H72  1  0.61120000  0.39117000  0.87770000  1.0
  H  H73  1  0.73416000  0.39686000  0.98363000  1.0
  C  C74  1  0.95468000  0.99496000  0.65154000  1.0
  C  C75  1  0.85016000  0.94389000  0.62412000  1.0
  C  C76  1  0.20107000  0.00231000  0.55650000  1.0
  C  C77  1  0.79793000  0.04504000  0.51282000  1.0
  C  C78  1  0.13551000  0.89449000  0.67851000  1.0
  C  C79  1  0.15448000  0.66865000  0.85699000  1.0
  C  C80  1  0.16362000  0.74149000  0.80001000  1.0
  C  C81  1  0.04296000  0.78840000  0.80594000  1.0
  C  C82  1  0.92038000  0.75854000  0.87076000  1.0
  C  C83  1  0.92169000  0.68501000  0.92423000  1.0
  C  C84  1  0.60857000  0.00216000  0.63894000  1.0
  C  C85  1  0.19803000  0.99741000  0.82307000  1.0
  C  C86  1  0.32112000  0.99863000  0.75969000  1.0
  C  C87  1  0.43922000  0.96119000  0.77817000  1.0
  C  C88  1  0.42321000  0.92121000  0.85986000  1.0
  C  C89  1  0.29615000  0.92423000  0.91918000  1.0
  C  C90  1  0.60652000  0.50508000  0.34849000  1.0
  C  C91  1  0.47451000  0.55625000  0.37572000  1.0
  C  C92  1  0.75775000  0.49759000  0.44363000  1.0
  C  C93  1  0.31097000  0.45515000  0.48703000  1.0
  C  C94  1  0.81399000  0.60556000  0.32168000  1.0
  C  C95  1  0.01154000  0.83120000  0.14304000  1.0
  C  C96  1  0.96362000  0.75841000  0.20008000  1.0
  C  C97  1  0.84875000  0.71166000  0.19422000  1.0
  C  C98  1  0.79094000  0.74160000  0.12940000  1.0
  C  C99  1  0.84583000  0.81508000  0.07587000  1.0
  C  C100  1  0.24786000  0.49802000  0.36085000  1.0
  C  C101  1  0.02099000  0.50285000  0.17693000  1.0
  C  C102  1  0.08085000  0.50167000  0.24024000  1.0
  C  C103  1  0.21745000  0.53901000  0.22166000  1.0
  C  C104  1  0.28293000  0.57892000  0.13995000  1.0
  C  C105  1  0.21501000  0.57595000  0.08071000  1.0
  C  C106  1  0.04530000  0.00504000  0.34846000  1.0
  C  C107  1  0.14983000  0.05611000  0.37587000  1.0
  C  C108  1  0.79892000  0.99769000  0.44350000  1.0
  C  C109  1  0.20205000  0.95496000  0.48718000  1.0
  C  C110  1  0.86448000  0.10551000  0.32149000  1.0
  C  C111  1  0.84554000  0.33136000  0.14300000  1.0
  C  C112  1  0.83638000  0.25851000  0.19998000  1.0
  C  C113  1  0.95704000  0.21160000  0.19406000  1.0
  C  C114  1  0.07963000  0.24146000  0.12924000  1.0
  C  C115  1  0.07832000  0.31500000  0.07577000  1.0
  C  C116  1  0.39142000  0.99784000  0.36106000  1.0
  C  C117  1  0.80197000  0.00258000  0.17693000  1.0
  C  C118  1  0.67887000  0.00137000  0.24032000  1.0
  C  C119  1  0.56076000  0.03882000  0.22184000  1.0
  C  C120  1  0.57677000  0.07879000  0.14015000  1.0
  C  C121  1  0.70386000  0.07578000  0.08082000  1.0
  C  C122  1  0.39348000  0.49492000  0.65151000  1.0
  C  C123  1  0.52548000  0.44374000  0.62428000  1.0
  C  C124  1  0.24226000  0.50241000  0.55637000  1.0
  C  C125  1  0.68904000  0.54485000  0.51297000  1.0
  C  C126  1  0.18602000  0.39444000  0.67832000  1.0
  C  C127  1  0.98846000  0.16880000  0.85697000  1.0
  C  C128  1  0.03639000  0.24159000  0.79993000  1.0
  C  C129  1  0.15126000  0.28834000  0.80578000  1.0
  C  C130  1  0.20908000  0.25840000  0.87060000  1.0
  C  C131  1  0.15418000  0.18492000  0.92413000  1.0
  C  C132  1  0.75214000  0.50197000  0.63915000  1.0
  C  C133  1  0.97902000  0.49714000  0.82306000  1.0
  C  C134  1  0.91917000  0.49832000  0.75975000  1.0
  C  C135  1  0.78256000  0.46098000  0.77833000  1.0
  C  C136  1  0.71708000  0.42107000  0.86004000  1.0
  C  C137  1  0.78499000  0.42405000  0.91928000  1.0
  I  I138  1  0.67920000  0.53034000  0.10576000  1.0
  I  I139  1  0.78505000  0.96997000  0.89421000  1.0
  I  I140  1  0.32078000  0.46966000  0.89424000  1.0
  I  I141  1  0.21495000  0.03003000  0.10578000  1.0
  N  N142  1  0.09819000  0.96604000  0.63505000  1.0
  N  N143  1  0.74684000  0.99426000  0.59498000  1.0
  N  N144  1  0.03549000  0.86167000  0.75308000  1.0
  N  N145  1  0.03642000  0.63920000  0.91809000  1.0
  N  N146  1  0.57077000  0.96220000  0.72137000  1.0
  N  N147  1  0.18472000  0.96262000  0.90178000  1.0
  N  N148  1  0.73344000  0.53396000  0.36507000  1.0
  N  N149  1  0.34211000  0.50593000  0.40484000  1.0
  N  N150  1  0.78847000  0.63842000  0.24710000  1.0
  N  N151  1  0.95460000  0.86070000  0.08191000  1.0
  N  N152  1  0.29236000  0.53793000  0.27841000  1.0
  N  N153  1  0.08618000  0.53764000  0.09822000  1.0
  N  N154  1  0.90180000  0.03397000  0.36495000  1.0
  N  N155  1  0.25315000  0.00574000  0.40502000  1.0
  N  N156  1  0.96450000  0.13833000  0.24692000  1.0
  N  N157  1  0.96360000  0.36081000  0.08190000  1.0
  N  N158  1  0.42921000  0.03780000  0.27864000  1.0
  N  N159  1  0.81528000  0.03738000  0.09823000  1.0
  N  N160  1  0.26656000  0.46604000  0.63493000  1.0
  N  N161  1  0.65789000  0.49406000  0.59516000  1.0
  N  N162  1  0.21155000  0.36158000  0.75290000  1.0
  N  N163  1  0.04541000  0.13930000  0.91809000  1.0
  N  N164  1  0.70764000  0.46207000  0.72159000  1.0
  N  N165  1  0.91382000  0.46236000  0.90177000  1.0
  O  O166  1  0.24911000  0.86282000  0.65227000  1.0
  O  O167  1  0.52579000  0.04227000  0.60713000  1.0
  O  O168  1  0.90117000  0.63726000  0.34799000  1.0
  O  O169  1  0.13336000  0.45791000  0.39268000  1.0
  O  O170  1  0.75088000  0.13718000  0.34773000  1.0
  O  O171  1  0.47421000  0.95774000  0.39287000  1.0
  O  O172  1  0.09883000  0.36273000  0.65202000  1.0
  O  O173  1  0.86664000  0.54208000  0.60732000  1.0
