# generated using pymatgen
data_CuH18C38N2(OF3)4
_symmetry_space_group_name_H-M   'P 1'
_cell_length_a   11.02070000
_cell_length_b   14.78710000
_cell_length_c   25.25620000
_cell_angle_alpha   90.00000000
_cell_angle_beta   90.00000000
_cell_angle_gamma   90.00000000
_symmetry_Int_Tables_number   1
_chemical_formula_structural   CuH18C38N2(OF3)4
_chemical_formula_sum   'Cu4 H72 C152 N8 O16 F48'
_cell_volume   4115.85625049
_cell_formula_units_Z   4
loop_
 _symmetry_equiv_pos_site_id
 _symmetry_equiv_pos_as_xyz
  1  'x, y, z'
loop_
 _atom_site_type_symbol
 _atom_site_label
 _atom_site_symmetry_multiplicity
 _atom_site_fract_x
 _atom_site_fract_y
 _atom_site_fract_z
 _atom_site_occupancy
  Cu  Cu0  1  0.14875000  0.25000000  0.75000000  1.0
  Cu  Cu1  1  0.35125000  0.25000000  0.25000000  1.0
  Cu  Cu2  1  0.85125000  0.75000000  0.25000000  1.0
  Cu  Cu3  1  0.64875000  0.75000000  0.75000000  1.0
  H  H4  1  0.08170000  0.06913000  0.71148000  1.0
  H  H5  1  0.41830000  0.06913000  0.28852000  1.0
  H  H6  1  0.41830000  0.43086000  0.21148000  1.0
  H  H7  1  0.08170000  0.43087000  0.78852000  1.0
  H  H8  1  0.91831000  0.93087000  0.28852000  1.0
  H  H9  1  0.58170000  0.93087000  0.71148000  1.0
  H  H10  1  0.58169000  0.56913000  0.78852000  1.0
  H  H11  1  0.91830000  0.56914000  0.21148000  1.0
  H  H12  1  0.92784000  0.00347000  0.64971000  1.0
  H  H13  1  0.57217000  0.00347000  0.35029000  1.0
  H  H14  1  0.57217000  0.49653000  0.14971000  1.0
  H  H15  1  0.92784000  0.49653000  0.85029000  1.0
  H  H16  1  0.07217000  0.99653000  0.35029000  1.0
  H  H17  1  0.42783000  0.99653000  0.64971000  1.0
  H  H18  1  0.42783000  0.50347000  0.85029000  1.0
  H  H19  1  0.07217000  0.50347000  0.14971000  1.0
  H  H20  1  0.79580000  0.27564000  0.62324000  1.0
  H  H21  1  0.70420000  0.27564000  0.37676000  1.0
  H  H22  1  0.70420000  0.22436000  0.12324000  1.0
  H  H23  1  0.79580000  0.22436000  0.87677000  1.0
  H  H24  1  0.20420000  0.72436000  0.37677000  1.0
  H  H25  1  0.29580000  0.72436000  0.62324000  1.0
  H  H26  1  0.29580000  0.77564000  0.87677000  1.0
  H  H27  1  0.20420000  0.77564000  0.12324000  1.0
  H  H28  1  0.95570000  0.32954000  0.68592000  1.0
  H  H29  1  0.54430000  0.32954000  0.31408000  1.0
  H  H30  1  0.54430000  0.17046000  0.18592000  1.0
  H  H31  1  0.95570000  0.17046000  0.81408000  1.0
  H  H32  1  0.04431000  0.67047000  0.31408000  1.0
  H  H33  1  0.45570000  0.67047000  0.68592000  1.0
  H  H34  1  0.45570000  0.82953000  0.81408000  1.0
  H  H35  1  0.04431000  0.82954000  0.18592000  1.0
  H  H36  1  0.72307000  0.90834000  0.58407000  1.0
  H  H37  1  0.77693000  0.90834000  0.41593000  1.0
  H  H38  1  0.77693000  0.59166000  0.08407000  1.0
  H  H39  1  0.72307000  0.59166000  0.91593000  1.0
  H  H40  1  0.27693000  0.09166000  0.41593000  1.0
  H  H41  1  0.22307000  0.09166000  0.58407000  1.0
  H  H42  1  0.22307000  0.40834000  0.91593000  1.0
  H  H43  1  0.27693000  0.40834000  0.08407000  1.0
  H  H44  1  0.69361000  0.74299000  0.57852000  1.0
  H  H45  1  0.80639000  0.74299000  0.42148000  1.0
  H  H46  1  0.80638000  0.75701000  0.07852000  1.0
  H  H47  1  0.69361000  0.75701000  0.92148000  1.0
  H  H48  1  0.30639000  0.25701000  0.42148000  1.0
  H  H49  1  0.19361000  0.25701000  0.57852000  1.0
  H  H50  1  0.19361000  0.24299000  0.92148000  1.0
  H  H51  1  0.30639000  0.24299000  0.07852000  1.0
  H  H52  1  0.52969000  0.67905000  0.52114000  1.0
  H  H53  1  0.97031000  0.67905000  0.47886000  1.0
  H  H54  1  0.97031000  0.82095000  0.02114000  1.0
  H  H55  1  0.52969000  0.82095000  0.97886000  1.0
  H  H56  1  0.47031000  0.32095000  0.47886000  1.0
  H  H57  1  0.02969000  0.32096000  0.52114000  1.0
  H  H58  1  0.02969000  0.17905000  0.97886000  1.0
  H  H59  1  0.47031000  0.17905000  0.02114000  1.0
  H  H60  1  0.39686000  0.78117000  0.46939000  1.0
  H  H61  1  0.10314000  0.78117000  0.53061000  1.0
  H  H62  1  0.10314000  0.71883000  0.96939000  1.0
  H  H63  1  0.39686000  0.71883000  0.03061000  1.0
  H  H64  1  0.60314000  0.21883000  0.53061000  1.0
  H  H65  1  0.89686000  0.21883000  0.46939000  1.0
  H  H66  1  0.89686000  0.28117000  0.03061000  1.0
  H  H67  1  0.60314000  0.28117000  0.96939000  1.0
  H  H68  1  0.43036000  0.38533000  0.65003000  1.0
  H  H69  1  0.06963000  0.38533000  0.34997000  1.0
  H  H70  1  0.06963000  0.11467000  0.15003000  1.0
  H  H71  1  0.43036000  0.11467000  0.84997000  1.0
  H  H72  1  0.56964000  0.61468000  0.34997000  1.0
  H  H73  1  0.93036000  0.61467000  0.65003000  1.0
  H  H74  1  0.93037000  0.88533000  0.84997000  1.0
  H  H75  1  0.56963000  0.88533000  0.15003000  1.0
  C  C76  1  0.01660000  0.11187000  0.69081000  1.0
  C  C77  1  0.48340000  0.11187000  0.30919000  1.0
  C  C78  1  0.48340000  0.38813000  0.19081000  1.0
  C  C79  1  0.01660000  0.38813000  0.80919000  1.0
  C  C80  1  0.98340000  0.88813000  0.30919000  1.0
  C  C81  1  0.51660000  0.88813000  0.69081000  1.0
  C  C82  1  0.51660000  0.61187000  0.80919000  1.0
  C  C83  1  0.98340000  0.61187000  0.19081000  1.0
  C  C84  1  0.93082000  0.07597000  0.65671000  1.0
  C  C85  1  0.56918000  0.07597000  0.34329000  1.0
  C  C86  1  0.56918000  0.42403000  0.15671000  1.0
  C  C87  1  0.93083000  0.42403000  0.84329000  1.0
  C  C88  1  0.06918000  0.92404000  0.34329000  1.0
  C  C89  1  0.43082000  0.92403000  0.65671000  1.0
  C  C90  1  0.43082000  0.57597000  0.84329000  1.0
  C  C91  1  0.06918000  0.57597000  0.15671000  1.0
  C  C92  1  0.84832000  0.13444000  0.63121000  1.0
  C  C93  1  0.65168000  0.13444000  0.36879000  1.0
  C  C94  1  0.65168000  0.36556000  0.13121000  1.0
  C  C95  1  0.84832000  0.36556000  0.86879000  1.0
  C  C96  1  0.15168000  0.86556000  0.36879000  1.0
  C  C97  1  0.34832000  0.86556000  0.63121000  1.0
  C  C98  1  0.34832000  0.63444000  0.86879000  1.0
  C  C99  1  0.15168000  0.63444000  0.13121000  1.0
  C  C100  1  0.85743000  0.22783000  0.64187000  1.0
  C  C101  1  0.64257000  0.22783000  0.35813000  1.0
  C  C102  1  0.64257000  0.27217000  0.14187000  1.0
  C  C103  1  0.85743000  0.27217000  0.85813000  1.0
  C  C104  1  0.14257000  0.77217000  0.35813000  1.0
  C  C105  1  0.35743000  0.77217000  0.64187000  1.0
  C  C106  1  0.35743000  0.72783000  0.85813000  1.0
  C  C107  1  0.14257000  0.72783000  0.14187000  1.0
  C  C108  1  0.94536000  0.25807000  0.67671000  1.0
  C  C109  1  0.55464000  0.25807000  0.32329000  1.0
  C  C110  1  0.55464000  0.24193000  0.17671000  1.0
  C  C111  1  0.94536000  0.24193000  0.82329000  1.0
  C  C112  1  0.05464000  0.74193000  0.32329000  1.0
  C  C113  1  0.44536000  0.74193000  0.67671000  1.0
  C  C114  1  0.44536000  0.75807000  0.82329000  1.0
  C  C115  1  0.05464000  0.75807000  0.17671000  1.0
  C  C116  1  0.75996000  0.10076000  0.59626000  1.0
  C  C117  1  0.74003000  0.10076000  0.40374000  1.0
  C  C118  1  0.74003000  0.39925000  0.09626000  1.0
  C  C119  1  0.75997000  0.39925000  0.90374000  1.0
  C  C120  1  0.24003000  0.89925000  0.40374000  1.0
  C  C121  1  0.25997000  0.89925000  0.59626000  1.0
  C  C122  1  0.25997000  0.60075000  0.90374000  1.0
  C  C123  1  0.24004000  0.60076000  0.09626000  1.0
  C  C124  1  0.68257000  0.07155000  0.56615000  1.0
  C  C125  1  0.81744000  0.07154000  0.43386000  1.0
  C  C126  1  0.81744000  0.42846000  0.06615000  1.0
  C  C127  1  0.68257000  0.42845000  0.93385000  1.0
  C  C128  1  0.31743000  0.92846000  0.43386000  1.0
  C  C129  1  0.18257000  0.92846000  0.56615000  1.0
  C  C130  1  0.18257000  0.57154000  0.93386000  1.0
  C  C131  1  0.31743000  0.57154000  0.06615000  1.0
  C  C132  1  0.59251000  0.03626000  0.53283000  1.0
  C  C133  1  0.90749000  0.03626000  0.46717000  1.0
  C  C134  1  0.90749000  0.46374000  0.03283000  1.0
  C  C135  1  0.59251000  0.46374000  0.96718000  1.0
  C  C136  1  0.40748000  0.96374000  0.46718000  1.0
  C  C137  1  0.09251000  0.96374000  0.53283000  1.0
  C  C138  1  0.09252000  0.53626000  0.96718000  1.0
  C  C139  1  0.40749000  0.53626000  0.03282000  1.0
  C  C140  1  0.57708000  0.94066000  0.52974000  1.0
  C  C141  1  0.92292000  0.94066000  0.47026000  1.0
  C  C142  1  0.92292000  0.55934000  0.02974000  1.0
  C  C143  1  0.57708000  0.55934000  0.97026000  1.0
  C  C144  1  0.42292000  0.05935000  0.47026000  1.0
  C  C145  1  0.07707000  0.05934000  0.52974000  1.0
  C  C146  1  0.07708000  0.44065000  0.97026000  1.0
  C  C147  1  0.42292000  0.44065000  0.02974000  1.0
  C  C148  1  0.65198000  0.88026000  0.55903000  1.0
  C  C149  1  0.84802000  0.88026000  0.44097000  1.0
  C  C150  1  0.84802000  0.61974000  0.05903000  1.0
  C  C151  1  0.65198000  0.61974000  0.94097000  1.0
  C  C152  1  0.34802000  0.11974000  0.44098000  1.0
  C  C153  1  0.15198000  0.11974000  0.55903000  1.0
  C  C154  1  0.15198000  0.38026000  0.94097000  1.0
  C  C155  1  0.34802000  0.38026000  0.05903000  1.0
  C  C156  1  0.63527000  0.78829000  0.55589000  1.0
  C  C157  1  0.86473000  0.78829000  0.44411000  1.0
  C  C158  1  0.86473000  0.71171000  0.05589000  1.0
  C  C159  1  0.63527000  0.71171000  0.94411000  1.0
  C  C160  1  0.36473000  0.21171000  0.44411000  1.0
  C  C161  1  0.13527000  0.21171000  0.55589000  1.0
  C  C162  1  0.13527000  0.28829000  0.94411000  1.0
  C  C163  1  0.36473000  0.28829000  0.05589000  1.0
  C  C164  1  0.54244000  0.75210000  0.52328000  1.0
  C  C165  1  0.95756000  0.75210000  0.47672000  1.0
  C  C166  1  0.95756000  0.74790000  0.02328000  1.0
  C  C167  1  0.54244000  0.74790000  0.97672000  1.0
  C  C168  1  0.45756000  0.24790000  0.47672000  1.0
  C  C169  1  0.04244000  0.24790000  0.52328000  1.0
  C  C170  1  0.04244000  0.25210000  0.97672000  1.0
  C  C171  1  0.45756000  0.25210000  0.02328000  1.0
  C  C172  1  0.46830000  0.80857000  0.49453000  1.0
  C  C173  1  0.03171000  0.80857000  0.50547000  1.0
  C  C174  1  0.03170000  0.69143000  0.99453000  1.0
  C  C175  1  0.46830000  0.69143000  0.00547000  1.0
  C  C176  1  0.53170000  0.19144000  0.50547000  1.0
  C  C177  1  0.96830000  0.19144000  0.49453000  1.0
  C  C178  1  0.96830000  0.30856000  0.00547000  1.0
  C  C179  1  0.53170000  0.30857000  0.99453000  1.0
  C  C180  1  0.51672000  0.09596000  0.50331000  1.0
  C  C181  1  0.98328000  0.09596000  0.49669000  1.0
  C  C182  1  0.98328000  0.40404000  0.00331000  1.0
  C  C183  1  0.51672000  0.40404000  0.99669000  1.0
  C  C184  1  0.48328000  0.90404000  0.49669000  1.0
  C  C185  1  0.01672000  0.90404000  0.50331000  1.0
  C  C186  1  0.01672000  0.59596000  0.99669000  1.0
  C  C187  1  0.48328000  0.59596000  0.00331000  1.0
  C  C188  1  0.35738000  0.26128000  0.67885000  1.0
  C  C189  1  0.14261000  0.26127000  0.32114000  1.0
  C  C190  1  0.14261000  0.23872000  0.17886000  1.0
  C  C191  1  0.35738000  0.23872000  0.82115000  1.0
  C  C192  1  0.64262000  0.73873000  0.32114000  1.0
  C  C193  1  0.85738000  0.73872000  0.67885000  1.0
  C  C194  1  0.85738000  0.76128000  0.82115000  1.0
  C  C195  1  0.64262000  0.76128000  0.17886000  1.0
  C  C196  1  0.47076000  0.20953000  0.65963000  1.0
  C  C197  1  0.02923000  0.20952000  0.34036000  1.0
  C  C198  1  0.02924000  0.29047000  0.15963000  1.0
  C  C199  1  0.47076000  0.29047000  0.84037000  1.0
  C  C200  1  0.52923000  0.79048000  0.34037000  1.0
  C  C201  1  0.97076000  0.79048000  0.65963000  1.0
  C  C202  1  0.97076000  0.70952000  0.84037000  1.0
  C  C203  1  0.52923000  0.70952000  0.15963000  1.0
  C  C204  1  0.35256000  0.35412000  0.66900000  1.0
  C  C205  1  0.14743000  0.35412000  0.33100000  1.0
  C  C206  1  0.14743000  0.14587000  0.16900000  1.0
  C  C207  1  0.35256000  0.14587000  0.83100000  1.0
  C  C208  1  0.64744000  0.64588000  0.33100000  1.0
  C  C209  1  0.85256000  0.64588000  0.66900000  1.0
  C  C210  1  0.85256000  0.85412000  0.83100000  1.0
  C  C211  1  0.64743000  0.85412000  0.16900000  1.0
  C  C212  1  0.25317000  0.40963000  0.68282000  1.0
  C  C213  1  0.24683000  0.40962000  0.31718000  1.0
  C  C214  1  0.24684000  0.09037000  0.18282000  1.0
  C  C215  1  0.25317000  0.09037000  0.81718000  1.0
  C  C216  1  0.74684000  0.59038000  0.31718000  1.0
  C  C217  1  0.75317000  0.59037000  0.68282000  1.0
  C  C218  1  0.75317000  0.90963000  0.81718000  1.0
  C  C219  1  0.74683000  0.90963000  0.18282000  1.0
  C  C220  1  0.26171000  0.51164000  0.66904000  1.0
  C  C221  1  0.23829000  0.51163000  0.33096000  1.0
  C  C222  1  0.23829000  0.98836000  0.16904000  1.0
  C  C223  1  0.26171000  0.98836000  0.83096000  1.0
  C  C224  1  0.73830000  0.48837000  0.33096000  1.0
  C  C225  1  0.76170000  0.48837000  0.66904000  1.0
  C  C226  1  0.76171000  0.01163000  0.83096000  1.0
  C  C227  1  0.73829000  0.01164000  0.16904000  1.0
  N  N228  1  0.02348000  0.20125000  0.70072000  1.0
  N  N229  1  0.47652000  0.20125000  0.29928000  1.0
  N  N230  1  0.47652000  0.29875000  0.20072000  1.0
  N  N231  1  0.02349000  0.29875000  0.79928000  1.0
  N  N232  1  0.97652000  0.79875000  0.29928000  1.0
  N  N233  1  0.52348000  0.79875000  0.70072000  1.0
  N  N234  1  0.52348000  0.70125000  0.79928000  1.0
  N  N235  1  0.97652000  0.70125000  0.20072000  1.0
  O  O236  1  0.28129000  0.20885000  0.70108000  1.0
  O  O237  1  0.21871000  0.20884000  0.29892000  1.0
  O  O238  1  0.21871000  0.29115000  0.20108000  1.0
  O  O239  1  0.28129000  0.29115000  0.79892000  1.0
  O  O240  1  0.71871000  0.79116000  0.29892000  1.0
  O  O241  1  0.78129000  0.79116000  0.70108000  1.0
  O  O242  1  0.78129000  0.70884000  0.79892000  1.0
  O  O243  1  0.71871000  0.70884000  0.20108000  1.0
  O  O244  1  0.15599000  0.38788000  0.70514000  1.0
  O  O245  1  0.34401000  0.38788000  0.29486000  1.0
  O  O246  1  0.34401000  0.11212000  0.20514000  1.0
  O  O247  1  0.15599000  0.11212000  0.79485000  1.0
  O  O248  1  0.84401000  0.61212000  0.29485000  1.0
  O  O249  1  0.65599000  0.61212000  0.70515000  1.0
  O  O250  1  0.65599000  0.88788000  0.79486000  1.0
  O  O251  1  0.84401000  0.88788000  0.20514000  1.0
  F  F252  1  0.43728000  0.14598000  0.62295000  1.0
  F  F253  1  0.06270000  0.14597000  0.37704000  1.0
  F  F254  1  0.06272000  0.35402000  0.12296000  1.0
  F  F255  1  0.43728000  0.35402000  0.87705000  1.0
  F  F256  1  0.56271000  0.85403000  0.37704000  1.0
  F  F257  1  0.93729000  0.85402000  0.62295000  1.0
  F  F258  1  0.93729000  0.64598000  0.87704000  1.0
  F  F259  1  0.56271000  0.64598000  0.12296000  1.0
  F  F260  1  0.55596000  0.26326000  0.63651000  1.0
  F  F261  1  0.94403000  0.26325000  0.36349000  1.0
  F  F262  1  0.94404000  0.23674000  0.13651000  1.0
  F  F263  1  0.55596000  0.23674000  0.86349000  1.0
  F  F264  1  0.44404000  0.73675000  0.36349000  1.0
  F  F265  1  0.05596000  0.73674000  0.63651000  1.0
  F  F266  1  0.05596000  0.76326000  0.86349000  1.0
  F  F267  1  0.44404000  0.76325000  0.13651000  1.0
  F  F268  1  0.52560000  0.16480000  0.70023000  1.0
  F  F269  1  0.97439000  0.16480000  0.29976000  1.0
  F  F270  1  0.97440000  0.33520000  0.20023000  1.0
  F  F271  1  0.52559000  0.33520000  0.79977000  1.0
  F  F272  1  0.47440000  0.83520000  0.29976000  1.0
  F  F273  1  0.02560000  0.83521000  0.70023000  1.0
  F  F274  1  0.02560000  0.66480000  0.79977000  1.0
  F  F275  1  0.47440000  0.66480000  0.20024000  1.0
  F  F276  1  0.36381000  0.53490000  0.64141000  1.0
  F  F277  1  0.13619000  0.53490000  0.35858000  1.0
  F  F278  1  0.13619000  0.96509000  0.14142000  1.0
  F  F279  1  0.36381000  0.96510000  0.85859000  1.0
  F  F280  1  0.63620000  0.46510000  0.35859000  1.0
  F  F281  1  0.86380000  0.46510000  0.64141000  1.0
  F  F282  1  0.86380000  0.03490000  0.85859000  1.0
  F  F283  1  0.63619000  0.03490000  0.14142000  1.0
  F  F284  1  0.16467000  0.53771000  0.63905000  1.0
  F  F285  1  0.33533000  0.53770000  0.36095000  1.0
  F  F286  1  0.33533000  0.96229000  0.13905000  1.0
  F  F287  1  0.16467000  0.96229000  0.86095000  1.0
  F  F288  1  0.83534000  0.46230000  0.36095000  1.0
  F  F289  1  0.66466000  0.46230000  0.63905000  1.0
  F  F290  1  0.66466000  0.03770000  0.86095000  1.0
  F  F291  1  0.83533000  0.03771000  0.13905000  1.0
  F  F292  1  0.26026000  0.56269000  0.71407000  1.0
  F  F293  1  0.23974000  0.56268000  0.28593000  1.0
  F  F294  1  0.23975000  0.93731000  0.21407000  1.0
  F  F295  1  0.26026000  0.93731000  0.78593000  1.0
  F  F296  1  0.73975000  0.43732000  0.28593000  1.0
  F  F297  1  0.76026000  0.43731000  0.71407000  1.0
  F  F298  1  0.76025000  0.06269000  0.78593000  1.0
  F  F299  1  0.73974000  0.06269000  0.21407000  1.0
