# generated using pymatgen
data_AgH10C6(NO2)2
_symmetry_space_group_name_H-M   'P 1'
_cell_length_a   5.83757000
_cell_length_b   8.32314000
_cell_length_c   17.97250000
_cell_angle_alpha   90.00010000
_cell_angle_beta   90.00010000
_cell_angle_gamma   91.29250000
_symmetry_Int_Tables_number   1
_chemical_formula_structural   AgH10C6(NO2)2
_chemical_formula_sum   'Ag4 H40 C24 N8 O16'
_cell_volume   873.00610755
_cell_formula_units_Z   4
loop_
 _symmetry_equiv_pos_site_id
 _symmetry_equiv_pos_as_xyz
  1  'x, y, z'
loop_
 _atom_site_type_symbol
 _atom_site_label
 _atom_site_symmetry_multiplicity
 _atom_site_fract_x
 _atom_site_fract_y
 _atom_site_fract_z
 _atom_site_occupancy
  Ag  Ag0  1  0.63861000  0.66876000  0.69106000  1.0
  Ag  Ag1  1  0.36143000  0.83126000  0.19105000  1.0
  Ag  Ag2  1  0.36140000  0.33127000  0.30894000  1.0
  Ag  Ag3  1  0.63857000  0.16872000  0.80896000  1.0
  H  H4  1  0.25950000  0.34572000  0.69120000  1.0
  H  H5  1  0.74053000  0.15429000  0.19120000  1.0
  H  H6  1  0.74052000  0.65432000  0.30880000  1.0
  H  H7  1  0.25944000  0.84566000  0.80881000  1.0
  H  H8  1  0.95264000  0.32524000  0.69769000  1.0
  H  H9  1  0.04740000  0.17477000  0.19768000  1.0
  H  H10  1  0.04737000  0.67477000  0.30231000  1.0
  H  H11  1  0.95258000  0.82521000  0.80232000  1.0
  H  H12  1  0.11123000  0.44753000  0.76175000  1.0
  H  H13  1  0.88880000  0.05248000  0.26174000  1.0
  H  H14  1  0.88879000  0.55250000  0.23825000  1.0
  H  H15  1  0.11119000  0.94746000  0.73825000  1.0
  H  H16  1  0.77537000  0.46004000  0.59904000  1.0
  H  H17  1  0.22467000  0.03993000  0.09904000  1.0
  H  H18  1  0.22464000  0.53996000  0.40097000  1.0
  H  H19  1  0.77533000  0.96004000  0.90096000  1.0
  H  H20  1  0.69954000  0.76049000  0.44677000  1.0
  H  H21  1  0.30043000  0.73956000  0.94677000  1.0
  H  H22  1  0.30041000  0.23956000  0.55323000  1.0
  H  H23  1  0.69964000  0.26040000  0.05325000  1.0
  H  H24  1  0.52417000  0.69654000  0.52122000  1.0
  H  H25  1  0.47582000  0.80343000  0.02122000  1.0
  H  H26  1  0.47580000  0.30345000  0.47879000  1.0
  H  H27  1  0.52420000  0.19661000  0.97880000  1.0
  H  H28  1  0.67232000  0.55228000  0.46837000  1.0
  H  H29  1  0.32769000  0.94776000  0.96838000  1.0
  H  H30  1  0.32768000  0.44776000  0.53163000  1.0
  H  H31  1  0.67229000  0.05223000  0.03161000  1.0
  H  H32  1  0.98646000  0.88625000  0.43267000  1.0
  H  H33  1  0.01354000  0.61375000  0.93267000  1.0
  H  H34  1  0.01353000  0.11377000  0.56733000  1.0
  H  H35  1  0.98649000  0.38624000  0.06732000  1.0
  H  H36  1  0.24272000  0.95134000  0.47778000  1.0
  H  H37  1  0.75730000  0.54866000  0.97778000  1.0
  H  H38  1  0.75728000  0.04869000  0.52221000  1.0
  H  H39  1  0.24272000  0.45131000  0.02221000  1.0
  H  H40  1  0.16705000  0.78927000  0.58161000  1.0
  H  H41  1  0.83296000  0.71073000  0.08161000  1.0
  H  H42  1  0.83296000  0.21075000  0.41838000  1.0
  H  H43  1  0.16705000  0.28925000  0.91839000  1.0
  C  C44  1  0.10004000  0.40826000  0.70349000  1.0
  C  C45  1  0.89995000  0.09176000  0.20348000  1.0
  C  C46  1  0.89999000  0.59179000  0.29652000  1.0
  C  C47  1  0.10001000  0.90820000  0.79652000  1.0
  C  C48  1  0.08333000  0.55179000  0.65330000  1.0
  C  C49  1  0.91669000  0.94821000  0.15330000  1.0
  C  C50  1  0.91667000  0.44822000  0.34670000  1.0
  C  C51  1  0.08330000  0.05176000  0.84670000  1.0
  C  C52  1  0.88868000  0.56562000  0.60474000  1.0
  C  C53  1  0.11136000  0.93440000  0.10473000  1.0
  C  C54  1  0.11132000  0.43442000  0.39526000  1.0
  C  C55  1  0.88866000  0.06558000  0.89526000  1.0
  C  C56  1  0.87859000  0.68246000  0.54664000  1.0
  C  C57  1  0.12140000  0.81752000  0.04664000  1.0
  C  C58  1  0.12139000  0.31755000  0.45336000  1.0
  C  C59  1  0.87861000  0.18245000  0.95336000  1.0
  C  C60  1  0.68537000  0.67351000  0.49207000  1.0
  C  C61  1  0.31464000  0.82647000  0.99206000  1.0
  C  C62  1  0.31462000  0.32649000  0.50794000  1.0
  C  C63  1  0.68538000  0.17352000  0.00794000  1.0
  C  C64  1  0.05988000  0.92418000  0.48624000  1.0
  C  C65  1  0.94009000  0.57582000  0.98624000  1.0
  C  C66  1  0.94008000  0.07583000  0.51375000  1.0
  C  C67  1  0.05994000  0.42414000  0.01376000  1.0
  N  N68  1  0.04238000  0.79540000  0.54052000  1.0
  N  N69  1  0.95761000  0.70460000  0.04053000  1.0
  N  N70  1  0.95760000  0.20462000  0.45947000  1.0
  N  N71  1  0.04240000  0.29538000  0.95947000  1.0
  N  N72  1  0.55107000  0.04089000  0.65649000  1.0
  N  N73  1  0.44893000  0.45915000  0.15648000  1.0
  N  N74  1  0.44893000  0.95914000  0.34351000  1.0
  N  N75  1  0.55108000  0.54085000  0.84351000  1.0
  O  O76  1  0.24539000  0.65705000  0.65293000  1.0
  O  O77  1  0.75461000  0.84298000  0.15292000  1.0
  O  O78  1  0.75462000  0.34299000  0.34707000  1.0
  O  O79  1  0.24537000  0.15700000  0.84706000  1.0
  O  O80  1  0.62566000  0.95353000  0.71009000  1.0
  O  O81  1  0.37430000  0.54651000  0.21007000  1.0
  O  O82  1  0.37429000  0.04649000  0.28992000  1.0
  O  O83  1  0.62576000  0.45350000  0.78994000  1.0
  O  O84  1  0.47116000  0.97657000  0.59863000  1.0
  O  O85  1  0.52890000  0.52345000  0.09863000  1.0
  O  O86  1  0.52890000  0.02345000  0.40137000  1.0
  O  O87  1  0.47109000  0.47653000  0.90137000  1.0
  O  O88  1  0.56170000  0.19215000  0.66437000  1.0
  O  O89  1  0.43828000  0.30789000  0.16437000  1.0
  O  O90  1  0.43830000  0.80788000  0.33563000  1.0
  O  O91  1  0.56167000  0.69211000  0.83563000  1.0
