# generated using pymatgen
data_TbH20C22NO11
_symmetry_space_group_name_H-M   'P 1'
_cell_length_a   7.59160000
_cell_length_b   11.33590000
_cell_length_c   12.91680000
_cell_angle_alpha   75.83740000
_cell_angle_beta   83.50120000
_cell_angle_gamma   81.82810000
_symmetry_Int_Tables_number   1
_chemical_formula_structural   TbH20C22NO11
_chemical_formula_sum   'Tb2 H40 C44 N2 O22'
_cell_volume   1063.29292016
_cell_formula_units_Z   2
loop_
 _symmetry_equiv_pos_site_id
 _symmetry_equiv_pos_as_xyz
  1  'x, y, z'
loop_
 _atom_site_type_symbol
 _atom_site_label
 _atom_site_symmetry_multiplicity
 _atom_site_fract_x
 _atom_site_fract_y
 _atom_site_fract_z
 _atom_site_occupancy
  Tb  Tb0  1  0.10379000  0.39127000  0.35090000  1.0
  Tb  Tb1  1  0.89621000  0.60873000  0.64910000  1.0
  H  H2  1  0.31428000  0.82091000  0.53498000  1.0
  H  H3  1  0.68572000  0.17909000  0.46502000  1.0
  H  H4  1  0.55053000  0.18007000  0.11867000  1.0
  H  H5  1  0.44947000  0.81994000  0.88133000  1.0
  H  H6  1  0.65573000  0.78482000  0.19065000  1.0
  H  H7  1  0.34426000  0.21518000  0.80934000  1.0
  H  H8  1  0.35771000  0.97019000  0.42114000  1.0
  H  H9  1  0.64230000  0.02981000  0.57886000  1.0
  H  H10  1  0.81697000  0.22891000  0.82225000  1.0
  H  H11  1  0.18302000  0.77109000  0.17775000  1.0
  H  H12  1  0.13351000  0.10862000  0.56180000  1.0
  H  H13  1  0.86650000  0.89138000  0.43819000  1.0
  H  H14  1  0.94186000  0.84181000  0.83548000  1.0
  H  H15  1  0.05814000  0.15820000  0.16452000  1.0
  H  H16  1  0.15166000  0.64791000  0.06609000  1.0
  H  H17  1  0.84834000  0.35209000  0.93391000  1.0
  H  H18  1  0.94971000  0.74966000  0.06560000  1.0
  H  H19  1  0.05028000  0.25034000  0.93440000  1.0
  H  H20  1  0.00391000  0.66823000  0.96285000  1.0
  H  H21  1  0.99608000  0.33177000  0.03715000  1.0
  H  H22  1  0.52482000  0.47224000  0.18734000  1.0
  H  H23  1  0.47517000  0.52776000  0.81267000  1.0
  H  H24  1  0.73391000  0.39180000  0.22759000  1.0
  H  H25  1  0.26608000  0.60820000  0.77241000  1.0
  H  H26  1  0.65711000  0.38452000  0.10348000  1.0
  H  H27  1  0.34289000  0.61547000  0.89653000  1.0
  H  H28  1  0.50673000  0.65203000  0.06335000  1.0
  H  H29  1  0.49327000  0.34797000  0.93665000  1.0
  H  H30  1  0.65371000  0.62323000  0.95063000  1.0
  H  H31  1  0.34629000  0.37676000  0.04937000  1.0
  H  H32  1  0.69314000  0.73459000  0.01795000  1.0
  H  H33  1  0.30686000  0.26541000  0.98205000  1.0
  H  H34  1  0.45757000  0.37646000  0.43328000  1.0
  H  H35  1  0.54243000  0.62354000  0.56672000  1.0
  H  H36  1  0.72881000  0.39690000  0.44816000  1.0
  H  H37  1  0.27120000  0.60310000  0.55184000  1.0
  H  H38  1  0.42347000  0.51977000  0.37652000  1.0
  H  H39  1  0.57654000  0.48023000  0.62348000  1.0
  H  H40  1  0.71929000  0.53432000  0.37999000  1.0
  H  H41  1  0.28071000  0.46568000  0.62001000  1.0
  C  C42  1  0.44641000  0.08456000  0.27343000  1.0
  C  C43  1  0.55359000  0.91544000  0.72656000  1.0
  C  C44  1  0.54087000  0.09120000  0.17371000  1.0
  C  C45  1  0.45913000  0.90880000  0.82629000  1.0
  C  C46  1  0.62083000  0.98352000  0.14279000  1.0
  C  C47  1  0.37917000  0.01648000  0.85720000  1.0
  C  C48  1  0.60004000  0.86958000  0.21343000  1.0
  C  C49  1  0.39996000  0.13042000  0.78657000  1.0
  C  C50  1  0.50430000  0.86256000  0.31364000  1.0
  C  C51  1  0.49570000  0.13744000  0.68635000  1.0
  C  C52  1  0.43144000  0.97058000  0.34412000  1.0
  C  C53  1  0.56856000  0.02942000  0.65587000  1.0
  C  C54  1  0.34928000  0.19762000  0.30366000  1.0
  C  C55  1  0.65072000  0.80238000  0.69634000  1.0
  C  C56  1  0.47683000  0.73790000  0.38207000  1.0
  C  C57  1  0.52317000  0.26211000  0.61793000  1.0
  C  C58  1  0.71406000  0.99267000  0.04021000  1.0
  C  C59  1  0.28595000  0.00733000  0.95979000  1.0
  C  C60  1  0.78850000  0.00734000  0.94989000  1.0
  C  C61  1  0.21150000  0.99266000  0.05011000  1.0
  C  C62  1  0.87484000  0.03175000  0.84507000  1.0
  C  C63  1  0.12516000  0.96825000  0.15493000  1.0
  C  C64  1  0.88292000  0.15411000  0.78771000  1.0
  C  C65  1  0.11707000  0.84589000  0.21229000  1.0
  C  C66  1  0.97361000  0.18177000  0.68620000  1.0
  C  C67  1  0.02640000  0.81824000  0.31379000  1.0
  C  C68  1  0.05826000  0.08709000  0.63975000  1.0
  C  C69  1  0.94175000  0.91291000  0.36025000  1.0
  C  C70  1  0.04421000  0.96540000  0.69416000  1.0
  C  C71  1  0.95578000  0.03461000  0.30584000  1.0
  C  C72  1  0.95237000  0.93722000  0.79549000  1.0
  C  C73  1  0.04762000  0.06278000  0.20451000  1.0
  C  C74  1  0.98160000  0.31319000  0.62718000  1.0
  C  C75  1  0.01840000  0.68681000  0.37282000  1.0
  C  C76  1  0.12436000  0.86409000  0.64339000  1.0
  C  C77  1  0.87565000  0.13591000  0.35661000  1.0
  C  C78  1  0.92263000  0.55481000  0.11557000  1.0
  C  C79  1  0.07736000  0.44519000  0.88443000  1.0
  C  C80  1  0.01166000  0.66211000  0.04849000  1.0
  C  C81  1  0.98834000  0.33789000  0.95152000  1.0
  C  C82  1  0.66185000  0.44350000  0.15908000  1.0
  C  C83  1  0.33815000  0.55649000  0.84093000  1.0
  C  C84  1  0.64618000  0.64499000  0.02955000  1.0
  C  C85  1  0.35381000  0.35501000  0.97045000  1.0
  N  N86  1  0.74974000  0.55098000  0.10490000  1.0
  N  N87  1  0.25025000  0.44901000  0.89511000  1.0
  O  O88  1  0.29272000  0.19386000  0.40102000  1.0
  O  O89  1  0.70730000  0.80614000  0.59899000  1.0
  O  O90  1  0.31689000  0.29471000  0.23006000  1.0
  O  O91  1  0.68311000  0.70529000  0.76994000  1.0
  O  O92  1  0.53426000  0.64585000  0.34369000  1.0
  O  O93  1  0.46574000  0.35416000  0.65630000  1.0
  O  O94  1  0.39396000  0.72730000  0.47650000  1.0
  O  O95  1  0.60604000  0.27270000  0.52350000  1.0
  O  O96  1  0.91383000  0.39555000  0.67621000  1.0
  O  O97  1  0.08617000  0.60446000  0.32378000  1.0
  O  O98  1  0.05678000  0.33333333  0.53280000  1.0
  O  O99  1  0.94322000  0.66666667  0.46721000  1.0
  O  O100  1  0.26242000  0.89004000  0.57508000  1.0
  O  O101  1  0.73758000  0.10997000  0.42491000  1.0
  O  O102  1  0.06426000  0.76350000  0.66525000  1.0
  O  O103  1  0.93575000  0.23650000  0.33476000  1.0
  O  O104  1  0.01247000  0.46887000  0.17687000  1.0
  O  O105  1  0.98753000  0.53112000  0.82313000  1.0
  O  O106  1  0.79463000  0.45465000  0.39263000  1.0
  O  O107  1  0.20537000  0.54535000  0.60737000  1.0
  O  O108  1  0.37477000  0.43953000  0.39008000  1.0
  O  O109  1  0.62523000  0.56048000  0.60992000  1.0
