# generated using pymatgen
data_CdH10C12S2(BrN3)2
_symmetry_space_group_name_H-M   'P 1'
_cell_length_a   3.86939000
_cell_length_b   13.04160000
_cell_length_c   16.03693061
_cell_angle_alpha   93.09872402
_cell_angle_beta   96.89220334
_cell_angle_gamma   98.52210000
_symmetry_Int_Tables_number   1
_chemical_formula_structural   CdH10C12S2(BrN3)2
_chemical_formula_sum   'Cd2 H20 C24 S4 Br4 N12'
_cell_volume   792.42352624
_cell_formula_units_Z   2
loop_
 _symmetry_equiv_pos_site_id
 _symmetry_equiv_pos_as_xyz
  1  'x, y, z'
loop_
 _atom_site_type_symbol
 _atom_site_label
 _atom_site_symmetry_multiplicity
 _atom_site_fract_x
 _atom_site_fract_y
 _atom_site_fract_z
 _atom_site_occupancy
  Cd  Cd0  1  0.86499000  0.25001000  0.74987000  1.0
  Cd  Cd1  1  0.13500000  0.74998000  0.25013000  1.0
  H  H2  1  0.67042000  0.08721000  0.16451000  1.0
  H  H3  1  0.41827000  0.41323000  0.33552000  1.0
  H  H4  1  0.32958000  0.91279000  0.83549000  1.0
  H  H5  1  0.58174000  0.58678000  0.66448000  1.0
  H  H6  1  0.53385000  0.18070000  0.22541000  1.0
  H  H7  1  0.12807000  0.31979000  0.27450000  1.0
  H  H8  1  0.46615000  0.81930000  0.77459000  1.0
  H  H9  1  0.87193000  0.68022000  0.72550000  1.0
  H  H10  1  0.63720000  0.47958000  0.06991000  1.0
  H  H11  1  0.08931000  0.02044000  0.42948000  1.0
  H  H12  1  0.36278000  0.52042000  0.93009000  1.0
  H  H13  1  0.91073000  0.97955000  0.57052000  1.0
  H  H14  1  0.57237000  0.36378000  0.18306000  1.0
  H  H15  1  0.02578000  0.13666000  0.31665000  1.0
  H  H16  1  0.42761000  0.63622000  0.81694000  1.0
  H  H17  1  0.97424000  0.86334000  0.68335000  1.0
  H  H18  1  0.79776000  0.42089000  0.93060000  1.0
  H  H19  1  0.44836000  0.07877000  0.56868000  1.0
  H  H20  1  0.20223000  0.57911000  0.06940000  1.0
  H  H21  1  0.55166000  0.92123000  0.43132000  1.0
  C  C22  1  0.83897000  0.26593000  0.97053000  1.0
  C  C23  1  0.60270000  0.23407000  0.52914000  1.0
  C  C24  1  0.16101000  0.73407000  0.02947000  1.0
  C  C25  1  0.39731000  0.76593000  0.47087000  1.0
  C  C26  1  0.81175000  0.19725000  0.03826000  1.0
  C  C27  1  0.57555000  0.30295000  0.46159000  1.0
  C  C28  1  0.18824000  0.80274000  0.96174000  1.0
  C  C29  1  0.42446000  0.69706000  0.53842000  1.0
  C  C30  1  0.70920000  0.23116000  0.11688000  1.0
  C  C31  1  0.36104000  0.26916000  0.38295000  1.0
  C  C32  1  0.29079000  0.76884000  0.88312000  1.0
  C  C33  1  0.63896000  0.73084000  0.61705000  1.0
  C  C34  1  0.65067000  0.33364000  0.12464000  1.0
  C  C35  1  0.19270000  0.16664000  0.37504000  1.0
  C  C36  1  0.34931000  0.66635000  0.87535000  1.0
  C  C37  1  0.80731000  0.83337000  0.62496000  1.0
  C  C38  1  0.68658000  0.40025000  0.05841000  1.0
  C  C39  1  0.22905000  0.09982000  0.44109000  1.0
  C  C40  1  0.31340000  0.59975000  0.94159000  1.0
  C  C41  1  0.77098000  0.90019000  0.55891000  1.0
  C  C42  1  0.77753000  0.36938000  0.98135000  1.0
  C  C43  1  0.42821000  0.13050000  0.51810000  1.0
  C  C44  1  0.22245000  0.63061000  0.01864000  1.0
  C  C45  1  0.57181000  0.86950000  0.48190000  1.0
  S  S46  1  0.97695000  0.09841000  0.92298000  1.0
  S  S47  1  0.95334000  0.40177000  0.57700000  1.0
  S  S48  1  0.02304000  0.90158000  0.07702000  1.0
  S  S49  1  0.04666000  0.59823000  0.42300000  1.0
  Br  Br50  1  0.27997000  0.09641000  0.73351000  1.0
  Br  Br51  1  0.44929000  0.40371000  0.76606000  1.0
  Br  Br52  1  0.72003000  0.90359000  0.26649000  1.0
  Br  Br53  1  0.55069000  0.59628000  0.23394000  1.0
  N  N54  1  0.92879000  0.21715000  0.90134000  1.0
  N  N55  1  0.80969000  0.28280000  0.59840000  1.0
  N  N56  1  0.07120000  0.78285000  0.09866000  1.0
  N  N57  1  0.19030000  0.71720000  0.40160000  1.0
  N  N58  1  0.88523000  0.10190000  0.01885000  1.0
  N  N59  1  0.76247000  0.39841000  0.48118000  1.0
  N  N60  1  0.11475000  0.89810000  0.98115000  1.0
  N  N61  1  0.23754000  0.60160000  0.51882000  1.0
  N  N62  1  0.68545000  0.16443000  0.18040000  1.0
  N  N63  1  0.34066000  0.33601000  0.31953000  1.0
  N  N64  1  0.31456000  0.83557000  0.81961000  1.0
  N  N65  1  0.65935000  0.66400000  0.68047000  1.0
