# generated using pymatgen
data_SrAgH4C6N3O8
_symmetry_space_group_name_H-M   'P 1'
_cell_length_a   6.93323000
_cell_length_b   7.21496000
_cell_length_c   11.21150000
_cell_angle_alpha   79.25100000
_cell_angle_beta   89.23640000
_cell_angle_gamma   74.75430000
_symmetry_Int_Tables_number   1
_chemical_formula_structural   SrAgH4C6N3O8
_chemical_formula_sum   'Sr2 Ag2 H8 C12 N6 O16'
_cell_volume   531.22348884
_cell_formula_units_Z   2
loop_
 _symmetry_equiv_pos_site_id
 _symmetry_equiv_pos_as_xyz
  1  'x, y, z'
loop_
 _atom_site_type_symbol
 _atom_site_label
 _atom_site_symmetry_multiplicity
 _atom_site_fract_x
 _atom_site_fract_y
 _atom_site_fract_z
 _atom_site_occupancy
  Sr  Sr0  1  0.70334000  0.15657000  0.06466000  1.0
  Sr  Sr1  1  0.29667000  0.84342000  0.93534000  1.0
  Ag  Ag2  1  0.24859000  0.70930000  0.37500000  1.0
  Ag  Ag3  1  0.75141000  0.29070000  0.62500000  1.0
  H  H4  1  0.18529000  0.34003000  0.56017000  1.0
  H  H5  1  0.81472000  0.65996000  0.43983000  1.0
  H  H6  1  0.20545000  0.99002000  0.55965000  1.0
  H  H7  1  0.79454000  0.00998000  0.44035000  1.0
  H  H8  1  0.96864000  0.76628000  0.18939000  1.0
  H  H9  1  0.03136000  0.23372000  0.81061000  1.0
  H  H10  1  0.75843000  0.73056000  0.20767000  1.0
  H  H11  1  0.24157000  0.26945000  0.79233000  1.0
  C  C12  1  0.24381000  0.06887000  0.14953000  1.0
  C  C13  1  0.75619000  0.93114000  0.85047000  1.0
  C  C14  1  0.26030000  0.47502000  0.15168000  1.0
  C  C15  1  0.73970000  0.52498000  0.84832000  1.0
  C  C16  1  0.22574000  0.34315000  0.26752000  1.0
  C  C17  1  0.77426000  0.65686000  0.73248000  1.0
  C  C18  1  0.22974000  0.14720000  0.26650000  1.0
  C  C19  1  0.77026000  0.85281000  0.73350000  1.0
  C  C20  1  0.19523000  0.28687000  0.47504000  1.0
  C  C21  1  0.80478000  0.71312000  0.52495000  1.0
  C  C22  1  0.20498000  0.09208000  0.47469000  1.0
  C  C23  1  0.79502000  0.90792000  0.52531000  1.0
  N  N24  1  0.20668000  0.41224000  0.37175000  1.0
  N  N25  1  0.79333000  0.58776000  0.62824000  1.0
  N  N26  1  0.22176000  0.02146000  0.37071000  1.0
  N  N27  1  0.77824000  0.97854000  0.62929000  1.0
  N  N28  1  0.68262000  0.39143000  0.29081000  1.0
  N  N29  1  0.31737000  0.60857000  0.70920000  1.0
  O  O30  1  0.19893000  0.65916000  0.14477000  1.0
  O  O31  1  0.80107000  0.34083000  0.85523000  1.0
  O  O32  1  0.35506000  0.39251000  0.07120000  1.0
  O  O33  1  0.64495000  0.60750000  0.92879000  1.0
  O  O34  1  0.41430000  0.97098000  0.12422000  1.0
  O  O35  1  0.58569000  0.02902000  0.87578000  1.0
  O  O36  1  0.08268000  0.09968000  0.08900000  1.0
  O  O37  1  0.91731000  0.90032000  0.91100000  1.0
  O  O38  1  0.67128000  0.21714000  0.29375000  1.0
  O  O39  1  0.32872000  0.78286000  0.70626000  1.0
  O  O40  1  0.73321000  0.48433000  0.19351000  1.0
  O  O41  1  0.26679000  0.51568000  0.80650000  1.0
  O  O42  1  0.64097000  0.46960000  0.38349000  1.0
  O  O43  1  0.35902000  0.53040000  0.61652000  1.0
  O  O44  1  0.83120000  0.82986000  0.21160000  1.0
  O  O45  1  0.16880000  0.17015000  0.78840000  1.0
