# generated using pymatgen
data_CdH12C16(SN5)2
_symmetry_space_group_name_H-M   'P 1'
_cell_length_a   5.76091000
_cell_length_b   8.31502000
_cell_length_c   10.17450000
_cell_angle_alpha   86.33300000
_cell_angle_beta   81.74130000
_cell_angle_gamma   88.57720000
_symmetry_Int_Tables_number   1
_chemical_formula_structural   CdH12C16(SN5)2
_chemical_formula_sum   'Cd1 H12 C16 S2 N10'
_cell_volume   481.27751616
_cell_formula_units_Z   1
loop_
 _symmetry_equiv_pos_site_id
 _symmetry_equiv_pos_as_xyz
  1  'x, y, z'
loop_
 _atom_site_type_symbol
 _atom_site_label
 _atom_site_symmetry_multiplicity
 _atom_site_fract_x
 _atom_site_fract_y
 _atom_site_fract_z
 _atom_site_occupancy
  Cd  Cd0  1  0.50000000  0.00000000  0.50000000  1.0
  H  H1  1  0.28243000  0.69400000  0.73646000  1.0
  H  H2  1  0.71759000  0.30600000  0.26354000  1.0
  H  H3  1  0.88801000  0.41021000  0.61270000  1.0
  H  H4  1  0.11199000  0.58978000  0.38730000  1.0
  H  H5  1  0.84166000  0.29186000  0.82025000  1.0
  H  H6  1  0.15836000  0.70813000  0.17975000  1.0
  H  H7  1  0.71386000  0.11267000  0.02224000  1.0
  H  H8  1  0.28614000  0.88733000  0.97777000  1.0
  H  H9  1  0.29976000  0.13997000  0.13949000  1.0
  H  H10  1  0.70023000  0.86004000  0.86052000  1.0
  H  H11  1  0.03520000  0.35114000  0.04921000  1.0
  H  H12  1  0.96480000  0.64887000  0.95078000  1.0
  C  C13  1  0.44392000  0.65157000  0.68062000  1.0
  C  C14  1  0.55608000  0.34842000  0.31937000  1.0
  C  C15  1  0.75697000  0.50695000  0.61867000  1.0
  C  C16  1  0.24302000  0.49303000  0.38132000  1.0
  C  C17  1  0.49718000  0.40701000  0.82777000  1.0
  C  C18  1  0.50280000  0.59300000  0.17223000  1.0
  C  C19  1  0.66225000  0.29782000  0.87100000  1.0
  C  C20  1  0.33775000  0.70218000  0.12900000  1.0
  C  C21  1  0.59037000  0.19923000  0.98440000  1.0
  C  C22  1  0.40961000  0.80077000  0.01560000  1.0
  C  C23  1  0.36152000  0.21490000  0.05010000  1.0
  C  C24  1  0.63847000  0.78510000  0.94991000  1.0
  C  C25  1  0.21343000  0.33077000  0.99940000  1.0
  C  C26  1  0.78657000  0.66924000  0.00060000  1.0
  C  C27  1  0.03860000  0.94927000  0.33459000  1.0
  C  C28  1  0.96141000  0.05072000  0.66541000  1.0
  S  S29  1  0.80015000  0.96298000  0.26546000  1.0
  S  S30  1  0.19985000  0.03702000  0.73453000  1.0
  N  N31  1  0.56189000  0.72518000  0.57420000  1.0
  N  N32  1  0.43811000  0.27482000  0.42580000  1.0
  N  N33  1  0.76005000  0.63357000  0.53373000  1.0
  N  N34  1  0.23996000  0.36644000  0.46628000  1.0
  N  N35  1  0.56088000  0.51300000  0.71342000  1.0
  N  N36  1  0.43914000  0.48701000  0.28659000  1.0
  N  N37  1  0.27866000  0.42583000  0.88917000  1.0
  N  N38  1  0.72132000  0.57418000  0.11082000  1.0
  N  N39  1  0.21428000  0.93341000  0.38171000  1.0
  N  N40  1  0.78571000  0.06659000  0.61829000  1.0
