# generated using pymatgen
data_CdH14C10(IN2)2
_symmetry_space_group_name_H-M   'P 1'
_cell_length_a   10.76820000
_cell_length_b   11.49470000
_cell_length_c   13.29240000
_cell_angle_alpha   90.00000000
_cell_angle_beta   101.38200000
_cell_angle_gamma   90.00000000
_symmetry_Int_Tables_number   1
_chemical_formula_structural   CdH14C10(IN2)2
_chemical_formula_sum   'Cd4 H56 C40 I8 N16'
_cell_volume   1612.93875318
_cell_formula_units_Z   4
loop_
 _symmetry_equiv_pos_site_id
 _symmetry_equiv_pos_as_xyz
  1  'x, y, z'
loop_
 _atom_site_type_symbol
 _atom_site_label
 _atom_site_symmetry_multiplicity
 _atom_site_fract_x
 _atom_site_fract_y
 _atom_site_fract_z
 _atom_site_occupancy
  Cd  Cd0  1  0.62040000  0.60092000  0.25104000  1.0
  Cd  Cd1  1  0.87959000  0.10093000  0.24896000  1.0
  Cd  Cd2  1  0.37959000  0.39907000  0.74895000  1.0
  Cd  Cd3  1  0.12042000  0.89907000  0.75105000  1.0
  H  H4  1  0.62217000  0.88079000  0.17128000  1.0
  H  H5  1  0.87783000  0.38078000  0.32872000  1.0
  H  H6  1  0.37783000  0.11920000  0.82873000  1.0
  H  H7  1  0.12217000  0.61920000  0.67128000  1.0
  H  H8  1  0.12371000  0.15158000  0.42857000  1.0
  H  H9  1  0.37629000  0.65158000  0.07143000  1.0
  H  H10  1  0.87630000  0.84843000  0.57144000  1.0
  H  H11  1  0.62370000  0.34842000  0.92857000  1.0
  H  H12  1  0.31184000  0.65721000  0.31936000  1.0
  H  H13  1  0.18816000  0.15720000  0.18063000  1.0
  H  H14  1  0.68816000  0.34280000  0.68064000  1.0
  H  H15  1  0.81184000  0.84280000  0.81936000  1.0
  H  H16  1  0.32686000  0.75689000  0.42284000  1.0
  H  H17  1  0.17314000  0.25688000  0.07716000  1.0
  H  H18  1  0.67314000  0.24311000  0.57716000  1.0
  H  H19  1  0.82686000  0.74311000  0.92284000  1.0
  H  H20  1  0.45328000  0.66054000  0.41330000  1.0
  H  H21  1  0.04673000  0.16054000  0.08669000  1.0
  H  H22  1  0.54673000  0.33946000  0.58670000  1.0
  H  H23  1  0.95327000  0.83946000  0.91330000  1.0
  H  H24  1  0.53122000  0.14156000  0.23028000  1.0
  H  H25  1  0.96877000  0.64156000  0.26971000  1.0
  H  H26  1  0.46879000  0.85844000  0.76972000  1.0
  H  H27  1  0.03122000  0.35844000  0.73028000  1.0
  H  H28  1  0.37799000  0.11761000  0.15321000  1.0
  H  H29  1  0.12201000  0.61762000  0.34678000  1.0
  H  H30  1  0.62201000  0.88238000  0.84679000  1.0
  H  H31  1  0.87799000  0.38237000  0.65321000  1.0
  H  H32  1  0.51647000  0.07714000  0.10726000  1.0
  H  H33  1  0.98353000  0.57713000  0.39274000  1.0
  H  H34  1  0.48354000  0.92287000  0.89274000  1.0
  H  H35  1  0.01647000  0.42287000  0.60726000  1.0
  H  H36  1  0.99772000  0.84407000  0.20138000  1.0
  H  H37  1  0.50227000  0.34406000  0.29861000  1.0
  H  H38  1  0.00228000  0.15594000  0.79863000  1.0
  H  H39  1  0.49771000  0.65594000  0.70138000  1.0
  H  H40  1  0.15237000  0.78565000  0.20713000  1.0
  H  H41  1  0.34763000  0.28564000  0.29287000  1.0
  H  H42  1  0.84763000  0.21436000  0.79288000  1.0
  H  H43  1  0.65236000  0.71436000  0.70713000  1.0
  H  H44  1  0.09553000  0.89792000  0.11879000  1.0
  H  H45  1  0.40446000  0.39791000  0.38120000  1.0
  H  H46  1  0.90446000  0.10209000  0.88121000  1.0
  H  H47  1  0.59553000  0.60209000  0.61880000  1.0
  H  H48  1  0.36304000  0.21285000  0.47703000  1.0
  H  H49  1  0.13695000  0.71285000  0.02296000  1.0
  H  H50  1  0.63699000  0.78715000  0.52298000  1.0
  H  H51  1  0.86303000  0.28715000  0.97703000  1.0
  H  H52  1  0.47338000  0.12677000  0.42513000  1.0
  H  H53  1  0.02661000  0.62677000  0.07485000  1.0
  H  H54  1  0.52664000  0.87322000  0.57487000  1.0
  H  H55  1  0.97337000  0.37322000  0.92514000  1.0
  H  H56  1  0.40855000  0.07356000  0.52921000  1.0
  H  H57  1  0.09145000  0.57356000  0.97078000  1.0
  H  H58  1  0.59146000  0.92643000  0.47078000  1.0
  H  H59  1  0.90854000  0.42643000  0.02922000  1.0
  C  C60  1  0.37834000  0.71532000  0.36910000  1.0
  C  C61  1  0.12167000  0.21532000  0.13090000  1.0
  C  C62  1  0.62167000  0.28468000  0.63090000  1.0
  C  C63  1  0.87833000  0.78468000  0.86909000  1.0
  C  C64  1  0.43068000  0.80425000  0.30765000  1.0
  C  C65  1  0.06933000  0.30424000  0.19235000  1.0
  C  C66  1  0.56933000  0.19576000  0.69236000  1.0
  C  C67  1  0.93067000  0.69576000  0.80764000  1.0
  C  C68  1  0.38890000  0.91977000  0.28438000  1.0
  C  C69  1  0.11110000  0.41977000  0.21562000  1.0
  C  C70  1  0.61111000  0.08023000  0.71562000  1.0
  C  C71  1  0.88889000  0.58023000  0.78438000  1.0
  C  C72  1  0.46921000  0.96498000  0.22270000  1.0
  C  C73  1  0.03080000  0.46498000  0.27729000  1.0
  C  C74  1  0.53080000  0.03501000  0.77730000  1.0
  C  C75  1  0.96919000  0.53501000  0.72270000  1.0
  C  C76  1  0.47368000  0.08159000  0.17549000  1.0
  C  C77  1  0.02633000  0.58158000  0.32451000  1.0
  C  C78  1  0.52634000  0.91841000  0.82451000  1.0
  C  C79  1  0.97367000  0.41841000  0.67549000  1.0
  C  C80  1  0.09566000  0.86553000  0.19676000  1.0
  C  C81  1  0.40433000  0.36552000  0.30323000  1.0
  C  C82  1  0.90434000  0.13448000  0.80324000  1.0
  C  C83  1  0.59566000  0.63448000  0.69677000  1.0
  C  C84  1  0.15071000  0.95306000  0.27521000  1.0
  C  C85  1  0.34928000  0.45306000  0.22479000  1.0
  C  C86  1  0.84930000  0.04695000  0.72480000  1.0
  C  C87  1  0.65070000  0.54694000  0.77521000  1.0
  C  C88  1  0.28047000  0.97760000  0.31407000  1.0
  C  C89  1  0.21952000  0.47759000  0.18593000  1.0
  C  C90  1  0.71953000  0.02241000  0.68593000  1.0
  C  C91  1  0.78047000  0.52241000  0.81407000  1.0
  C  C92  1  0.28152000  0.06808000  0.38493000  1.0
  C  C93  1  0.21847000  0.56807000  0.11506000  1.0
  C  C94  1  0.71849000  0.93193000  0.61507000  1.0
  C  C95  1  0.78152000  0.43193000  0.88494000  1.0
  C  C96  1  0.38712000  0.12394000  0.45747000  1.0
  C  C97  1  0.11287000  0.62394000  0.04252000  1.0
  C  C98  1  0.61289000  0.87606000  0.54253000  1.0
  C  C99  1  0.88712000  0.37606000  0.95747000  1.0
  I  I100  1  0.72481000  0.52325000  0.44309000  1.0
  I  I101  1  0.77520000  0.02325000  0.05691000  1.0
  I  I102  1  0.27519000  0.47676000  0.55691000  1.0
  I  I103  1  0.22482000  0.97674000  0.94310000  1.0
  I  I104  1  0.73545000  0.63966000  0.08895000  1.0
  I  I105  1  0.76454000  0.13967000  0.41105000  1.0
  I  I106  1  0.26454000  0.36032000  0.91104000  1.0
  I  I107  1  0.23544000  0.86034000  0.58894000  1.0
  N  N108  1  0.53003000  0.78083000  0.26351000  1.0
  N  N109  1  0.96998000  0.28082000  0.23648000  1.0
  N  N110  1  0.46998000  0.21918000  0.73649000  1.0
  N  N111  1  0.03002000  0.71917000  0.76351000  1.0
  N  N112  1  0.55149000  0.87877000  0.21260000  1.0
  N  N113  1  0.94851000  0.37876000  0.28740000  1.0
  N  N114  1  0.44851000  0.12123000  0.78741000  1.0
  N  N115  1  0.05149000  0.62123000  0.71259000  1.0
  N  N116  1  0.07736000  0.02492000  0.31816000  1.0
  N  N117  1  0.42264000  0.52492000  0.18184000  1.0
  N  N118  1  0.92265000  0.97508000  0.68185000  1.0
  N  N119  1  0.57735000  0.47508000  0.81816000  1.0
  N  N120  1  0.15853000  0.09400000  0.38325000  1.0
  N  N121  1  0.34147000  0.59400000  0.11675000  1.0
  N  N122  1  0.84149000  0.90601000  0.61676000  1.0
  N  N123  1  0.65852000  0.40600000  0.88325000  1.0
