# generated using pymatgen
data_KH7C4(SO)2
_symmetry_space_group_name_H-M   'P 1'
_cell_length_a   6.69614000
_cell_length_b   9.50011000
_cell_length_c   12.79240000
_cell_angle_alpha   89.99980000
_cell_angle_beta   89.99980000
_cell_angle_gamma   104.90100000
_symmetry_Int_Tables_number   1
_chemical_formula_structural   KH7C4(SO)2
_chemical_formula_sum   'K4 H28 C16 S8 O8'
_cell_volume   786.41057370
_cell_formula_units_Z   4
loop_
 _symmetry_equiv_pos_site_id
 _symmetry_equiv_pos_as_xyz
  1  'x, y, z'
loop_
 _atom_site_type_symbol
 _atom_site_label
 _atom_site_symmetry_multiplicity
 _atom_site_fract_x
 _atom_site_fract_y
 _atom_site_fract_z
 _atom_site_occupancy
  K  K0  1  0.83565000  0.47638000  0.63538000  1.0
  K  K1  1  0.66436000  0.52362000  0.13538000  1.0
  K  K2  1  0.16436000  0.52362000  0.36463000  1.0
  K  K3  1  0.33564000  0.47638000  0.86462000  1.0
  H  H4  1  0.80763000  0.00503000  0.52036000  1.0
  H  H5  1  0.69236000  0.99497000  0.02036000  1.0
  H  H6  1  0.19237000  0.99497000  0.47964000  1.0
  H  H7  1  0.30763000  0.00503000  0.97964000  1.0
  H  H8  1  0.99791000  0.17210000  0.49377000  1.0
  H  H9  1  0.50209000  0.82790000  0.99377000  1.0
  H  H10  1  0.00210000  0.82790000  0.50623000  1.0
  H  H11  1  0.49790000  0.17210000  0.00624000  1.0
  H  H12  1  0.68772000  0.12002000  0.37247000  1.0
  H  H13  1  0.81227000  0.87998000  0.87247000  1.0
  H  H14  1  0.31228000  0.87999000  0.62753000  1.0
  H  H15  1  0.18771000  0.12002000  0.12753000  1.0
  H  H16  1  0.52644000  0.13060000  0.48164000  1.0
  H  H17  1  0.97356000  0.86940000  0.98163000  1.0
  H  H18  1  0.47356000  0.86940000  0.51836000  1.0
  H  H19  1  0.02644000  0.13060000  0.01836000  1.0
  H  H20  1  0.10340000  0.14603000  0.67031000  1.0
  H  H21  1  0.39660000  0.85397000  0.17031000  1.0
  H  H22  1  0.89660000  0.85397000  0.32969000  1.0
  H  H23  1  0.60340000  0.14603000  0.82969000  1.0
  H  H24  1  0.88467000  0.99949000  0.70494000  1.0
  H  H25  1  0.61534000  0.00051000  0.20494000  1.0
  H  H26  1  0.11533000  0.00051000  0.29506000  1.0
  H  H27  1  0.38467000  0.99949000  0.79506000  1.0
  H  H28  1  0.93556000  0.17193000  0.77244000  1.0
  H  H29  1  0.56445000  0.82806000  0.27244000  1.0
  H  H30  1  0.06444000  0.82807000  0.22756000  1.0
  H  H31  1  0.43556000  0.17194000  0.72757000  1.0
  C  C32  1  0.61200000  0.38816000  0.38384000  1.0
  C  C33  1  0.88800000  0.61185000  0.88384000  1.0
  C  C34  1  0.38800000  0.61185000  0.61616000  1.0
  C  C35  1  0.11199000  0.38815000  0.11617000  1.0
  C  C36  1  0.83801000  0.12513000  0.52168000  1.0
  C  C37  1  0.66199000  0.87487000  0.02168000  1.0
  C  C38  1  0.16199000  0.87487000  0.47832000  1.0
  C  C39  1  0.33801000  0.12513000  0.97832000  1.0
  C  C40  1  0.68427000  0.16737000  0.45063000  1.0
  C  C41  1  0.81573000  0.83263000  0.95063000  1.0
  C  C42  1  0.31573000  0.83263000  0.54937000  1.0
  C  C43  1  0.18426000  0.16737000  0.04937000  1.0
  C  C44  1  0.94149000  0.11876000  0.69695000  1.0
  C  C45  1  0.55851000  0.88124000  0.19695000  1.0
  C  C46  1  0.05851000  0.88124000  0.30305000  1.0
  C  C47  1  0.44149000  0.11876000  0.80305000  1.0
  S  S48  1  0.68942000  0.57263000  0.38752000  1.0
  S  S49  1  0.81059000  0.42737000  0.88752000  1.0
  S  S50  1  0.31059000  0.42737000  0.61248000  1.0
  S  S51  1  0.18940000  0.57263000  0.11248000  1.0
  S  S52  1  0.40971000  0.28521000  0.31820000  1.0
  S  S53  1  0.09030000  0.71479000  0.81820000  1.0
  S  S54  1  0.59030000  0.71479000  0.68180000  1.0
  S  S55  1  0.90970000  0.28521000  0.18180000  1.0
  O  O56  1  0.73776000  0.32465000  0.44270000  1.0
  O  O57  1  0.76224000  0.67536000  0.94270000  1.0
  O  O58  1  0.26224000  0.67536000  0.55730000  1.0
  O  O59  1  0.23775000  0.32464000  0.05730000  1.0
  O  O60  1  0.81538000  0.17348000  0.62549000  1.0
  O  O61  1  0.68462000  0.82652000  0.12548000  1.0
  O  O62  1  0.18462000  0.82652000  0.37451000  1.0
  O  O63  1  0.31538000  0.17348000  0.87452000  1.0
