# generated using pymatgen
data_Zn2H30C39S2N2O15
_symmetry_space_group_name_H-M   'P 1'
_cell_length_a   14.66820000
_cell_length_b   16.04330000
_cell_length_c   16.11550000
_cell_angle_alpha   90.13200000
_cell_angle_beta   91.46740000
_cell_angle_gamma   90.43670000
_symmetry_Int_Tables_number   1
_chemical_formula_structural   Zn2H30C39S2N2O15
_chemical_formula_sum   'Zn2 H30 C39 S2 N2 O15'
_cell_volume   3791.03586506
_cell_formula_units_Z   1
loop_
 _symmetry_equiv_pos_site_id
 _symmetry_equiv_pos_as_xyz
  1  'x, y, z'
loop_
 _atom_site_type_symbol
 _atom_site_label
 _atom_site_symmetry_multiplicity
 _atom_site_fract_x
 _atom_site_fract_y
 _atom_site_fract_z
 _atom_site_occupancy
  Zn  Zn0  1  0.40285000  0.50212000  0.50141000  1.0
  Zn  Zn1  1  0.59236000  0.50169000  0.50308000  1.0
  H  H2  1  0.59726000  0.38708000  0.05866000  1.0
  H  H3  1  0.61659000  0.07947000  0.58000000  1.0
  H  H4  1  0.61989000  0.93343000  0.58150000  1.0
  H  H5  1  0.64323000  0.93276000  0.47463000  1.0
  H  H6  1  0.39599000  0.07146000  0.39886000  1.0
  H  H7  1  0.50999000  0.07406000  0.36648000  1.0
  H  H8  1  0.39931000  0.92556000  0.40038000  1.0
  H  H9  1  0.36206000  0.07229000  0.55271000  1.0
  H  H10  1  0.36545000  0.92627000  0.55399000  1.0
  H  H11  1  0.51320000  0.92814000  0.36779000  1.0
  H  H12  1  0.08206000  0.36359000  0.48868000  1.0
  H  H13  1  0.44564000  0.36591000  0.94730000  1.0
  H  H14  1  0.91820000  0.43587000  0.61905000  1.0
  H  H15  1  0.07562000  0.43751000  0.62215000  1.0
  H  H16  1  0.07232000  0.54846000  0.62731000  1.0
  H  H17  1  0.91521000  0.57597000  0.38984000  1.0
  H  H18  1  0.91203000  0.62376000  0.48783000  1.0
  H  H19  1  0.07457000  0.58066000  0.39530000  1.0
  H  H20  1  0.08582000  0.41702000  0.39340000  1.0
  H  H21  1  0.66009000  0.52115000  0.95949000  1.0
  H  H22  1  0.07043000  0.63221000  0.49238000  1.0
  H  H23  1  0.55899000  0.63353000  0.05714000  1.0
  H  H24  1  0.40716000  0.61237000  0.94597000  1.0
  H  H25  1  0.34438000  0.47819000  0.04494000  1.0
  H  H26  1  0.45570000  0.92950000  0.62842000  1.0
  H  H27  1  0.45241000  0.07540000  0.62704000  1.0
  H  H28  1  0.63976000  0.07892000  0.47318000  1.0
  H  H29  1  0.94905000  0.25210000  0.38233000  1.0
  H  H30  1  0.82705000  0.56630000  0.63513000  1.0
  H  H31  1  0.01792000  0.44231000  0.25644000  1.0
  C  C32  1  0.48704000  0.33998000  0.49972000  1.0
  C  C33  1  0.49880000  0.49967000  0.08745000  1.0
  C  C34  1  0.44921000  0.56234000  0.97194000  1.0
  C  C35  1  0.50562000  0.49990000  0.91712000  1.0
  C  C36  1  0.53390000  0.57414000  0.03175000  1.0
  C  C37  1  0.59006000  0.51161000  0.97937000  1.0
  C  C38  1  0.49692000  0.50056000  0.17520000  1.0
  C  C39  1  0.50741000  0.49954000  0.82938000  1.0
  C  C40  1  0.43124000  0.04938000  0.56634000  1.0
  C  C41  1  0.59391000  0.05336000  0.51979000  1.0
  C  C42  1  0.59615000  0.95687000  0.52075000  1.0
  C  C43  1  0.49642000  0.50304000  0.34050000  1.0
  C  C44  1  0.49947000  0.75433000  0.50280000  1.0
  C  C45  1  0.49586000  0.08389000  0.49977000  1.0
  C  C46  1  0.43347000  0.95304000  0.56724000  1.0
  C  C47  1  0.49976000  0.92059000  0.50131000  1.0
  C  C48  1  0.46712000  0.95225000  0.41476000  1.0
  C  C49  1  0.46493000  0.04865000  0.41382000  1.0
  C  C50  1  0.50049000  0.83010000  0.50200000  1.0
  C  C51  1  0.49250000  0.17428000  0.49884000  1.0
  C  C52  1  0.48881000  0.24993000  0.49873000  1.0
  C  C53  1  0.95074000  0.41325000  0.44834000  1.0
  C  C54  1  0.49829000  0.66421000  0.50359000  1.0
  C  C55  1  0.94444000  0.49180000  0.58789000  1.0
  C  C56  1  0.04924000  0.49359000  0.59133000  1.0
  C  C57  1  0.90875000  0.48950000  0.49483000  1.0
  C  C58  1  0.05574000  0.41803000  0.45493000  1.0
  C  C59  1  0.08533000  0.49831000  0.50231000  1.0
  C  C60  1  0.04713000  0.57666000  0.45786000  1.0
  C  C61  1  0.94196000  0.57180000  0.45373000  1.0
  C  C62  1  0.18424000  0.50239000  0.50447000  1.0
  C  C63  1  0.80943000  0.48849000  0.49427000  1.0
  C  C64  1  0.50852000  0.50009000  0.66411000  1.0
  C  C65  1  0.47064000  0.42531000  0.97274000  1.0
  C  C66  1  0.55527000  0.43713000  0.03265000  1.0
  C  C67  1  0.49592000  0.50192000  0.25080000  1.0
  C  C68  1  0.50837000  0.49954000  0.75376000  1.0
  C  C69  1  0.41445000  0.48782000  0.02517000  1.0
  C  C70  1  0.90298000  0.56570000  0.63388000  1.0
  S  S71  1  0.91090000  0.31155000  0.49318000  1.0
  S  S72  1  0.90889000  0.41087000  0.33687000  1.0
  N  N73  1  0.26309000  0.50532000  0.50469000  1.0
  N  N74  1  0.73146000  0.49539000  0.50034000  1.0
  O  O75  1  0.40925000  0.37429000  0.50528000  1.0
  O  O76  1  0.56401000  0.37673000  0.49511000  1.0
  O  O77  1  0.41931000  0.49582000  0.37474000  1.0
  O  O78  1  0.57416000  0.51108000  0.37675000  1.0
  O  O79  1  0.42030000  0.62899000  0.49576000  1.0
  O  O80  1  0.57523000  0.62841000  0.51198000  1.0
  O  O81  1  0.43091000  0.50608000  0.62727000  1.0
  O  O82  1  0.58594000  0.49472000  0.63035000  1.0
  O  O83  1  0.94778000  0.30659000  0.57635000  1.0
  O  O84  1  0.81513000  0.30464000  0.47457000  1.0
  O  O85  1  0.96764000  0.24610000  0.44192000  1.0
  O  O86  1  0.94854000  0.61937000  0.66919000  1.0
  O  O87  1  0.92784000  0.32897000  0.30309000  1.0
  O  O88  1  0.82044000  0.44679000  0.33104000  1.0
  O  O89  1  0.97818000  0.47456000  0.29227000  1.0
