# generated using pymatgen
data_Tb2H20C12O13
_symmetry_space_group_name_H-M   'P 1'
_cell_length_a   8.37329000
_cell_length_b   11.40530000
_cell_length_c   11.40530000
_cell_angle_alpha   91.70160000
_cell_angle_beta   107.60800000
_cell_angle_gamma   107.60800000
_symmetry_Int_Tables_number   1
_chemical_formula_structural   Tb2H20C12O13
_chemical_formula_sum   'Tb4 H40 C24 O26'
_cell_volume   980.68826634
_cell_formula_units_Z   2
loop_
 _symmetry_equiv_pos_site_id
 _symmetry_equiv_pos_as_xyz
  1  'x, y, z'
loop_
 _atom_site_type_symbol
 _atom_site_label
 _atom_site_symmetry_multiplicity
 _atom_site_fract_x
 _atom_site_fract_y
 _atom_site_fract_z
 _atom_site_occupancy
  Tb  Tb0  1  0.66322000  0.82387000  0.53907000  1.0
  Tb  Tb1  1  0.16322000  0.53907000  0.82387000  1.0
  Tb  Tb2  1  0.40652000  0.67373000  0.18756000  1.0
  Tb  Tb3  1  0.90652000  0.18756000  0.67372000  1.0
  H  H4  1  0.87956000  0.48696000  0.48919000  1.0
  H  H5  1  0.37956000  0.48919000  0.48696000  1.0
  H  H6  1  0.76503000  0.41901000  0.32948000  1.0
  H  H7  1  0.26504000  0.32948000  0.41901000  1.0
  H  H8  1  0.66781000  0.37344000  0.44569000  1.0
  H  H9  1  0.16782000  0.44569000  0.37345000  1.0
  H  H10  1  0.87783000  0.04301000  0.18650000  1.0
  H  H11  1  0.37782000  0.18650000  0.04300000  1.0
  H  H12  1  0.00315000  0.97018000  0.29769000  1.0
  H  H13  1  0.50315000  0.29769000  0.97018000  1.0
  H  H14  1  0.89327000  0.06111000  0.34798000  1.0
  H  H15  1  0.39326000  0.34798000  0.06111000  1.0
  H  H16  1  0.29146000  0.95815000  0.59179000  1.0
  H  H17  1  0.79146000  0.59179000  0.95815000  1.0
  H  H18  1  0.30045000  0.04179000  0.72843000  1.0
  H  H19  1  0.80045000  0.72843000  0.04179000  1.0
  H  H20  1  0.25902000  0.10803000  0.58746000  1.0
  H  H21  1  0.75902000  0.58746000  0.10803000  1.0
  H  H22  1  0.97109000  0.80816000  0.87829000  1.0
  H  H23  1  0.47109000  0.87829000  0.80816000  1.0
  H  H24  1  0.17333000  0.92963000  0.90859000  1.0
  H  H25  1  0.67333000  0.90859000  0.92963000  1.0
  H  H26  1  0.04765000  0.92620000  0.00929000  1.0
  H  H27  1  0.54765000  0.00929000  0.92619000  1.0
  H  H28  1  0.02106000  0.71395000  0.44236000  1.0
  H  H29  1  0.52106000  0.44236000  0.71395000  1.0
  H  H30  1  0.02996000  0.61030000  0.32331000  1.0
  H  H31  1  0.52996000  0.32331000  0.61030000  1.0
  H  H32  1  0.08185000  0.76979000  0.31071000  1.0
  H  H33  1  0.58185000  0.31071000  0.76979000  1.0
  H  H34  1  0.95178000  0.30166000  0.19369000  1.0
  H  H35  1  0.45177000  0.19369000  0.30166000  1.0
  H  H36  1  0.83456000  0.25405000  0.02905000  1.0
  H  H37  1  0.33455000  0.02904000  0.25405000  1.0
  H  H38  1  0.79199000  0.36858000  0.11360000  1.0
  H  H39  1  0.29198000  0.11359000  0.36858000  1.0
  H  H40  1  0.59839000  0.68918000  0.75927000  1.0
  H  H41  1  0.09839000  0.75927000  0.68918000  1.0
  H  H42  1  0.74776000  0.65680000  0.72260000  1.0
  H  H43  1  0.24776000  0.72260000  0.65680000  1.0
  C  C44  1  0.75094000  0.45303000  0.41546000  1.0
  C  C45  1  0.25094000  0.41546000  0.45303000  1.0
  C  C46  1  0.88304000  0.99740000  0.27003000  1.0
  C  C47  1  0.38303000  0.27003000  0.99740000  1.0
  C  C48  1  0.04035000  0.95901000  0.60259000  1.0
  C  C49  1  0.54035000  0.60259000  0.95901000  1.0
  C  C50  1  0.18709000  0.79413000  0.03262000  1.0
  C  C51  1  0.68708000  0.03262000  0.79412000  1.0
  C  C52  1  0.72446000  0.88252000  0.24524000  1.0
  C  C53  1  0.22445000  0.24524000  0.88252000  1.0
  C  C54  1  0.03543000  0.43444000  0.07503000  1.0
  C  C55  1  0.53543000  0.07503000  0.43444000  1.0
  C  C56  1  0.23501000  0.02087000  0.62742000  1.0
  C  C57  1  0.73501000  0.62743000  0.02087000  1.0
  C  C58  1  0.66458000  0.55269000  0.39444000  1.0
  C  C59  1  0.16458000  0.39444000  0.55269000  1.0
  C  C60  1  0.08728000  0.86796000  0.95305000  1.0
  C  C61  1  0.58727000  0.95305000  0.86796000  1.0
  C  C62  1  0.28325000  0.72473000  0.44275000  1.0
  C  C63  1  0.78325000  0.44275000  0.72473000  1.0
  C  C64  1  0.09065000  0.70278000  0.37787000  1.0
  C  C65  1  0.59065000  0.37787000  0.70278000  1.0
  C  C66  1  0.89553000  0.33170000  0.10450000  1.0
  C  C67  1  0.39553000  0.10449000  0.33170000  1.0
  O  O68  1  0.37890000  0.70418000  0.38036000  1.0
  O  O69  1  0.87889000  0.38037000  0.70419000  1.0
  O  O70  1  0.93081000  0.01869000  0.56277000  1.0
  O  O71  1  0.43081000  0.56278000  0.01869000  1.0
  O  O72  1  0.69197000  0.82651000  0.33606000  1.0
  O  O73  1  0.19196000  0.33606000  0.82651000  1.0
  O  O74  1  0.21751000  0.70362000  0.98254000  1.0
  O  O75  1  0.71750000  0.98254000  0.70362000  1.0
  O  O76  1  0.97869000  0.84646000  0.61909000  1.0
  O  O77  1  0.47869000  0.61909000  0.84646000  1.0
  O  O78  1  0.15337000  0.51296000  0.16588000  1.0
  O  O79  1  0.65337000  0.16588000  0.51296000  1.0
  O  O80  1  0.24692000  0.82122000  0.15025000  1.0
  O  O81  1  0.74690000  0.15025000  0.82122000  1.0
  O  O82  1  0.56522000  0.55188000  0.28396000  1.0
  O  O83  1  0.06522000  0.28396000  0.55188000  1.0
  O  O84  1  0.02738000  0.43849000  0.96286000  1.0
  O  O85  1  0.52737000  0.96286000  0.43849000  1.0
  O  O86  1  0.35941000  0.76746000  0.55718000  1.0
  O  O87  1  0.85942000  0.55718000  0.76746000  1.0
  O  O88  1  0.69287000  0.62993000  0.48692000  1.0
  O  O89  1  0.19287000  0.48692000  0.62994000  1.0
  O  O90  1  0.62343000  0.83810000  0.13463000  1.0
  O  O91  1  0.12342000  0.13464000  0.83810000  1.0
  O  O92  1  0.68314000  0.71825000  0.71266000  1.0
  O  O93  1  0.18314000  0.71266000  0.71825000  1.0
