# generated using pymatgen
data_ErH8C5O9
_symmetry_space_group_name_H-M   'P 1'
_cell_length_a   6.63061000
_cell_length_b   11.50410000
_cell_length_c   11.59170000
_cell_angle_alpha   97.09320000
_cell_angle_beta   89.99950000
_cell_angle_gamma   90.00000000
_symmetry_Int_Tables_number   1
_chemical_formula_structural   ErH8C5O9
_chemical_formula_sum   'Er4 H32 C20 O36'
_cell_volume   877.43842940
_cell_formula_units_Z   4
loop_
 _symmetry_equiv_pos_site_id
 _symmetry_equiv_pos_as_xyz
  1  'x, y, z'
loop_
 _atom_site_type_symbol
 _atom_site_label
 _atom_site_symmetry_multiplicity
 _atom_site_fract_x
 _atom_site_fract_y
 _atom_site_fract_z
 _atom_site_occupancy
  Er  Er0  1  0.98424000  0.69639000  0.83295000  1.0
  Er  Er1  1  0.48425000  0.30361000  0.66706000  1.0
  Er  Er2  1  0.01576000  0.30361000  0.16706000  1.0
  Er  Er3  1  0.51576000  0.69638000  0.33294000  1.0
  H  H4  1  0.10383000  0.52070000  0.63889000  1.0
  H  H5  1  0.60382000  0.47929000  0.86112000  1.0
  H  H6  1  0.89619000  0.47930000  0.36111000  1.0
  H  H7  1  0.39619000  0.52069000  0.13889000  1.0
  H  H8  1  0.82329000  0.88580000  0.71062000  1.0
  H  H9  1  0.32328000  0.11420000  0.78938000  1.0
  H  H10  1  0.17669000  0.11421000  0.28939000  1.0
  H  H11  1  0.67669000  0.88580000  0.21061000  1.0
  H  H12  1  0.22723000  0.97850000  0.05397000  1.0
  H  H13  1  0.72723000  0.02150000  0.44602000  1.0
  H  H14  1  0.77277000  0.02151000  0.94603000  1.0
  H  H15  1  0.27276000  0.97849000  0.55397000  1.0
  H  H16  1  0.27413000  0.84751000  0.11798000  1.0
  H  H17  1  0.77413000  0.15250000  0.38202000  1.0
  H  H18  1  0.72586000  0.15249000  0.88202000  1.0
  H  H19  1  0.22585000  0.84751000  0.61798000  1.0
  H  H20  1  0.50706000  0.75964000  0.99077000  1.0
  H  H21  1  0.00707000  0.24037000  0.50923000  1.0
  H  H22  1  0.49293000  0.24037000  0.00923000  1.0
  H  H23  1  0.99292000  0.75963000  0.49077000  1.0
  H  H24  1  0.52381000  0.88620000  0.91664000  1.0
  H  H25  1  0.02382000  0.11381000  0.58336000  1.0
  H  H26  1  0.47620000  0.11381000  0.08336000  1.0
  H  H27  1  0.97618000  0.88619000  0.41664000  1.0
  H  H28  1  0.01423000  0.94227000  0.78300000  1.0
  H  H29  1  0.51422000  0.05773000  0.71700000  1.0
  H  H30  1  0.98576000  0.05774000  0.21700000  1.0
  H  H31  1  0.48576000  0.94227000  0.28300000  1.0
  H  H32  1  0.86700000  0.51089000  0.64337000  1.0
  H  H33  1  0.36699000  0.48910000  0.85663000  1.0
  H  H34  1  0.13302000  0.48910000  0.35663000  1.0
  H  H35  1  0.63301000  0.51088000  0.14337000  1.0
  C  C36  1  0.46993000  0.72527000  0.80499000  1.0
  C  C37  1  0.96993000  0.27473000  0.69501000  1.0
  C  C38  1  0.53008000  0.27474000  0.19501000  1.0
  C  C39  1  0.03007000  0.72527000  0.30499000  1.0
  C  C40  1  0.96481000  0.87054000  0.07319000  1.0
  C  C41  1  0.46482000  0.12947000  0.42681000  1.0
  C  C42  1  0.03518000  0.12947000  0.92681000  1.0
  C  C43  1  0.53517000  0.87053000  0.57319000  1.0
  C  C44  1  0.18774000  0.88503000  0.05024000  1.0
  C  C45  1  0.68774000  0.11498000  0.44975000  1.0
  C  C46  1  0.81225000  0.11499000  0.94976000  1.0
  C  C47  1  0.31224000  0.88502000  0.55024000  1.0
  C  C48  1  0.44291000  0.80300000  0.91967000  1.0
  C  C49  1  0.94292000  0.19701000  0.58033000  1.0
  C  C50  1  0.55708000  0.19701000  0.08033000  1.0
  C  C51  1  0.05708000  0.80299000  0.41967000  1.0
  C  C52  1  0.88588000  0.49233000  0.99519000  1.0
  C  C53  1  0.38587000  0.50767000  0.50481000  1.0
  C  C54  1  0.11414000  0.50766000  0.00481000  1.0
  C  C55  1  0.61414000  0.49233000  0.49518000  1.0
  O  O56  1  0.64807000  0.69798000  0.77287000  1.0
  O  O57  1  0.14807000  0.30202000  0.72713000  1.0
  O  O58  1  0.35194000  0.30203000  0.22714000  1.0
  O  O59  1  0.85193000  0.69799000  0.27286000  1.0
  O  O60  1  0.31056000  0.69246000  0.74899000  1.0
  O  O61  1  0.81057000  0.30754000  0.75101000  1.0
  O  O62  1  0.68944000  0.30755000  0.25100000  1.0
  O  O63  1  0.18943000  0.69246000  0.24899000  1.0
  O  O64  1  0.98113000  0.55910000  0.67642000  1.0
  O  O65  1  0.48113000  0.44088000  0.82360000  1.0
  O  O66  1  0.01888000  0.44090000  0.32358000  1.0
  O  O67  1  0.51888000  0.55910000  0.17641000  1.0
  O  O68  1  0.95234000  0.86570000  0.74970000  1.0
  O  O69  1  0.45234000  0.13430000  0.75030000  1.0
  O  O70  1  0.04765000  0.13431000  0.25030000  1.0
  O  O71  1  0.54765000  0.86570000  0.24970000  1.0
  O  O72  1  0.23201000  0.82447000  0.93804000  1.0
  O  O73  1  0.73201000  0.17553000  0.56195000  1.0
  O  O74  1  0.76800000  0.17553000  0.06195000  1.0
  O  O75  1  0.26798000  0.82447000  0.43804000  1.0
  O  O76  1  0.79671000  0.55071000  0.92506000  1.0
  O  O77  1  0.29672000  0.44928000  0.57496000  1.0
  O  O78  1  0.20332000  0.44927000  0.07497000  1.0
  O  O79  1  0.70331000  0.55073000  0.42503000  1.0
  O  O80  1  0.88875000  0.93198000  0.16102000  1.0
  O  O81  1  0.38876000  0.06805000  0.33898000  1.0
  O  O82  1  0.11123000  0.06805000  0.83897000  1.0
  O  O83  1  0.61123000  0.93195000  0.66102000  1.0
  O  O84  1  0.86794000  0.79683000  0.00387000  1.0
  O  O85  1  0.36795000  0.20318000  0.49613000  1.0
  O  O86  1  0.13207000  0.20317000  0.99613000  1.0
  O  O87  1  0.63205000  0.79681000  0.50387000  1.0
  O  O88  1  0.19390000  0.57668000  0.94063000  1.0
  O  O89  1  0.69391000  0.42330000  0.55936000  1.0
  O  O90  1  0.80611000  0.42329000  0.05939000  1.0
  O  O91  1  0.30611000  0.57670000  0.44062000  1.0
