# generated using pymatgen
data_Cu3H16C12Br3N4
_symmetry_space_group_name_H-M   'P 1'
_cell_length_a   7.08208000
_cell_length_b   9.77719000
_cell_length_c   12.80900000
_cell_angle_alpha   83.29120000
_cell_angle_beta   84.14740000
_cell_angle_gamma   80.65330000
_symmetry_Int_Tables_number   1
_chemical_formula_structural   Cu3H16C12Br3N4
_chemical_formula_sum   'Cu6 H32 C24 Br6 N8'
_cell_volume   866.04108403
_cell_formula_units_Z   2
loop_
 _symmetry_equiv_pos_site_id
 _symmetry_equiv_pos_as_xyz
  1  'x, y, z'
loop_
 _atom_site_type_symbol
 _atom_site_label
 _atom_site_symmetry_multiplicity
 _atom_site_fract_x
 _atom_site_fract_y
 _atom_site_fract_z
 _atom_site_occupancy
  Cu  Cu0  1  0.24720000  0.42631000  0.26743000  1.0
  Cu  Cu1  1  0.75279000  0.57369000  0.73257000  1.0
  Cu  Cu2  1  0.23488000  0.75547000  0.31918000  1.0
  Cu  Cu3  1  0.76514000  0.24452000  0.68081000  1.0
  Cu  Cu4  1  0.13652000  0.77327000  0.13669000  1.0
  Cu  Cu5  1  0.86347000  0.22673000  0.86331000  1.0
  H  H6  1  0.61321000  0.47631000  0.32636000  1.0
  H  H7  1  0.38679000  0.52369000  0.67364000  1.0
  H  H8  1  0.80577000  0.40699000  0.48223000  1.0
  H  H9  1  0.19423000  0.59301000  0.51777000  1.0
  H  H10  1  0.87224000  0.48428000  0.17882000  1.0
  H  H11  1  0.12775000  0.51572000  0.82118000  1.0
  H  H12  1  0.72875000  0.40797000  0.02799000  1.0
  H  H13  1  0.27124000  0.59203000  0.97201000  1.0
  H  H14  1  0.52481000  0.07479000  0.68691000  1.0
  H  H15  1  0.47520000  0.92522000  0.31309000  1.0
  H  H16  1  0.38395000  0.00826000  0.60128000  1.0
  H  H17  1  0.61606000  0.99173000  0.39873000  1.0
  H  H18  1  0.27761000  0.14540000  0.67627000  1.0
  H  H19  1  0.72240000  0.85460000  0.32374000  1.0
  H  H20  1  0.09089000  0.18432000  0.51932000  1.0
  H  H21  1  0.90911000  0.81568000  0.48068000  1.0
  H  H22  1  0.23008000  0.07050000  0.43282000  1.0
  H  H23  1  0.76992000  0.92950000  0.56719000  1.0
  H  H24  1  0.11145000  0.23434000  0.38004000  1.0
  H  H25  1  0.88855000  0.76566000  0.61996000  1.0
  H  H26  1  0.17910000  0.07817000  0.88908000  1.0
  H  H27  1  0.82090000  0.92183000  0.11092000  1.0
  H  H28  1  0.31378000  0.01424000  0.00001000  1.0
  H  H29  1  0.68622000  0.98576000  0.99999000  1.0
  H  H30  1  0.39699000  0.14194000  0.90296000  1.0
  H  H31  1  0.60301000  0.85806000  0.09704000  1.0
  H  H32  1  0.49052000  0.27079000  0.16834000  1.0
  H  H33  1  0.50948000  0.72922000  0.83166000  1.0
  H  H34  1  0.53850000  0.20758000  0.04116000  1.0
  H  H35  1  0.46150000  0.79243000  0.95884000  1.0
  H  H36  1  0.44785000  0.10040000  0.15056000  1.0
  H  H37  1  0.55215000  0.89961000  0.84943000  1.0
  C  C38  1  0.57294000  0.39809000  0.38877000  1.0
  C  C39  1  0.42706000  0.60190000  0.61123000  1.0
  C  C40  1  0.67869000  0.36013000  0.47480000  1.0
  C  C41  1  0.32132000  0.63987000  0.52520000  1.0
  C  C42  1  0.46913000  0.20774000  0.54561000  1.0
  C  C43  1  0.53087000  0.79226000  0.45440000  1.0
  C  C44  1  0.36076000  0.24661000  0.45722000  1.0
  C  C45  1  0.63924000  0.75339000  0.54278000  1.0
  C  C46  1  0.95352000  0.40758000  0.12958000  1.0
  C  C47  1  0.04647000  0.59242000  0.87042000  1.0
  C  C48  1  0.87456000  0.36503000  0.04712000  1.0
  C  C49  1  0.12543000  0.63497000  0.95288000  1.0
  C  C50  1  0.15766000  0.21803000  0.00761000  1.0
  C  C51  1  0.84234000  0.78197000  0.99239000  1.0
  C  C52  1  0.24020000  0.26518000  0.09009000  1.0
  C  C53  1  0.75980000  0.73483000  0.90991000  1.0
  C  C54  1  0.41170000  0.10272000  0.63218000  1.0
  C  C55  1  0.58830000  0.89728000  0.36783000  1.0
  C  C56  1  0.18860000  0.18075000  0.44694000  1.0
  C  C57  1  0.81140000  0.81925000  0.55306000  1.0
  C  C58  1  0.26794000  0.10692000  0.94595000  1.0
  C  C59  1  0.73206000  0.89309000  0.05405000  1.0
  C  C60  1  0.44130000  0.20836000  0.11365000  1.0
  C  C61  1  0.55870000  0.79165000  0.88635000  1.0
  Br  Br62  1  0.97967000  0.60100000  0.33669000  1.0
  Br  Br63  1  0.02032000  0.39900000  0.66331000  1.0
  Br  Br64  1  0.09320000  0.97732000  0.22994000  1.0
  Br  Br65  1  0.90683000  0.02268000  0.77005000  1.0
  Br  Br66  1  0.44775000  0.61768000  0.16330000  1.0
  Br  Br67  1  0.55225000  0.38231000  0.83670000  1.0
  N  N68  1  0.41085000  0.34475000  0.37984000  1.0
  N  N69  1  0.58915000  0.65525000  0.62016000  1.0
  N  N70  1  0.62582000  0.26738000  0.55505000  1.0
  N  N71  1  0.37419000  0.73261000  0.44495000  1.0
  N  N72  1  0.13737000  0.35987000  0.15090000  1.0
  N  N73  1  0.86263000  0.64013000  0.84910000  1.0
  N  N74  1  0.97593000  0.27096000  0.98491000  1.0
  N  N75  1  0.02407000  0.72904000  0.01509000  1.0
