# generated using pymatgen
data_ZnH18C28(N4O)2
_symmetry_space_group_name_H-M   'P 1'
_cell_length_a   6.03245000
_cell_length_b   7.48551000
_cell_length_c   26.17240000
_cell_angle_alpha   89.99950000
_cell_angle_beta   83.55650000
_cell_angle_gamma   89.99980000
_symmetry_Int_Tables_number   1
_chemical_formula_structural   ZnH18C28(N4O)2
_chemical_formula_sum   'Zn2 H36 C56 N16 O4'
_cell_volume   1174.37429411
_cell_formula_units_Z   2
loop_
 _symmetry_equiv_pos_site_id
 _symmetry_equiv_pos_as_xyz
  1  'x, y, z'
loop_
 _atom_site_type_symbol
 _atom_site_label
 _atom_site_symmetry_multiplicity
 _atom_site_fract_x
 _atom_site_fract_y
 _atom_site_fract_z
 _atom_site_occupancy
  Zn  Zn0  1  0.49999000  0.50001000  0.00000000  1.0
  Zn  Zn1  1  0.00000000  0.00000000  0.50000000  1.0
  H  H2  1  0.96850000  0.37089000  0.95389000  1.0
  H  H3  1  0.53150000  0.87089000  0.54611000  1.0
  H  H4  1  0.03150000  0.62911000  0.04611000  1.0
  H  H5  1  0.46850000  0.12911000  0.45389000  1.0
  H  H6  1  0.16790000  0.27996000  0.86908000  1.0
  H  H7  1  0.33209000  0.77996000  0.63092000  1.0
  H  H8  1  0.83209000  0.72004000  0.13092000  1.0
  H  H9  1  0.66791000  0.22003000  0.36908000  1.0
  H  H10  1  0.98253000  0.32739000  0.78953000  1.0
  H  H11  1  0.51745000  0.82737000  0.71047000  1.0
  H  H12  1  0.01745000  0.67261000  0.21048000  1.0
  H  H13  1  0.48254000  0.17261000  0.28952000  1.0
  H  H14  1  0.42221000  0.54913000  0.88593000  1.0
  H  H15  1  0.07779000  0.04911000  0.61407000  1.0
  H  H16  1  0.57779000  0.45088000  0.11407000  1.0
  H  H17  1  0.92222000  0.95088000  0.38593000  1.0
  H  H18  1  0.99047000  0.56341000  0.73776000  1.0
  H  H19  1  0.50953000  0.06341000  0.76224000  1.0
  H  H20  1  0.00953000  0.43659000  0.26224000  1.0
  H  H21  1  0.49046000  0.93658000  0.23776000  1.0
  H  H22  1  0.34510000  0.34395000  0.71608000  1.0
  H  H23  1  0.15489000  0.84394000  0.78392000  1.0
  H  H24  1  0.65490000  0.65605000  0.28392000  1.0
  H  H25  1  0.84510000  0.15606000  0.21608000  1.0
  H  H26  1  0.47217000  0.29413000  0.62401000  1.0
  H  H27  1  0.02784000  0.79413000  0.87599000  1.0
  H  H28  1  0.52787000  0.70589000  0.37598000  1.0
  H  H29  1  0.97216000  0.20589000  0.12401000  1.0
  H  H30  1  0.85186000  0.38914000  0.58764000  1.0
  H  H31  1  0.64815000  0.88915000  0.91236000  1.0
  H  H32  1  0.14818000  0.61087000  0.41236000  1.0
  H  H33  1  0.35185000  0.11086000  0.08764000  1.0
  H  H34  1  0.11224000  0.52019000  0.64495000  1.0
  H  H35  1  0.38776000  0.02019000  0.85505000  1.0
  H  H36  1  0.88780000  0.47982000  0.35505000  1.0
  H  H37  1  0.61222000  0.97980000  0.14495000  1.0
  C  C38  1  0.76599000  0.18455000  0.03932000  1.0
  C  C39  1  0.73400000  0.68454000  0.46069000  1.0
  C  C40  1  0.23399000  0.81546000  0.96069000  1.0
  C  C41  1  0.26600000  0.31545000  0.53932000  1.0
  C  C42  1  0.73274000  0.88012000  0.02748000  1.0
  C  C43  1  0.76725000  0.38011000  0.47252000  1.0
  C  C44  1  0.26725000  0.11990000  0.97252000  1.0
  C  C45  1  0.23276000  0.61988000  0.52748000  1.0
  C  C46  1  0.89223000  0.38836000  0.91849000  1.0
  C  C47  1  0.60776000  0.88837000  0.58151000  1.0
  C  C48  1  0.10776000  0.61163000  0.08151000  1.0
  C  C49  1  0.39225000  0.11163000  0.41849000  1.0
  C  C50  1  0.00298000  0.33999000  0.87104000  1.0
  C  C51  1  0.49702000  0.83998000  0.62896000  1.0
  C  C52  1  0.99701000  0.66002000  0.12896000  1.0
  C  C53  1  0.50299000  0.16001000  0.37104000  1.0
  C  C54  1  0.90026000  0.36851000  0.82676000  1.0
  C  C55  1  0.59974000  0.86851000  0.67324000  1.0
  C  C56  1  0.09974000  0.63148000  0.17324000  1.0
  C  C57  1  0.40026000  0.13148000  0.32676000  1.0
  C  C58  1  0.68978000  0.44988000  0.83126000  1.0
  C  C59  1  0.81021000  0.94986000  0.66875000  1.0
  C  C60  1  0.31021000  0.55013000  0.16875000  1.0
  C  C61  1  0.18979000  0.05013000  0.33125000  1.0
  C  C62  1  0.58811000  0.48979000  0.88082000  1.0
  C  C63  1  0.91188000  0.98978000  0.61918000  1.0
  C  C64  1  0.41188000  0.51021000  0.11918000  1.0
  C  C65  1  0.08811000  0.01021000  0.38082000  1.0
  C  C66  1  0.56185000  0.49179000  0.78719000  1.0
  C  C67  1  0.93816000  0.99177000  0.71280000  1.0
  C  C68  1  0.43814000  0.50821000  0.21281000  1.0
  C  C69  1  0.06185000  0.00820000  0.28720000  1.0
  C  C70  1  0.65780000  0.45792000  0.73308000  1.0
  C  C71  1  0.84219000  0.95791000  0.76692000  1.0
  C  C72  1  0.34220000  0.54209000  0.26692000  1.0
  C  C73  1  0.15780000  0.04208000  0.23308000  1.0
  C  C74  1  0.87596000  0.50454000  0.71307000  1.0
  C  C75  1  0.62404000  0.00453000  0.78693000  1.0
  C  C76  1  0.12404000  0.49546000  0.28694000  1.0
  C  C77  1  0.37595000  0.99546000  0.21307000  1.0
  C  C78  1  0.51252000  0.38402000  0.70029000  1.0
  C  C79  1  0.98748000  0.88401000  0.79971000  1.0
  C  C80  1  0.48749000  0.61598000  0.29970000  1.0
  C  C81  1  0.01252000  0.11599000  0.20029000  1.0
  C  C82  1  0.58359000  0.35723000  0.64855000  1.0
  C  C83  1  0.91642000  0.85723000  0.85145000  1.0
  C  C84  1  0.41644000  0.64278000  0.35145000  1.0
  C  C85  1  0.08358000  0.14278000  0.14855000  1.0
  C  C86  1  0.79861000  0.40868000  0.62843000  1.0
  C  C87  1  0.70140000  0.90869000  0.87157000  1.0
  C  C88  1  0.20142000  0.59133000  0.37157000  1.0
  C  C89  1  0.29860000  0.09132000  0.12843000  1.0
  C  C90  1  0.94401000  0.48189000  0.66069000  1.0
  C  C91  1  0.55599000  0.98190000  0.83931000  1.0
  C  C92  1  0.05601000  0.51812000  0.33931000  1.0
  C  C93  1  0.44400000  0.01810000  0.16069000  1.0
  N  N94  1  0.68011000  0.74160000  0.01114000  1.0
  N  N95  1  0.81987000  0.24160000  0.48886000  1.0
  N  N96  1  0.31986000  0.25840000  0.98886000  1.0
  N  N97  1  0.18013000  0.75839000  0.51114000  1.0
  N  N98  1  0.74003000  0.33972000  0.03419000  1.0
  N  N99  1  0.75995000  0.83971000  0.46581000  1.0
  N  N100  1  0.25996000  0.66029000  0.96581000  1.0
  N  N101  1  0.24005000  0.16028000  0.53419000  1.0
  N  N102  1  0.68493000  0.45855000  0.92349000  1.0
  N  N103  1  0.81506000  0.95854000  0.57651000  1.0
  N  N104  1  0.31506000  0.54146000  0.07651000  1.0
  N  N105  1  0.18495000  0.04145000  0.42349000  1.0
  N  N106  1  0.80665000  0.01995000  0.04897000  1.0
  N  N107  1  0.69336000  0.51994000  0.45103000  1.0
  N  N108  1  0.19336000  0.98007000  0.95102000  1.0
  N  N109  1  0.30666000  0.48005000  0.54897000  1.0
  O  O110  1  0.36865000  0.55049000  0.79534000  1.0
  O  O111  1  0.13135000  0.05047000  0.70466000  1.0
  O  O112  1  0.63134000  0.44951000  0.20466000  1.0
  O  O113  1  0.86866000  0.94952000  0.29534000  1.0
