# generated using pymatgen
data_ZnH14C18(NO)4
_symmetry_space_group_name_H-M   'P 1'
_cell_length_a   9.19526000
_cell_length_b   10.53290000
_cell_length_c   11.12860000
_cell_angle_alpha   104.99300000
_cell_angle_beta   108.58700000
_cell_angle_gamma   109.39500000
_symmetry_Int_Tables_number   1
_chemical_formula_structural   ZnH14C18(NO)4
_chemical_formula_sum   'Zn2 H28 C36 N8 O8'
_cell_volume   879.89509983
_cell_formula_units_Z   2
loop_
 _symmetry_equiv_pos_site_id
 _symmetry_equiv_pos_as_xyz
  1  'x, y, z'
loop_
 _atom_site_type_symbol
 _atom_site_label
 _atom_site_symmetry_multiplicity
 _atom_site_fract_x
 _atom_site_fract_y
 _atom_site_fract_z
 _atom_site_occupancy
  Zn  Zn0  1  0.27193000  0.53581000  0.21640000  1.0
  Zn  Zn1  1  0.72806000  0.46419000  0.78360000  1.0
  H  H2  1  0.93038000  0.52333000  0.13933000  1.0
  H  H3  1  0.06962000  0.47667000  0.86066000  1.0
  H  H4  1  0.79810000  0.67695000  0.21776000  1.0
  H  H5  1  0.20190000  0.32305000  0.78225000  1.0
  H  H6  1  0.29709000  0.97700000  0.56806000  1.0
  H  H7  1  0.70291000  0.02301000  0.43194000  1.0
  H  H8  1  0.41036000  0.81695000  0.47182000  1.0
  H  H9  1  0.58964000  0.18305000  0.52817000  1.0
  H  H10  1  0.81880000  0.88952000  0.38163000  1.0
  H  H11  1  0.18120000  0.11048000  0.61838000  1.0
  H  H12  1  0.05928000  0.63824000  0.63027000  1.0
  H  H13  1  0.94072000  0.36176000  0.36973000  1.0
  H  H14  1  0.67564000  0.30469000  0.30726000  1.0
  H  H15  1  0.32436000  0.69530000  0.69274000  1.0
  H  H16  1  0.39697000  0.30988000  0.19666000  1.0
  H  H17  1  0.60303000  0.69012000  0.80334000  1.0
  H  H18  1  0.58145000  0.73187000  0.49055000  1.0
  H  H19  1  0.41855000  0.26812000  0.50945000  1.0
  H  H20  1  0.86175000  0.74385000  0.61419000  1.0
  H  H21  1  0.13825000  0.25615000  0.38581000  1.0
  H  H22  1  0.86787000  0.03093000  0.02863000  1.0
  H  H23  1  0.13213000  0.96907000  0.97137000  1.0
  H  H24  1  0.77132000  0.14198000  0.98138000  1.0
  H  H25  1  0.22868000  0.85803000  0.01862000  1.0
  H  H26  1  0.61911000  0.76382000  0.03932000  1.0
  H  H27  1  0.38090000  0.23618000  0.96068000  1.0
  H  H28  1  0.42265000  0.76803000  0.95407000  1.0
  H  H29  1  0.57736000  0.23197000  0.04594000  1.0
  C  C30  1  0.00738000  0.62509000  0.23338000  1.0
  C  C31  1  0.99262000  0.37491000  0.76662000  1.0
  C  C32  1  0.93413000  0.71153000  0.27886000  1.0
  C  C33  1  0.06587000  0.28848000  0.72114000  1.0
  C  C34  1  0.03492000  0.84230000  0.40073000  1.0
  C  C35  1  0.96508000  0.15769000  0.59927000  1.0
  C  C36  1  0.20962000  0.87791000  0.47273000  1.0
  C  C37  1  0.79039000  0.12209000  0.52727000  1.0
  C  C38  1  0.27433000  0.78772000  0.41983000  1.0
  C  C39  1  0.72567000  0.21228000  0.58017000  1.0
  C  C40  1  0.95712000  0.93389000  0.44491000  1.0
  C  C41  1  0.04289000  0.06611000  0.55510000  1.0
  C  C42  1  0.97152000  0.54431000  0.53039000  1.0
  C  C43  1  0.02848000  0.45568000  0.46961000  1.0
  C  C44  1  0.79810000  0.52808000  0.46805000  1.0
  C  C45  1  0.20190000  0.47192000  0.53195000  1.0
  C  C46  1  0.66113000  0.40243000  0.35111000  1.0
  C  C47  1  0.33887000  0.59756000  0.64888000  1.0
  C  C48  1  0.50521000  0.40330000  0.28891000  1.0
  C  C49  1  0.49479000  0.59670000  0.71109000  1.0
  C  C50  1  0.60494000  0.63851000  0.45258000  1.0
  C  C51  1  0.39506000  0.36149000  0.54741000  1.0
  C  C52  1  0.76364000  0.64490000  0.52182000  1.0
  C  C53  1  0.23636000  0.35510000  0.47818000  1.0
  C  C54  1  0.04332000  0.22818000  0.03150000  1.0
  C  C55  1  0.95668000  0.77182000  0.96850000  1.0
  C  C56  1  0.86154000  0.09934000  0.96870000  1.0
  C  C57  1  0.13846000  0.90066000  0.03130000  1.0
  C  C58  1  0.79739000  0.00562000  0.82455000  1.0
  C  C59  1  0.20260000  0.99438000  0.17545000  1.0
  C  C60  1  0.45535000  0.73050000  0.14326000  1.0
  C  C61  1  0.54465000  0.26950000  0.85674000  1.0
  C  C62  1  0.52625000  0.80204000  0.05671000  1.0
  C  C63  1  0.47376000  0.19796000  0.94330000  1.0
  C  C64  1  0.61299000  0.96145000  0.12694000  1.0
  C  C65  1  0.38701000  0.03856000  0.87306000  1.0
  N  N66  1  0.17615000  0.66276000  0.30190000  1.0
  N  N67  1  0.82385000  0.33724000  0.69810000  1.0
  N  N68  1  0.47790000  0.52120000  0.33623000  1.0
  N  N69  1  0.52210000  0.47880000  0.66377000  1.0
  N  N70  1  0.74285000  0.92940000  0.70807000  1.0
  N  N71  1  0.25715000  0.07060000  0.29193000  1.0
  N  N72  1  0.68038000  0.08958000  0.18365000  1.0
  N  N73  1  0.31962000  0.91042000  0.81635000  1.0
  O  O74  1  0.06022000  0.34677000  0.11754000  1.0
  O  O75  1  0.93978000  0.65323000  0.88246000  1.0
  O  O76  1  0.15513000  0.20829000  0.00059000  1.0
  O  O77  1  0.84487000  0.79171000  0.99940000  1.0
  O  O78  1  0.33073000  0.59886000  0.07374000  1.0
  O  O79  1  0.66927000  0.40114000  0.92626000  1.0
  O  O80  1  0.52178000  0.80004000  0.27187000  1.0
  O  O81  1  0.47822000  0.19996000  0.72813000  1.0
