# generated using pymatgen
data_TbH7C8SO9
_symmetry_space_group_name_H-M   'P 1'
_cell_length_a   6.14351000
_cell_length_b   9.18680000
_cell_length_c   10.40420000
_cell_angle_alpha   97.54000000
_cell_angle_beta   94.59220000
_cell_angle_gamma   109.10900000
_symmetry_Int_Tables_number   1
_chemical_formula_structural   TbH7C8SO9
_chemical_formula_sum   'Tb2 H14 C16 S2 O18'
_cell_volume   545.28666176
_cell_formula_units_Z   2
loop_
 _symmetry_equiv_pos_site_id
 _symmetry_equiv_pos_as_xyz
  1  'x, y, z'
loop_
 _atom_site_type_symbol
 _atom_site_label
 _atom_site_symmetry_multiplicity
 _atom_site_fract_x
 _atom_site_fract_y
 _atom_site_fract_z
 _atom_site_occupancy
  Tb  Tb0  1  0.33937000  0.32491000  0.11146000  1.0
  Tb  Tb1  1  0.66063000  0.67509000  0.88854000  1.0
  H  H2  1  0.10653000  0.96205000  0.10601000  1.0
  H  H3  1  0.89347000  0.03795000  0.89399000  1.0
  H  H4  1  0.37672000  0.02630000  0.14469000  1.0
  H  H5  1  0.62328000  0.97370000  0.85531000  1.0
  H  H6  1  0.68482000  0.31508000  0.92927000  1.0
  H  H7  1  0.31519000  0.68492000  0.07073000  1.0
  H  H8  1  0.48042000  0.14815000  0.89606000  1.0
  H  H9  1  0.51958000  0.85185000  0.10394000  1.0
  H  H10  1  0.33271000  0.63810000  0.51840000  1.0
  H  H11  1  0.66729000  0.36190000  0.48160000  1.0
  H  H12  1  0.84860000  0.88014000  0.59338000  1.0
  H  H13  1  0.15140000  0.11986000  0.40662000  1.0
  H  H14  1  0.70252000  0.82253000  0.35674000  1.0
  H  H15  1  0.29748000  0.17747000  0.64326000  1.0
  C  C16  1  0.93460000  0.69807000  0.30325000  1.0
  C  C17  1  0.06540000  0.30193000  0.69675000  1.0
  C  C18  1  0.11242000  0.64594000  0.35026000  1.0
  C  C19  1  0.88757000  0.35406000  0.64974000  1.0
  C  C20  1  0.19753000  0.68150000  0.48353000  1.0
  C  C21  1  0.80247000  0.31850000  0.51647000  1.0
  C  C22  1  0.10593000  0.76787000  0.56937000  1.0
  C  C23  1  0.89407000  0.23213000  0.43063000  1.0
  C  C24  1  0.92413000  0.81620000  0.52496000  1.0
  C  C25  1  0.07587000  0.18380000  0.47504000  1.0
  C  C26  1  0.84052000  0.78183000  0.39202000  1.0
  C  C27  1  0.15948000  0.21817000  0.60798000  1.0
  C  C28  1  0.83886000  0.66967000  0.16071000  1.0
  C  C29  1  0.16114000  0.33033000  0.83929000  1.0
  C  C30  1  0.21256000  0.54840000  0.26444000  1.0
  C  C31  1  0.78744000  0.45160000  0.73556000  1.0
  S  S32  1  0.22537000  0.81537000  0.73675000  1.0
  S  S33  1  0.77463000  0.18463000  0.26326000  1.0
  O  O34  1  0.66594000  0.54923000  0.11060000  1.0
  O  O35  1  0.33406000  0.45077000  0.88940000  1.0
  O  O36  1  0.92124000  0.77568000  0.09247000  1.0
  O  O37  1  0.07876000  0.22432000  0.90754000  1.0
  O  O38  1  0.16495000  0.53078000  0.13932000  1.0
  O  O39  1  0.83506000  0.46923000  0.86068000  1.0
  O  O40  1  0.33955000  0.48071000  0.31569000  1.0
  O  O41  1  0.66045000  0.51929000  0.68431000  1.0
  O  O42  1  0.35982000  0.71042000  0.75027000  1.0
  O  O43  1  0.64017000  0.28957000  0.24974000  1.0
  O  O44  1  0.37655000  0.98146000  0.76019000  1.0
  O  O45  1  0.62345000  0.01854000  0.23981000  1.0
  O  O46  1  0.03219000  0.78878000  0.81418000  1.0
  O  O47  1  0.96781000  0.21122000  0.18582000  1.0
  O  O48  1  0.24679000  0.05467000  0.10725000  1.0
  O  O49  1  0.75321000  0.94533000  0.89275000  1.0
  O  O50  1  0.56489000  0.23592000  0.96648000  1.0
  O  O51  1  0.43511000  0.76408000  0.03352000  1.0
