# generated using pymatgen
data_ZnH24C22(N3O)2
_symmetry_space_group_name_H-M   'P 1'
_cell_length_a   8.10190000
_cell_length_b   10.59120000
_cell_length_c   12.24660000
_cell_angle_alpha   90.00000000
_cell_angle_beta   90.00000000
_cell_angle_gamma   97.89180000
_symmetry_Int_Tables_number   1
_chemical_formula_structural   ZnH24C22(N3O)2
_chemical_formula_sum   'Zn2 H48 C44 N12 O4'
_cell_volume   1040.91395277
_cell_formula_units_Z   2
loop_
 _symmetry_equiv_pos_site_id
 _symmetry_equiv_pos_as_xyz
  1  'x, y, z'
loop_
 _atom_site_type_symbol
 _atom_site_label
 _atom_site_symmetry_multiplicity
 _atom_site_fract_x
 _atom_site_fract_y
 _atom_site_fract_z
 _atom_site_occupancy
  Zn  Zn0  1  0.00000000  0.00000000  0.50000000  1.0
  Zn  Zn1  1  0.50000000  0.50000000  0.00000000  1.0
  H  H2  1  0.87438000  0.22526000  0.46648000  1.0
  H  H3  1  0.62562000  0.27474000  0.96648000  1.0
  H  H4  1  0.12562000  0.77474000  0.53352000  1.0
  H  H5  1  0.37438000  0.72526000  0.03352000  1.0
  H  H6  1  0.01950000  0.07159000  0.80685000  1.0
  H  H7  1  0.48050000  0.42841000  0.30685000  1.0
  H  H8  1  0.98050000  0.92841000  0.19315000  1.0
  H  H9  1  0.51950000  0.57159000  0.69315000  1.0
  H  H10  1  0.82091000  0.79987000  0.05220000  1.0
  H  H11  1  0.67909000  0.70013000  0.55220000  1.0
  H  H12  1  0.17909000  0.20013000  0.94780000  1.0
  H  H13  1  0.32091000  0.29987000  0.44780000  1.0
  H  H14  1  0.61448000  0.01625000  0.42795000  1.0
  H  H15  1  0.88552000  0.48375000  0.92795000  1.0
  H  H16  1  0.38552000  0.98375000  0.57205000  1.0
  H  H17  1  0.11447000  0.51624000  0.07205000  1.0
  H  H18  1  0.59943000  0.18280000  0.44341000  1.0
  H  H19  1  0.90057000  0.31720000  0.94341000  1.0
  H  H20  1  0.40057000  0.81719000  0.55659000  1.0
  H  H21  1  0.09943000  0.68280000  0.05659000  1.0
  H  H22  1  0.63891000  0.08846000  0.55945000  1.0
  H  H23  1  0.86109000  0.41154000  0.05945000  1.0
  H  H24  1  0.36110000  0.91154000  0.44055000  1.0
  H  H25  1  0.13890000  0.58846000  0.94055000  1.0
  H  H26  1  0.92834000  0.28675000  0.29259000  1.0
  H  H27  1  0.57166000  0.21325000  0.79259000  1.0
  H  H28  1  0.07166000  0.71325000  0.70742000  1.0
  H  H29  1  0.42834000  0.78675000  0.20741000  1.0
  H  H30  1  0.09459000  0.40174000  0.24510000  1.0
  H  H31  1  0.40541000  0.09826000  0.74510000  1.0
  H  H32  1  0.90541000  0.59826000  0.75490000  1.0
  H  H33  1  0.59459000  0.90174000  0.25490000  1.0
  H  H34  1  0.88739000  0.43550000  0.23809000  1.0
  H  H35  1  0.61261000  0.06450000  0.73809000  1.0
  H  H36  1  0.11261000  0.56450000  0.76191000  1.0
  H  H37  1  0.38739000  0.93550000  0.26191000  1.0
  H  H38  1  0.81595000  0.25025000  0.65144000  1.0
  H  H39  1  0.68405000  0.24974000  0.15144000  1.0
  H  H40  1  0.18405000  0.74975000  0.34856000  1.0
  H  H41  1  0.31595000  0.75026000  0.84856000  1.0
  H  H42  1  0.74900000  0.38894000  0.71015000  1.0
  H  H43  1  0.75100000  0.11106000  0.21015000  1.0
  H  H44  1  0.25100000  0.61106000  0.28985000  1.0
  H  H45  1  0.24899000  0.88894000  0.78985000  1.0
  H  H46  1  0.94532000  0.34653000  0.74538000  1.0
  H  H47  1  0.55468000  0.15347000  0.24538000  1.0
  H  H48  1  0.05468000  0.65347000  0.25462000  1.0
  H  H49  1  0.44532000  0.84653000  0.75462000  1.0
  C  C50  1  0.82421000  0.88706000  0.72511000  1.0
  C  C51  1  0.67579000  0.61294000  0.22511000  1.0
  C  C52  1  0.17579000  0.11294000  0.27489000  1.0
  C  C53  1  0.32421000  0.38706000  0.77489000  1.0
  C  C54  1  0.71468000  0.73500000  0.86311000  1.0
  C  C55  1  0.78532000  0.76500000  0.36311000  1.0
  C  C56  1  0.28532000  0.26500000  0.13689000  1.0
  C  C57  1  0.21468000  0.23500000  0.63689000  1.0
  C  C58  1  0.90716000  0.92562000  0.91825000  1.0
  C  C59  1  0.59284000  0.57438000  0.41825000  1.0
  C  C60  1  0.09284000  0.07438000  0.08175000  1.0
  C  C61  1  0.40716000  0.42562000  0.58175000  1.0
  C  C62  1  0.00957000  0.03975000  0.89164000  1.0
  C  C63  1  0.49043000  0.46025000  0.39164000  1.0
  C  C64  1  0.99043000  0.96025000  0.10835000  1.0
  C  C65  1  0.50957000  0.53975000  0.60835000  1.0
  C  C66  1  0.81205000  0.84795000  0.83338000  1.0
  C  C67  1  0.68795000  0.65205000  0.33338000  1.0
  C  C68  1  0.18795000  0.15205000  0.16662000  1.0
  C  C69  1  0.31206000  0.34795000  0.66666667  1.0
  C  C70  1  0.89960000  0.88760000  0.02850000  1.0
  C  C71  1  0.60040000  0.61240000  0.52850000  1.0
  C  C72  1  0.10040000  0.11240000  0.97150000  1.0
  C  C73  1  0.39960000  0.38760000  0.47150000  1.0
  C  C74  1  0.66320000  0.10360000  0.47170000  1.0
  C  C75  1  0.83680000  0.39640000  0.97170000  1.0
  C  C76  1  0.33680000  0.89640000  0.52830000  1.0
  C  C77  1  0.16320000  0.60360000  0.02830000  1.0
  C  C78  1  0.97445000  0.38860000  0.28792000  1.0
  C  C79  1  0.52555000  0.11140000  0.78792000  1.0
  C  C80  1  0.02555000  0.61140000  0.71208000  1.0
  C  C81  1  0.47445000  0.88860000  0.21208000  1.0
  C  C82  1  0.98979000  0.44678000  0.39900000  1.0
  C  C83  1  0.51022000  0.05322000  0.89900000  1.0
  C  C84  1  0.01022000  0.55322000  0.60100000  1.0
  C  C85  1  0.48978000  0.94678000  0.10100000  1.0
  C  C86  1  0.93328000  0.42735000  0.58494000  1.0
  C  C87  1  0.56672000  0.07265000  0.08495000  1.0
  C  C88  1  0.06672000  0.57265000  0.41506000  1.0
  C  C89  1  0.43328000  0.92735000  0.91506000  1.0
  C  C90  1  0.85684000  0.34826000  0.67762000  1.0
  C  C91  1  0.64316000  0.15174000  0.17762000  1.0
  C  C92  1  0.14316000  0.65174000  0.32238000  1.0
  C  C93  1  0.35684000  0.84826000  0.82238000  1.0
  N  N94  1  0.63595000  0.64127000  0.89659000  1.0
  N  N95  1  0.86405000  0.85873000  0.39659000  1.0
  N  N96  1  0.36405000  0.35873000  0.10341000  1.0
  N  N97  1  0.13595000  0.14127000  0.60341000  1.0
  N  N98  1  0.84111000  0.92963000  0.63616000  1.0
  N  N99  1  0.65889000  0.57037000  0.13616000  1.0
  N  N100  1  0.15889000  0.07037000  0.36384000  1.0
  N  N101  1  0.34111000  0.42962000  0.86384000  1.0
  N  N102  1  0.92580000  0.37692000  0.48429000  1.0
  N  N103  1  0.57419000  0.12308000  0.98430000  1.0
  N  N104  1  0.07419000  0.62308000  0.51571000  1.0
  N  N105  1  0.42580000  0.87692000  0.01571000  1.0
  O  O106  1  0.83772000  0.13023000  0.45002000  1.0
  O  O107  1  0.66228000  0.36977000  0.95001000  1.0
  O  O108  1  0.16228000  0.86977000  0.54998000  1.0
  O  O109  1  0.33772000  0.63023000  0.04998000  1.0
