# generated using pymatgen
data_Zn4H19C34N2O13F
_symmetry_space_group_name_H-M   'P 1'
_cell_length_a   15.98020000
_cell_length_b   16.06730000
_cell_length_c   19.60380000
_cell_angle_alpha   84.51510000
_cell_angle_beta   89.15220000
_cell_angle_gamma   83.58980000
_symmetry_Int_Tables_number   1
_chemical_formula_structural   Zn4H19C34N2O13F
_chemical_formula_sum   'Zn4 H19 C34 N2 O13 F1'
_cell_volume   4979.03153978
_cell_formula_units_Z   1
loop_
 _symmetry_equiv_pos_site_id
 _symmetry_equiv_pos_as_xyz
  1  'x, y, z'
loop_
 _atom_site_type_symbol
 _atom_site_label
 _atom_site_symmetry_multiplicity
 _atom_site_fract_x
 _atom_site_fract_y
 _atom_site_fract_z
 _atom_site_occupancy
  Zn  Zn0  1  0.42509000  0.57202000  0.56150000  1.0
  Zn  Zn1  1  0.55506000  0.58463000  0.43655000  1.0
  Zn  Zn2  1  0.44576000  0.43583000  0.44774000  1.0
  Zn  Zn3  1  0.58560000  0.43386000  0.56192000  1.0
  H  H4  1  0.44285000  0.61448000  0.77015000  1.0
  H  H5  1  0.58050000  0.43176000  0.00415000  1.0
  H  H6  1  0.45335000  0.60799000  0.89663000  1.0
  H  H7  1  0.54536000  0.35993000  0.29566000  1.0
  H  H8  1  0.60495000  0.23802000  0.25146000  1.0
  H  H9  1  0.63554000  0.29748000  0.17587000  1.0
  H  H10  1  0.53164000  0.26658000  0.18324000  1.0
  H  H11  1  0.63433000  0.30705000  0.87665000  1.0
  H  H12  1  0.49964000  0.26195000  0.92121000  1.0
  H  H13  1  0.50975000  0.32661000  0.98876000  1.0
  H  H14  1  0.58529000  0.23822000  0.98041000  1.0
  H  H15  1  0.44625000  0.65369000  0.10674000  1.0
  H  H16  1  0.99867000  0.54737000  0.54382000  1.0
  H  H17  1  0.00468000  0.46167000  0.40879000  1.0
  H  H18  1  0.42076000  0.02629000  0.47614000  1.0
  H  H19  1  0.45822000  0.64320000  0.23392000  1.0
  H  H20  1  0.44193000  0.58128000  0.00411000  1.0
  H  H21  1  0.54389000  0.39240000  0.10965000  1.0
  H  H22  1  0.58649000  0.37157000  0.77334000  1.0
  C  C23  1  0.72324000  0.50334000  0.47976000  1.0
  C  C24  1  0.53209000  0.48018000  0.98261000  1.0
  C  C25  1  0.48838000  0.53059000  0.02532000  1.0
  C  C26  1  0.28185000  0.50925000  0.49491000  1.0
  C  C27  1  0.50380000  0.51222000  0.24432000  1.0
  C  C28  1  0.81294000  0.49846000  0.46866000  1.0
  C  C29  1  0.97690000  0.48980000  0.45368000  1.0
  C  C30  1  0.02737000  0.51892000  0.49937000  1.0
  C  C31  1  0.11516000  0.51475000  0.49333000  1.0
  C  C32  1  0.88918000  0.49475000  0.46128000  1.0
  C  C33  1  0.19177000  0.51245000  0.49225000  1.0
  C  C34  1  0.52276000  0.48426000  0.90861000  1.0
  C  C35  1  0.47433000  0.82286000  0.50222000  1.0
  C  C36  1  0.47269000  0.98604000  0.50188000  1.0
  C  C37  1  0.53257000  0.02497000  0.53095000  1.0
  C  C38  1  0.47887000  0.73294000  0.50040000  1.0
  C  C39  1  0.53264000  0.11226000  0.52977000  1.0
  C  C40  1  0.47390000  0.89876000  0.50287000  1.0
  C  C41  1  0.53108000  0.18858000  0.52709000  1.0
  C  C42  1  0.52579000  0.27908000  0.52005000  1.0
  C  C43  1  0.50304000  0.51099000  0.31924000  1.0
  C  C44  1  0.51207000  0.49781000  0.68819000  1.0
  C  C45  1  0.55941000  0.41585000  0.87287000  1.0
  C  C46  1  0.51578000  0.49393000  0.76416000  1.0
  C  C47  1  0.47584000  0.55975000  0.79921000  1.0
  C  C48  1  0.48083000  0.55484000  0.87004000  1.0
  C  C49  1  0.58298000  0.28818000  0.21184000  1.0
  C  C50  1  0.54537000  0.28946000  0.95171000  1.0
  C  C51  1  0.55732000  0.42296000  0.80124000  1.0
  C  C52  1  0.52629000  0.44759000  0.13703000  1.0
  C  C53  1  0.52899000  0.43894000  0.20928000  1.0
  C  C54  1  0.47658000  0.58862000  0.20588000  1.0
  C  C55  1  0.47039000  0.59451000  0.13525000  1.0
  C  C56  1  0.49645000  0.52354000  0.09970000  1.0
  N  N57  1  0.55645000  0.36369000  0.24431000  1.0
  N  N58  1  0.59907000  0.34239000  0.90930000  1.0
  O  O59  1  0.50353000  0.50662000  0.50384000  1.0
  O  O60  1  0.50601000  0.58057000  0.34588000  1.0
  O  O61  1  0.56465000  0.44635000  0.65884000  1.0
  O  O62  1  0.49846000  0.43988000  0.35583000  1.0
  O  O63  1  0.45637000  0.55181000  0.65809000  1.0
  O  O64  1  0.42729000  0.69481000  0.53852000  1.0
  O  O65  1  0.58077000  0.31266000  0.55130000  1.0
  O  O66  1  0.67783000  0.55148000  0.43605000  1.0
  O  O67  1  0.32387000  0.46933000  0.44979000  1.0
  O  O68  1  0.69944000  0.45901000  0.53246000  1.0
  O  O69  1  0.31056000  0.54651000  0.54282000  1.0
  O  O70  1  0.53488000  0.70134000  0.46039000  1.0
  O  O71  1  0.46556000  0.31584000  0.48238000  1.0
  F  F72  1  0.59852000  0.97771000  0.56421000  1.0
