# generated using pymatgen
data_NiH9C9NO5
_symmetry_space_group_name_H-M   'P 1'
_cell_length_a   7.45099000
_cell_length_b   7.52157000
_cell_length_c   17.60580000
_cell_angle_alpha   90.00070000
_cell_angle_beta   89.99960000
_cell_angle_gamma   90.00000000
_symmetry_Int_Tables_number   1
_chemical_formula_structural   NiH9C9NO5
_chemical_formula_sum   'Ni4 H36 C36 N4 O20'
_cell_volume   986.68436437
_cell_formula_units_Z   4
loop_
 _symmetry_equiv_pos_site_id
 _symmetry_equiv_pos_as_xyz
  1  'x, y, z'
loop_
 _atom_site_type_symbol
 _atom_site_label
 _atom_site_symmetry_multiplicity
 _atom_site_fract_x
 _atom_site_fract_y
 _atom_site_fract_z
 _atom_site_occupancy
  Ni  Ni0  1  0.73512000  0.25000000  0.71073000  1.0
  Ni  Ni1  1  0.76488000  0.24999000  0.21074000  1.0
  Ni  Ni2  1  0.23512000  0.75000000  0.78926000  1.0
  Ni  Ni3  1  0.26488000  0.75000000  0.28927000  1.0
  H  H4  1  0.33036000  0.25000000  0.68769000  1.0
  H  H5  1  0.16964000  0.24999000  0.18769000  1.0
  H  H6  1  0.83037000  0.75000000  0.81231000  1.0
  H  H7  1  0.66963000  0.75000000  0.31231000  1.0
  H  H8  1  0.77189000  0.25000000  0.54626000  1.0
  H  H9  1  0.72811000  0.25000000  0.04627000  1.0
  H  H10  1  0.27189000  0.75000000  0.95373000  1.0
  H  H11  1  0.22810000  0.75000000  0.45374000  1.0
  H  H12  1  0.24440000  0.25000000  0.44513000  1.0
  H  H13  1  0.25560000  0.25000000  0.94513000  1.0
  H  H14  1  0.74440000  0.75001000  0.05486000  1.0
  H  H15  1  0.75559000  0.75000000  0.55487000  1.0
  H  H16  1  0.11762000  0.25000000  0.57816000  1.0
  H  H17  1  0.38238000  0.24999000  0.07815000  1.0
  H  H18  1  0.61762000  0.75000000  0.92184000  1.0
  H  H19  1  0.88237000  0.75001000  0.42184000  1.0
  H  H20  1  0.57713000  0.25000000  0.42855000  1.0
  H  H21  1  0.92287000  0.25000000  0.92855000  1.0
  H  H22  1  0.07713000  0.75001000  0.07145000  1.0
  H  H23  1  0.42286000  0.75000000  0.57145000  1.0
  H  H24  1  0.00141000  0.14253000  0.78453000  1.0
  H  H25  1  0.49857000  0.14252000  0.28452000  1.0
  H  H26  1  0.00142000  0.35748000  0.78453000  1.0
  H  H27  1  0.50143000  0.64252000  0.71548000  1.0
  H  H28  1  0.99858000  0.85748000  0.21548000  1.0
  H  H29  1  0.50143000  0.85747000  0.71547000  1.0
  H  H30  1  0.99859000  0.64253000  0.21547000  1.0
  H  H31  1  0.49858000  0.35747000  0.28453000  1.0
  H  H32  1  0.61060000  0.08952000  0.94196000  1.0
  H  H33  1  0.88939000  0.08952000  0.44196000  1.0
  H  H34  1  0.61060000  0.41048000  0.94196000  1.0
  H  H35  1  0.11062000  0.58951000  0.55804000  1.0
  H  H36  1  0.38940000  0.91047000  0.05804000  1.0
  H  H37  1  0.11061000  0.91048000  0.55804000  1.0
  H  H38  1  0.38941000  0.58950000  0.05804000  1.0
  H  H39  1  0.88939000  0.41049000  0.44196000  1.0
  C  C40  1  0.37929000  0.25000000  0.62941000  1.0
  C  C41  1  0.12072000  0.25000000  0.12941000  1.0
  C  C42  1  0.87929000  0.75001000  0.87059000  1.0
  C  C43  1  0.62070000  0.75000000  0.37059000  1.0
  C  C44  1  0.62605000  0.25000000  0.54960000  1.0
  C  C45  1  0.87395000  0.25000000  0.04959000  1.0
  C  C46  1  0.12606000  0.75001000  0.95040000  1.0
  C  C47  1  0.37394000  0.75000000  0.45040000  1.0
  C  C48  1  0.33246000  0.25000000  0.49445000  1.0
  C  C49  1  0.16754000  0.25000000  0.99444000  1.0
  C  C50  1  0.83246000  0.75001000  0.00555000  1.0
  C  C51  1  0.66753000  0.75000000  0.50555000  1.0
  C  C52  1  0.26186000  0.25000000  0.56781000  1.0
  C  C53  1  0.23814000  0.25000000  0.06781000  1.0
  C  C54  1  0.76186000  0.75001000  0.93219000  1.0
  C  C55  1  0.73813000  0.75000000  0.43219000  1.0
  C  C56  1  0.51808000  0.25000000  0.48518000  1.0
  C  C57  1  0.98192000  0.25000000  0.98517000  1.0
  C  C58  1  0.01808000  0.75001000  0.01482000  1.0
  C  C59  1  0.48191000  0.75000000  0.51482000  1.0
  C  C60  1  0.50803000  0.04405000  0.82815000  1.0
  C  C61  1  0.99198000  0.04405000  0.32816000  1.0
  C  C62  1  0.50803000  0.45595000  0.82815000  1.0
  C  C63  1  0.00802000  0.54405000  0.67184000  1.0
  C  C64  1  0.49197000  0.95594000  0.17185000  1.0
  C  C65  1  0.00802000  0.95596000  0.67185000  1.0
  C  C66  1  0.49197000  0.54404000  0.17185000  1.0
  C  C67  1  0.99198000  0.45596000  0.32816000  1.0
  C  C68  1  0.57538000  0.16116000  0.89010000  1.0
  C  C69  1  0.92462000  0.16117000  0.39011000  1.0
  C  C70  1  0.57538000  0.33885000  0.89010000  1.0
  C  C71  1  0.07539000  0.66116000  0.60989000  1.0
  C  C72  1  0.42462000  0.83884000  0.10990000  1.0
  C  C73  1  0.07538000  0.83884000  0.60989000  1.0
  C  C74  1  0.42462000  0.66115000  0.10990000  1.0
  C  C75  1  0.92462000  0.33884000  0.39011000  1.0
  N  N76  1  0.55866000  0.25000000  0.62054000  1.0
  N  N77  1  0.94134000  0.25000000  0.12055000  1.0
  N  N78  1  0.05867000  0.75000000  0.87945000  1.0
  N  N79  1  0.44133000  0.75000000  0.37946000  1.0
  O  O80  1  0.93043000  0.25001000  0.79880000  1.0
  O  O81  1  0.56956000  0.24999000  0.29880000  1.0
  O  O82  1  0.43045000  0.74999000  0.70120000  1.0
  O  O83  1  0.06956000  0.75001000  0.20120000  1.0
  O  O84  1  0.38454000  0.93892000  0.84939000  1.0
  O  O85  1  0.11547000  0.93893000  0.34939000  1.0
  O  O86  1  0.38454000  0.56108000  0.84939000  1.0
  O  O87  1  0.88454000  0.43892000  0.65061000  1.0
  O  O88  1  0.61547000  0.06107000  0.15061000  1.0
  O  O89  1  0.88454000  0.06108000  0.65061000  1.0
  O  O90  1  0.61547000  0.43891000  0.15062000  1.0
  O  O91  1  0.11547000  0.56108000  0.34939000  1.0
  O  O92  1  0.57408000  0.04892000  0.76104000  1.0
  O  O93  1  0.92594000  0.04893000  0.26105000  1.0
  O  O94  1  0.57408000  0.45107000  0.76105000  1.0
  O  O95  1  0.07406000  0.54893000  0.73895000  1.0
  O  O96  1  0.42592000  0.95108000  0.23895000  1.0
  O  O97  1  0.07406000  0.95108000  0.73895000  1.0
  O  O98  1  0.42593000  0.54892000  0.23896000  1.0
  O  O99  1  0.92594000  0.45107000  0.26105000  1.0
