# generated using pymatgen
data_AlH9C27(ClO)6
_symmetry_space_group_name_H-M   'P 1'
_cell_length_a   4.01376000
_cell_length_b   16.07837796
_cell_length_c   16.11610000
_cell_angle_alpha   60.07780885
_cell_angle_beta   89.65820000
_cell_angle_gamma   89.31448107
_symmetry_Int_Tables_number   1
_chemical_formula_structural   AlH9C27(ClO)6
_chemical_formula_sum   'Al1 H9 C27 Cl6 O6'
_cell_volume   901.34926798
_cell_formula_units_Z   1
loop_
 _symmetry_equiv_pos_site_id
 _symmetry_equiv_pos_as_xyz
  1  'x, y, z'
loop_
 _atom_site_type_symbol
 _atom_site_label
 _atom_site_symmetry_multiplicity
 _atom_site_fract_x
 _atom_site_fract_y
 _atom_site_fract_z
 _atom_site_occupancy
  Al  Al0  1  0.00002000  0.50011000  0.99987000  1.0
  H  H1  1  0.49989000  0.92199000  0.15614000  1.0
  H  H2  1  0.53327000  0.92209000  0.42245000  1.0
  H  H3  1  0.46682000  0.65556000  0.42241000  1.0
  H  H4  1  0.25906000  0.84331000  0.10157000  1.0
  H  H5  1  0.73302000  0.60090000  0.34314000  1.0
  H  H6  1  0.74085000  0.05521000  0.10160000  1.0
  H  H7  1  0.26714000  0.05606000  0.34319000  1.0
  H  H8  1  0.25551000  0.84271000  0.55522000  1.0
  H  H9  1  0.74452000  0.60215000  0.55520000  1.0
  C  C10  1  0.50319000  0.35267000  0.07426000  1.0
  C  C11  1  0.50002000  0.57364000  0.85277000  1.0
  C  C12  1  0.49684000  0.57318000  0.07424000  1.0
  C  C13  1  0.50504000  0.93467000  0.28302000  1.0
  C  C14  1  0.49991000  0.88300000  0.23410000  1.0
  C  C15  1  0.49486000  0.78243000  0.28300000  1.0
  C  C16  1  0.48912000  0.73342000  0.38335000  1.0
  C  C17  1  0.50001000  0.78281000  0.43447000  1.0
  C  C18  1  0.51087000  0.88330000  0.38337000  1.0
  C  C19  1  0.37494000  0.72147000  0.08654000  1.0
  C  C20  1  0.36864000  0.77157000  0.13638000  1.0
  C  C21  1  0.49408000  0.72924000  0.22993000  1.0
  C  C22  1  0.62213000  0.63529000  0.27206000  1.0
  C  C23  1  0.61792000  0.58490000  0.22246000  1.0
  C  C24  1  0.49631000  0.62691000  0.12854000  1.0
  C  C25  1  0.63133000  0.09215000  0.13641000  1.0
  C  C26  1  0.62508000  0.19208000  0.08658000  1.0
  C  C27  1  0.50376000  0.24465000  0.12858000  1.0
  C  C28  1  0.38218000  0.19274000  0.22250000  1.0
  C  C29  1  0.37798000  0.09275000  0.27211000  1.0
  C  C30  1  0.50592000  0.04093000  0.22996000  1.0
  C  C31  1  0.36748000  0.77130000  0.59198000  1.0
  C  C32  1  0.36779000  0.72158000  0.69172000  1.0
  C  C33  1  0.50001000  0.62724000  0.74558000  1.0
  C  C34  1  0.63224000  0.58677000  0.69170000  1.0
  C  C35  1  0.63252000  0.63680000  0.59198000  1.0
  C  C36  1  0.50003000  0.72987000  0.54033000  1.0
  Cl  Cl37  1  0.77022000  0.46855000  0.27829000  1.0
  Cl  Cl38  1  0.22497000  0.77735000  0.97076000  1.0
  Cl  Cl39  1  0.77500000  0.25199000  0.97078000  1.0
  Cl  Cl40  1  0.22988000  0.25326000  0.27833000  1.0
  Cl  Cl41  1  0.20730000  0.78418000  0.74451000  1.0
  Cl  Cl42  1  0.79270000  0.47138000  0.74449000  1.0
  O  O43  1  0.73360000  0.59065000  0.01542000  1.0
  O  O44  1  0.73874000  0.39402000  0.09111000  1.0
  O  O45  1  0.73827000  0.51488000  0.89531000  1.0
  O  O46  1  0.26134000  0.51500000  0.09110000  1.0
  O  O47  1  0.26175000  0.58988000  0.89532000  1.0
  O  O48  1  0.26645000  0.39402000  0.01544000  1.0
