# generated using pymatgen
data_ZnH10C6O7
_symmetry_space_group_name_H-M   'P 1'
_cell_length_a   7.41623000
_cell_length_b   9.78953000
_cell_length_c   13.68030000
_cell_angle_alpha   89.99970000
_cell_angle_beta   89.99980000
_cell_angle_gamma   107.99300000
_symmetry_Int_Tables_number   1
_chemical_formula_structural   ZnH10C6O7
_chemical_formula_sum   'Zn4 H40 C24 O28'
_cell_volume   944.63539631
_cell_formula_units_Z   4
loop_
 _symmetry_equiv_pos_site_id
 _symmetry_equiv_pos_as_xyz
  1  'x, y, z'
loop_
 _atom_site_type_symbol
 _atom_site_label
 _atom_site_symmetry_multiplicity
 _atom_site_fract_x
 _atom_site_fract_y
 _atom_site_fract_z
 _atom_site_occupancy
  Zn  Zn0  1  0.07893000  0.27742000  0.81508000  1.0
  Zn  Zn1  1  0.92106000  0.22257000  0.31508000  1.0
  Zn  Zn2  1  0.92107000  0.72257000  0.18492000  1.0
  Zn  Zn3  1  0.07893000  0.77742000  0.68492000  1.0
  H  H4  1  0.61335000  0.73537000  0.89119000  1.0
  H  H5  1  0.38664000  0.76462000  0.39119000  1.0
  H  H6  1  0.38665000  0.26463000  0.10881000  1.0
  H  H7  1  0.61335000  0.23537000  0.60881000  1.0
  H  H8  1  0.50180000  0.84622000  0.95844000  1.0
  H  H9  1  0.49819000  0.65377000  0.45843000  1.0
  H  H10  1  0.49819000  0.15378000  0.04157000  1.0
  H  H11  1  0.50181000  0.34623000  0.54157000  1.0
  H  H12  1  0.34441000  0.30546000  0.95085000  1.0
  H  H13  1  0.65559000  0.19454000  0.45085000  1.0
  H  H14  1  0.65559000  0.69454000  0.04915000  1.0
  H  H15  1  0.34442000  0.80547000  0.54915000  1.0
  H  H16  1  0.26905000  0.13791000  0.92851000  1.0
  H  H17  1  0.73094000  0.36208000  0.42851000  1.0
  H  H18  1  0.73094000  0.86208000  0.07149000  1.0
  H  H19  1  0.26906000  0.63792000  0.57149000  1.0
  H  H20  1  0.49689000  0.80866000  0.73599000  1.0
  H  H21  1  0.50311000  0.69134000  0.23599000  1.0
  H  H22  1  0.50312000  0.19134000  0.26401000  1.0
  H  H23  1  0.49688000  0.30866000  0.76401000  1.0
  H  H24  1  0.14022000  0.51028000  0.93469000  1.0
  H  H25  1  0.85978000  0.98973000  0.43469000  1.0
  H  H26  1  0.85978000  0.48972000  0.06531000  1.0
  H  H27  1  0.14022000  0.01027000  0.56531000  1.0
  H  H28  1  0.14399000  0.54172000  0.82146000  1.0
  H  H29  1  0.85601000  0.95828000  0.32146000  1.0
  H  H30  1  0.85601000  0.45828000  0.17854000  1.0
  H  H31  1  0.14399000  0.04172000  0.67854000  1.0
  H  H32  1  0.52229000  0.08922000  0.84502000  1.0
  H  H33  1  0.47771000  0.41078000  0.34502000  1.0
  H  H34  1  0.47771000  0.91078000  0.15498000  1.0
  H  H35  1  0.52229000  0.58922000  0.65498000  1.0
  H  H36  1  0.64109000  0.07699000  0.73338000  1.0
  H  H37  1  0.35892000  0.42301000  0.23337000  1.0
  H  H38  1  0.35892000  0.92302000  0.26663000  1.0
  H  H39  1  0.64108000  0.57698000  0.76663000  1.0
  H  H40  1  0.23007000  0.87495000  0.86592000  1.0
  H  H41  1  0.76993000  0.62505000  0.36592000  1.0
  H  H42  1  0.76993000  0.12505000  0.13408000  1.0
  H  H43  1  0.23007000  0.37495000  0.63408000  1.0
  C  C44  1  0.89009000  0.95462000  0.80120000  1.0
  C  C45  1  0.10992000  0.54539000  0.30119000  1.0
  C  C46  1  0.10992000  0.04538000  0.19881000  1.0
  C  C47  1  0.89008000  0.45461000  0.69880000  1.0
  C  C48  1  0.81699000  0.07877000  0.95283000  1.0
  C  C49  1  0.18300000  0.42124000  0.45283000  1.0
  C  C50  1  0.18302000  0.92125000  0.04716000  1.0
  C  C51  1  0.81698000  0.57875000  0.54716000  1.0
  C  C52  1  0.73543000  0.97627000  0.86771000  1.0
  C  C53  1  0.26457000  0.52373000  0.36771000  1.0
  C  C54  1  0.26458000  0.02374000  0.13229000  1.0
  C  C55  1  0.73543000  0.47627000  0.63229000  1.0
  C  C56  1  0.57548000  0.83513000  0.89083000  1.0
  C  C57  1  0.42451000  0.66487000  0.39082000  1.0
  C  C58  1  0.42452000  0.16487000  0.10917000  1.0
  C  C59  1  0.57548000  0.33513000  0.60917000  1.0
  C  C60  1  0.46744000  0.86343000  0.80086000  1.0
  C  C61  1  0.53256000  0.63656000  0.30086000  1.0
  C  C62  1  0.53256000  0.13657000  0.19914000  1.0
  C  C63  1  0.46744000  0.36344000  0.69914000  1.0
  C  C64  1  0.58895000  0.02287000  0.80250000  1.0
  C  C65  1  0.41105000  0.47713000  0.30249000  1.0
  C  C66  1  0.41105000  0.97713000  0.19751000  1.0
  C  C67  1  0.58895000  0.52287000  0.69751000  1.0
  O  O68  1  0.90133000  0.21056000  0.93558000  1.0
  O  O69  1  0.09865000  0.28944000  0.43558000  1.0
  O  O70  1  0.09867000  0.78943000  0.06443000  1.0
  O  O71  1  0.90134000  0.71058000  0.56443000  1.0
  O  O72  1  0.78862000  0.02771000  0.03931000  1.0
  O  O73  1  0.21139000  0.47230000  0.53930000  1.0
  O  O74  1  0.21138000  0.97229000  0.96070000  1.0
  O  O75  1  0.78862000  0.52771000  0.46070000  1.0
  O  O76  1  0.01575000  0.06697000  0.76838000  1.0
  O  O77  1  0.98424000  0.43303000  0.26838000  1.0
  O  O78  1  0.98424000  0.93303000  0.23162000  1.0
  O  O79  1  0.01576000  0.56697000  0.73162000  1.0
  O  O80  1  0.88293000  0.82841000  0.77738000  1.0
  O  O81  1  0.11707000  0.67158000  0.27738000  1.0
  O  O82  1  0.11708000  0.17159000  0.22263000  1.0
  O  O83  1  0.88293000  0.32841000  0.72262000  1.0
  O  O84  1  0.30550000  0.23681000  0.89773000  1.0
  O  O85  1  0.69449000  0.26319000  0.39773000  1.0
  O  O86  1  0.69450000  0.76319000  0.10227000  1.0
  O  O87  1  0.30551000  0.73681000  0.60227000  1.0
  O  O88  1  0.19706000  0.49198000  0.87396000  1.0
  O  O89  1  0.80294000  0.00802000  0.37396000  1.0
  O  O90  1  0.80294000  0.50802000  0.12603000  1.0
  O  O91  1  0.19706000  0.99198000  0.62604000  1.0
  O  O92  1  0.26664000  0.82795000  0.80678000  1.0
  O  O93  1  0.73335000  0.67204000  0.30677000  1.0
  O  O94  1  0.73336000  0.17205000  0.19322000  1.0
  O  O95  1  0.26664000  0.32796000  0.69322000  1.0
