# generated using pymatgen
data_Mg3H46(C28O)2
_symmetry_space_group_name_H-M   'P 1'
_cell_length_a   9.05207000
_cell_length_b   9.54123000
_cell_length_c   13.17550000
_cell_angle_alpha   97.00740000
_cell_angle_beta   98.12860000
_cell_angle_gamma   95.79630000
_symmetry_Int_Tables_number   1
_chemical_formula_structural   Mg3H46(C28O)2
_chemical_formula_sum   'Mg3 H46 C56 O2'
_cell_volume   1109.96722660
_cell_formula_units_Z   1
loop_
 _symmetry_equiv_pos_site_id
 _symmetry_equiv_pos_as_xyz
  1  'x, y, z'
loop_
 _atom_site_type_symbol
 _atom_site_label
 _atom_site_symmetry_multiplicity
 _atom_site_fract_x
 _atom_site_fract_y
 _atom_site_fract_z
 _atom_site_occupancy
  Mg  Mg0  1  0.50000000  0.50000000  0.00000000  1.0
  Mg  Mg1  1  0.16811000  0.48136000  0.01224000  1.0
  Mg  Mg2  1  0.83190000  0.51864000  0.98776000  1.0
  H  H3  1  0.44941000  0.55944000  0.38861000  1.0
  H  H4  1  0.55059000  0.44056000  0.61139000  1.0
  H  H5  1  0.34869000  0.58097000  0.55523000  1.0
  H  H6  1  0.65131000  0.41903000  0.44477000  1.0
  H  H7  1  0.08681000  0.63620000  0.55961000  1.0
  H  H8  1  0.91319000  0.36380000  0.44038000  1.0
  H  H9  1  0.92748000  0.67569000  0.39728000  1.0
  H  H10  1  0.07251000  0.32431000  0.60272000  1.0
  H  H11  1  0.02809000  0.65731000  0.23168000  1.0
  H  H12  1  0.97191000  0.34269000  0.76832000  1.0
  H  H13  1  0.46863000  0.25398000  0.70954000  1.0
  H  H14  1  0.53137000  0.74601000  0.29045000  1.0
  H  H15  1  0.45416000  0.09752000  0.54186000  1.0
  H  H16  1  0.54584000  0.90248000  0.45814000  1.0
  H  H17  1  0.22852000  0.91732000  0.47799000  1.0
  H  H18  1  0.77148000  0.08267000  0.52201000  1.0
  H  H19  1  0.02170000  0.89728000  0.58251000  1.0
  H  H20  1  0.97830000  0.10272000  0.41749000  1.0
  H  H21  1  0.03662000  0.05357000  0.74915000  1.0
  H  H22  1  0.96337000  0.94643000  0.25084000  1.0
  H  H23  1  0.13711000  0.32953000  0.30356000  1.0
  H  H24  1  0.86291000  0.67047000  0.69644000  1.0
  H  H25  1  0.28654000  0.17244000  0.40281000  1.0
  H  H26  1  0.71346000  0.82755000  0.59719000  1.0
  H  H27  1  0.34877000  0.94508000  0.31281000  1.0
  H  H28  1  0.65122000  0.05491000  0.68718000  1.0
  H  H29  1  0.26148000  0.87625000  0.12456000  1.0
  H  H30  1  0.73851000  0.12375000  0.87543000  1.0
  H  H31  1  0.12186000  0.03957000  0.02363000  1.0
  H  H32  1  0.87814000  0.96043000  0.97637000  1.0
  H  H33  1  0.57520000  0.84303000  0.95609000  1.0
  H  H34  1  0.42480000  0.15698000  0.04392000  1.0
  H  H35  1  0.42443000  0.81719000  0.02850000  1.0
  H  H36  1  0.57556000  0.18281000  0.97150000  1.0
  H  H37  1  0.25422000  0.90531000  0.90005000  1.0
  H  H38  1  0.74578000  0.09469000  0.09995000  1.0
  H  H39  1  0.41890000  0.97714000  0.85721000  1.0
  H  H40  1  0.58110000  0.02286000  0.14279000  1.0
  H  H41  1  0.19938000  0.72975000  0.75847000  1.0
  H  H42  1  0.80062000  0.27025000  0.24153000  1.0
  H  H43  1  0.35090000  0.81005000  0.70499000  1.0
  H  H44  1  0.64910000  0.18995000  0.29501000  1.0
  H  H45  1  0.35377000  0.53861000  0.76910000  1.0
  H  H46  1  0.64624000  0.46139000  0.23090000  1.0
  H  H47  1  0.52258000  0.65805000  0.77587000  1.0
  H  H48  1  0.47742000  0.34195000  0.22413000  1.0
  C  C49  1  0.36534000  0.57559000  0.12473000  1.0
  C  C50  1  0.63467000  0.42442000  0.87526000  1.0
  C  C51  1  0.30484000  0.59152000  0.20357000  1.0
  C  C52  1  0.69516000  0.40849000  0.79644000  1.0
  C  C53  1  0.24608000  0.60719000  0.29870000  1.0
  C  C54  1  0.75392000  0.39282000  0.70130000  1.0
  C  C55  1  0.33543000  0.58567000  0.39118000  1.0
  C  C56  1  0.66457000  0.41433000  0.60882000  1.0
  C  C57  1  0.27825000  0.59677000  0.48421000  1.0
  C  C58  1  0.72174000  0.40323000  0.51579000  1.0
  C  C59  1  0.13128000  0.62829000  0.48681000  1.0
  C  C60  1  0.86872000  0.37171000  0.51319000  1.0
  C  C61  1  0.04196000  0.65003000  0.39580000  1.0
  C  C62  1  0.95804000  0.34997000  0.60420000  1.0
  C  C63  1  0.09842000  0.64047000  0.30242000  1.0
  C  C64  1  0.90158000  0.35953000  0.69757000  1.0
  C  C65  1  0.27604000  0.34926000  0.91110000  1.0
  C  C66  1  0.72397000  0.65074000  0.08891000  1.0
  C  C67  1  0.26311000  0.26067000  0.83273000  1.0
  C  C68  1  0.73689000  0.73933000  0.16726000  1.0
  C  C69  1  0.25353000  0.16554000  0.73962000  1.0
  C  C70  1  0.74647000  0.83446000  0.26038000  1.0
  C  C71  1  0.37110000  0.17589000  0.68019000  1.0
  C  C72  1  0.62890000  0.82411000  0.31981000  1.0
  C  C73  1  0.36229000  0.08705000  0.58696000  1.0
  C  C74  1  0.63771000  0.91294000  0.41304000  1.0
  C  C75  1  0.23658000  0.98659000  0.55117000  1.0
  C  C76  1  0.76342000  0.01341000  0.44883000  1.0
  C  C77  1  0.12008000  0.97515000  0.61003000  1.0
  C  C78  1  0.87992000  0.02484000  0.38997000  1.0
  C  C79  1  0.12777000  0.06288000  0.70360000  1.0
  C  C80  1  0.87222000  0.93712000  0.29640000  1.0
  C  C81  1  0.95770000  0.36702000  0.05639000  1.0
  C  C82  1  0.04231000  0.63299000  0.94362000  1.0
  C  C83  1  0.03433000  0.28623000  0.10158000  1.0
  C  C84  1  0.96568000  0.71378000  0.89842000  1.0
  C  C85  1  0.11902000  0.19430000  0.15729000  1.0
  C  C86  1  0.88099000  0.80571000  0.84271000  1.0
  C  C87  1  0.16641000  0.23103000  0.26473000  1.0
  C  C88  1  0.83361000  0.76897000  0.73527000  1.0
  C  C89  1  0.25021000  0.14265000  0.31987000  1.0
  C  C90  1  0.74980000  0.85734000  0.68014000  1.0
  C  C91  1  0.28477000  0.01516000  0.26958000  1.0
  C  C92  1  0.71523000  0.98484000  0.73042000  1.0
  C  C93  1  0.23705000  0.97704000  0.16327000  1.0
  C  C94  1  0.76294000  0.02295000  0.83673000  1.0
  C  C95  1  0.15663000  0.06679000  0.10689000  1.0
  C  C96  1  0.84337000  0.93322000  0.89311000  1.0
  C  C97  1  0.45453000  0.80683000  0.95049000  1.0
  C  C98  1  0.54547000  0.19317000  0.04951000  1.0
  C  C99  1  0.35766000  0.87860000  0.87201000  1.0
  C  C100  1  0.64234000  0.12140000  0.12798000  1.0
  C  C101  1  0.32020000  0.76689000  0.77357000  1.0
  C  C102  1  0.67980000  0.23311000  0.22643000  1.0
  C  C103  1  0.41040000  0.64567000  0.79944000  1.0
  C  C104  1  0.58960000  0.35433000  0.20056000  1.0
  O  O105  1  0.42869000  0.65612000  0.91138000  1.0
  O  O106  1  0.57131000  0.34389000  0.08862000  1.0
