# generated using pymatgen
data_ZnH24C20(NO)4
_symmetry_space_group_name_H-M   'P 1'
_cell_length_a   9.59027000
_cell_length_b   10.95330000
_cell_length_c   15.74810000
_cell_angle_alpha   91.01560000
_cell_angle_beta   95.67230000
_cell_angle_gamma   90.65310000
_symmetry_Int_Tables_number   1
_chemical_formula_structural   ZnH24C20(NO)4
_chemical_formula_sum   'Zn2 H48 C40 N8 O8'
_cell_volume   1645.75829964
_cell_formula_units_Z   2
loop_
 _symmetry_equiv_pos_site_id
 _symmetry_equiv_pos_as_xyz
  1  'x, y, z'
loop_
 _atom_site_type_symbol
 _atom_site_label
 _atom_site_symmetry_multiplicity
 _atom_site_fract_x
 _atom_site_fract_y
 _atom_site_fract_z
 _atom_site_occupancy
  Zn  Zn0  1  0.36190000  0.45844000  0.48966000  1.0
  Zn  Zn1  1  0.65331000  0.45415000  0.51164000  1.0
  H  H2  1  0.60551000  0.87483000  0.93057000  1.0
  H  H3  1  0.61691000  0.87765000  0.07334000  1.0
  H  H4  1  0.46041000  0.84658000  0.16935000  1.0
  H  H5  1  0.77357000  0.67099000  0.88503000  1.0
  H  H6  1  0.69519000  0.06847000  0.43110000  1.0
  H  H7  1  0.34134000  0.85012000  0.58145000  1.0
  H  H8  1  0.17600000  0.59997000  0.57817000  1.0
  H  H9  1  0.84029000  0.33084000  0.41369000  1.0
  H  H10  1  0.62259000  0.12302000  0.17317000  1.0
  H  H11  1  0.61152000  0.15178000  0.28394000  1.0
  H  H12  1  0.46548000  0.08890000  0.21938000  1.0
  H  H13  1  0.42657000  0.30990000  0.24715000  1.0
  H  H14  1  0.44013000  0.28450000  0.13776000  1.0
  H  H15  1  0.69296000  0.35111000  0.15805000  1.0
  H  H16  1  0.67964000  0.37535000  0.26780000  1.0
  H  H17  1  0.00808000  0.37329000  0.75338000  1.0
  H  H18  1  0.14480000  0.26504000  0.75818000  1.0
  H  H19  1  0.04022000  0.28285000  0.84493000  1.0
  H  H20  1  0.28142000  0.38433000  0.87490000  1.0
  H  H21  1  0.14378000  0.48791000  0.87991000  1.0
  H  H22  1  0.18149000  0.57527000  0.74447000  1.0
  H  H23  1  0.26520000  0.44450000  0.71140000  1.0
  H  H24  1  0.76462000  0.46011000  0.70820000  1.0
  H  H25  1  0.86667000  0.55836000  0.77722000  1.0
  H  H26  1  0.36759000  0.70131000  0.36132000  1.0
  H  H27  1  0.37910000  0.83328000  0.30744000  1.0
  H  H28  1  0.12258000  0.83287000  0.00000000  1.0
  H  H29  1  0.02437000  0.70359000  0.95786000  1.0
  H  H30  1  0.08764000  0.71063000  0.06775000  1.0
  H  H31  1  0.23914000  0.57230000  0.98610000  1.0
  H  H32  1  0.33412000  0.69836000  0.03172000  1.0
  H  H33  1  0.31150000  0.80806000  0.89763000  1.0
  H  H34  1  0.19816000  0.69549000  0.84763000  1.0
  H  H35  1  0.76447000  0.38236000  0.90733000  1.0
  H  H36  1  0.77423000  0.28154000  0.99487000  1.0
  H  H37  1  0.64088000  0.26151000  0.90880000  1.0
  H  H38  1  0.54347000  0.35723000  0.03595000  1.0
  H  H39  1  0.52902000  0.45667000  0.94956000  1.0
  H  H40  1  0.72600000  0.58169000  0.00972000  1.0
  H  H41  1  0.78033000  0.47157000  0.08464000  1.0
  H  H42  1  0.70713000  0.73640000  0.41908000  1.0
  H  H43  1  0.76176000  0.86723000  0.37901000  1.0
  H  H44  1  0.29571000  0.17560000  0.56773000  1.0
  H  H45  1  0.23557000  0.04026000  0.60679000  1.0
  H  H46  1  0.96833000  0.70686000  0.62080000  1.0
  H  H47  1  0.79988000  0.65797000  0.59001000  1.0
  H  H48  1  0.04085000  0.28500000  0.32585000  1.0
  H  H49  1  0.20406000  0.34936000  0.35188000  1.0
  C  C50  1  0.51628000  0.22128000  0.49044000  1.0
  C  C51  1  0.51145000  0.69764000  0.51436000  1.0
  C  C52  1  0.61840000  0.01870000  0.46429000  1.0
  C  C53  1  0.41915000  0.89979000  0.54888000  1.0
  C  C54  1  0.62445000  0.89155000  0.46830000  1.0
  C  C55  1  0.41354000  0.02750000  0.54564000  1.0
  C  C56  1  0.52053000  0.83299000  0.51169000  1.0
  C  C57  1  0.51549000  0.08700000  0.50039000  1.0
  C  C58  1  0.95469000  0.55229000  0.54853000  1.0
  C  C59  1  0.05785000  0.39462000  0.43228000  1.0
  C  C60  1  0.09847000  0.54439000  0.53909000  1.0
  C  C61  1  0.91607000  0.39414000  0.44736000  1.0
  C  C62  1  0.49451000  0.50668000  0.33779000  1.0
  C  C63  1  0.50708000  0.46890000  0.66509000  1.0
  C  C64  1  0.50101000  0.56473000  0.25272000  1.0
  C  C65  1  0.52008000  0.52140000  0.75332000  1.0
  C  C66  1  0.57275000  0.50891000  0.18913000  1.0
  C  C67  1  0.40051000  0.56137000  0.79366000  1.0
  C  C68  1  0.60286000  0.57394000  0.11593000  1.0
  C  C69  1  0.41558000  0.64791000  0.86145000  1.0
  C  C70  1  0.56275000  0.69804000  0.11034000  1.0
  C  C71  1  0.55262000  0.68808000  0.89307000  1.0
  C  C72  1  0.49037000  0.75083000  0.17480000  1.0
  C  C73  1  0.66884000  0.64098000  0.85879000  1.0
  C  C74  1  0.45316000  0.68600000  0.24500000  1.0
  C  C75  1  0.65713000  0.55549000  0.79091000  1.0
  C  C76  1  0.59172000  0.78736000  0.04438000  1.0
  C  C77  1  0.58170000  0.78680000  0.95841000  1.0
  C  C78  1  0.62024000  0.37863000  0.20424000  1.0
  C  C79  1  0.50019000  0.28343000  0.20108000  1.0
  C  C80  1  0.55299000  0.15481000  0.22028000  1.0
  C  C81  1  0.25734000  0.50471000  0.76659000  1.0
  C  C82  1  0.19557000  0.42880000  0.83586000  1.0
  C  C83  1  0.09153000  0.33213000  0.79611000  1.0
  C  C84  1  0.29010000  0.70870000  0.89472000  1.0
  C  C85  1  0.24939000  0.67214000  0.98280000  1.0
  C  C86  1  0.11377000  0.73277000  0.00335000  1.0
  C  C87  1  0.68628000  0.51276000  0.05112000  1.0
  C  C88  1  0.60551000  0.41294000  0.99562000  1.0
  C  C89  1  0.70149000  0.33030000  0.94910000  1.0
  N  N90  1  0.14760000  0.46691000  0.48333000  1.0
  N  N91  1  0.86672000  0.47023000  0.50461000  1.0
  N  N92  1  0.77750000  0.50826000  0.76452000  1.0
  N  N93  1  0.37460000  0.74086000  0.30386000  1.0
  N  N94  1  0.72865000  0.82665000  0.43106000  1.0
  N  N95  1  0.31683000  0.08981000  0.58855000  1.0
  N  N96  1  0.90358000  0.63523000  0.60299000  1.0
  N  N97  1  0.11060000  0.32219000  0.37179000  1.0
  O  O98  1  0.40097000  0.27718000  0.49774000  1.0
  O  O99  1  0.62138000  0.63957000  0.54121000  1.0
  O  O100  1  0.63010000  0.27477000  0.47516000  1.0
  O  O101  1  0.39445000  0.64783000  0.48746000  1.0
  O  O102  1  0.37844000  0.46428000  0.35905000  1.0
  O  O103  1  0.61487000  0.42017000  0.63501000  1.0
  O  O104  1  0.60846000  0.51158000  0.38676000  1.0
  O  O105  1  0.39216000  0.48329000  0.61809000  1.0
