# generated using pymatgen
data_Zr3H28(C15O8)2
_symmetry_space_group_name_H-M   'P 1'
_cell_length_a   14.66558353
_cell_length_b   14.76724091
_cell_length_c   14.76650000
_cell_angle_alpha   89.66068339
_cell_angle_beta   60.26812945
_cell_angle_gamma   119.70916540
_symmetry_Int_Tables_number   1
_chemical_formula_structural   Zr3H28(C15O8)2
_chemical_formula_sum   'Zr6 H56 C60 O32'
_cell_volume   2273.67102634
_cell_formula_units_Z   2
loop_
 _symmetry_equiv_pos_site_id
 _symmetry_equiv_pos_as_xyz
  1  'x, y, z'
loop_
 _atom_site_type_symbol
 _atom_site_label
 _atom_site_symmetry_multiplicity
 _atom_site_fract_x
 _atom_site_fract_y
 _atom_site_fract_z
 _atom_site_occupancy
  Zr  Zr0  1  0.50194000  0.11864000  0.37835000  1.0
  Zr  Zr1  1  0.49844000  0.87749000  0.61964000  1.0
  Zr  Zr2  1  0.25942000  0.87976000  0.61710000  1.0
  Zr  Zr3  1  0.74025000  0.11615000  0.38061000  1.0
  Zr  Zr4  1  0.49974000  0.87869000  0.38023000  1.0
  Zr  Zr5  1  0.49980000  0.11686000  0.61814000  1.0
  H  H6  1  0.31167000  0.90564000  0.40365000  1.0
  H  H7  1  0.68790000  0.90234000  0.40708000  1.0
  H  H8  1  0.30977000  0.90398000  0.78070000  1.0
  H  H9  1  0.69025000  0.27950000  0.40491000  1.0
  H  H10  1  0.50892000  0.86352000  0.08756000  1.0
  H  H11  1  0.52280000  0.14771000  0.89523000  1.0
  H  H12  1  0.47990000  0.39540000  0.64734000  1.0
  H  H13  1  0.49327000  0.58774000  0.36354000  1.0
  H  H14  1  0.04678000  0.15000000  0.07594000  1.0
  H  H15  1  0.95143000  0.86957000  0.89654000  1.0
  H  H16  1  0.04781000  0.39516000  0.37125000  1.0
  H  H17  1  0.95258000  0.57597000  0.65035000  1.0
  H  H18  1  0.93616000  0.92253000  0.38674000  1.0
  H  H19  1  0.82979000  0.83479000  0.52646000  1.0
  H  H20  1  0.00073000  0.84042000  0.50734000  1.0
  H  H21  1  0.10943000  0.94066000  0.37334000  1.0
  H  H22  1  0.94048000  0.90050000  0.67473000  1.0
  H  H23  1  0.02380000  0.04155000  0.66170000  1.0
  H  H24  1  0.78509000  0.91496000  0.68171000  1.0
  H  H25  1  0.87998000  0.05961000  0.65072000  1.0
  H  H26  1  0.06709000  0.13004000  0.34351000  1.0
  H  H27  1  0.03480000  0.18748000  0.45003000  1.0
  H  H28  1  0.18340000  0.18614000  0.46894000  1.0
  H  H29  1  0.22987000  0.14584000  0.35067000  1.0
  H  H30  1  0.76851000  0.39400000  0.08007000  1.0
  H  H31  1  0.23173000  0.57949000  0.89486000  1.0
  H  H32  1  0.51357000  0.77342000  0.96541000  1.0
  H  H33  1  0.41231000  0.76131000  0.92570000  1.0
  H  H34  1  0.57908000  0.84405000  0.82754000  1.0
  H  H35  1  0.54090000  0.24859000  0.00632000  1.0
  H  H36  1  0.44864000  0.16988000  0.14869000  1.0
  H  H37  1  0.61601000  0.24227000  0.06909000  1.0
  H  H38  1  0.46232000  0.50668000  0.74813000  1.0
  H  H39  1  0.55460000  0.64897000  0.66915000  1.0
  H  H40  1  0.38716000  0.56958000  0.74217000  1.0
  H  H41  1  0.49272000  0.46774000  0.27129000  1.0
  H  H42  1  0.59129000  0.42562000  0.26150000  1.0
  H  H43  1  0.42421000  0.32904000  0.34245000  1.0
  H  H44  1  0.25821000  0.25637000  0.93851000  1.0
  H  H45  1  0.31715000  0.17212000  0.90755000  1.0
  H  H46  1  0.32018000  0.23839000  0.80612000  1.0
  H  H47  1  0.73833000  0.78343000  0.01230000  1.0
  H  H48  1  0.68601000  0.76645000  0.15287000  1.0
  H  H49  1  0.67302000  0.85447000  0.08723000  1.0
  H  H50  1  0.26054000  0.51224000  0.28297000  1.0
  H  H51  1  0.31626000  0.65304000  0.27063000  1.0
  H  H52  1  0.32392000  0.58007000  0.35782000  1.0
  H  H53  1  0.74089000  0.44152000  0.75482000  1.0
  H  H54  1  0.68177000  0.40626000  0.67088000  1.0
  H  H55  1  0.67932000  0.30753000  0.74044000  1.0
  H  H56  1  0.79524000  0.50438000  0.94985000  1.0
  H  H57  1  0.91774000  0.64613000  0.91243000  1.0
  H  H58  1  0.94231000  0.57844000  0.81453000  1.0
  H  H59  1  0.20537000  0.45010000  0.00537000  1.0
  H  H60  1  0.08136000  0.41031000  0.14728000  1.0
  H  H61  1  0.05935000  0.31416000  0.07745000  1.0
  C  C62  1  0.51152000  0.00692000  0.18928000  1.0
  C  C63  1  0.48897000  0.68846000  0.50790000  1.0
  C  C64  1  0.50663000  0.99791000  0.80012000  1.0
  C  C65  1  0.49470000  0.29976000  0.49817000  1.0
  C  C66  1  0.19536000  0.00618000  0.50281000  1.0
  C  C67  1  0.80959000  0.29624000  0.18850000  1.0
  C  C68  1  0.80615000  0.00303000  0.50561000  1.0
  C  C69  1  0.19066000  0.68792000  0.79717000  1.0
  C  C70  1  0.19844000  0.68920000  0.50029000  1.0
  C  C71  1  0.19805000  0.00827000  0.79510000  1.0
  C  C72  1  0.80136000  0.29422000  0.50947000  1.0
  C  C73  1  0.80106000  0.99889000  0.19046000  1.0
  C  C74  1  0.51285000  0.99851000  0.89808000  1.0
  C  C75  1  0.51699000  0.01180000  0.08552000  1.0
  C  C76  1  0.51029000  0.91578000  0.95051000  1.0
  C  C77  1  0.52305000  0.09614000  0.03136000  1.0
  C  C78  1  0.51229000  0.92587000  0.04354000  1.0
  C  C79  1  0.52012000  0.08565000  0.93883000  1.0
  C  C80  1  0.48484000  0.58537000  0.51202000  1.0
  C  C81  1  0.48956000  0.39828000  0.49827000  1.0
  C  C82  1  0.47943000  0.53148000  0.59602000  1.0
  C  C83  1  0.49260000  0.45099000  0.41533000  1.0
  C  C84  1  0.48241000  0.43899000  0.58541000  1.0
  C  C85  1  0.49006000  0.54374000  0.42578000  1.0
  C  C86  1  0.09931000  0.01493000  0.89170000  1.0
  C  C87  1  0.89895000  0.00170000  0.08396000  1.0
  C  C88  1  0.13032000  0.09904000  0.93920000  1.0
  C  C89  1  0.86764000  0.92104000  0.03287000  1.0
  C  C90  1  0.02756000  0.08855000  0.03507000  1.0
  C  C91  1  0.97049000  0.93075000  0.93774000  1.0
  C  C92  1  0.10045000  0.58291000  0.50298000  1.0
  C  C93  1  0.89997000  0.39099000  0.51606000  1.0
  C  C94  1  0.13171000  0.53150000  0.42261000  1.0
  C  C95  1  0.86895000  0.43911000  0.59963000  1.0
  C  C96  1  0.02880000  0.43656000  0.43228000  1.0
  C  C97  1  0.97178000  0.53473000  0.58925000  1.0
  C  C98  1  0.92155000  0.91449000  0.46778000  1.0
  C  C99  1  0.03384000  0.92040000  0.45979000  1.0
  C  C100  1  0.09205000  0.01014000  0.50553000  1.0
  C  C101  1  0.98324000  0.98338000  0.62479000  1.0
  C  C102  1  0.88167000  0.99069000  0.62413000  1.0
  C  C103  1  0.91223000  0.00860000  0.50682000  1.0
  C  C104  1  0.04285000  0.11964000  0.42784000  1.0
  C  C105  1  0.14703000  0.12325000  0.43359000  1.0
  C  C106  1  0.08832000  0.58252000  0.89366000  1.0
  C  C107  1  0.91189000  0.39278000  0.08315000  1.0
  C  C108  1  0.95551000  0.52934000  0.94348000  1.0
  C  C109  1  0.04474000  0.44272000  0.03002000  1.0
  C  C110  1  0.87154000  0.43596000  0.03781000  1.0
  C  C111  1  0.12869000  0.53715000  0.93679000  1.0
  C  C112  1  0.50386000  0.81852000  0.91525000  1.0
  C  C113  1  0.53257000  0.19459000  0.06557000  1.0
  C  C114  1  0.47044000  0.56587000  0.69426000  1.0
  C  C115  1  0.50017000  0.41630000  0.31754000  1.0
  C  C116  1  0.26369000  0.19705000  0.89532000  1.0
  C  C117  1  0.73400000  0.82631000  0.07330000  1.0
  C  C118  1  0.26533000  0.57122000  0.32839000  1.0
  C  C119  1  0.73554000  0.39620000  0.69692000  1.0
  C  C120  1  0.89934000  0.56625000  0.90294000  1.0
  C  C121  1  0.10107000  0.40221000  0.06674000  1.0
  O  O122  1  0.50638000  0.08031000  0.23282000  1.0
  O  O123  1  0.49356000  0.73177000  0.58157000  1.0
  O  O124  1  0.50110000  0.91936000  0.76160000  1.0
  O  O125  1  0.50035000  0.26137000  0.41955000  1.0
  O  O126  1  0.15713000  0.92529000  0.57644000  1.0
  O  O127  1  0.84457000  0.25825000  0.23348000  1.0
  O  O128  1  0.84139000  0.07580000  0.42594000  1.0
  O  O129  1  0.15569000  0.73278000  0.75903000  1.0
  O  O130  1  0.31602000  0.73430000  0.42119000  1.0
  O  O131  1  0.31558000  0.08010000  0.75761000  1.0
  O  O132  1  0.68376000  0.25639000  0.58158000  1.0
  O  O133  1  0.68353000  0.91942000  0.23606000  1.0
  O  O134  1  0.15919000  0.92978000  0.75782000  1.0
  O  O135  1  0.84042000  0.25714000  0.43085000  1.0
  O  O136  1  0.84049000  0.07431000  0.23062000  1.0
  O  O137  1  0.15907000  0.72969000  0.57542000  1.0
  O  O138  1  0.31233000  0.08069000  0.42554000  1.0
  O  O139  1  0.30713000  0.72802000  0.76032000  1.0
  O  O140  1  0.69006000  0.92445000  0.58097000  1.0
  O  O141  1  0.69307000  0.25916000  0.22853000  1.0
  O  O142  1  0.49465000  0.26068000  0.57573000  1.0
  O  O143  1  0.50925000  0.92833000  0.22949000  1.0
  O  O144  1  0.49058000  0.72837000  0.42967000  1.0
  O  O145  1  0.50532000  0.07480000  0.76178000  1.0
  O  O146  1  0.63630000  0.19934000  0.43147000  1.0
  O  O147  1  0.36361000  0.93046000  0.70051000  1.0
  O  O148  1  0.63432000  0.92944000  0.43344000  1.0
  O  O149  1  0.36527000  0.93206000  0.43072000  1.0
  O  O150  1  0.39924000  0.84920000  0.54900000  1.0
  O  O151  1  0.60050000  0.04754000  0.35021000  1.0
  O  O152  1  0.59936000  0.04651000  0.54959000  1.0
  O  O153  1  0.40047000  0.04844000  0.54763000  1.0
