# generated using pymatgen
data_CdH20C22SN4O7
_symmetry_space_group_name_H-M   'P 1'
_cell_length_a   10.59300000
_cell_length_b   10.67100000
_cell_length_c   11.67280000
_cell_angle_alpha   72.89930000
_cell_angle_beta   78.47830000
_cell_angle_gamma   82.05910000
_symmetry_Int_Tables_number   1
_chemical_formula_structural   CdH20C22SN4O7
_chemical_formula_sum   'Cd2 H40 C44 S2 N8 O14'
_cell_volume   1231.27029470
_cell_formula_units_Z   2
loop_
 _symmetry_equiv_pos_site_id
 _symmetry_equiv_pos_as_xyz
  1  'x, y, z'
loop_
 _atom_site_type_symbol
 _atom_site_label
 _atom_site_symmetry_multiplicity
 _atom_site_fract_x
 _atom_site_fract_y
 _atom_site_fract_z
 _atom_site_occupancy
  Cd  Cd0  1  0.76085000  0.72346000  0.26958000  1.0
  Cd  Cd1  1  0.23914000  0.27657000  0.73041000  1.0
  H  H2  1  0.72283000  0.56207000  0.49779000  1.0
  H  H3  1  0.27719000  0.43792000  0.50218000  1.0
  H  H4  1  0.79394000  0.66062000  0.53742000  1.0
  H  H5  1  0.20604000  0.33939000  0.46257000  1.0
  H  H6  1  0.95888000  0.90685000  0.09826000  1.0
  H  H7  1  0.04112000  0.09316000  0.90172000  1.0
  H  H8  1  0.03340000  0.55773000  0.35577000  1.0
  H  H9  1  0.96658000  0.44227000  0.64423000  1.0
  H  H10  1  0.26587000  0.53894000  0.25941000  1.0
  H  H11  1  0.73411000  0.46107000  0.74059000  1.0
  H  H12  1  0.18732000  0.90076000  0.98555000  1.0
  H  H13  1  0.81268000  0.09926000  0.01444000  1.0
  H  H14  1  0.60541000  0.70478000  0.93766000  1.0
  H  H15  1  0.39460000  0.29522000  0.06237000  1.0
  H  H16  1  0.56358000  0.62444000  0.83799000  1.0
  H  H17  1  0.43642000  0.37556000  0.16202000  1.0
  H  H18  1  0.35779000  0.50823000  0.91138000  1.0
  H  H19  1  0.64221000  0.49176000  0.08865000  1.0
  H  H20  1  0.26398000  0.51694000  0.05300000  1.0
  H  H21  1  0.73602000  0.48306000  0.94702000  1.0
  H  H22  1  0.96687000  0.64009000  0.83449000  1.0
  H  H23  1  0.03312000  0.35990000  0.16552000  1.0
  H  H24  1  0.69445000  0.98657000  0.80489000  1.0
  H  H25  1  0.30555000  0.01345000  0.19509000  1.0
  H  H26  1  0.65504000  0.93423000  0.02963000  1.0
  H  H27  1  0.34497000  0.06579000  0.97035000  1.0
  H  H28  1  0.91333000  0.60156000  0.06194000  1.0
  H  H29  1  0.08667000  0.39845000  0.93806000  1.0
  H  H30  1  0.45954000  0.09157000  0.42932000  1.0
  H  H31  1  0.54047000  0.90844000  0.57074000  1.0
  H  H32  1  0.47892000  0.32961000  0.44748000  1.0
  H  H33  1  0.52114000  0.67037000  0.55257000  1.0
  H  H34  1  0.96466000  0.00368000  0.71255000  1.0
  H  H35  1  0.03535000  0.99629000  0.28743000  1.0
  H  H36  1  0.89900000  0.12575000  0.59342000  1.0
  H  H37  1  0.10101000  0.87421000  0.40657000  1.0
  H  H38  1  0.86470000  0.86847000  0.44336000  1.0
  H  H39  1  0.13531000  0.13152000  0.55662000  1.0
  H  H40  1  0.84124000  0.04149000  0.42400000  1.0
  H  H41  1  0.15877000  0.95847000  0.57599000  1.0
  C  C42  1  0.03102000  0.82754000  0.12952000  1.0
  C  C43  1  0.96898000  0.17247000  0.87046000  1.0
  C  C44  1  0.07207000  0.63253000  0.27483000  1.0
  C  C45  1  0.92791000  0.36749000  0.72517000  1.0
  C  C46  1  0.20152000  0.62271000  0.22036000  1.0
  C  C47  1  0.79847000  0.37730000  0.77964000  1.0
  C  C48  1  0.24467000  0.71928000  0.11417000  1.0
  C  C49  1  0.75531000  0.28073000  0.88582000  1.0
  C  C50  1  0.15749000  0.82462000  0.06894000  1.0
  C  C51  1  0.84251000  0.17539000  0.93104000  1.0
  C  C52  1  0.38134000  0.72199000  0.04754000  1.0
  C  C53  1  0.61866000  0.27802000  0.95246000  1.0
  C  C54  1  0.56329000  0.61859000  0.93388000  1.0
  C  C55  1  0.43671000  0.38141000  0.06613000  1.0
  C  C56  1  0.36289000  0.50869000  0.00450000  1.0
  C  C57  1  0.63711000  0.49131000  0.99552000  1.0
  C  C58  1  0.84609000  0.82731000  0.66914000  1.0
  C  C59  1  0.15387000  0.17271000  0.33086000  1.0
  C  C60  1  0.89726000  0.70709000  0.87497000  1.0
  C  C61  1  0.10274000  0.29293000  0.12501000  1.0
  C  C62  1  0.83383000  0.81618000  0.80189000  1.0
  C  C63  1  0.16615000  0.18384000  0.19809000  1.0
  C  C64  1  0.74733000  0.90097000  0.85723000  1.0
  C  C65  1  0.25265000  0.09903000  0.14275000  1.0
  C  C66  1  0.72395000  0.87154000  0.98389000  1.0
  C  C67  1  0.27605000  0.12846000  0.01609000  1.0
  C  C68  1  0.86898000  0.68599000  0.00020000  1.0
  C  C69  1  0.13104000  0.31402000  0.99978000  1.0
  C  C70  1  0.65909000  0.33415000  0.31943000  1.0
  C  C71  1  0.34093000  0.66583000  0.68060000  1.0
  C  C72  1  0.64230000  0.11116000  0.30324000  1.0
  C  C73  1  0.35768000  0.88885000  0.69679000  1.0
  C  C74  1  0.53797000  0.15238000  0.38001000  1.0
  C  C75  1  0.46204000  0.84762000  0.62003000  1.0
  C  C76  1  0.54753000  0.27986000  0.38912000  1.0
  C  C77  1  0.45249000  0.72013000  0.61092000  1.0
  C  C78  1  0.68019000  0.98193000  0.27796000  1.0
  C  C79  1  0.31979000  0.01808000  0.72205000  1.0
  C  C80  1  0.70554000  0.46400000  0.30340000  1.0
  C  C81  1  0.29448000  0.53600000  0.69661000  1.0
  C  C82  1  0.95954000  0.03195000  0.61542000  1.0
  C  C83  1  0.04049000  0.96801000  0.38457000  1.0
  C  C84  1  0.90378000  0.95183000  0.45662000  1.0
  C  C85  1  0.09624000  0.04814000  0.54336000  1.0
  S  S86  1  0.75176000  0.22903000  0.24251000  1.0
  S  S87  1  0.24825000  0.77096000  0.75749000  1.0
  N  N88  1  0.98803000  0.73275000  0.22958000  1.0
  N  N89  1  0.01196000  0.26726000  0.77040000  1.0
  N  N90  1  0.43027000  0.62157000  0.99787000  1.0
  N  N91  1  0.56973000  0.37843000  0.00214000  1.0
  N  N92  1  0.78270000  0.76544000  0.05405000  1.0
  N  N93  1  0.21731000  0.23457000  0.94594000  1.0
  N  N94  1  0.90143000  0.93086000  0.58634000  1.0
  N  N95  1  0.09857000  0.06912000  0.41364000  1.0
  O  O96  1  0.44173000  0.81780000  0.03725000  1.0
  O  O97  1  0.55827000  0.18222000  0.96273000  1.0
  O  O98  1  0.80078000  0.73917000  0.64272000  1.0
  O  O99  1  0.19920000  0.26082000  0.35728000  1.0
  O  O100  1  0.61366000  0.88427000  0.33538000  1.0
  O  O101  1  0.38633000  0.11573000  0.66463000  1.0
  O  O102  1  0.78459000  0.97296000  0.20317000  1.0
  O  O103  1  0.21539000  0.02706000  0.79682000  1.0
  O  O104  1  0.62722000  0.54951000  0.34531000  1.0
  O  O105  1  0.37280000  0.45049000  0.65469000  1.0
  O  O106  1  0.81974000  0.48500000  0.24686000  1.0
  O  O107  1  0.18028000  0.51500000  0.75312000  1.0
  O  O108  1  0.80097000  0.60836000  0.47834000  1.0
  O  O109  1  0.19904000  0.39166000  0.52165000  1.0
