# generated using pymatgen
data_ZnH8C6N4ClO
_symmetry_space_group_name_H-M   'P 1'
_cell_length_a   8.61947000
_cell_length_b   8.71455000
_cell_length_c   13.15820000
_cell_angle_alpha   91.23640000
_cell_angle_beta   89.99990000
_cell_angle_gamma   89.99960000
_symmetry_Int_Tables_number   1
_chemical_formula_structural   ZnH8C6N4ClO
_chemical_formula_sum   'Zn4 H32 C24 N16 Cl4 O4'
_cell_volume   988.14547488
_cell_formula_units_Z   4
loop_
 _symmetry_equiv_pos_site_id
 _symmetry_equiv_pos_as_xyz
  1  'x, y, z'
loop_
 _atom_site_type_symbol
 _atom_site_label
 _atom_site_symmetry_multiplicity
 _atom_site_fract_x
 _atom_site_fract_y
 _atom_site_fract_z
 _atom_site_occupancy
  Zn  Zn0  1  0.34663000  0.70984000  0.29238000  1.0
  Zn  Zn1  1  0.84664000  0.29015000  0.20762000  1.0
  Zn  Zn2  1  0.65337000  0.29016000  0.70762000  1.0
  Zn  Zn3  1  0.15336000  0.70984000  0.79238000  1.0
  H  H4  1  0.72259000  0.31237000  0.95893000  1.0
  H  H5  1  0.22258000  0.68763000  0.54107000  1.0
  H  H6  1  0.27741000  0.68763000  0.04107000  1.0
  H  H7  1  0.77741000  0.31237000  0.45893000  1.0
  H  H8  1  0.64314000  0.86248000  0.37123000  1.0
  H  H9  1  0.14314000  0.13751000  0.12877000  1.0
  H  H10  1  0.35686000  0.13751000  0.62877000  1.0
  H  H11  1  0.85686000  0.86249000  0.87123000  1.0
  H  H12  1  0.90046000  0.82288000  0.55601000  1.0
  H  H13  1  0.40046000  0.17712000  0.94399000  1.0
  H  H14  1  0.09954000  0.17712000  0.44399000  1.0
  H  H15  1  0.59954000  0.82288000  0.05601000  1.0
  H  H16  1  0.79510000  0.99120000  0.59136000  1.0
  H  H17  1  0.29510000  0.00880000  0.90863000  1.0
  H  H18  1  0.20490000  0.00881000  0.40864000  1.0
  H  H19  1  0.70490000  0.99119000  0.09137000  1.0
  H  H20  1  0.83653000  0.95090000  0.45963000  1.0
  H  H21  1  0.33653000  0.04910000  0.04037000  1.0
  H  H22  1  0.16347000  0.04910000  0.54037000  1.0
  H  H23  1  0.66347000  0.95090000  0.95963000  1.0
  H  H24  1  0.51382000  0.82164000  0.65175000  1.0
  H  H25  1  0.01383000  0.17836000  0.84825000  1.0
  H  H26  1  0.48617000  0.17836000  0.34825000  1.0
  H  H27  1  0.98617000  0.82164000  0.15175000  1.0
  H  H28  1  0.69242000  0.72150000  0.66643000  1.0
  H  H29  1  0.19243000  0.27850000  0.83357000  1.0
  H  H30  1  0.30757000  0.27850000  0.33357000  1.0
  H  H31  1  0.80757000  0.72151000  0.16643000  1.0
  H  H32  1  0.53877000  0.63718000  0.59211000  1.0
  H  H33  1  0.03877000  0.36282000  0.90789000  1.0
  H  H34  1  0.46123000  0.36282000  0.40789000  1.0
  H  H35  1  0.96123000  0.63718000  0.09211000  1.0
  C  C36  1  0.47118000  0.55017000  0.09757000  1.0
  C  C37  1  0.97118000  0.44983000  0.40243000  1.0
  C  C38  1  0.52882000  0.44983000  0.90243000  1.0
  C  C39  1  0.02882000  0.55017000  0.59757000  1.0
  C  C40  1  0.59467000  0.44489000  0.07457000  1.0
  C  C41  1  0.09466000  0.55511000  0.42543000  1.0
  C  C42  1  0.40534000  0.55512000  0.92543000  1.0
  C  C43  1  0.90533000  0.44488000  0.57457000  1.0
  C  C44  1  0.62805000  0.39156000  0.97613000  1.0
  C  C45  1  0.12804000  0.60844000  0.52387000  1.0
  C  C46  1  0.37196000  0.60844000  0.02387000  1.0
  C  C47  1  0.87195000  0.39156000  0.47613000  1.0
  C  C48  1  0.58668000  0.80570000  0.43546000  1.0
  C  C49  1  0.08668000  0.19430000  0.06454000  1.0
  C  C50  1  0.41332000  0.19430000  0.56454000  1.0
  C  C51  1  0.91332000  0.80570000  0.93546000  1.0
  C  C52  1  0.80723000  0.90045000  0.53275000  1.0
  C  C53  1  0.30723000  0.09955000  0.96725000  1.0
  C  C54  1  0.19277000  0.09955000  0.46725000  1.0
  C  C55  1  0.69277000  0.90045000  0.03275000  1.0
  C  C56  1  0.59749000  0.74448000  0.61364000  1.0
  C  C57  1  0.09749000  0.25552000  0.88636000  1.0
  C  C58  1  0.40251000  0.25552000  0.38636000  1.0
  C  C59  1  0.90251000  0.74448000  0.11364000  1.0
  N  N60  1  0.47798000  0.57682000  0.20107000  1.0
  N  N61  1  0.97798000  0.42318000  0.29893000  1.0
  N  N62  1  0.52202000  0.42318000  0.79893000  1.0
  N  N63  1  0.02202000  0.57682000  0.70107000  1.0
  N  N64  1  0.66464000  0.41547000  0.16617000  1.0
  N  N65  1  0.16463000  0.58453000  0.33383000  1.0
  N  N66  1  0.33536000  0.58453000  0.83383000  1.0
  N  N67  1  0.83536000  0.41547000  0.66617000  1.0
  N  N68  1  0.59353000  0.49563000  0.23957000  1.0
  N  N69  1  0.09353000  0.50436000  0.26043000  1.0
  N  N70  1  0.40647000  0.50436000  0.76043000  1.0
  N  N71  1  0.90647000  0.49563000  0.73957000  1.0
  N  N72  1  0.66174000  0.81549000  0.52318000  1.0
  N  N73  1  0.16174000  0.18451000  0.97682000  1.0
  N  N74  1  0.33826000  0.18451000  0.47682000  1.0
  N  N75  1  0.83826000  0.81549000  0.02318000  1.0
  Cl  Cl76  1  0.29937000  0.93196000  0.21922000  1.0
  Cl  Cl77  1  0.79937000  0.06804000  0.28078000  1.0
  Cl  Cl78  1  0.70063000  0.06804000  0.78078000  1.0
  Cl  Cl79  1  0.20063000  0.93196000  0.71922000  1.0
  O  O80  1  0.45730000  0.73686000  0.42574000  1.0
  O  O81  1  0.95730000  0.26315000  0.07426000  1.0
  O  O82  1  0.54270000  0.26314000  0.57426000  1.0
  O  O83  1  0.04270000  0.73685000  0.92574000  1.0
