# generated using pymatgen
data_CdH9C8NO7
_symmetry_space_group_name_H-M   'P 1'
_cell_length_a   8.17023000
_cell_length_b   8.24329000
_cell_length_c   19.51700000
_cell_angle_alpha   90.00000000
_cell_angle_beta   90.00000000
_cell_angle_gamma   111.50600000
_symmetry_Int_Tables_number   1
_chemical_formula_structural   CdH9C8NO7
_chemical_formula_sum   'Cd4 H36 C32 N4 O28'
_cell_volume   1222.94776553
_cell_formula_units_Z   4
loop_
 _symmetry_equiv_pos_site_id
 _symmetry_equiv_pos_as_xyz
  1  'x, y, z'
loop_
 _atom_site_type_symbol
 _atom_site_label
 _atom_site_symmetry_multiplicity
 _atom_site_fract_x
 _atom_site_fract_y
 _atom_site_fract_z
 _atom_site_occupancy
  Cd  Cd0  1  0.30613000  0.80399000  0.78650000  1.0
  Cd  Cd1  1  0.69388000  0.69601000  0.28649000  1.0
  Cd  Cd2  1  0.69387000  0.19600000  0.21350000  1.0
  Cd  Cd3  1  0.30613000  0.30399000  0.71350000  1.0
  H  H4  1  0.54929000  0.65218000  0.82464000  1.0
  H  H5  1  0.45071000  0.84781000  0.32464000  1.0
  H  H6  1  0.45070000  0.34781000  0.17536000  1.0
  H  H7  1  0.54930000  0.15219000  0.67535000  1.0
  H  H8  1  0.54858000  0.76679000  0.88988000  1.0
  H  H9  1  0.45142000  0.73321000  0.38988000  1.0
  H  H10  1  0.45142000  0.23321000  0.11012000  1.0
  H  H11  1  0.54858000  0.26679000  0.61012000  1.0
  H  H12  1  0.07660000  0.88892000  0.68507000  1.0
  H  H13  1  0.92340000  0.61107000  0.18507000  1.0
  H  H14  1  0.92339000  0.11108000  0.31493000  1.0
  H  H15  1  0.07661000  0.38892000  0.81493000  1.0
  H  H16  1  0.05595000  0.68991000  0.67592000  1.0
  H  H17  1  0.94406000  0.81008000  0.17591000  1.0
  H  H18  1  0.94405000  0.31009000  0.32408000  1.0
  H  H19  1  0.05595000  0.18991000  0.82408000  1.0
  H  H20  1  0.81025000  0.85970000  0.64860000  1.0
  H  H21  1  0.18975000  0.64029000  0.14860000  1.0
  H  H22  1  0.18975000  0.14030000  0.35140000  1.0
  H  H23  1  0.81025000  0.35972000  0.85140000  1.0
  H  H24  1  0.92355000  0.23462000  0.48555000  1.0
  H  H25  1  0.07646000  0.26538000  0.98554000  1.0
  H  H26  1  0.07646000  0.76538000  0.51446000  1.0
  H  H27  1  0.92354000  0.73463000  0.01446000  1.0
  H  H28  1  0.66299000  0.03014000  0.42195000  1.0
  H  H29  1  0.33702000  0.46986000  0.92194000  1.0
  H  H30  1  0.33702000  0.96986000  0.57806000  1.0
  H  H31  1  0.66298000  0.53015000  0.07806000  1.0
  H  H32  1  0.59055000  0.56321000  0.62071000  1.0
  H  H33  1  0.40944000  0.93678000  0.12071000  1.0
  H  H34  1  0.40945000  0.43679000  0.37930000  1.0
  H  H35  1  0.59055000  0.06322000  0.87930000  1.0
  H  H36  1  0.41248000  0.56999000  0.57041000  1.0
  H  H37  1  0.58752000  0.93001000  0.07040000  1.0
  H  H38  1  0.58752000  0.43001000  0.42960000  1.0
  H  H39  1  0.41248000  0.07000000  0.92960000  1.0
  C  C40  1  0.78572000  0.90192000  0.59808000  1.0
  C  C41  1  0.21428000  0.59806000  0.09808000  1.0
  C  C42  1  0.21428000  0.09807000  0.40192000  1.0
  C  C43  1  0.78571000  0.40194000  0.90192000  1.0
  C  C44  1  0.89397000  0.05725000  0.57036000  1.0
  C  C45  1  0.10602000  0.44274000  0.07035000  1.0
  C  C46  1  0.10603000  0.94275000  0.42965000  1.0
  C  C47  1  0.89397000  0.55727000  0.92965000  1.0
  C  C48  1  0.84474000  0.10702000  0.50638000  1.0
  C  C49  1  0.15526000  0.39297000  0.00637000  1.0
  C  C50  1  0.15526000  0.89298000  0.49363000  1.0
  C  C51  1  0.84474000  0.60703000  0.99362000  1.0
  C  C52  1  0.70173000  0.99583000  0.47161000  1.0
  C  C53  1  0.29828000  0.50417000  0.97160000  1.0
  C  C54  1  0.29828000  0.00418000  0.52840000  1.0
  C  C55  1  0.70172000  0.49584000  0.02840000  1.0
  C  C56  1  0.59401000  0.82966000  0.49914000  1.0
  C  C57  1  0.40598000  0.67034000  0.99914000  1.0
  C  C58  1  0.40598000  0.17034000  0.50086000  1.0
  C  C59  1  0.59401000  0.32967000  0.00086000  1.0
  C  C60  1  0.05283000  0.16470000  0.60931000  1.0
  C  C61  1  0.94717000  0.33529000  0.10931000  1.0
  C  C62  1  0.94717000  0.83529000  0.39069000  1.0
  C  C63  1  0.05283000  0.66471000  0.89069000  1.0
  C  C64  1  0.52104000  0.64771000  0.60381000  1.0
  C  C65  1  0.47895000  0.85229000  0.10381000  1.0
  C  C66  1  0.47896000  0.35229000  0.39619000  1.0
  C  C67  1  0.52104000  0.14772000  0.89619000  1.0
  C  C68  1  0.44750000  0.70939000  0.66612000  1.0
  C  C69  1  0.55250000  0.79060000  0.16612000  1.0
  C  C70  1  0.55250000  0.29061000  0.33388000  1.0
  C  C71  1  0.44749000  0.20939000  0.83388000  1.0
  N  N72  1  0.64038000  0.79468000  0.56525000  1.0
  N  N73  1  0.35962000  0.70531000  0.06525000  1.0
  N  N74  1  0.35962000  0.20532000  0.43475000  1.0
  N  N75  1  0.64038000  0.29470000  0.93475000  1.0
  O  O76  1  0.55037000  0.76716000  0.83767000  1.0
  O  O77  1  0.44964000  0.73284000  0.33767000  1.0
  O  O78  1  0.44963000  0.23284000  0.16233000  1.0
  O  O79  1  0.55037000  0.26716000  0.66233000  1.0
  O  O80  1  0.36132000  0.59211000  0.70978000  1.0
  O  O81  1  0.63867000  0.90788000  0.20978000  1.0
  O  O82  1  0.63867000  0.40788000  0.29022000  1.0
  O  O83  1  0.36133000  0.09211000  0.79022000  1.0
  O  O84  1  0.06567000  0.77884000  0.71009000  1.0
  O  O85  1  0.93433000  0.72115000  0.21008000  1.0
  O  O86  1  0.93433000  0.22116000  0.28991000  1.0
  O  O87  1  0.06567000  0.27885000  0.78991000  1.0
  O  O88  1  0.09903000  0.08576000  0.65942000  1.0
  O  O89  1  0.90097000  0.41423000  0.15942000  1.0
  O  O90  1  0.90098000  0.91423000  0.34058000  1.0
  O  O91  1  0.09903000  0.58577000  0.84059000  1.0
  O  O92  1  0.46314000  0.71819000  0.47018000  1.0
  O  O93  1  0.53686000  0.78182000  0.97018000  1.0
  O  O94  1  0.53687000  0.28182000  0.52982000  1.0
  O  O95  1  0.46314000  0.21819000  0.02982000  1.0
  O  O96  1  0.47019000  0.86754000  0.67458000  1.0
  O  O97  1  0.52981000  0.63246000  0.17458000  1.0
  O  O98  1  0.52982000  0.13247000  0.32542000  1.0
  O  O99  1  0.47017000  0.36753000  0.82542000  1.0
  O  O100  1  0.13539000  0.32169000  0.59480000  1.0
  O  O101  1  0.86461000  0.17829000  0.09480000  1.0
  O  O102  1  0.86462000  0.67830000  0.40520000  1.0
  O  O103  1  0.13539000  0.82171000  0.90520000  1.0
