# generated using pymatgen
data_Cu2H24C14N2O7
_symmetry_space_group_name_H-M   'P 1'
_cell_length_a   8.07018000
_cell_length_b   9.52904000
_cell_length_c   13.10760000
_cell_angle_alpha   70.15590000
_cell_angle_beta   87.12830000
_cell_angle_gamma   89.49430000
_symmetry_Int_Tables_number   1
_chemical_formula_structural   Cu2H24C14N2O7
_chemical_formula_sum   'Cu4 H48 C28 N4 O14'
_cell_volume   946.90730166
_cell_formula_units_Z   2
loop_
 _symmetry_equiv_pos_site_id
 _symmetry_equiv_pos_as_xyz
  1  'x, y, z'
loop_
 _atom_site_type_symbol
 _atom_site_label
 _atom_site_symmetry_multiplicity
 _atom_site_fract_x
 _atom_site_fract_y
 _atom_site_fract_z
 _atom_site_occupancy
  Cu  Cu0  1  0.49013000  0.33852000  0.48166000  1.0
  Cu  Cu1  1  0.50987000  0.66147000  0.51834000  1.0
  Cu  Cu2  1  0.53731000  0.49017000  0.09552000  1.0
  Cu  Cu3  1  0.46267000  0.50983000  0.90447000  1.0
  H  H4  1  0.55724000  0.90970000  0.72894000  1.0
  H  H5  1  0.44276000  0.09030000  0.27108000  1.0
  H  H6  1  0.13282000  0.37621000  0.52121000  1.0
  H  H7  1  0.86719000  0.62378000  0.47880000  1.0
  H  H8  1  0.09422000  0.11417000  0.53607000  1.0
  H  H9  1  0.90579000  0.88582000  0.46393000  1.0
  H  H10  1  0.20659000  0.14556000  0.41000000  1.0
  H  H11  1  0.79342000  0.85444000  0.58999000  1.0
  H  H12  1  0.36922000  0.97515000  0.99317000  1.0
  H  H13  1  0.63076000  0.02487000  0.00681000  1.0
  H  H14  1  0.27771000  0.96650000  0.87329000  1.0
  H  H15  1  0.72225000  0.03348000  0.12670000  1.0
  H  H16  1  0.17281000  0.88911000  0.00392000  1.0
  H  H17  1  0.82718000  0.11090000  0.99607000  1.0
  H  H18  1  0.94833000  0.77064000  0.79504000  1.0
  H  H19  1  0.05164000  0.22935000  0.20496000  1.0
  H  H20  1  0.04339000  0.60977000  0.88501000  1.0
  H  H21  1  0.95660000  0.39023000  0.11497000  1.0
  H  H22  1  0.98861000  0.75921000  0.93095000  1.0
  H  H23  1  0.01141000  0.24080000  0.06903000  1.0
  H  H24  1  0.16294000  0.91761000  0.67103000  1.0
  H  H25  1  0.83706000  0.08238000  0.32898000  1.0
  H  H26  1  0.33792000  0.79950000  0.68631000  1.0
  H  H27  1  0.66209000  0.20051000  0.31370000  1.0
  H  H28  1  0.25388000  0.88302000  0.55624000  1.0
  H  H29  1  0.74612000  0.11698000  0.44377000  1.0
  H  H30  1  0.79089000  0.17727000  0.77922000  1.0
  H  H31  1  0.20911000  0.82274000  0.22078000  1.0
  H  H32  1  0.91755000  0.11422000  0.68943000  1.0
  H  H33  1  0.08244000  0.88577000  0.31059000  1.0
  H  H34  1  0.79020000  0.98378000  0.79405000  1.0
  H  H35  1  0.20977000  0.01623000  0.20596000  1.0
  H  H36  1  0.80469000  0.74124000  0.28775000  1.0
  H  H37  1  0.19531000  0.25874000  0.71226000  1.0
  H  H38  1  0.61943000  0.78031000  0.21651000  1.0
  H  H39  1  0.38058000  0.21968000  0.78349000  1.0
  H  H40  1  0.78711000  0.69924000  0.16391000  1.0
  H  H41  1  0.21289000  0.30076000  0.83609000  1.0
  H  H42  1  0.88501000  0.33146000  0.43183000  1.0
  H  H43  1  0.11501000  0.66853000  0.56819000  1.0
  H  H44  1  0.00680000  0.35408000  0.30954000  1.0
  H  H45  1  0.99320000  0.64591000  0.69048000  1.0
  H  H46  1  0.97521000  0.50670000  0.35631000  1.0
  H  H47  1  0.02478000  0.49330000  0.64370000  1.0
  H  H48  1  0.29215000  0.54146000  0.38278000  1.0
  H  H49  1  0.70786000  0.45854000  0.61722000  1.0
  H  H50  1  0.31483000  0.42461000  0.31195000  1.0
  H  H51  1  0.68518000  0.57538000  0.68805000  1.0
  C  C52  1  0.39346000  0.03484000  0.60793000  1.0
  C  C53  1  0.60655000  0.96516000  0.39208000  1.0
  C  C54  1  0.54027000  0.01839000  0.66724000  1.0
  C  C55  1  0.45972000  0.98162000  0.33277000  1.0
  C  C56  1  0.65785000  0.12848000  0.65768000  1.0
  C  C57  1  0.34215000  0.87153000  0.34233000  1.0
  C  C58  1  0.65064000  0.54997000  0.30333000  1.0
  C  C59  1  0.34937000  0.45003000  0.69667000  1.0
  C  C60  1  0.14995000  0.34677000  0.44720000  1.0
  C  C61  1  0.85006000  0.65322000  0.55281000  1.0
  C  C62  1  0.19461000  0.18139000  0.48204000  1.0
  C  C63  1  0.80539000  0.81861000  0.51796000  1.0
  C  C64  1  0.37439000  0.75736000  0.97617000  1.0
  C  C65  1  0.62560000  0.24265000  0.02381000  1.0
  C  C66  1  0.29445000  0.90742000  0.95957000  1.0
  C  C67  1  0.70554000  0.09259000  0.04042000  1.0
  C  C68  1  0.78261000  0.62498000  0.91992000  1.0
  C  C69  1  0.21739000  0.37502000  0.08007000  1.0
  C  C70  1  0.95046000  0.69677000  0.87960000  1.0
  C  C71  1  0.04955000  0.30322000  0.12039000  1.0
  C  C72  1  0.28201000  0.90055000  0.63221000  1.0
  C  C73  1  0.71800000  0.09945000  0.36779000  1.0
  C  C74  1  0.79683000  0.09733000  0.73511000  1.0
  C  C75  1  0.20316000  0.90268000  0.26490000  1.0
  C  C76  1  0.72283000  0.70169000  0.23886000  1.0
  C  C77  1  0.27718000  0.29831000  0.76114000  1.0
  C  C78  1  0.99528000  0.38588000  0.38246000  1.0
  C  C79  1  0.00473000  0.61412000  0.61755000  1.0
  N  N80  1  0.35199000  0.16220000  0.53526000  1.0
  N  N81  1  0.64801000  0.83780000  0.46475000  1.0
  N  N82  1  0.29820000  0.43118000  0.38840000  1.0
  N  N83  1  0.70180000  0.56882000  0.61161000  1.0
  O  O84  1  0.66181000  0.26263000  0.58623000  1.0
  O  O85  1  0.33821000  0.73737000  0.41378000  1.0
  O  O86  1  0.63045000  0.51841000  0.40714000  1.0
  O  O87  1  0.36957000  0.48160000  0.59285000  1.0
  O  O88  1  0.60969000  0.46012000  0.25718000  1.0
  O  O89  1  0.39031000  0.53987000  0.74282000  1.0
  O  O90  1  0.43302000  0.69066000  0.06862000  1.0
  O  O91  1  0.56697000  0.30936000  0.93137000  1.0
  O  O92  1  0.37426000  0.70945000  0.89651000  1.0
  O  O93  1  0.62572000  0.29055000  0.10347000  1.0
  O  O94  1  0.75008000  0.58738000  0.02188000  1.0
  O  O95  1  0.24994000  0.41264000  0.97810000  1.0
  O  O96  1  0.68744000  0.60601000  0.85062000  1.0
  O  O97  1  0.31255000  0.39398000  0.14937000  1.0
