# generated using pymatgen
data_Zn4H24C48O25
_symmetry_space_group_name_H-M   'P 1'
_cell_length_a   28.11520005
_cell_length_b   28.11620000
_cell_length_c   28.11520000
_cell_angle_alpha   59.99470000
_cell_angle_beta   59.99548626
_cell_angle_gamma   59.99647027
_symmetry_Int_Tables_number   1
_chemical_formula_structural   Zn4H24C48O25
_chemical_formula_sum   'Zn8 H48 C96 O50'
_cell_volume   15713.76239953
_cell_formula_units_Z   2
loop_
 _symmetry_equiv_pos_site_id
 _symmetry_equiv_pos_as_xyz
  1  'x, y, z'
loop_
 _atom_site_type_symbol
 _atom_site_label
 _atom_site_symmetry_multiplicity
 _atom_site_fract_x
 _atom_site_fract_y
 _atom_site_fract_z
 _atom_site_occupancy
  Zn  Zn0  1  0.97146000  0.97143000  0.47147000  1.0
  Zn  Zn1  1  0.08568000  0.97140000  0.47141000  1.0
  Zn  Zn2  1  0.97152000  0.97141000  0.58560000  1.0
  Zn  Zn3  1  0.97149000  0.08557000  0.47146000  1.0
  Zn  Zn4  1  0.52848000  0.52856000  0.02862000  1.0
  Zn  Zn5  1  0.52856000  0.52855000  0.91442000  1.0
  Zn  Zn6  1  0.41437000  0.52854000  0.02859000  1.0
  Zn  Zn7  1  0.52854000  0.41438000  0.02861000  1.0
  H  H8  1  0.63208000  0.29106000  0.13224000  1.0
  H  H9  1  0.63212000  0.44482000  0.13223000  1.0
  H  H10  1  0.86785000  0.05529000  0.36785000  1.0
  H  H11  1  0.86786000  0.20904000  0.36789000  1.0
  H  H12  1  0.44472000  0.63218000  0.79105000  1.0
  H  H13  1  0.29090000  0.63215000  0.94482000  1.0
  H  H14  1  0.20914000  0.86775000  0.55523000  1.0
  H  H15  1  0.05531000  0.86778000  0.70899000  1.0
  H  H16  1  0.63203000  0.63227000  0.79112000  1.0
  H  H17  1  0.63201000  0.63228000  0.94492000  1.0
  H  H18  1  0.86774000  0.86791000  0.55534000  1.0
  H  H19  1  0.86781000  0.86793000  0.70908000  1.0
  H  H20  1  0.44471000  0.29100000  0.13216000  1.0
  H  H21  1  0.29090000  0.44478000  0.13219000  1.0
  H  H22  1  0.20908000  0.05525000  0.36786000  1.0
  H  H23  1  0.05525000  0.20901000  0.36787000  1.0
  H  H24  1  0.29088000  0.63217000  0.13211000  1.0
  H  H25  1  0.44462000  0.63219000  0.13218000  1.0
  H  H26  1  0.05513000  0.86784000  0.36787000  1.0
  H  H27  1  0.20897000  0.86782000  0.36780000  1.0
  H  H28  1  0.63206000  0.44468000  0.79100000  1.0
  H  H29  1  0.63207000  0.29090000  0.94481000  1.0
  H  H30  1  0.86787000  0.20899000  0.55530000  1.0
  H  H31  1  0.86786000  0.05519000  0.70908000  1.0
  H  H32  1  0.72134000  0.35875000  0.22132000  1.0
  H  H33  1  0.72127000  0.19876000  0.22135000  1.0
  H  H34  1  0.77867000  0.30135000  0.27877000  1.0
  H  H35  1  0.77868000  0.14136000  0.27871000  1.0
  H  H36  1  0.19867000  0.72122000  0.85875000  1.0
  H  H37  1  0.35874000  0.72127000  0.69873000  1.0
  H  H38  1  0.14129000  0.77866000  0.80131000  1.0
  H  H39  1  0.30137000  0.77862000  0.64131000  1.0
  H  H40  1  0.72116000  0.72144000  0.85886000  1.0
  H  H41  1  0.72120000  0.72141000  0.69883000  1.0
  H  H42  1  0.77861000  0.77882000  0.80142000  1.0
  H  H43  1  0.77852000  0.77883000  0.64144000  1.0
  H  H44  1  0.19865000  0.35872000  0.22130000  1.0
  H  H45  1  0.35871000  0.19870000  0.22124000  1.0
  H  H46  1  0.14124000  0.30133000  0.27872000  1.0
  H  H47  1  0.30131000  0.14132000  0.27874000  1.0
  H  H48  1  0.35852000  0.72133000  0.22134000  1.0
  H  H49  1  0.19855000  0.72133000  0.22126000  1.0
  H  H50  1  0.30119000  0.77867000  0.27862000  1.0
  H  H51  1  0.14114000  0.77867000  0.27872000  1.0
  H  H52  1  0.72121000  0.19862000  0.85880000  1.0
  H  H53  1  0.72118000  0.35866000  0.69873000  1.0
  H  H54  1  0.77866000  0.14117000  0.80138000  1.0
  H  H55  1  0.77869000  0.30125000  0.64132000  1.0
  C  C56  1  0.09101000  0.90890000  0.40891000  1.0
  C  C57  1  0.09114000  0.90886000  0.59102000  1.0
  C  C58  1  0.90892000  0.90894000  0.59109000  1.0
  C  C59  1  0.90897000  0.09101000  0.59108000  1.0
  C  C60  1  0.90895000  0.09106000  0.40893000  1.0
  C  C61  1  0.09109000  0.09103000  0.40891000  1.0
  C  C62  1  0.59097000  0.59116000  0.90908000  1.0
  C  C63  1  0.40890000  0.59110000  0.90902000  1.0
  C  C64  1  0.40886000  0.59109000  0.09110000  1.0
  C  C65  1  0.40890000  0.40896000  0.09115000  1.0
  C  C66  1  0.59099000  0.40901000  0.09118000  1.0
  C  C67  1  0.59104000  0.40891000  0.90899000  1.0
  C  C68  1  0.62864000  0.37139000  0.12879000  1.0
  C  C69  1  0.64586000  0.31073000  0.14599000  1.0
  C  C70  1  0.68082000  0.27577000  0.18090000  1.0
  C  C71  1  0.69908000  0.30097000  0.19913000  1.0
  C  C72  1  0.68084000  0.36266000  0.18089000  1.0
  C  C73  1  0.64588000  0.39762000  0.14598000  1.0
  C  C74  1  0.73451000  0.26553000  0.23455000  1.0
  C  C75  1  0.76547000  0.23456000  0.26552000  1.0
  C  C76  1  0.80089000  0.19913000  0.30095000  1.0
  C  C77  1  0.81914000  0.13744000  0.31918000  1.0
  C  C78  1  0.85408000  0.10250000  0.35410000  1.0
  C  C79  1  0.87131000  0.12871000  0.37132000  1.0
  C  C80  1  0.85409000  0.18937000  0.35412000  1.0
  C  C81  1  0.81914000  0.22431000  0.31920000  1.0
  C  C82  1  0.37127000  0.62871000  0.87138000  1.0
  C  C83  1  0.39751000  0.64592000  0.81072000  1.0
  C  C84  1  0.36259000  0.68083000  0.77578000  1.0
  C  C85  1  0.30089000  0.69906000  0.80096000  1.0
  C  C86  1  0.27569000  0.68080000  0.86265000  1.0
  C  C87  1  0.31060000  0.64590000  0.89760000  1.0
  C  C88  1  0.26548000  0.73447000  0.76551000  1.0
  C  C89  1  0.23454000  0.76543000  0.73454000  1.0
  C  C90  1  0.19913000  0.80085000  0.69908000  1.0
  C  C91  1  0.22435000  0.81907000  0.63740000  1.0
  C  C92  1  0.18944000  0.85400000  0.60244000  1.0
  C  C93  1  0.12877000  0.87122000  0.62866000  1.0
  C  C94  1  0.10252000  0.85402000  0.68932000  1.0
  C  C95  1  0.13744000  0.81909000  0.72427000  1.0
  C  C96  1  0.62857000  0.62882000  0.87146000  1.0
  C  C97  1  0.64579000  0.64604000  0.81080000  1.0
  C  C98  1  0.68073000  0.68096000  0.77585000  1.0
  C  C99  1  0.69896000  0.69921000  0.80107000  1.0
  C  C100  1  0.68070000  0.68098000  0.86276000  1.0
  C  C101  1  0.64577000  0.64604000  0.89771000  1.0
  C  C102  1  0.73439000  0.73465000  0.76562000  1.0
  C  C103  1  0.76535000  0.76560000  0.73465000  1.0
  C  C104  1  0.80080000  0.80102000  0.69919000  1.0
  C  C105  1  0.81903000  0.81925000  0.63750000  1.0
  C  C106  1  0.85398000  0.85416000  0.60255000  1.0
  C  C107  1  0.87124000  0.87136000  0.62875000  1.0
  C  C108  1  0.85403000  0.85416000  0.68942000  1.0
  C  C109  1  0.81906000  0.81927000  0.72437000  1.0
  C  C110  1  0.37126000  0.37134000  0.12873000  1.0
  C  C111  1  0.39750000  0.31068000  0.14591000  1.0
  C  C112  1  0.36257000  0.27574000  0.18082000  1.0
  C  C113  1  0.30088000  0.30094000  0.19907000  1.0
  C  C114  1  0.27567000  0.36262000  0.18084000  1.0
  C  C115  1  0.31060000  0.39756000  0.14593000  1.0
  C  C116  1  0.26546000  0.26550000  0.23451000  1.0
  C  C117  1  0.23450000  0.23454000  0.26549000  1.0
  C  C118  1  0.19908000  0.19909000  0.30094000  1.0
  C  C119  1  0.22429000  0.13742000  0.31919000  1.0
  C  C120  1  0.18938000  0.10246000  0.35411000  1.0
  C  C121  1  0.12871000  0.12868000  0.37131000  1.0
  C  C122  1  0.10247000  0.18933000  0.35411000  1.0
  C  C123  1  0.13739000  0.22428000  0.31919000  1.0
  C  C124  1  0.37120000  0.62873000  0.12871000  1.0
  C  C125  1  0.31054000  0.64594000  0.14589000  1.0
  C  C126  1  0.27559000  0.68087000  0.18082000  1.0
  C  C127  1  0.30078000  0.69911000  0.19908000  1.0
  C  C128  1  0.36247000  0.68088000  0.18086000  1.0
  C  C129  1  0.39741000  0.64595000  0.14593000  1.0
  C  C130  1  0.26533000  0.73452000  0.23451000  1.0
  C  C131  1  0.23436000  0.76548000  0.26547000  1.0
  C  C132  1  0.19895000  0.80090000  0.30090000  1.0
  C  C133  1  0.13726000  0.81914000  0.31916000  1.0
  C  C134  1  0.10234000  0.85407000  0.35409000  1.0
  C  C135  1  0.12861000  0.87127000  0.37128000  1.0
  C  C136  1  0.18927000  0.85406000  0.35405000  1.0
  C  C137  1  0.22420000  0.81913000  0.31911000  1.0
  C  C138  1  0.62861000  0.37127000  0.87137000  1.0
  C  C139  1  0.64581000  0.39748000  0.81070000  1.0
  C  C140  1  0.68074000  0.36254000  0.77576000  1.0
  C  C141  1  0.69900000  0.30085000  0.80097000  1.0
  C  C142  1  0.68074000  0.27566000  0.86266000  1.0
  C  C143  1  0.64582000  0.31059000  0.89760000  1.0
  C  C144  1  0.73444000  0.26541000  0.76553000  1.0
  C  C145  1  0.76542000  0.23445000  0.73458000  1.0
  C  C146  1  0.80088000  0.19902000  0.69914000  1.0
  C  C147  1  0.81915000  0.22422000  0.63745000  1.0
  C  C148  1  0.85410000  0.18929000  0.60251000  1.0
  C  C149  1  0.87132000  0.12863000  0.62873000  1.0
  C  C150  1  0.85409000  0.10240000  0.68940000  1.0
  C  C151  1  0.81914000  0.13732000  0.72433000  1.0
  O  O152  1  0.00005000  0.99995000  0.49998000  1.0
  O  O153  1  0.03600000  0.92340000  0.42343000  1.0
  O  O154  1  0.11717000  0.92334000  0.53600000  1.0
  O  O155  1  0.92346000  0.92342000  0.61709000  1.0
  O  O156  1  0.11707000  0.92338000  0.42338000  1.0
  O  O157  1  0.92341000  0.92342000  0.53608000  1.0
  O  O158  1  0.03612000  0.92337000  0.61704000  1.0
  O  O159  1  0.92348000  0.03599000  0.61710000  1.0
  O  O160  1  0.92346000  0.11707000  0.42343000  1.0
  O  O161  1  0.92346000  0.11704000  0.53607000  1.0
  O  O162  1  0.92344000  0.03605000  0.42342000  1.0
  O  O163  1  0.11713000  0.03601000  0.42337000  1.0
  O  O164  1  0.03608000  0.11704000  0.42342000  1.0
  O  O165  1  0.50000000  0.50000000  0.00005000  1.0
  O  O166  1  0.57647000  0.57665000  0.96409000  1.0
  O  O167  1  0.46393000  0.57661000  0.88299000  1.0
  O  O168  1  0.38286000  0.57657000  0.07660000  1.0
  O  O169  1  0.57653000  0.57662000  0.88304000  1.0
  O  O170  1  0.46387000  0.57660000  0.07663000  1.0
  O  O171  1  0.38287000  0.57660000  0.96402000  1.0
  O  O172  1  0.38287000  0.46398000  0.07667000  1.0
  O  O173  1  0.57651000  0.38298000  0.07668000  1.0
  O  O174  1  0.46392000  0.38294000  0.07667000  1.0
  O  O175  1  0.57647000  0.46402000  0.07671000  1.0
  O  O176  1  0.57658000  0.46393000  0.88296000  1.0
  O  O177  1  0.57656000  0.38289000  0.96401000  1.0
  O  O178  1  0.69715000  0.38905000  0.19716000  1.0
  O  O179  1  0.69710000  0.21680000  0.19718000  1.0
  O  O180  1  0.80285000  0.28330000  0.30293000  1.0
  O  O181  1  0.80285000  0.11105000  0.30288000  1.0
  O  O182  1  0.21670000  0.69708000  0.88905000  1.0
  O  O183  1  0.38902000  0.69710000  0.71680000  1.0
  O  O184  1  0.11101000  0.80282000  0.78325000  1.0
  O  O185  1  0.28333000  0.80279000  0.61100000  1.0
  O  O186  1  0.69699000  0.69727000  0.88916000  1.0
  O  O187  1  0.69703000  0.69724000  0.71688000  1.0
  O  O188  1  0.80279000  0.80299000  0.78335000  1.0
  O  O189  1  0.80271000  0.80297000  0.61112000  1.0
  O  O190  1  0.21669000  0.38902000  0.19712000  1.0
  O  O191  1  0.38899000  0.21677000  0.19708000  1.0
  O  O192  1  0.11096000  0.28326000  0.30290000  1.0
  O  O193  1  0.28328000  0.11101000  0.30291000  1.0
  O  O194  1  0.38884000  0.69718000  0.19717000  1.0
  O  O195  1  0.21661000  0.69715000  0.19709000  1.0
  O  O196  1  0.28318000  0.80283000  0.30280000  1.0
  O  O197  1  0.11085000  0.80285000  0.30289000  1.0
  O  O198  1  0.69702000  0.21668000  0.88909000  1.0
  O  O199  1  0.69701000  0.38895000  0.71678000  1.0
  O  O200  1  0.80286000  0.11089000  0.78331000  1.0
  O  O201  1  0.80287000  0.28320000  0.61103000  1.0
