# generated using pymatgen
data_NaH2C7O3F5
_symmetry_space_group_name_H-M   'P 1'
_cell_length_a   5.43289000
_cell_length_b   9.25937000
_cell_length_c   16.79440000
_cell_angle_alpha   84.91970000
_cell_angle_beta   89.99980000
_cell_angle_gamma   89.99970000
_symmetry_Int_Tables_number   1
_chemical_formula_structural   NaH2C7O3F5
_chemical_formula_sum   'Na4 H8 C28 O12 F20'
_cell_volume   841.52570895
_cell_formula_units_Z   4
loop_
 _symmetry_equiv_pos_site_id
 _symmetry_equiv_pos_as_xyz
  1  'x, y, z'
loop_
 _atom_site_type_symbol
 _atom_site_label
 _atom_site_symmetry_multiplicity
 _atom_site_fract_x
 _atom_site_fract_y
 _atom_site_fract_z
 _atom_site_occupancy
  Na  Na0  1  0.30634000  0.40599000  0.44438000  1.0
  Na  Na1  1  0.80634000  0.59400000  0.55562000  1.0
  Na  Na2  1  0.29781000  0.78190000  0.41555000  1.0
  Na  Na3  1  0.79781000  0.21810000  0.58445000  1.0
  H  H4  1  0.59403000  0.13099000  0.44216000  1.0
  H  H5  1  0.09402000  0.86901000  0.55784000  1.0
  H  H6  1  0.78508000  0.25151000  0.41717000  1.0
  H  H7  1  0.28506000  0.74849000  0.58283000  1.0
  H  H8  1  0.63182000  0.94151000  0.51438000  1.0
  H  H9  1  0.13184000  0.05849000  0.48561000  1.0
  H  H10  1  0.79049000  0.94319000  0.43435000  1.0
  H  H11  1  0.29050000  0.05681000  0.56564000  1.0
  C  C12  1  0.10149000  0.12495000  0.34394000  1.0
  C  C13  1  0.60148000  0.87505000  0.65605000  1.0
  C  C14  1  0.16675000  0.11348000  0.25712000  1.0
  C  C15  1  0.66679000  0.88653000  0.74287000  1.0
  C  C16  1  0.37062000  0.03635000  0.23352000  1.0
  C  C17  1  0.87066000  0.96366000  0.76647000  1.0
  C  C18  1  0.42814000  0.02647000  0.15355000  1.0
  C  C19  1  0.92820000  0.97354000  0.84644000  1.0
  C  C20  1  0.27836000  0.09408000  0.09399000  1.0
  C  C21  1  0.77844000  0.90592000  0.90600000  1.0
  C  C22  1  0.07089000  0.17048000  0.11548000  1.0
  C  C23  1  0.57096000  0.82952000  0.88452000  1.0
  C  C24  1  0.01986000  0.17947000  0.19614000  1.0
  C  C25  1  0.51992000  0.82053000  0.80386000  1.0
  C  C26  1  0.29709000  0.40332000  0.62079000  1.0
  C  C27  1  0.79712000  0.59667000  0.37922000  1.0
  C  C28  1  0.28796000  0.39756000  0.71146000  1.0
  C  C29  1  0.78796000  0.60243000  0.28855000  1.0
  C  C30  1  0.46867000  0.32666000  0.75970000  1.0
  C  C31  1  0.96868000  0.67333000  0.24031000  1.0
  C  C32  1  0.46976000  0.32564000  0.84260000  1.0
  C  C33  1  0.96979000  0.67436000  0.15741000  1.0
  C  C34  1  0.28553000  0.39918000  0.88046000  1.0
  C  C35  1  0.78555000  0.60082000  0.11955000  1.0
  C  C36  1  0.10055000  0.46959000  0.83453000  1.0
  C  C37  1  0.60057000  0.53041000  0.16548000  1.0
  C  C38  1  0.10376000  0.46773000  0.75165000  1.0
  C  C39  1  0.60380000  0.53226000  0.24836000  1.0
  O  O40  1  0.06049000  0.24974000  0.36533000  1.0
  O  O41  1  0.56048000  0.75025000  0.63468000  1.0
  O  O42  1  0.09039000  0.00641000  0.38904000  1.0
  O  O43  1  0.59039000  0.99358000  0.61096000  1.0
  O  O44  1  0.09450000  0.39943000  0.58346000  1.0
  O  O45  1  0.59448000  0.60057000  0.41655000  1.0
  O  O46  1  0.50675000  0.41178000  0.58810000  1.0
  O  O47  1  0.00674000  0.58821000  0.41191000  1.0
  O  O48  1  0.63019000  0.23431000  0.44816000  1.0
  O  O49  1  0.13018000  0.76569000  0.55184000  1.0
  O  O50  1  0.62187000  0.93341000  0.45569000  1.0
  O  O51  1  0.12188000  0.06659000  0.54430000  1.0
  F  F52  1  0.52386000  0.96894000  0.28887000  1.0
  F  F53  1  0.02388000  0.03107000  0.71112000  1.0
  F  F54  1  0.62849000  0.95142000  0.13362000  1.0
  F  F55  1  0.12856000  0.04860000  0.86635000  1.0
  F  F56  1  0.33280000  0.08397000  0.01679000  1.0
  F  F57  1  0.83292000  0.91603000  0.98319000  1.0
  F  F58  1  0.91914000  0.23261000  0.05897000  1.0
  F  F59  1  0.41922000  0.76738000  0.94104000  1.0
  F  F60  1  0.81231000  0.25013000  0.21465000  1.0
  F  F61  1  0.31238000  0.74984000  0.78536000  1.0
  F  F62  1  0.65337000  0.25253000  0.72688000  1.0
  F  F63  1  0.15340000  0.74747000  0.27313000  1.0
  F  F64  1  0.64744000  0.25475000  0.88645000  1.0
  F  F65  1  0.14747000  0.74526000  0.11356000  1.0
  F  F66  1  0.28802000  0.40359000  0.96003000  1.0
  F  F67  1  0.78804000  0.59642000  0.03997000  1.0
  F  F68  1  0.92426000  0.54375000  0.87011000  1.0
  F  F69  1  0.42427000  0.45626000  0.12990000  1.0
  F  F70  1  0.92495000  0.54457000  0.71085000  1.0
  F  F71  1  0.42500000  0.45542000  0.28915000  1.0
