# generated using pymatgen
data_PrH13C16O11
_symmetry_space_group_name_H-M   'P 1'
_cell_length_a   6.80221000
_cell_length_b   10.90580000
_cell_length_c   11.59940000
_cell_angle_alpha   94.35360000
_cell_angle_beta   100.37100000
_cell_angle_gamma   95.80900000
_symmetry_Int_Tables_number   1
_chemical_formula_structural   PrH13C16O11
_chemical_formula_sum   'Pr2 H26 C32 O22'
_cell_volume   838.17536358
_cell_formula_units_Z   2
loop_
 _symmetry_equiv_pos_site_id
 _symmetry_equiv_pos_as_xyz
  1  'x, y, z'
loop_
 _atom_site_type_symbol
 _atom_site_label
 _atom_site_symmetry_multiplicity
 _atom_site_fract_x
 _atom_site_fract_y
 _atom_site_fract_z
 _atom_site_occupancy
  Pr  Pr0  1  0.08847000  0.26336000  0.00485000  1.0
  Pr  Pr1  1  0.91153000  0.73664000  0.99515000  1.0
  H  H2  1  0.77182000  0.70947000  0.65437000  1.0
  H  H3  1  0.22818000  0.29053000  0.34563000  1.0
  H  H4  1  0.51286000  0.24037000  0.89785000  1.0
  H  H5  1  0.48714000  0.75962000  0.10215000  1.0
  H  H6  1  0.33146000  0.31024000  0.83919000  1.0
  H  H7  1  0.66853000  0.68976000  0.16081000  1.0
  H  H8  1  0.26808000  0.52562000  0.06326000  1.0
  H  H9  1  0.73192000  0.47437000  0.93674000  1.0
  H  H10  1  0.31168000  0.47140000  0.18800000  1.0
  H  H11  1  0.68832000  0.52859000  0.81201000  1.0
  H  H12  1  0.77078000  0.03884000  0.02305000  1.0
  H  H13  1  0.22922000  0.96116000  0.97695000  1.0
  H  H14  1  0.93846000  0.03963000  0.13350000  1.0
  H  H15  1  0.06154000  0.96037000  0.86650000  1.0
  H  H16  1  0.49810000  0.76523000  0.33651000  1.0
  H  H17  1  0.50189000  0.23477000  0.66349000  1.0
  H  H18  1  0.77958000  0.87187000  0.48999000  1.0
  H  H19  1  0.22041000  0.12813000  0.51001000  1.0
  H  H20  1  0.85550000  0.10164000  0.50390000  1.0
  H  H21  1  0.14450000  0.89835000  0.49610000  1.0
  H  H22  1  0.65686000  0.30160000  0.54641000  1.0
  H  H23  1  0.34313000  0.69840000  0.45359000  1.0
  H  H24  1  0.84464000  0.61306000  0.36995000  1.0
  H  H25  1  0.15536000  0.38694000  0.63005000  1.0
  H  H26  1  0.72316000  0.24848000  0.18457000  1.0
  H  H27  1  0.27685000  0.75152000  0.81544000  1.0
  C  C28  1  0.53020000  0.86585000  0.34537000  1.0
  C  C29  1  0.46980000  0.13415000  0.65462000  1.0
  C  C30  1  0.68876000  0.92586000  0.43049000  1.0
  C  C31  1  0.31124000  0.07414000  0.56951000  1.0
  C  C32  1  0.72988000  0.05418000  0.43863000  1.0
  C  C33  1  0.27012000  0.94581000  0.56137000  1.0
  C  C34  1  0.61568000  0.12439000  0.36113000  1.0
  C  C35  1  0.38432000  0.87561000  0.63887000  1.0
  C  C36  1  0.45146000  0.06389000  0.27788000  1.0
  C  C37  1  0.54854000  0.93611000  0.72212000  1.0
  C  C38  1  0.40817000  0.93435000  0.27128000  1.0
  C  C39  1  0.59182000  0.06565000  0.72872000  1.0
  C  C40  1  0.23150000  0.86760000  0.18626000  1.0
  C  C41  1  0.76850000  0.13240000  0.81374000  1.0
  C  C42  1  0.32924000  0.13317000  0.18977000  1.0
  C  C43  1  0.67076000  0.86683000  0.81023000  1.0
  C  C44  1  0.67729000  0.25910000  0.36423000  1.0
  C  C45  1  0.32271000  0.74090000  0.63577000  1.0
  C  C46  1  0.69225000  0.33774000  0.46687000  1.0
  C  C47  1  0.30775000  0.66226000  0.53313000  1.0
  C  C48  1  0.74644000  0.46530000  0.46892000  1.0
  C  C49  1  0.25356000  0.53470000  0.53108000  1.0
  C  C50  1  0.79654000  0.51459000  0.36862000  1.0
  C  C51  1  0.20346000  0.48541000  0.63138000  1.0
  C  C52  1  0.79094000  0.43535000  0.26703000  1.0
  C  C53  1  0.20907000  0.56465000  0.73297000  1.0
  C  C54  1  0.72733000  0.30895000  0.26437000  1.0
  C  C55  1  0.27267000  0.69105000  0.73564000  1.0
  C  C56  1  0.74501000  0.54237000  0.58018000  1.0
  C  C57  1  0.25499000  0.45764000  0.41982000  1.0
  C  C58  1  0.85678000  0.48246000  0.16057000  1.0
  C  C59  1  0.14323000  0.51754000  0.83943000  1.0
  O  O60  1  0.24161000  0.22526000  0.22209000  1.0
  O  O61  1  0.75839000  0.77474000  0.77791000  1.0
  O  O62  1  0.31317000  0.09888000  0.08072000  1.0
  O  O63  1  0.68683000  0.90112000  0.91928000  1.0
  O  O64  1  0.05813000  0.90456000  0.17584000  1.0
  O  O65  1  0.94187000  0.09544000  0.82416000  1.0
  O  O66  1  0.25896000  0.77058000  0.12390000  1.0
  O  O67  1  0.74104000  0.22942000  0.87609000  1.0
  O  O68  1  0.70450000  0.49450000  0.66797000  1.0
  O  O69  1  0.29550000  0.50550000  0.33203000  1.0
  O  O70  1  0.78631000  0.66365000  0.57637000  1.0
  O  O71  1  0.21369000  0.33635000  0.42363000  1.0
  O  O72  1  0.87036000  0.40287000  0.07629000  1.0
  O  O73  1  0.12965000  0.59713000  0.92371000  1.0
  O  O74  1  0.89465000  0.59859000  0.15804000  1.0
  O  O75  1  0.10536000  0.40141000  0.84196000  1.0
  O  O76  1  0.36871000  0.25228000  0.89750000  1.0
  O  O77  1  0.63129000  0.74772000  0.10250000  1.0
  O  O78  1  0.31484000  0.45424000  0.10284000  1.0
  O  O79  1  0.68516000  0.54576000  0.89716000  1.0
  O  O80  1  0.86616000  0.09582000  0.08252000  1.0
  O  O81  1  0.13384000  0.90418000  0.91748000  1.0
