# generated using pymatgen
data_CuH16C16(N4Cl)2
_symmetry_space_group_name_H-M   'P 1'
_cell_length_a   7.52073000
_cell_length_b   8.19225000
_cell_length_c   16.08590000
_cell_angle_alpha   90.00010000
_cell_angle_beta   90.00040000
_cell_angle_gamma   63.51800000
_symmetry_Int_Tables_number   1
_chemical_formula_structural   CuH16C16(N4Cl)2
_chemical_formula_sum   'Cu2 H32 C32 N16 Cl4'
_cell_volume   887.09011731
_cell_formula_units_Z   2
loop_
 _symmetry_equiv_pos_site_id
 _symmetry_equiv_pos_as_xyz
  1  'x, y, z'
loop_
 _atom_site_type_symbol
 _atom_site_label
 _atom_site_symmetry_multiplicity
 _atom_site_fract_x
 _atom_site_fract_y
 _atom_site_fract_z
 _atom_site_occupancy
  Cu  Cu0  1  0.50000000  0.50000000  0.00000000  1.0
  Cu  Cu1  1  0.00000000  0.00000000  0.50000000  1.0
  H  H2  1  0.78913000  0.08839000  0.06305000  1.0
  H  H3  1  0.71087000  0.41161000  0.56305000  1.0
  H  H4  1  0.21087000  0.91161000  0.93695000  1.0
  H  H5  1  0.28913000  0.58839000  0.43695000  1.0
  H  H6  1  0.16520000  0.35848000  0.04477000  1.0
  H  H7  1  0.33480000  0.14152000  0.54477000  1.0
  H  H8  1  0.83480000  0.64152000  0.95523000  1.0
  H  H9  1  0.66520000  0.85848000  0.45523000  1.0
  H  H10  1  0.30334000  0.88160000  0.10107000  1.0
  H  H11  1  0.19666000  0.61840000  0.60107000  1.0
  H  H12  1  0.69666000  0.11840000  0.89893000  1.0
  H  H13  1  0.80335000  0.38160000  0.39893000  1.0
  H  H14  1  0.10199000  0.09678000  0.08365000  1.0
  H  H15  1  0.39801000  0.40322000  0.58365000  1.0
  H  H16  1  0.89801000  0.90322000  0.91635000  1.0
  H  H17  1  0.60199000  0.59678000  0.41635000  1.0
  H  H18  1  0.42124000  0.08646000  0.26412000  1.0
  H  H19  1  0.07876000  0.41354000  0.76412000  1.0
  H  H20  1  0.57876000  0.91354000  0.73588000  1.0
  H  H21  1  0.92125000  0.58645000  0.23588000  1.0
  H  H22  1  0.31667000  0.08349000  0.40935000  1.0
  H  H23  1  0.18333000  0.41651000  0.90935000  1.0
  H  H24  1  0.68333000  0.91651000  0.59065000  1.0
  H  H25  1  0.81667000  0.58349000  0.09065000  1.0
  H  H26  1  0.83126000  0.00528000  0.33564000  1.0
  H  H27  1  0.66875000  0.49472000  0.83563000  1.0
  H  H28  1  0.16875000  0.99472000  0.66437000  1.0
  H  H29  1  0.33125000  0.50528000  0.16436000  1.0
  H  H30  1  0.92909000  0.98475000  0.18642000  1.0
  H  H31  1  0.57091000  0.51525000  0.68642000  1.0
  H  H32  1  0.07091000  0.01524000  0.81358000  1.0
  H  H33  1  0.42909000  0.48475000  0.31358000  1.0
  C  C34  1  0.63382000  0.12054000  0.07115000  1.0
  C  C35  1  0.86617000  0.37947000  0.57115000  1.0
  C  C36  1  0.36617000  0.87946000  0.92885000  1.0
  C  C37  1  0.13383000  0.62054000  0.42885000  1.0
  C  C38  1  0.31678000  0.26263000  0.05999000  1.0
  C  C39  1  0.18322000  0.23737000  0.55998000  1.0
  C  C40  1  0.68322000  0.73737000  0.94001000  1.0
  C  C41  1  0.81678000  0.76264000  0.44001000  1.0
  C  C42  1  0.23665000  0.02459000  0.12170000  1.0
  C  C43  1  0.26335000  0.47541000  0.62170000  1.0
  C  C44  1  0.76335000  0.97541000  0.87830000  1.0
  C  C45  1  0.73665000  0.52459000  0.37830000  1.0
  C  C46  1  0.18414000  0.03454000  0.21231000  1.0
  C  C47  1  0.31586000  0.46546000  0.71231000  1.0
  C  C48  1  0.81586000  0.96546000  0.78769000  1.0
  C  C49  1  0.68414000  0.53454000  0.28769000  1.0
  C  C50  1  0.29134000  0.06410000  0.27648000  1.0
  C  C51  1  0.20866000  0.43590000  0.77649000  1.0
  C  C52  1  0.70866000  0.93590000  0.72352000  1.0
  C  C53  1  0.79134000  0.56410000  0.22351000  1.0
  C  C54  1  0.23249000  0.06333000  0.35866000  1.0
  C  C55  1  0.26751000  0.43667000  0.85866000  1.0
  C  C56  1  0.76751000  0.93667000  0.64134000  1.0
  C  C57  1  0.73249000  0.56333000  0.14134000  1.0
  C  C58  1  0.96478000  0.01586000  0.31667000  1.0
  C  C59  1  0.53523000  0.48414000  0.81667000  1.0
  C  C60  1  0.03523000  0.98414000  0.68333000  1.0
  C  C61  1  0.46477000  0.51586000  0.18333000  1.0
  C  C62  1  0.01713000  0.00994000  0.23385000  1.0
  C  C63  1  0.48286000  0.49005000  0.73385000  1.0
  C  C64  1  0.98287000  0.99005000  0.76615000  1.0
  C  C65  1  0.51714000  0.50995000  0.26615000  1.0
  N  N66  1  0.36871000  0.10304000  0.09893000  1.0
  N  N67  1  0.13129000  0.39696000  0.59893000  1.0
  N  N68  1  0.63129000  0.89696000  0.90107000  1.0
  N  N69  1  0.86871000  0.60304000  0.40107000  1.0
  N  N70  1  0.57056000  0.00986000  0.10668000  1.0
  N  N71  1  0.92944000  0.49014000  0.60668000  1.0
  N  N72  1  0.42944000  0.99014000  0.89332000  1.0
  N  N73  1  0.07056000  0.50986000  0.39332000  1.0
  N  N74  1  0.48227000  0.27775000  0.04168000  1.0
  N  N75  1  0.01773000  0.22225000  0.54168000  1.0
  N  N76  1  0.51773000  0.72225000  0.95832000  1.0
  N  N77  1  0.98227000  0.77775000  0.45832000  1.0
  N  N78  1  0.07277000  0.03833000  0.37858000  1.0
  N  N79  1  0.42722000  0.46166000  0.87858000  1.0
  N  N80  1  0.92723000  0.96166000  0.62142000  1.0
  N  N81  1  0.57278000  0.53833000  0.12141000  1.0
  Cl  Cl82  1  0.09621000  0.70633000  0.03720000  1.0
  Cl  Cl83  1  0.40379000  0.79367000  0.53720000  1.0
  Cl  Cl84  1  0.90379000  0.29366000  0.96280000  1.0
  Cl  Cl85  1  0.59621000  0.20633000  0.46280000  1.0
