# generated using pymatgen
data_HgH20C26S2(IN3)2
_symmetry_space_group_name_H-M   'P 1'
_cell_length_a   8.53270000
_cell_length_b   12.41060000
_cell_length_c   13.90330000
_cell_angle_alpha   110.17000000
_cell_angle_beta   93.00140000
_cell_angle_gamma   97.75150000
_symmetry_Int_Tables_number   1
_chemical_formula_structural   HgH20C26S2(IN3)2
_chemical_formula_sum   'Hg2 H40 C52 S4 I4 N12'
_cell_volume   1361.62521887
_cell_formula_units_Z   2
loop_
 _symmetry_equiv_pos_site_id
 _symmetry_equiv_pos_as_xyz
  1  'x, y, z'
loop_
 _atom_site_type_symbol
 _atom_site_label
 _atom_site_symmetry_multiplicity
 _atom_site_fract_x
 _atom_site_fract_y
 _atom_site_fract_z
 _atom_site_occupancy
  Hg  Hg0  1  0.05556000  0.24452000  0.36316000  1.0
  Hg  Hg1  1  0.94444000  0.75548000  0.63683000  1.0
  H  H2  1  0.56628000  0.92145000  0.63560000  1.0
  H  H3  1  0.43372000  0.07855000  0.36440000  1.0
  H  H4  1  0.86696000  0.02627000  0.39797000  1.0
  H  H5  1  0.13303000  0.97373000  0.60203000  1.0
  H  H6  1  0.98021000  0.35794000  0.61837000  1.0
  H  H7  1  0.01980000  0.64206000  0.38163000  1.0
  H  H8  1  0.79832000  0.30452000  0.73696000  1.0
  H  H9  1  0.20168000  0.69547000  0.26304000  1.0
  H  H10  1  0.64650000  0.10401000  0.68169000  1.0
  H  H11  1  0.35350000  0.89599000  0.31830000  1.0
  H  H12  1  0.45924000  0.70765000  0.55579000  1.0
  H  H13  1  0.54076000  0.29235000  0.44422000  1.0
  H  H14  1  0.66734000  0.81182000  0.17127000  1.0
  H  H15  1  0.33266000  0.18818000  0.82873000  1.0
  H  H16  1  0.84991000  0.81061000  0.23776000  1.0
  H  H17  1  0.15008000  0.18940000  0.76224000  1.0
  H  H18  1  0.57394000  0.59549000  0.00703000  1.0
  H  H19  1  0.42606000  0.40451000  0.99297000  1.0
  H  H20  1  0.67332000  0.48990000  0.84111000  1.0
  H  H21  1  0.32669000  0.51010000  0.15890000  1.0
  H  H22  1  0.96099000  0.52474000  0.81963000  1.0
  H  H23  1  0.03902000  0.47527000  0.18037000  1.0
  H  H24  1  0.05310000  0.76318000  0.13285000  1.0
  H  H25  1  0.94690000  0.23682000  0.86716000  1.0
  H  H26  1  0.21194000  0.69926000  0.89541000  1.0
  H  H27  1  0.78806000  0.30074000  0.10459000  1.0
  H  H28  1  0.24433000  0.58074000  0.93340000  1.0
  H  H29  1  0.75567000  0.41926000  0.06661000  1.0
  H  H30  1  0.11848000  0.02092000  0.93729000  1.0
  H  H31  1  0.88153000  0.97908000  0.06271000  1.0
  H  H32  1  0.30320000  0.19631000  0.05618000  1.0
  H  H33  1  0.69679000  0.80369000  0.94381000  1.0
  H  H34  1  0.38298000  0.32025000  0.20737000  1.0
  H  H35  1  0.61702000  0.67975000  0.79263000  1.0
  H  H36  1  0.58340000  0.48526000  0.32452000  1.0
  H  H37  1  0.41660000  0.51474000  0.67548000  1.0
  H  H38  1  0.85225000  0.44368000  0.37094000  1.0
  H  H39  1  0.14775000  0.55631000  0.62906000  1.0
  H  H40  1  0.71448000  0.08898000  0.21757000  1.0
  H  H41  1  0.28552000  0.91101000  0.78243000  1.0
  C  C42  1  0.58333000  0.87260000  0.55633000  1.0
  C  C43  1  0.41667000  0.12740000  0.44367000  1.0
  C  C44  1  0.84872000  0.08600000  0.47367000  1.0
  C  C45  1  0.15128000  0.91400000  0.52633000  1.0
  C  C46  1  0.91213000  0.27071000  0.59690000  1.0
  C  C47  1  0.08786000  0.72929000  0.40310000  1.0
  C  C48  1  0.81078000  0.24052000  0.66221000  1.0
  C  C49  1  0.18922000  0.75948000  0.33778000  1.0
  C  C50  1  0.72645000  0.12777000  0.63101000  1.0
  C  C51  1  0.27354000  0.87223000  0.36898000  1.0
  C  C52  1  0.74576000  0.04714000  0.53441000  1.0
  C  C53  1  0.25423000  0.95286000  0.46559000  1.0
  C  C54  1  0.66849000  0.92379000  0.49535000  1.0
  C  C55  1  0.33151000  0.07621000  0.50465000  1.0
  C  C56  1  0.52443000  0.75373000  0.51216000  1.0
  C  C57  1  0.47558000  0.24626000  0.48785000  1.0
  C  C58  1  0.62620000  0.74736000  0.36285000  1.0
  C  C59  1  0.37380000  0.25264000  0.63715000  1.0
  C  C60  1  0.75031000  0.75533000  0.18207000  1.0
  C  C61  1  0.24969000  0.24467000  0.81793000  1.0
  C  C62  1  0.80693000  0.68697000  0.08145000  1.0
  C  C63  1  0.19308000  0.31303000  0.91855000  1.0
  C  C64  1  0.70074000  0.60892000  0.99868000  1.0
  C  C65  1  0.29926000  0.39108000  0.00132000  1.0
  C  C66  1  0.75685000  0.55003000  0.90529000  1.0
  C  C67  1  0.24316000  0.44997000  0.09471000  1.0
  C  C68  1  0.91851000  0.56891000  0.89356000  1.0
  C  C69  1  0.08150000  0.43110000  0.10645000  1.0
  C  C70  1  0.02654000  0.64594000  0.97566000  1.0
  C  C71  1  0.97347000  0.35406000  0.02435000  1.0
  C  C72  1  0.96926000  0.70328000  0.06882000  1.0
  C  C73  1  0.03074000  0.29672000  0.93118000  1.0
  C  C74  1  0.19992000  0.66429000  0.95770000  1.0
  C  C75  1  0.80008000  0.33572000  0.04231000  1.0
  C  C76  1  0.32566000  0.89735000  0.05925000  1.0
  C  C77  1  0.67434000  0.10265000  0.94075000  1.0
  C  C78  1  0.20859000  0.01322000  0.99234000  1.0
  C  C79  1  0.79141000  0.98678000  0.00766000  1.0
  C  C80  1  0.31021000  0.11038000  0.05855000  1.0
  C  C81  1  0.68978000  0.88962000  0.94145000  1.0
  C  C82  1  0.42207000  0.09212000  0.12661000  1.0
  C  C83  1  0.57793000  0.90788000  0.87339000  1.0
  C  C84  1  0.53466000  0.19113000  0.19919000  1.0
  C  C85  1  0.46534000  0.80887000  0.80081000  1.0
  C  C86  1  0.49901000  0.30456000  0.23076000  1.0
  C  C87  1  0.50099000  0.69544000  0.76924000  1.0
  C  C88  1  0.61086000  0.39716000  0.29487000  1.0
  C  C89  1  0.38914000  0.60284000  0.70514000  1.0
  C  C90  1  0.75800000  0.37433000  0.32342000  1.0
  C  C91  1  0.24200000  0.62566000  0.67658000  1.0
  C  C92  1  0.68235000  0.17570000  0.23710000  1.0
  C  C93  1  0.31765000  0.82430000  0.76289000  1.0
  S  S94  1  0.64814000  0.65576000  0.23726000  1.0
  S  S95  1  0.35186000  0.34424000  0.76274000  1.0
  S  S96  1  0.34132000  0.75922000  0.06454000  1.0
  S  S97  1  0.65868000  0.24078000  0.93547000  1.0
  I  I98  1  0.22296000  0.45722000  0.40742000  1.0
  I  I99  1  0.77703000  0.54278000  0.59258000  1.0
  I  I100  1  0.06254000  0.02160000  0.24459000  1.0
  I  I101  1  0.93746000  0.97840000  0.75541000  1.0
  N  N102  1  0.92909000  0.19454000  0.50356000  1.0
  N  N103  1  0.07090000  0.80546000  0.49644000  1.0
  N  N104  1  0.68819000  0.86016000  0.39715000  1.0
  N  N105  1  0.31181000  0.13984000  0.60285000  1.0
  N  N106  1  0.21460000  0.90539000  0.99150000  1.0
  N  N107  1  0.78540000  0.09461000  0.00850000  1.0
  N  N108  1  0.43100000  0.98464000  0.12674000  1.0
  N  N109  1  0.56900000  0.01536000  0.87326000  1.0
  N  N110  1  0.79128000  0.26556000  0.29640000  1.0
  N  N111  1  0.20871000  0.73444000  0.70360000  1.0
  N  N112  1  0.54515000  0.68943000  0.41582000  1.0
  N  N113  1  0.45486000  0.31056000  0.58418000  1.0
