# generated using pymatgen
data_ZnH12C18(N3O2)2
_symmetry_space_group_name_H-M   'P 1'
_cell_length_a   5.59561000
_cell_length_b   18.99790000
_cell_length_c   20.45060000
_cell_angle_alpha   90.00320000
_cell_angle_beta   90.00090000
_cell_angle_gamma   89.99920000
_symmetry_Int_Tables_number   1
_chemical_formula_structural   ZnH12C18(N3O2)2
_chemical_formula_sum   'Zn4 H48 C72 N24 O16'
_cell_volume   2173.99774106
_cell_formula_units_Z   4
loop_
 _symmetry_equiv_pos_site_id
 _symmetry_equiv_pos_as_xyz
  1  'x, y, z'
loop_
 _atom_site_type_symbol
 _atom_site_label
 _atom_site_symmetry_multiplicity
 _atom_site_fract_x
 _atom_site_fract_y
 _atom_site_fract_z
 _atom_site_occupancy
  Zn  Zn0  1  0.13387000  0.75002000  0.50001000  1.0
  Zn  Zn1  1  0.86611000  0.24997000  0.00002000  1.0
  Zn  Zn2  1  0.86611000  0.25001000  0.50000000  1.0
  Zn  Zn3  1  0.13389000  0.74998000  0.00001000  1.0
  H  H4  1  0.94981000  0.61475000  0.55583000  1.0
  H  H5  1  0.05032000  0.38528000  0.05581000  1.0
  H  H6  1  0.94977000  0.88529000  0.44416000  1.0
  H  H7  1  0.05031000  0.11468000  0.94416000  1.0
  H  H8  1  0.05024000  0.38530000  0.44417000  1.0
  H  H9  1  0.94979000  0.61471000  0.94416000  1.0
  H  H10  1  0.05029000  0.11473000  0.55581000  1.0
  H  H11  1  0.94974000  0.88526000  0.05583000  1.0
  H  H12  1  0.72663000  0.46143000  0.41098000  1.0
  H  H13  1  0.27339000  0.53858000  0.91098000  1.0
  H  H14  1  0.72670000  0.03861000  0.58901000  1.0
  H  H15  1  0.27334000  0.96138000  0.08902000  1.0
  H  H16  1  0.27338000  0.53861000  0.58901000  1.0
  H  H17  1  0.72670000  0.46139000  0.08900000  1.0
  H  H18  1  0.27339000  0.96141000  0.41097000  1.0
  H  H19  1  0.72668000  0.03856000  0.91098000  1.0
  H  H20  1  0.61693000  0.66741000  0.54239000  1.0
  H  H21  1  0.38307000  0.33260000  0.04237000  1.0
  H  H22  1  0.61697000  0.83262000  0.45762000  1.0
  H  H23  1  0.38305000  0.16735000  0.95763000  1.0
  H  H24  1  0.38304000  0.33263000  0.45762000  1.0
  H  H25  1  0.61698000  0.66738000  0.95763000  1.0
  H  H26  1  0.38309000  0.16739000  0.54236000  1.0
  H  H27  1  0.61695000  0.83260000  0.04238000  1.0
  H  H28  1  0.48818000  0.54482000  0.37225000  1.0
  H  H29  1  0.51204000  0.45522000  0.87227000  1.0
  H  H30  1  0.48821000  0.95526000  0.62772000  1.0
  H  H31  1  0.51190000  0.04474000  0.12773000  1.0
  H  H32  1  0.51182000  0.45524000  0.62773000  1.0
  H  H33  1  0.48828000  0.54477000  0.12773000  1.0
  H  H34  1  0.51187000  0.04479000  0.37224000  1.0
  H  H35  1  0.48821000  0.95516000  0.87225000  1.0
  H  H36  1  0.19133000  0.68213000  0.75000000  1.0
  H  H37  1  0.80854000  0.31793000  0.24999000  1.0
  H  H38  1  0.19148000  0.81789000  0.25001000  1.0
  H  H39  1  0.80839000  0.18207000  0.74999000  1.0
  H  H40  1  0.60718000  0.77616000  0.64480000  1.0
  H  H41  1  0.39277000  0.22391000  0.14479000  1.0
  H  H42  1  0.60731000  0.72388000  0.35522000  1.0
  H  H43  1  0.39253000  0.27608000  0.85524000  1.0
  H  H44  1  0.39269000  0.22391000  0.35522000  1.0
  H  H45  1  0.60717000  0.77612000  0.85524000  1.0
  H  H46  1  0.39256000  0.27612000  0.64480000  1.0
  H  H47  1  0.60731000  0.72387000  0.14478000  1.0
  H  H48  1  0.40948000  0.80727000  0.75003000  1.0
  H  H49  1  0.59041000  0.19276000  0.25001000  1.0
  H  H50  1  0.40963000  0.69275000  0.25000000  1.0
  H  H51  1  0.59025000  0.30724000  0.75003000  1.0
  C  C52  1  0.81316000  0.54419000  0.48135000  1.0
  C  C53  1  0.18693000  0.45583000  0.98135000  1.0
  C  C54  1  0.81317000  0.95585000  0.51864000  1.0
  C  C55  1  0.18690000  0.04413000  0.01864000  1.0
  C  C56  1  0.18687000  0.45585000  0.51865000  1.0
  C  C57  1  0.81321000  0.54416000  0.01864000  1.0
  C  C58  1  0.18688000  0.04417000  0.48134000  1.0
  C  C59  1  0.81316000  0.95581000  0.98135000  1.0
  C  C60  1  0.96741000  0.56400000  0.53180000  1.0
  C  C61  1  0.03268000  0.43602000  0.03180000  1.0
  C  C62  1  0.96741000  0.93603000  0.46818000  1.0
  C  C63  1  0.03266000  0.06395000  0.96819000  1.0
  C  C64  1  0.03261000  0.43604000  0.46819000  1.0
  C  C65  1  0.96746000  0.56398000  0.96819000  1.0
  C  C66  1  0.03265000  0.06399000  0.53179000  1.0
  C  C67  1  0.96740000  0.93600000  0.03180000  1.0
  C  C68  1  0.84567000  0.47982000  0.44952000  1.0
  C  C69  1  0.15439000  0.52020000  0.94951000  1.0
  C  C70  1  0.84573000  0.02021000  0.55048000  1.0
  C  C71  1  0.15433000  0.97978000  0.05048000  1.0
  C  C72  1  0.15434000  0.52022000  0.55048000  1.0
  C  C73  1  0.84574000  0.47979000  0.05047000  1.0
  C  C74  1  0.15435000  0.97980000  0.44951000  1.0
  C  C75  1  0.84570000  0.02017000  0.94951000  1.0
  C  C76  1  0.53906000  0.64630000  0.49783000  1.0
  C  C77  1  0.46098000  0.35371000  0.99781000  1.0
  C  C78  1  0.53909000  0.85374000  0.50218000  1.0
  C  C79  1  0.46094000  0.14624000  0.00218000  1.0
  C  C80  1  0.46093000  0.35374000  0.50218000  1.0
  C  C81  1  0.53910000  0.64627000  0.00218000  1.0
  C  C82  1  0.46096000  0.14629000  0.49780000  1.0
  C  C83  1  0.53907000  0.85370000  0.99782000  1.0
  C  C84  1  0.47020000  0.58411000  0.41028000  1.0
  C  C85  1  0.52996000  0.41591000  0.91029000  1.0
  C  C86  1  0.47022000  0.91595000  0.58970000  1.0
  C  C87  1  0.52986000  0.08405000  0.08971000  1.0
  C  C88  1  0.52982000  0.41593000  0.58971000  1.0
  C  C89  1  0.47026000  0.58407000  0.08971000  1.0
  C  C90  1  0.52984000  0.08409000  0.41027000  1.0
  C  C91  1  0.47022000  0.91587000  0.91028000  1.0
  C  C92  1  0.91182000  0.72770000  0.69071000  1.0
  C  C93  1  0.08813000  0.27236000  0.19070000  1.0
  C  C94  1  0.91193000  0.77232000  0.30931000  1.0
  C  C95  1  0.08794000  0.22763000  0.80931000  1.0
  C  C96  1  0.08811000  0.27236000  0.30930000  1.0
  C  C97  1  0.91182000  0.72768000  0.80931000  1.0
  C  C98  1  0.08796000  0.22765000  0.69071000  1.0
  C  C99  1  0.91193000  0.77232000  0.19070000  1.0
  C  C100  1  0.02004000  0.70937000  0.75001000  1.0
  C  C101  1  0.97986000  0.29069000  0.25000000  1.0
  C  C102  1  0.02018000  0.79065000  0.25001000  1.0
  C  C103  1  0.97970000  0.20931000  0.75000000  1.0
  C  C104  1  0.69198000  0.76328000  0.69105000  1.0
  C  C105  1  0.30797000  0.23678000  0.19104000  1.0
  C  C106  1  0.69210000  0.73675000  0.30896000  1.0
  C  C107  1  0.30776000  0.26322000  0.80897000  1.0
  C  C108  1  0.30793000  0.23678000  0.30896000  1.0
  C  C109  1  0.69198000  0.76327000  0.80898000  1.0
  C  C110  1  0.30778000  0.26324000  0.69106000  1.0
  C  C111  1  0.69209000  0.73674000  0.19105000  1.0
  C  C112  1  0.58227000  0.78075000  0.75002000  1.0
  C  C113  1  0.41765000  0.21929000  0.25000000  1.0
  C  C114  1  0.58240000  0.71927000  0.25000000  1.0
  C  C115  1  0.41746000  0.28071000  0.75002000  1.0
  C  C116  1  0.03579000  0.71206000  0.62757000  1.0
  C  C117  1  0.96416000  0.28798000  0.12756000  1.0
  C  C118  1  0.03587000  0.78797000  0.37244000  1.0
  C  C119  1  0.96403000  0.21198000  0.87244000  1.0
  C  C120  1  0.96412000  0.28799000  0.37243000  1.0
  C  C121  1  0.03582000  0.71203000  0.87244000  1.0
  C  C122  1  0.96406000  0.21203000  0.62756000  1.0
  C  C123  1  0.03587000  0.78796000  0.12757000  1.0
  N  N124  1  0.35105000  0.67225000  0.46734000  1.0
  N  N125  1  0.64900000  0.32775000  0.96733000  1.0
  N  N126  1  0.35109000  0.82779000  0.53267000  1.0
  N  N127  1  0.64894000  0.17220000  0.03268000  1.0
  N  N128  1  0.64893000  0.32778000  0.53267000  1.0
  N  N129  1  0.35110000  0.67222000  0.03267000  1.0
  N  N130  1  0.64897000  0.17224000  0.46732000  1.0
  N  N131  1  0.35107000  0.82774000  0.96733000  1.0
  N  N132  1  0.30579000  0.63339000  0.41172000  1.0
  N  N133  1  0.69434000  0.36662000  0.91173000  1.0
  N  N134  1  0.30583000  0.86666000  0.58828000  1.0
  N  N135  1  0.69423000  0.13334000  0.08828000  1.0
  N  N136  1  0.69421000  0.36664000  0.58828000  1.0
  N  N137  1  0.30585000  0.63335000  0.08829000  1.0
  N  N138  1  0.69425000  0.13337000  0.41170000  1.0
  N  N139  1  0.30581000  0.86659000  0.91171000  1.0
  N  N140  1  0.62148000  0.58963000  0.46342000  1.0
  N  N141  1  0.37862000  0.41039000  0.96342000  1.0
  N  N142  1  0.62149000  0.91042000  0.53656000  1.0
  N  N143  1  0.37858000  0.08957000  0.03657000  1.0
  N  N144  1  0.37853000  0.41041000  0.53657000  1.0
  N  N145  1  0.62153000  0.58959000  0.03657000  1.0
  N  N146  1  0.37855000  0.08961000  0.46340000  1.0
  N  N147  1  0.62149000  0.91036000  0.96342000  1.0
  O  O148  1  0.92138000  0.73304000  0.57462000  1.0
  O  O149  1  0.07859000  0.26701000  0.07461000  1.0
  O  O150  1  0.92142000  0.76701000  0.42539000  1.0
  O  O151  1  0.07848000  0.23294000  0.92539000  1.0
  O  O152  1  0.07856000  0.26703000  0.42539000  1.0
  O  O153  1  0.92139000  0.73299000  0.92540000  1.0
  O  O154  1  0.07851000  0.23300000  0.57462000  1.0
  O  O155  1  0.92142000  0.76699000  0.07462000  1.0
  O  O156  1  0.23299000  0.68134000  0.62588000  1.0
  O  O157  1  0.76692000  0.31868000  0.12587000  1.0
  O  O158  1  0.23309000  0.81868000  0.37413000  1.0
  O  O159  1  0.76682000  0.18128000  0.87413000  1.0
  O  O160  1  0.76689000  0.31868000  0.37412000  1.0
  O  O161  1  0.23304000  0.68133000  0.87412000  1.0
  O  O162  1  0.76685000  0.18133000  0.62586000  1.0
  O  O163  1  0.23309000  0.81866000  0.12588000  1.0
