# generated using pymatgen
data_Ho2H27C39(NO5)3
_symmetry_space_group_name_H-M   'P 1'
_cell_length_a   12.74620000
_cell_length_b   13.53780000
_cell_length_c   13.90990000
_cell_angle_alpha   66.46910000
_cell_angle_beta   67.14060000
_cell_angle_gamma   77.34350000
_symmetry_Int_Tables_number   1
_chemical_formula_structural   Ho2H27C39(NO5)3
_chemical_formula_sum   'Ho4 H54 C78 N6 O30'
_cell_volume   2021.97347767
_cell_formula_units_Z   2
loop_
 _symmetry_equiv_pos_site_id
 _symmetry_equiv_pos_as_xyz
  1  'x, y, z'
loop_
 _atom_site_type_symbol
 _atom_site_label
 _atom_site_symmetry_multiplicity
 _atom_site_fract_x
 _atom_site_fract_y
 _atom_site_fract_z
 _atom_site_occupancy
  Ho  Ho0  1  0.42549000  0.88470000  0.01035000  1.0
  Ho  Ho1  1  0.57451000  0.11531000  0.98964000  1.0
  Ho  Ho2  1  0.42989000  0.82189000  0.66270000  1.0
  Ho  Ho3  1  0.57011000  0.17811000  0.33730000  1.0
  H  H4  1  0.33579000  0.66240000  0.11207000  1.0
  H  H5  1  0.66421000  0.33759000  0.88794000  1.0
  H  H6  1  0.40364000  0.67760000  0.18268000  1.0
  H  H7  1  0.59636000  0.32240000  0.81732000  1.0
  H  H8  1  0.54478000  0.01497000  0.59773000  1.0
  H  H9  1  0.45522000  0.98503000  0.40227000  1.0
  H  H10  1  0.47165000  0.99812000  0.72999000  1.0
  H  H11  1  0.52835000  0.00188000  0.27001000  1.0
  H  H12  1  0.40793000  0.72251000  0.51481000  1.0
  H  H13  1  0.59208000  0.27749000  0.48519000  1.0
  H  H14  1  0.53509000  0.75899000  0.45631000  1.0
  H  H15  1  0.46492000  0.24101000  0.54369000  1.0
  H  H16  1  0.58518000  0.52914000  0.82501000  1.0
  H  H17  1  0.41481000  0.47086000  0.17500000  1.0
  H  H18  1  0.78491000  0.34920000  0.02164000  1.0
  H  H19  1  0.21509000  0.65080000  0.97835000  1.0
  H  H20  1  0.67774000  0.68118000  0.99632000  1.0
  H  H21  1  0.32225000  0.31882000  0.00369000  1.0
  H  H22  1  0.89031000  0.65075000  0.96493000  1.0
  H  H23  1  0.10969000  0.34925000  0.03507000  1.0
  H  H24  1  0.00599000  0.65484000  0.07053000  1.0
  H  H25  1  0.99401000  0.34516000  0.92946000  1.0
  H  H26  1  0.99344000  0.51026000  0.25505000  1.0
  H  H27  1  0.00656000  0.48974000  0.74494000  1.0
  H  H28  1  0.85786000  0.36721000  0.33321000  1.0
  H  H29  1  0.14215000  0.63279000  0.66679000  1.0
  H  H30  1  0.34471000  0.08183000  0.25962000  1.0
  H  H31  1  0.65529000  0.91816000  0.74039000  1.0
  H  H32  1  0.23192000  0.19739000  0.37034000  1.0
  H  H33  1  0.76807000  0.80261000  0.62966000  1.0
  H  H34  1  0.03715000  0.27581000  0.36342000  1.0
  H  H35  1  0.96284000  0.72419000  0.63657000  1.0
  H  H36  1  0.96198000  0.24320000  0.24069000  1.0
  H  H37  1  0.03802000  0.75680000  0.75931000  1.0
  H  H38  1  0.21457000  0.13859000  0.96428000  1.0
  H  H39  1  0.78543000  0.86140000  0.03572000  1.0
  H  H40  1  0.92652000  0.12556000  0.90149000  1.0
  H  H41  1  0.07348000  0.87444000  0.09850000  1.0
  H  H42  1  0.88505000  0.13121000  0.22091000  1.0
  H  H43  1  0.11495000  0.86879000  0.77909000  1.0
  H  H44  1  0.84824000  0.02857000  0.44584000  1.0
  H  H45  1  0.15176000  0.97143000  0.55416000  1.0
  H  H46  1  0.05570000  0.96871000  0.39040000  1.0
  H  H47  1  0.94430000  0.03129000  0.60960000  1.0
  H  H48  1  0.12390000  0.81428000  0.32080000  1.0
  H  H49  1  0.87610000  0.18572000  0.67920000  1.0
  H  H50  1  0.98519000  0.72271000  0.30572000  1.0
  H  H51  1  0.01481000  0.27729000  0.69428000  1.0
  H  H52  1  0.80324000  0.60277000  0.44133000  1.0
  H  H53  1  0.19676000  0.39723000  0.55868000  1.0
  H  H54  1  0.57842000  0.63526000  0.27901000  1.0
  H  H55  1  0.42158000  0.36474000  0.72099000  1.0
  H  H56  1  0.70132000  0.92204000  0.24983000  1.0
  H  H57  1  0.29869000  0.07796000  0.75017000  1.0
  C  C58  1  0.56017000  0.71893000  0.85515000  1.0
  C  C59  1  0.43983000  0.28107000  0.14485000  1.0
  C  C60  1  0.62588000  0.61762000  0.90342000  1.0
  C  C61  1  0.37411000  0.38238000  0.09659000  1.0
  C  C62  1  0.62987000  0.52617000  0.87920000  1.0
  C  C63  1  0.37013000  0.47383000  0.12080000  1.0
  C  C64  1  0.73982000  0.42661000  0.98968000  1.0
  C  C65  1  0.26018000  0.57339000  0.01032000  1.0
  C  C66  1  0.74110000  0.51414000  0.01924000  1.0
  C  C67  1  0.25889000  0.48586000  0.98076000  1.0
  C  C68  1  0.68153000  0.61086000  0.97504000  1.0
  C  C69  1  0.31846000  0.38914000  0.02497000  1.0
  C  C70  1  0.80681000  0.50873000  0.08912000  1.0
  C  C71  1  0.19319000  0.49127000  0.91087000  1.0
  C  C72  1  0.88221000  0.58949000  0.04679000  1.0
  C  C73  1  0.11780000  0.41051000  0.95320000  1.0
  C  C74  1  0.94879000  0.59073000  0.10546000  1.0
  C  C75  1  0.05122000  0.40928000  0.89453000  1.0
  C  C76  1  0.94169000  0.51012000  0.20843000  1.0
  C  C77  1  0.05831000  0.48988000  0.79157000  1.0
  C  C78  1  0.86714000  0.42970000  0.25176000  1.0
  C  C79  1  0.13286000  0.57030000  0.74824000  1.0
  C  C80  1  0.79948000  0.42750000  0.19383000  1.0
  C  C81  1  0.20052000  0.57250000  0.80617000  1.0
  C  C82  1  0.71797000  0.34089000  0.24994000  1.0
  C  C83  1  0.28203000  0.65911000  0.75007000  1.0
  C  C84  1  0.29161000  0.02407000  0.12587000  1.0
  C  C85  1  0.70839000  0.97593000  0.87413000  1.0
  C  C86  1  0.21881000  0.09866000  0.18523000  1.0
  C  C87  1  0.78118000  0.90134000  0.81478000  1.0
  C  C88  1  0.26062000  0.11743000  0.25535000  1.0
  C  C89  1  0.73937000  0.88257000  0.74465000  1.0
  C  C90  1  0.19660000  0.18155000  0.31868000  1.0
  C  C91  1  0.80340000  0.81844000  0.68132000  1.0
  C  C92  1  0.08847000  0.22607000  0.31366000  1.0
  C  C93  1  0.91152000  0.77393000  0.68634000  1.0
  C  C94  1  0.04611000  0.20730000  0.24474000  1.0
  C  C95  1  0.95389000  0.79270000  0.75526000  1.0
  C  C96  1  0.10973000  0.14386000  0.17890000  1.0
  C  C97  1  0.89027000  0.85614000  0.82110000  1.0
  C  C98  1  0.05889000  0.13253000  0.10505000  1.0
  C  C99  1  0.94111000  0.86747000  0.89494000  1.0
  C  C100  1  0.12218000  0.13286000  0.99658000  1.0
  C  C101  1  0.87781000  0.86714000  0.00342000  1.0
  C  C102  1  0.96298000  0.12840000  0.95956000  1.0
  C  C103  1  0.03702000  0.87160000  0.04044000  1.0
  C  C104  1  0.89126000  0.12965000  0.06530000  1.0
  C  C105  1  0.10873000  0.87035000  0.93470000  1.0
  C  C106  1  0.94034000  0.13084000  0.13849000  1.0
  C  C107  1  0.05966000  0.86915000  0.86151000  1.0
  C  C108  1  0.76435000  0.13119000  0.09964000  1.0
  C  C109  1  0.23564000  0.86882000  0.90035000  1.0
  C  C110  1  0.67589000  0.93486000  0.46629000  1.0
  C  C111  1  0.32412000  0.06514000  0.53371000  1.0
  C  C112  1  0.79975000  0.90647000  0.41252000  1.0
  C  C113  1  0.20025000  0.09353000  0.58748000  1.0
  C  C114  1  0.87943000  0.96072000  0.41608000  1.0
  C  C115  1  0.12058000  0.03928000  0.58392000  1.0
  C  C116  1  0.99515000  0.92656000  0.38571000  1.0
  C  C117  1  0.00485000  0.07344000  0.61428000  1.0
  C  C118  1  0.03308000  0.83897000  0.34861000  1.0
  C  C119  1  0.96692000  0.16103000  0.65139000  1.0
  C  C120  1  0.95493000  0.78694000  0.34093000  1.0
  C  C121  1  0.04507000  0.21305000  0.65907000  1.0
  C  C122  1  0.83801000  0.81932000  0.37238000  1.0
  C  C123  1  0.16199000  0.18068000  0.62762000  1.0
  C  C124  1  0.76118000  0.76940000  0.35079000  1.0
  C  C125  1  0.23882000  0.23060000  0.64921000  1.0
  C  C126  1  0.75464000  0.65737000  0.38807000  1.0
  C  C127  1  0.24536000  0.34263000  0.61193000  1.0
  C  C128  1  0.62908000  0.67477000  0.29924000  1.0
  C  C129  1  0.37092000  0.32523000  0.70076000  1.0
  C  C130  1  0.62798000  0.78819000  0.25790000  1.0
  C  C131  1  0.37203000  0.21181000  0.74209000  1.0
  C  C132  1  0.69656000  0.83491000  0.28359000  1.0
  C  C133  1  0.30344000  0.16509000  0.71641000  1.0
  C  C134  1  0.55989000  0.85934000  0.18489000  1.0
  C  C135  1  0.44012000  0.14066000  0.81511000  1.0
  N  N136  1  0.68521000  0.43208000  0.92232000  1.0
  N  N137  1  0.31479000  0.56792000  0.07768000  1.0
  N  N138  1  0.07665000  0.13021000  0.92562000  1.0
  N  N139  1  0.92335000  0.86979000  0.07439000  1.0
  N  N140  1  0.69032000  0.61050000  0.36364000  1.0
  N  N141  1  0.30968000  0.38950000  0.63636000  1.0
  O  O142  1  0.52213000  0.78408000  0.90841000  1.0
  O  O143  1  0.47787000  0.21592000  0.09160000  1.0
  O  O144  1  0.54745000  0.73356000  0.76473000  1.0
  O  O145  1  0.45254000  0.26644000  0.23528000  1.0
  O  O146  1  0.62749000  0.35568000  0.22551000  1.0
  O  O147  1  0.37250000  0.64432000  0.77450000  1.0
  O  O148  1  0.73923000  0.25263000  0.32319000  1.0
  O  O149  1  0.26077000  0.74737000  0.67681000  1.0
  O  O150  1  0.39393000  0.04817000  0.05854000  1.0
  O  O151  1  0.60607000  0.95183000  0.94146000  1.0
  O  O152  1  0.25617000  0.93693000  0.14201000  1.0
  O  O153  1  0.74383000  0.06307000  0.85798000  1.0
  O  O154  1  0.70464000  0.13690000  0.19499000  1.0
  O  O155  1  0.29535000  0.86311000  0.80500000  1.0
  O  O156  1  0.72421000  0.12816000  0.03083000  1.0
  O  O157  1  0.27580000  0.87185000  0.96915000  1.0
  O  O158  1  0.60979000  0.85888000  0.52246000  1.0
  O  O159  1  0.39022000  0.14111000  0.47755000  1.0
  O  O160  1  0.64402000  0.03365000  0.46005000  1.0
  O  O161  1  0.35598000  0.96635000  0.53995000  1.0
  O  O162  1  0.56303000  0.96165000  0.15621000  1.0
  O  O163  1  0.43699000  0.03836000  0.84378000  1.0
  O  O164  1  0.50482000  0.81563000  0.15539000  1.0
  O  O165  1  0.49520000  0.18438000  0.84460000  1.0
  O  O166  1  0.35639000  0.71604000  0.13641000  1.0
  O  O167  1  0.64361000  0.28396000  0.86359000  1.0
  O  O168  1  0.49050000  0.97140000  0.66813000  1.0
  O  O169  1  0.50950000  0.02859000  0.33187000  1.0
  O  O170  1  0.47071000  0.74130000  0.52580000  1.0
  O  O171  1  0.52930000  0.25870000  0.47420000  1.0
