# generated using pymatgen
data_ZnH16C18(NO3)2
_symmetry_space_group_name_H-M   'P 1'
_cell_length_a   7.38207000
_cell_length_b   10.40730000
_cell_length_c   11.33190000
_cell_angle_alpha   89.99950000
_cell_angle_beta   89.99980000
_cell_angle_gamma   91.15580000
_symmetry_Int_Tables_number   1
_chemical_formula_structural   ZnH16C18(NO3)2
_chemical_formula_sum   'Zn2 H32 C36 N4 O12'
_cell_volume   870.42347701
_cell_formula_units_Z   2
loop_
 _symmetry_equiv_pos_site_id
 _symmetry_equiv_pos_as_xyz
  1  'x, y, z'
loop_
 _atom_site_type_symbol
 _atom_site_label
 _atom_site_symmetry_multiplicity
 _atom_site_fract_x
 _atom_site_fract_y
 _atom_site_fract_z
 _atom_site_occupancy
  Zn  Zn0  1  0.75000000  0.75000000  0.72388000  1.0
  Zn  Zn1  1  0.24999000  0.25000000  0.27612000  1.0
  H  H2  1  0.05775000  0.55298000  0.94194000  1.0
  H  H3  1  0.44226000  0.94702000  0.94195000  1.0
  H  H4  1  0.94225000  0.44701000  0.05805000  1.0
  H  H5  1  0.55774000  0.05298000  0.05806000  1.0
  H  H6  1  0.15610000  0.64767000  0.13371000  1.0
  H  H7  1  0.34390000  0.85232000  0.13371000  1.0
  H  H8  1  0.84390000  0.35232000  0.86629000  1.0
  H  H9  1  0.65610000  0.14767000  0.86629000  1.0
  H  H10  1  0.62763000  0.57011000  0.91770000  1.0
  H  H11  1  0.87239000  0.92989000  0.91769000  1.0
  H  H12  1  0.37238000  0.42989000  0.08230000  1.0
  H  H13  1  0.12762000  0.07011000  0.08231000  1.0
  H  H14  1  0.61401000  0.56476000  0.13927000  1.0
  H  H15  1  0.88601000  0.93525000  0.13927000  1.0
  H  H16  1  0.38600000  0.43525000  0.86073000  1.0
  H  H17  1  0.11400000  0.06476000  0.86074000  1.0
  H  H18  1  0.03846000  0.78776000  0.30497000  1.0
  H  H19  1  0.46155000  0.71225000  0.30497000  1.0
  H  H20  1  0.96154000  0.21224000  0.69503000  1.0
  H  H21  1  0.53846000  0.28776000  0.69503000  1.0
  H  H22  1  0.02851000  0.78105000  0.52522000  1.0
  H  H23  1  0.47149000  0.71896000  0.52522000  1.0
  H  H24  1  0.97148000  0.21895000  0.47478000  1.0
  H  H25  1  0.52850000  0.28104000  0.47478000  1.0
  H  H26  1  0.04860000  0.91763000  0.69079000  1.0
  H  H27  1  0.45141000  0.58238000  0.69079000  1.0
  H  H28  1  0.95140000  0.08237000  0.30921000  1.0
  H  H29  1  0.54859000  0.41762000  0.30921000  1.0
  H  H30  1  0.85116000  0.97546000  0.66063000  1.0
  H  H31  1  0.64885000  0.52454000  0.66063000  1.0
  H  H32  1  0.14884000  0.02454000  0.33937000  1.0
  H  H33  1  0.35116000  0.47546000  0.33937000  1.0
  C  C34  1  0.13405000  0.62950000  0.72285000  1.0
  C  C35  1  0.36596000  0.87050000  0.72285000  1.0
  C  C36  1  0.86595000  0.37049000  0.27715000  1.0
  C  C37  1  0.63404000  0.12950000  0.27715000  1.0
  C  C38  1  0.19475000  0.69427000  0.83595000  1.0
  C  C39  1  0.30526000  0.80573000  0.83595000  1.0
  C  C40  1  0.80525000  0.30573000  0.16405000  1.0
  C  C41  1  0.69474000  0.19426000  0.16405000  1.0
  C  C42  1  0.14309000  0.63929000  0.94392000  1.0
  C  C43  1  0.35690000  0.86071000  0.94392000  1.0
  C  C44  1  0.85690000  0.36070000  0.05608000  1.0
  C  C45  1  0.64309000  0.13928000  0.05608000  1.0
  C  C46  1  0.19730000  0.69344000  0.05102000  1.0
  C  C47  1  0.30270000  0.80656000  0.05102000  1.0
  C  C48  1  0.80269000  0.30655000  0.94898000  1.0
  C  C49  1  0.69729000  0.19344000  0.94898000  1.0
  C  C50  1  0.68009000  0.64963000  0.97083000  1.0
  C  C51  1  0.81992000  0.85037000  0.97083000  1.0
  C  C52  1  0.31991000  0.35037000  0.02917000  1.0
  C  C53  1  0.18009000  0.14964000  0.02917000  1.0
  C  C54  1  0.67421000  0.64701000  0.09332000  1.0
  C  C55  1  0.82580000  0.85299000  0.09331000  1.0
  C  C56  1  0.32579000  0.35299000  0.90668000  1.0
  C  C57  1  0.17421000  0.14702000  0.90669000  1.0
  C  C58  1  0.75000000  0.75000000  0.15696000  1.0
  C  C59  1  0.25000000  0.25000000  0.84304000  1.0
  C  C60  1  0.75001000  0.75001000  0.28706000  1.0
  C  C61  1  0.25000000  0.25000000  0.71293000  1.0
  C  C62  1  0.91021000  0.77131000  0.35071000  1.0
  C  C63  1  0.58980000  0.72870000  0.35071000  1.0
  C  C64  1  0.08979000  0.22869000  0.64929000  1.0
  C  C65  1  0.41020000  0.27131000  0.64929000  1.0
  C  C66  1  0.90515000  0.76832000  0.47320000  1.0
  C  C67  1  0.59486000  0.73169000  0.47320000  1.0
  C  C68  1  0.09484000  0.23168000  0.52680000  1.0
  C  C69  1  0.40514000  0.26831000  0.52680000  1.0
  N  N70  1  0.75000000  0.75000000  0.53363000  1.0
  N  N71  1  0.24999000  0.25000000  0.46637000  1.0
  N  N72  1  0.75000000  0.75000000  0.91010000  1.0
  N  N73  1  0.25000000  0.25000000  0.08990000  1.0
  O  O74  1  0.96437000  0.61449000  0.70641000  1.0
  O  O75  1  0.53564000  0.88552000  0.70641000  1.0
  O  O76  1  0.03563000  0.38552000  0.29359000  1.0
  O  O77  1  0.46436000  0.11448000  0.29359000  1.0
  O  O78  1  0.25465000  0.59044000  0.65221000  1.0
  O  O79  1  0.24536000  0.90958000  0.65221000  1.0
  O  O80  1  0.74535000  0.40956000  0.34779000  1.0
  O  O81  1  0.75464000  0.09043000  0.34779000  1.0
  O  O82  1  0.91595000  0.92554000  0.71907000  1.0
  O  O83  1  0.58405000  0.57447000  0.71907000  1.0
  O  O84  1  0.08405000  0.07446000  0.28093000  1.0
  O  O85  1  0.41595000  0.42553000  0.28093000  1.0
