# generated using pymatgen
data_CdH21C22S(NO2)3
_symmetry_space_group_name_H-M   'P 1'
_cell_length_a   4.95751000
_cell_length_b   12.45940000
_cell_length_c   18.31550000
_cell_angle_alpha   93.07910000
_cell_angle_beta   90.00390000
_cell_angle_gamma   101.44800000
_symmetry_Int_Tables_number   1
_chemical_formula_structural   CdH21C22S(NO2)3
_chemical_formula_sum   'Cd2 H42 C44 S2 N6 O12'
_cell_volume   1107.13017715
_cell_formula_units_Z   2
loop_
 _symmetry_equiv_pos_site_id
 _symmetry_equiv_pos_as_xyz
  1  'x, y, z'
loop_
 _atom_site_type_symbol
 _atom_site_label
 _atom_site_symmetry_multiplicity
 _atom_site_fract_x
 _atom_site_fract_y
 _atom_site_fract_z
 _atom_site_occupancy
  Cd  Cd0  1  0.87560000  0.75384000  0.65115000  1.0
  Cd  Cd1  1  0.12197000  0.24605000  0.34882000  1.0
  H  H2  1  0.00416000  0.41486000  0.73375000  1.0
  H  H3  1  0.58901000  0.58522000  0.26622000  1.0
  H  H4  1  0.56336000  0.50590000  0.67830000  1.0
  H  H5  1  0.05723000  0.49395000  0.32159000  1.0
  H  H6  1  0.35897000  0.51803000  0.55657000  1.0
  H  H7  1  0.84104000  0.48189000  0.44335000  1.0
  H  H8  1  0.03494000  0.44724000  0.58493000  1.0
  H  H9  1  0.58763000  0.55270000  0.41501000  1.0
  H  H10  1  0.25270000  0.28209000  0.60752000  1.0
  H  H11  1  0.97043000  0.71777000  0.39231000  1.0
  H  H12  1  0.56809000  0.35558000  0.57525000  1.0
  H  H13  1  0.21226000  0.64427000  0.42470000  1.0
  H  H14  1  0.04692000  0.44470000  0.91507000  1.0
  H  H15  1  0.60268000  0.55560000  0.08472000  1.0
  H  H16  1  0.12850000  0.59710000  0.01005000  1.0
  H  H17  1  0.53208000  0.40301000  0.98987000  1.0
  H  H18  1  0.88089000  0.73933000  0.90430000  1.0
  H  H19  1  0.14169000  0.26067000  0.09596000  1.0
  H  H20  1  0.80139000  0.58663000  0.80933000  1.0
  H  H21  1  0.21501000  0.41365000  0.19074000  1.0
  H  H22  1  0.39728000  0.76192000  0.06266000  1.0
  H  H23  1  0.63514000  0.23791000  0.93763000  1.0
  H  H24  1  0.62406000  0.84880000  0.00481000  1.0
  H  H25  1  0.77515000  0.15111000  0.99555000  1.0
  H  H26  1  0.74923000  0.75557000  0.05893000  1.0
  H  H27  1  0.99333000  0.24401000  0.94123000  1.0
  H  H28  1  0.27414000  0.74766000  0.79205000  1.0
  H  H29  1  0.52647000  0.25231000  0.20814000  1.0
  H  H30  1  0.50907000  0.86784000  0.89615000  1.0
  H  H31  1  0.64229000  0.13224000  0.10410000  1.0
  H  H32  1  0.42800000  0.06191000  0.91184000  1.0
  H  H33  1  0.36724000  0.93826000  0.08811000  1.0
  H  H34  1  0.12993000  0.12600000  0.82247000  1.0
  H  H35  1  0.00449000  0.87407000  0.17729000  1.0
  H  H36  1  0.89429000  0.17212000  0.74769000  1.0
  H  H37  1  0.72230000  0.82784000  0.25217000  1.0
  H  H38  1  0.58732000  0.21771000  0.65374000  1.0
  H  H39  1  0.37005000  0.78230000  0.34619000  1.0
  H  H40  1  0.37730000  0.07421000  0.55749000  1.0
  H  H41  1  0.30416000  0.92573000  0.44258000  1.0
  H  H42  1  0.49103000  0.88581000  0.56165000  1.0
  H  H43  1  0.60656000  0.11401000  0.43851000  1.0
  C  C44  1  0.24817000  0.60416000  0.68559000  1.0
  C  C45  1  0.64402000  0.39573000  0.31436000  1.0
  C  C46  1  0.33915000  0.49445000  0.67165000  1.0
  C  C47  1  0.84449000  0.50544000  0.32827000  1.0
  C  C48  1  0.25815000  0.45438000  0.59220000  1.0
  C  C49  1  0.80371000  0.54554000  0.40772000  1.0
  C  C50  1  0.34255000  0.34615000  0.57065000  1.0
  C  C51  1  0.99615000  0.65376000  0.42923000  1.0
  C  C52  1  0.26432000  0.30330000  0.49271000  1.0
  C  C53  1  0.96074000  0.69676000  0.50715000  1.0
  C  C54  1  0.42139000  0.50555000  0.85766000  1.0
  C  C55  1  0.91635000  0.49479000  0.14223000  1.0
  C  C56  1  0.22898000  0.50958000  0.91297000  1.0
  C  C57  1  0.71995000  0.49072000  0.08688000  1.0
  C  C58  1  0.27624000  0.59569000  0.96609000  1.0
  C  C59  1  0.68125000  0.40451000  0.03384000  1.0
  C  C60  1  0.51281000  0.67857000  0.96478000  1.0
  C  C61  1  0.83470000  0.32150000  0.03531000  1.0
  C  C62  1  0.69642000  0.67514000  0.90676000  1.0
  C  C63  1  0.02165000  0.32498000  0.09337000  1.0
  C  C64  1  0.65375000  0.58946000  0.85324000  1.0
  C  C65  1  0.06475000  0.41082000  0.14678000  1.0
  C  C66  1  0.57266000  0.76603000  0.02562000  1.0
  C  C67  1  0.80657000  0.23380000  0.97461000  1.0
  C  C68  1  0.24611000  0.83175000  0.80125000  1.0
  C  C69  1  0.41461000  0.16821000  0.19886000  1.0
  C  C70  1  0.37545000  0.89926000  0.85924000  1.0
  C  C71  1  0.47695000  0.10076000  0.14089000  1.0
  C  C72  1  0.33006000  0.00607000  0.86745000  1.0
  C  C73  1  0.32486000  0.99401000  0.13255000  1.0
  C  C74  1  0.16076000  0.04194000  0.81757000  1.0
  C  C75  1  0.11937000  0.95809000  0.18231000  1.0
  C  C76  1  0.03874000  0.96954000  0.76010000  1.0
  C  C77  1  0.06952000  0.03038000  0.23984000  1.0
  C  C78  1  0.85887000  0.00349000  0.70449000  1.0
  C  C79  1  0.85577000  0.99639000  0.29545000  1.0
  C  C80  1  0.80405000  0.10963000  0.70611000  1.0
  C  C81  1  0.69474000  0.89031000  0.29381000  1.0
  C  C82  1  0.63081000  0.13545000  0.65281000  1.0
  C  C83  1  0.49599000  0.86451000  0.34717000  1.0
  C  C84  1  0.51412000  0.05559000  0.59962000  1.0
  C  C85  1  0.45951000  0.94431000  0.40045000  1.0
  C  C86  1  0.57980000  0.95179000  0.60132000  1.0
  C  C87  1  0.62908000  0.04803000  0.39880000  1.0
  S  S88  1  0.37237000  0.38930000  0.79471000  1.0
  S  S89  1  0.98273000  0.61090000  0.20528000  1.0
  N  N90  1  0.20693000  0.41271000  0.72254000  1.0
  N  N91  1  0.79388000  0.58720000  0.27739000  1.0
  N  N92  1  0.08217000  0.86593000  0.75316000  1.0
  N  N93  1  0.21636000  0.13396000  0.24687000  1.0
  N  N94  1  0.74825000  0.92698000  0.65224000  1.0
  N  N95  1  0.82197000  0.07283000  0.34781000  1.0
  O  O96  1  0.19287000  0.30158000  0.83037000  1.0
  O  O97  1  0.89026000  0.69861000  0.16974000  1.0
  O  O98  1  0.64194000  0.37385000  0.77151000  1.0
  O  O99  1  0.26775000  0.62649000  0.22849000  1.0
  O  O100  1  0.00387000  0.60076000  0.70846000  1.0
  O  O101  1  0.40312000  0.39912000  0.29146000  1.0
  O  O102  1  0.40633000  0.69285000  0.66964000  1.0
  O  O103  1  0.71362000  0.30704000  0.33034000  1.0
  O  O104  1  0.27508000  0.20450000  0.47349000  1.0
  O  O105  1  0.06967000  0.79561000  0.52630000  1.0
  O  O106  1  0.19253000  0.36874000  0.44848000  1.0
  O  O107  1  0.82398000  0.63131000  0.55144000  1.0
