# generated using pymatgen
data_ZnH6C8S2(N2O3)2
_symmetry_space_group_name_H-M   'P 1'
_cell_length_a   7.05829000
_cell_length_b   10.47468092
_cell_length_c   11.94130000
_cell_angle_alpha   88.12508844
_cell_angle_beta   75.92010000
_cell_angle_gamma   88.61546148
_symmetry_Int_Tables_number   1
_chemical_formula_structural   ZnH6C8S2(N2O3)2
_chemical_formula_sum   'Zn2 H12 C16 S4 N8 O12'
_cell_volume   855.75873754
_cell_formula_units_Z   2
loop_
 _symmetry_equiv_pos_site_id
 _symmetry_equiv_pos_as_xyz
  1  'x, y, z'
loop_
 _atom_site_type_symbol
 _atom_site_label
 _atom_site_symmetry_multiplicity
 _atom_site_fract_x
 _atom_site_fract_y
 _atom_site_fract_z
 _atom_site_occupancy
  Zn  Zn0  1  0.34678000  0.96712000  0.99483000  1.0
  Zn  Zn1  1  0.12932000  0.45291000  0.49370000  1.0
  H  H2  1  0.03712000  0.99253000  0.12644000  1.0
  H  H3  1  0.96619000  0.92466000  0.02011000  1.0
  H  H4  1  0.69434000  0.89765000  0.01231000  1.0
  H  H5  1  0.79671000  0.02649000  0.96172000  1.0
  H  H6  1  0.48881000  0.37147000  0.48640000  1.0
  H  H7  1  0.54946000  0.48200000  0.55559000  1.0
  H  H8  1  0.77286000  0.39929000  0.47271000  1.0
  H  H9  1  0.91039000  0.49482000  0.37566000  1.0
  H  H10  1  0.95598000  0.15643000  0.77434000  1.0
  H  H11  1  0.43691000  0.81745000  0.34208000  1.0
  H  H12  1  0.50921000  0.33128000  0.14697000  1.0
  H  H13  1  0.39262000  0.67263000  0.73201000  1.0
  C  C14  1  0.91833000  0.26101000  0.93441000  1.0
  C  C15  1  0.36854000  0.78747000  0.17573000  1.0
  C  C16  1  0.32545000  0.16762000  0.14152000  1.0
  C  C17  1  0.48856000  0.86381000  0.75864000  1.0
  C  C18  1  0.21716000  0.66954000  0.35653000  1.0
  C  C19  1  0.03933000  0.35519000  0.73544000  1.0
  C  C20  1  0.31637000  0.28784000  0.31655000  1.0
  C  C21  1  0.62044000  0.73648000  0.58254000  1.0
  C  C22  1  0.96647000  0.24936000  0.81068000  1.0
  C  C23  1  0.03467000  0.46651000  0.89576000  1.0
  C  C24  1  0.34547000  0.76690000  0.29725000  1.0
  C  C25  1  0.14529000  0.63312000  0.18337000  1.0
  C  C26  1  0.39422000  0.26986000  0.19599000  1.0
  C  C27  1  0.13185000  0.11342000  0.32026000  1.0
  C  C28  1  0.48825000  0.75118000  0.69463000  1.0
  C  C29  1  0.72036000  0.93799000  0.60465000  1.0
  S  S30  1  0.08618000  0.61126000  0.95422000  1.0
  S  S31  1  0.99342000  0.54411000  0.11966000  1.0
  S  S32  1  0.96278000  0.99645000  0.38742000  1.0
  S  S33  1  0.86257000  0.07235000  0.54529000  1.0
  N  N34  1  0.97015000  0.37459000  0.97325000  1.0
  N  N35  1  0.28140000  0.70583000  0.11759000  1.0
  N  N36  1  0.18084000  0.09334000  0.20688000  1.0
  N  N37  1  0.61020000  0.96069000  0.71109000  1.0
  N  N38  1  0.09998000  0.61283000  0.29744000  1.0
  N  N39  1  0.06739000  0.46922000  0.78068000  1.0
  N  N40  1  0.19264000  0.19994000  0.38073000  1.0
  N  N41  1  0.73806000  0.83847000  0.53818000  1.0
  O  O42  1  0.84701000  0.17176000  0.00356000  1.0
  O  O43  1  0.47110000  0.88000000  0.11955000  1.0
  O  O44  1  0.39517000  0.14309000  0.03367000  1.0
  O  O45  1  0.37056000  0.87026000  0.85934000  1.0
  O  O46  1  0.20918000  0.63399000  0.46186000  1.0
  O  O47  1  0.07093000  0.33945000  0.62618000  1.0
  O  O48  1  0.36087000  0.38648000  0.36711000  1.0
  O  O49  1  0.63254000  0.63475000  0.52790000  1.0
  O  O50  1  0.06668000  0.92423000  0.06940000  1.0
  O  O51  1  0.80524000  0.93155000  0.95260000  1.0
  O  O52  1  0.55807000  0.38750000  0.54678000  1.0
  O  O53  1  0.90964000  0.41386000  0.42077000  1.0
