# generated using pymatgen
data_ZnH17C20SN3(ClO2)2
_symmetry_space_group_name_H-M   'P 1'
_cell_length_a   10.07210000
_cell_length_b   10.07340000
_cell_length_c   12.62208621
_cell_angle_alpha   99.23645184
_cell_angle_beta   105.06054440
_cell_angle_gamma   118.22900000
_symmetry_Int_Tables_number   1
_chemical_formula_structural   ZnH17C20SN3(ClO2)2
_chemical_formula_sum   'Zn2 H34 C40 S2 N6 Cl4 O8'
_cell_volume   1027.34197929
_cell_formula_units_Z   2
loop_
 _symmetry_equiv_pos_site_id
 _symmetry_equiv_pos_as_xyz
  1  'x, y, z'
loop_
 _atom_site_type_symbol
 _atom_site_label
 _atom_site_symmetry_multiplicity
 _atom_site_fract_x
 _atom_site_fract_y
 _atom_site_fract_z
 _atom_site_occupancy
  Zn  Zn0  1  0.55089000  0.97367000  0.83066000  1.0
  Zn  Zn1  1  0.14309000  0.72022000  0.16929000  1.0
  H  H2  1  0.78870000  0.96781000  0.97750000  1.0
  H  H3  1  0.99045000  0.81123000  0.02247000  1.0
  H  H4  1  0.34564000  0.28703000  0.78273000  1.0
  H  H5  1  0.50438000  0.56295000  0.21729000  1.0
  H  H6  1  0.93505000  0.23392000  0.94771000  1.0
  H  H7  1  0.28634000  0.98751000  0.05219000  1.0
  H  H8  1  0.38592000  0.95175000  0.59321000  1.0
  H  H9  1  0.35842000  0.79275000  0.40671000  1.0
  H  H10  1  0.36805000  0.13399000  0.48508000  1.0
  H  H11  1  0.64883000  0.88325000  0.51500000  1.0
  H  H12  1  0.75946000  0.53147000  0.79130000  1.0
  H  H13  1  0.74032000  0.96806000  0.20871000  1.0
  H  H14  1  0.76398000  0.33208000  0.88578000  1.0
  H  H15  1  0.44647000  0.87816000  0.11413000  1.0
  H  H16  1  0.55523000  0.55608000  0.62837000  1.0
  H  H17  1  0.92773000  0.92698000  0.37171000  1.0
  H  H18  1  0.43951000  0.39731000  0.49226000  1.0
  H  H19  1  0.90515000  0.94748000  0.50786000  1.0
  H  H20  1  0.81205000  0.61906000  0.61088000  1.0
  H  H21  1  0.00834000  0.20126000  0.38909000  1.0
  H  H22  1  0.68344000  0.62543000  0.48984000  1.0
  H  H23  1  0.13573000  0.19369000  0.51013000  1.0
  H  H24  1  0.73327000  0.34783000  0.49670000  1.0
  H  H25  1  0.85125000  0.23669000  0.50327000  1.0
  H  H26  1  0.59175000  0.34102000  0.37771000  1.0
  H  H27  1  0.96338000  0.21410000  0.62225000  1.0
  H  H28  1  0.76814000  0.27104000  0.28410000  1.0
  H  H29  1  0.98681000  0.48388000  0.71588000  1.0
  H  H30  1  0.95746000  0.39909000  0.18796000  1.0
  H  H31  1  0.21094000  0.76932000  0.81210000  1.0
  H  H32  1  0.12712000  0.85277000  0.39666000  1.0
  H  H33  1  0.45623000  0.73058000  0.60348000  1.0
  H  H34  1  0.94735000  0.74398000  0.50318000  1.0
  H  H35  1  0.24103000  0.44437000  0.49692000  1.0
  C  C36  1  0.15049000  0.39899000  0.92579000  1.0
  C  C37  1  0.47331000  0.22489000  0.07410000  1.0
  C  C38  1  0.26753000  0.41225000  0.87957000  1.0
  C  C39  1  0.53277000  0.38811000  0.12035000  1.0
  C  C40  1  0.25323000  0.27527000  0.81677000  1.0
  C  C41  1  0.45857000  0.43654000  0.18321000  1.0
  C  C42  1  0.12139000  0.12417000  0.79755000  1.0
  C  C43  1  0.32671000  0.32389000  0.20244000  1.0
  C  C44  1  0.00375000  0.10704000  0.84390000  1.0
  C  C45  1  0.26324000  0.15993000  0.15605000  1.0
  C  C46  1  0.02265000  0.24505000  0.90849000  1.0
  C  C47  1  0.33667000  0.11430000  0.09140000  1.0
  C  C48  1  0.15324000  0.53917000  0.99208000  1.0
  C  C49  1  0.54722000  0.16136000  0.00781000  1.0
  C  C50  1  0.46868000  0.08099000  0.63283000  1.0
  C  C51  1  0.44812000  0.83602000  0.36714000  1.0
  C  C52  1  0.45807000  0.18275000  0.57383000  1.0
  C  C53  1  0.60892000  0.88455000  0.42624000  1.0
  C  C54  1  0.56240000  0.34834000  0.62990000  1.0
  C  C55  1  0.71852000  0.93278000  0.37020000  1.0
  C  C56  1  0.67647000  0.40346000  0.74353000  1.0
  C  C57  1  0.66003000  0.93300000  0.25649000  1.0
  C  C58  1  0.68078000  0.29397000  0.79641000  1.0
  C  C59  1  0.49764000  0.88437000  0.20353000  1.0
  C  C60  1  0.55416000  0.46227000  0.56955000  1.0
  C  C61  1  0.89283000  0.98484000  0.43056000  1.0
  C  C62  1  0.69855000  0.54371000  0.53259000  1.0
  C  C63  1  0.01129000  0.16613000  0.46742000  1.0
  C  C64  1  0.71049000  0.42422000  0.45117000  1.0
  C  C65  1  0.97318000  0.25946000  0.54882000  1.0
  C  C66  1  0.83804000  0.49672000  0.40137000  1.0
  C  C67  1  0.09544000  0.43675000  0.59868000  1.0
  C  C68  1  0.84851000  0.40087000  0.31460000  1.0
  C  C69  1  0.08621000  0.53388000  0.68543000  1.0
  C  C70  1  0.95461000  0.47081000  0.26043000  1.0
  C  C71  1  0.21026000  0.69408000  0.73963000  1.0
  C  C72  1  0.04937000  0.72429000  0.37733000  1.0
  C  C73  1  0.34704000  0.67212000  0.62278000  1.0
  C  C74  1  0.94644000  0.66217000  0.43503000  1.0
  C  C75  1  0.22731000  0.51155000  0.56508000  1.0
  S  S76  1  0.82737000  0.91529000  0.81910000  1.0
  S  S77  1  0.09634000  0.00826000  0.18089000  1.0
  N  N78  1  0.73081000  0.94380000  0.89032000  1.0
  N  N79  1  0.05371000  0.84056000  0.10963000  1.0
  N  N80  1  0.57727000  0.13431000  0.74231000  1.0
  N  N81  1  0.39201000  0.83498000  0.25761000  1.0
  N  N82  1  0.05178000  0.63092000  0.28946000  1.0
  N  N83  1  0.34140000  0.76229000  0.71064000  1.0
  Cl  Cl84  1  0.43707000  0.59278000  0.89993000  1.0
  Cl  Cl85  1  0.69300000  0.53730000  0.10002000  1.0
  Cl  Cl86  1  0.11014000  0.96181000  0.71563000  1.0
  Cl  Cl87  1  0.24628000  0.39446000  0.28446000  1.0
  O  O88  1  0.21288000  0.66803000  0.97184000  1.0
  O  O89  1  0.69633000  0.24122000  0.02806000  1.0
  O  O90  1  0.08816000  0.51314000  0.06872000  1.0
  O  O91  1  0.44456000  0.01965000  0.93122000  1.0
  O  O92  1  0.89138000  0.82115000  0.85946000  1.0
  O  O93  1  0.96175000  0.03179000  0.14054000  1.0
  O  O94  1  0.72851000  0.85880000  0.69487000  1.0
  O  O95  1  0.16416000  0.03361000  0.30511000  1.0
