# generated using pymatgen
data_CdH11C7(NO2)3
_symmetry_space_group_name_H-M   'P 1'
_cell_length_a   7.56345000
_cell_length_b   7.99946000
_cell_length_c   10.27480000
_cell_angle_alpha   75.36930000
_cell_angle_beta   79.49090000
_cell_angle_gamma   67.74730000
_symmetry_Int_Tables_number   1
_chemical_formula_structural   CdH11C7(NO2)3
_chemical_formula_sum   'Cd2 H22 C14 N6 O12'
_cell_volume   554.08754485
_cell_formula_units_Z   2
loop_
 _symmetry_equiv_pos_site_id
 _symmetry_equiv_pos_as_xyz
  1  'x, y, z'
loop_
 _atom_site_type_symbol
 _atom_site_label
 _atom_site_symmetry_multiplicity
 _atom_site_fract_x
 _atom_site_fract_y
 _atom_site_fract_z
 _atom_site_occupancy
  Cd  Cd0  1  0.22708000  0.34829000  0.09713000  1.0
  Cd  Cd1  1  0.77292000  0.65171000  0.90287000  1.0
  H  H2  1  0.97252000  0.03265000  0.84971000  1.0
  H  H3  1  0.02750000  0.96735000  0.15029000  1.0
  H  H4  1  0.79036000  0.03259000  0.98161000  1.0
  H  H5  1  0.20966000  0.96741000  0.01839000  1.0
  H  H6  1  0.26570000  0.27689000  0.43139000  1.0
  H  H7  1  0.73429000  0.72311000  0.56861000  1.0
  H  H8  1  0.97758000  0.22710000  0.63052000  1.0
  H  H9  1  0.02242000  0.77289000  0.36948000  1.0
  H  H10  1  0.80599000  0.28198000  0.24782000  1.0
  H  H11  1  0.19399000  0.71803000  0.75218000  1.0
  H  H12  1  0.68129000  0.12515000  0.61041000  1.0
  H  H13  1  0.31871000  0.87486000  0.38959000  1.0
  H  H14  1  0.59465000  0.20054000  0.44808000  1.0
  H  H15  1  0.40534000  0.79945000  0.55193000  1.0
  H  H16  1  0.58809000  0.45016000  0.63489000  1.0
  H  H17  1  0.41190000  0.54984000  0.36511000  1.0
  H  H18  1  0.39123000  0.39709000  0.61362000  1.0
  H  H19  1  0.60876000  0.60292000  0.38638000  1.0
  H  H20  1  0.52430000  0.35659000  0.89027000  1.0
  H  H21  1  0.47571000  0.64341000  0.10974000  1.0
  H  H22  1  0.43444000  0.21759000  0.87055000  1.0
  H  H23  1  0.56557000  0.78241000  0.12945000  1.0
  C  C24  1  0.87859000  0.26545000  0.94000000  1.0
  C  C25  1  0.12142000  0.73455000  0.06000000  1.0
  C  C26  1  0.92461000  0.06139000  0.95214000  1.0
  C  C27  1  0.07540000  0.93861000  0.04785000  1.0
  C  C28  1  0.12820000  0.27035000  0.42242000  1.0
  C  C29  1  0.87180000  0.72964000  0.57758000  1.0
  C  C30  1  0.98711000  0.24542000  0.52185000  1.0
  C  C31  1  0.01289000  0.75458000  0.47815000  1.0
  C  C32  1  0.89581000  0.27304000  0.32221000  1.0
  C  C33  1  0.10418000  0.72696000  0.67779000  1.0
  C  C34  1  0.65586000  0.23747000  0.52102000  1.0
  C  C35  1  0.34414000  0.76253000  0.47898000  1.0
  C  C36  1  0.52299000  0.41944000  0.56037000  1.0
  C  C37  1  0.47701000  0.58056000  0.43963000  1.0
  N  N38  1  0.06965000  0.28729000  0.29832000  1.0
  N  N39  1  0.93034000  0.71272000  0.70168000  1.0
  N  N40  1  0.84211000  0.24669000  0.45682000  1.0
  N  N41  1  0.15788000  0.75332000  0.54318000  1.0
  N  N42  1  0.57114000  0.04441000  0.21640000  1.0
  N  N43  1  0.42886000  0.95559000  0.78360000  1.0
  O  O44  1  0.97943000  0.32493000  0.99015000  1.0
  O  O45  1  0.02059000  0.67507000  0.00984000  1.0
  O  O46  1  0.39813000  0.33952000  0.89562000  1.0
  O  O47  1  0.60188000  0.66048000  0.10438000  1.0
  O  O48  1  0.73559000  0.37878000  0.87552000  1.0
  O  O49  1  0.26441000  0.62122000  0.12449000  1.0
  O  O50  1  0.45784000  0.00547000  0.15841000  1.0
  O  O51  1  0.54216000  0.99453000  0.84159000  1.0
  O  O52  1  0.53621000  0.21387000  0.21444000  1.0
  O  O53  1  0.46379000  0.78613000  0.78556000  1.0
  O  O54  1  0.70900000  0.91943000  0.27174000  1.0
  O  O55  1  0.29101000  0.08057000  0.72825000  1.0
