# generated using pymatgen
data_CdH26C16S2(N2O3)2
_symmetry_space_group_name_H-M   'P 1'
_cell_length_a   8.11320000
_cell_length_b   9.41502000
_cell_length_c   13.80130000
_cell_angle_alpha   90.00040000
_cell_angle_beta   89.92760000
_cell_angle_gamma   89.99990000
_symmetry_Int_Tables_number   1
_chemical_formula_structural   CdH26C16S2(N2O3)2
_chemical_formula_sum   'Cd2 H52 C32 S4 N8 O12'
_cell_volume   1054.22443568
_cell_formula_units_Z   2
loop_
 _symmetry_equiv_pos_site_id
 _symmetry_equiv_pos_as_xyz
  1  'x, y, z'
loop_
 _atom_site_type_symbol
 _atom_site_label
 _atom_site_symmetry_multiplicity
 _atom_site_fract_x
 _atom_site_fract_y
 _atom_site_fract_z
 _atom_site_occupancy
  Cd  Cd0  1  0.00000000  0.00000000  0.50000000  1.0
  Cd  Cd1  1  0.50000000  0.50000000  0.00000000  1.0
  H  H2  1  0.73083000  0.89225000  0.38157000  1.0
  H  H3  1  0.23083000  0.60775000  0.88157000  1.0
  H  H4  1  0.26917000  0.10775000  0.61843000  1.0
  H  H5  1  0.76918000  0.39226000  0.11843000  1.0
  H  H6  1  0.90161000  0.80968000  0.34702000  1.0
  H  H7  1  0.40161000  0.69031000  0.84702000  1.0
  H  H8  1  0.09839000  0.19031000  0.65298000  1.0
  H  H9  1  0.59839000  0.30969000  0.15299000  1.0
  H  H10  1  0.90339000  0.80917000  0.64546000  1.0
  H  H11  1  0.40339000  0.69084000  0.14546000  1.0
  H  H12  1  0.09661000  0.19083000  0.35454000  1.0
  H  H13  1  0.59661000  0.30916000  0.85454000  1.0
  H  H14  1  0.34900000  0.31221000  0.37170000  1.0
  H  H15  1  0.84900000  0.18780000  0.87171000  1.0
  H  H16  1  0.65099000  0.68780000  0.62829000  1.0
  H  H17  1  0.15100000  0.81221000  0.12830000  1.0
  H  H18  1  0.30480000  0.56996000  0.34019000  1.0
  H  H19  1  0.80482000  0.93003000  0.84019000  1.0
  H  H20  1  0.69518000  0.43004000  0.65980000  1.0
  H  H21  1  0.19520000  0.06996000  0.15981000  1.0
  H  H22  1  0.54213000  0.87902000  0.52462000  1.0
  H  H23  1  0.04213000  0.62098000  0.02463000  1.0
  H  H24  1  0.45787000  0.12098000  0.47537000  1.0
  H  H25  1  0.95787000  0.37901000  0.97539000  1.0
  H  H26  1  0.99411000  0.99250000  0.25514000  1.0
  H  H27  1  0.49410000  0.50749000  0.75513000  1.0
  H  H28  1  0.00590000  0.00749000  0.74487000  1.0
  H  H29  1  0.50590000  0.49252000  0.24487000  1.0
  H  H30  1  0.77959000  0.98892000  0.22981000  1.0
  H  H31  1  0.27958000  0.51108000  0.72981000  1.0
  H  H32  1  0.22041000  0.01108000  0.77019000  1.0
  H  H33  1  0.72042000  0.48893000  0.27019000  1.0
  H  H34  1  0.14415000  0.76603000  0.73940000  1.0
  H  H35  1  0.64415000  0.73398000  0.23939000  1.0
  H  H36  1  0.85586000  0.23396000  0.26060000  1.0
  H  H37  1  0.35585000  0.26603000  0.76061000  1.0
  H  H38  1  0.26493000  0.82603000  0.63968000  1.0
  H  H39  1  0.76493000  0.67397000  0.13968000  1.0
  H  H40  1  0.73508000  0.17396000  0.36032000  1.0
  H  H41  1  0.23507000  0.32603000  0.86032000  1.0
  H  H42  1  0.03134000  0.57840000  0.62411000  1.0
  H  H43  1  0.53133000  0.92160000  0.12410000  1.0
  H  H44  1  0.96866000  0.42160000  0.37589000  1.0
  H  H45  1  0.46866000  0.07840000  0.87590000  1.0
  H  H46  1  0.92313000  0.63974000  0.51960000  1.0
  H  H47  1  0.42312000  0.86026000  0.01960000  1.0
  H  H48  1  0.07687000  0.36025000  0.48040000  1.0
  H  H49  1  0.57687000  0.13975000  0.98040000  1.0
  H  H50  1  0.14198000  0.65402000  0.52396000  1.0
  H  H51  1  0.64198000  0.84598000  0.02395000  1.0
  H  H52  1  0.85802000  0.34598000  0.47604000  1.0
  H  H53  1  0.35802000  0.15403000  0.97605000  1.0
  C  C54  1  0.41968000  0.33776000  0.43652000  1.0
  C  C55  1  0.91969000  0.16224000  0.93653000  1.0
  C  C56  1  0.58029000  0.66225000  0.56347000  1.0
  C  C57  1  0.08033000  0.83775000  0.06348000  1.0
  C  C58  1  0.44970000  0.48267000  0.45898000  1.0
  C  C59  1  0.94972000  0.01733000  0.95899000  1.0
  C  C60  1  0.55027000  0.51733000  0.54101000  1.0
  C  C61  1  0.05029000  0.98266000  0.04102000  1.0
  C  C62  1  0.38422000  0.59430000  0.40165000  1.0
  C  C63  1  0.88423000  0.90570000  0.90166000  1.0
  C  C64  1  0.61576000  0.40570000  0.59834000  1.0
  C  C65  1  0.11578000  0.09430000  0.09835000  1.0
  C  C66  1  0.42044000  0.73352000  0.42414000  1.0
  C  C67  1  0.92046000  0.76648000  0.92415000  1.0
  C  C68  1  0.57954000  0.26648000  0.57585000  1.0
  C  C69  1  0.07955000  0.23352000  0.07586000  1.0
  C  C70  1  0.51746000  0.76864000  0.50603000  1.0
  C  C71  1  0.01748000  0.73136000  0.00604000  1.0
  C  C72  1  0.48253000  0.23136000  0.49396000  1.0
  C  C73  1  0.98254000  0.26863000  0.99397000  1.0
  C  C74  1  0.87157000  0.00839000  0.28679000  1.0
  C  C75  1  0.37156000  0.49160000  0.78679000  1.0
  C  C76  1  0.12844000  0.99160000  0.71321000  1.0
  C  C77  1  0.62844000  0.50841000  0.21321000  1.0
  C  C78  1  0.85386000  0.16060000  0.32283000  1.0
  C  C79  1  0.35385000  0.33940000  0.82283000  1.0
  C  C80  1  0.14615000  0.83940000  0.67717000  1.0
  C  C81  1  0.64615000  0.66060000  0.17717000  1.0
  C  C82  1  0.02870000  0.66058000  0.56718000  1.0
  C  C83  1  0.52870000  0.83942000  0.06717000  1.0
  C  C84  1  0.97130000  0.33942000  0.43282000  1.0
  C  C85  1  0.47129000  0.16058000  0.93282000  1.0
  S  S86  1  0.34906000  0.87511000  0.34970000  1.0
  S  S87  1  0.84907000  0.62489000  0.84971000  1.0
  S  S88  1  0.65093000  0.12490000  0.65029000  1.0
  S  S89  1  0.15094000  0.37511000  0.15030000  1.0
  N  N90  1  0.85398000  0.90566000  0.36720000  1.0
  N  N91  1  0.35397000  0.59433000  0.86720000  1.0
  N  N92  1  0.14603000  0.09433000  0.63280000  1.0
  N  N93  1  0.64603000  0.40567000  0.13280000  1.0
  N  N94  1  0.98696000  0.19601000  0.39156000  1.0
  N  N95  1  0.48695000  0.30399000  0.89156000  1.0
  N  N96  1  0.01304000  0.80399000  0.60844000  1.0
  N  N97  1  0.51304000  0.69601000  0.10844000  1.0
  O  O98  1  0.49890000  0.94415000  0.31298000  1.0
  O  O99  1  0.99889000  0.55585000  0.81298000  1.0
  O  O100  1  0.50110000  0.05586000  0.68701000  1.0
  O  O101  1  0.00111000  0.44415000  0.18701000  1.0
  O  O102  1  0.25778000  0.97042000  0.41639000  1.0
  O  O103  1  0.75778000  0.52958000  0.91639000  1.0
  O  O104  1  0.74221000  0.02958000  0.58360000  1.0
  O  O105  1  0.24222000  0.47042000  0.08361000  1.0
  O  O106  1  0.24448000  0.81175000  0.27483000  1.0
  O  O107  1  0.74448000  0.68825000  0.77484000  1.0
  O  O108  1  0.75552000  0.18826000  0.72516000  1.0
  O  O109  1  0.25553000  0.31175000  0.22517000  1.0
