# generated using pymatgen
data_Al6H24C72O29
_symmetry_space_group_name_H-M   'P 1'
_cell_length_a   13.06220000
_cell_length_b   13.12830000
_cell_length_c   26.71260000
_cell_angle_alpha   83.07690000
_cell_angle_beta   83.00030000
_cell_angle_gamma   61.91530000
_symmetry_Int_Tables_number   1
_chemical_formula_structural   Al6H24C72O29
_chemical_formula_sum   'Al6 H24 C72 O29'
_cell_volume   4000.84825990
_cell_formula_units_Z   1
loop_
 _symmetry_equiv_pos_site_id
 _symmetry_equiv_pos_as_xyz
  1  'x, y, z'
loop_
 _atom_site_type_symbol
 _atom_site_label
 _atom_site_symmetry_multiplicity
 _atom_site_fract_x
 _atom_site_fract_y
 _atom_site_fract_z
 _atom_site_occupancy
  Al  Al0  1  0.41200000  0.40959000  0.50891000  1.0
  Al  Al1  1  0.65112000  0.42719000  0.49402000  1.0
  Al  Al2  1  0.42751000  0.64858000  0.49744000  1.0
  Al  Al3  1  0.92413000  0.92845000  0.97893000  1.0
  Al  Al4  1  0.90994000  0.68832000  0.99572000  1.0
  Al  Al5  1  0.68560000  0.91015000  0.99250000  1.0
  H  H6  1  0.23909000  0.79417000  0.19589000  1.0
  H  H7  1  0.06743000  0.86993000  0.27764000  1.0
  H  H8  1  0.25645000  0.48020000  0.21721000  1.0
  H  H9  1  0.08303000  0.55612000  0.29888000  1.0
  H  H10  1  0.95073000  0.76259000  0.23929000  1.0
  H  H11  1  0.54554000  0.04453000  0.24658000  1.0
  H  H12  1  0.73964000  0.95192000  0.30590000  1.0
  H  H13  1  0.47518000  0.26730000  0.28028000  1.0
  H  H14  1  0.91782000  0.67739000  0.72613000  1.0
  H  H15  1  0.42969000  0.62127000  0.17281000  1.0
  H  H16  1  0.64469000  0.52583000  0.17047000  1.0
  H  H17  1  0.60793000  0.31148000  0.19683000  1.0
  H  H18  1  0.74509000  0.42807000  0.24910000  1.0
  H  H19  1  0.62888000  0.41935000  0.32900000  1.0
  H  H20  1  0.41398000  0.50910000  0.33089000  1.0
  H  H21  1  0.80293000  0.21790000  0.25571000  1.0
  H  H22  1  0.87308000  0.99613000  0.22194000  1.0
  H  H23  1  0.50078000  0.82513000  0.77751000  1.0
  H  H24  1  0.65278000  0.83716000  0.69450000  1.0
  H  H25  1  0.50912000  0.62839000  0.73974000  1.0
  H  H26  1  0.70230000  0.48278000  0.79700000  1.0
  H  H27  1  0.85495000  0.49282000  0.71410000  1.0
  H  H28  1  0.34301000  0.28037000  0.54641000  1.0
  H  H29  1  0.04192000  0.00833000  0.99582000  1.0
  C  C30  1  0.61990000  0.28569000  0.43533000  1.0
  C  C31  1  0.14049000  0.68125000  0.19746000  1.0
  C  C32  1  0.11722000  0.60911000  0.27547000  1.0
  C  C33  1  0.60789000  0.61611000  0.41855000  1.0
  C  C34  1  0.18093000  0.66920000  0.29724000  1.0
  C  C35  1  0.21278000  0.56697000  0.23094000  1.0
  C  C36  1  0.27866000  0.62670000  0.25097000  1.0
  C  C37  1  0.11681000  0.68946000  0.14659000  1.0
  C  C38  1  0.20449000  0.66121000  0.34811000  1.0
  C  C39  1  0.71062000  0.03144000  0.28105000  1.0
  C  C40  1  0.60234000  0.08361000  0.24893000  1.0
  C  C41  1  0.66915000  0.70027000  0.27340000  1.0
  C  C42  1  0.69155000  0.07723000  0.10557000  1.0
  C  C43  1  0.65450000  0.22088000  0.39136000  1.0
  C  C44  1  0.78477000  0.05647000  0.23548000  1.0
  C  C45  1  0.28729000  0.61681000  0.43768000  1.0
  C  C46  1  0.67653000  0.10825000  0.20213000  1.0
  C  C47  1  0.74589000  0.17928000  0.25321000  1.0
  C  C48  1  0.67160000  0.15543000  0.30016000  1.0
  C  C49  1  0.63737000  0.23189000  0.22149000  1.0
  C  C50  1  0.56325000  0.20654000  0.26678000  1.0
  C  C51  1  0.68168000  0.09007000  0.15069000  1.0
  C  C52  1  0.65264000  0.67838000  0.32331000  1.0
  C  C53  1  0.66546000  0.18521000  0.34992000  1.0
  C  C54  1  0.66348000  0.75857000  0.71758000  1.0
  C  C55  1  0.57922000  0.75159000  0.76305000  1.0
  C  C56  1  0.70802000  0.69341000  0.88998000  1.0
  C  C57  1  0.61521000  0.29117000  0.57565000  1.0
  C  C58  1  0.64293000  0.62694000  0.60213000  1.0
  C  C59  1  0.77137000  0.67625000  0.74874000  1.0
  C  C60  1  0.68565000  0.67096000  0.79582000  1.0
  C  C61  1  0.77633000  0.56672000  0.72831000  1.0
  C  C62  1  0.66943000  0.64820000  0.69596000  1.0
  C  C63  1  0.63650000  0.65386000  0.36841000  1.0
  C  C64  1  0.69132000  0.56111000  0.77373000  1.0
  C  C65  1  0.58405000  0.64249000  0.74296000  1.0
  C  C66  1  0.69736000  0.68199000  0.84648000  1.0
  C  C67  1  0.65657000  0.63737000  0.64533000  1.0
  C  C68  1  0.09342000  0.69563000  0.86290000  1.0
  C  C69  1  0.61406000  0.60571000  0.55584000  1.0
  C  C70  1  0.12195000  0.68175000  0.81781000  1.0
  C  C71  1  0.15138000  0.66902000  0.76835000  1.0
  C  C72  1  0.17723000  0.65986000  0.72255000  1.0
  C  C73  1  0.20861000  0.64832000  0.67313000  1.0
  C  C74  1  0.10851000  0.78352000  0.26362000  1.0
  C  C75  1  0.23958000  0.63660000  0.62806000  1.0
  C  C76  1  0.69894000  0.09553000  0.86114000  1.0
  C  C77  1  0.68810000  0.12551000  0.81599000  1.0
  C  C78  1  0.67710000  0.15575000  0.76647000  1.0
  C  C79  1  0.66798000  0.18111000  0.72066000  1.0
  C  C80  1  0.65590000  0.21094000  0.67115000  1.0
  C  C81  1  0.29394000  0.60818000  0.57815000  1.0
  C  C82  1  0.64344000  0.24017000  0.62600000  1.0
  C  C83  1  0.04657000  0.72502000  0.05462000  1.0
  C  C84  1  0.72867000  0.74018000  0.07583000  1.0
  C  C85  1  0.20407000  0.74147000  0.21902000  1.0
  C  C86  1  0.72054000  0.04051000  0.05513000  1.0
  C  C87  1  0.04163000  0.72628000  0.91299000  1.0
  C  C88  1  0.72996000  0.72065000  0.93644000  1.0
  C  C89  1  0.72445000  0.04300000  0.91150000  1.0
  C  C90  1  0.70677000  0.72550000  0.12973000  1.0
  C  C91  1  0.69509000  0.72130000  0.17615000  1.0
  C  C92  1  0.68203000  0.71322000  0.22688000  1.0
  C  C93  1  0.40654000  0.57277000  0.25218000  1.0
  C  C94  1  0.47324000  0.57639000  0.20712000  1.0
  C  C95  1  0.59426000  0.52293000  0.20579000  1.0
  C  C96  1  0.09455000  0.69916000  0.10274000  1.0
  C  C97  1  0.65054000  0.46740000  0.24979000  1.0
  C  C98  1  0.58530000  0.46311000  0.29467000  1.0
  C  C99  1  0.46408000  0.51412000  0.29581000  1.0
  C  C100  1  0.23039000  0.64938000  0.39152000  1.0
  C  C101  1  0.04418000  0.72375000  0.24349000  1.0
  O  O102  1  0.31134000  0.51719000  0.45839000  1.0
  O  O103  1  0.65351000  0.83135000  0.05312000  1.0
  O  O104  1  0.64275000  0.02871000  0.03412000  1.0
  O  O105  1  0.51740000  0.31625000  0.45456000  1.0
  O  O106  1  0.81902000  0.02641000  0.92679000  1.0
  O  O107  1  0.01778000  0.82599000  0.92424000  1.0
  O  O108  1  0.02070000  0.64998000  0.94086000  1.0
  O  O109  1  0.82507000  0.64967000  0.95648000  1.0
  O  O110  1  0.65552000  0.81723000  0.95415000  1.0
  O  O111  1  0.64933000  0.01386000  0.93552000  1.0
  O  O112  1  0.83903000  0.84089000  0.98925000  1.0
  O  O113  1  0.68667000  0.51366000  0.53424000  1.0
  O  O114  1  0.69464000  0.31191000  0.45050000  1.0
  O  O115  1  0.67836000  0.51449000  0.43550000  1.0
  O  O116  1  0.51205000  0.68557000  0.44092000  1.0
  O  O117  1  0.31395000  0.69061000  0.45286000  1.0
  O  O118  1  0.31905000  0.50913000  0.56555000  1.0
  O  O119  1  0.51856000  0.30868000  0.56208000  1.0
  O  O120  1  0.68975000  0.31816000  0.54959000  1.0
  O  O121  1  0.86415000  0.69403000  0.75637000  1.0
  O  O122  1  0.51450000  0.67804000  0.54001000  1.0
  O  O123  1  0.31566000  0.68561000  0.55165000  1.0
  O  O124  1  0.49789000  0.49605000  0.50034000  1.0
  O  O125  1  0.82135000  0.01785000  0.03561000  1.0
  O  O126  1  0.02549000  0.82198000  0.03164000  1.0
  O  O127  1  0.02415000  0.64801000  0.03962000  1.0
  O  O128  1  0.82374000  0.66377000  0.05585000  1.0
  O  O129  1  0.33211000  0.33239000  0.51639000  1.0
  O  O130  1  0.00048000  0.00912000  0.96806000  1.0
