# generated using pymatgen
data_H8Pb2C12S2Cl2O9
_symmetry_space_group_name_H-M   'P 1'
_cell_length_a   7.21404000
_cell_length_b   10.54039914
_cell_length_c   12.45360000
_cell_angle_alpha   86.94085055
_cell_angle_beta   89.78750000
_cell_angle_gamma   70.21260482
_symmetry_Int_Tables_number   1
_chemical_formula_structural   H8Pb2C12S2Cl2O9
_chemical_formula_sum   'H16 Pb4 C24 S4 Cl4 O18'
_cell_volume   889.67106007
_cell_formula_units_Z   2
loop_
 _symmetry_equiv_pos_site_id
 _symmetry_equiv_pos_as_xyz
  1  'x, y, z'
loop_
 _atom_site_type_symbol
 _atom_site_label
 _atom_site_symmetry_multiplicity
 _atom_site_fract_x
 _atom_site_fract_y
 _atom_site_fract_z
 _atom_site_occupancy
  H  H0  1  0.29723000  0.60098000  0.21843000  1.0
  H  H1  1  0.70277000  0.39901000  0.78157000  1.0
  H  H2  1  0.50310000  0.48609000  0.22817000  1.0
  H  H3  1  0.49690000  0.51391000  0.77182000  1.0
  H  H4  1  0.23540000  0.75981000  0.66298000  1.0
  H  H5  1  0.76462000  0.24019000  0.33702000  1.0
  H  H6  1  0.17762000  0.40451000  0.53131000  1.0
  H  H7  1  0.82241000  0.59548000  0.46869000  1.0
  H  H8  1  0.07722000  0.33516000  0.70915000  1.0
  H  H9  1  0.92279000  0.66484000  0.29085000  1.0
  H  H10  1  0.80560000  0.09489000  0.61651000  1.0
  H  H11  1  0.19439000  0.90511000  0.38348000  1.0
  H  H12  1  0.64230000  0.74231000  0.57570000  1.0
  H  H13  1  0.35770000  0.25769000  0.42430000  1.0
  H  H14  1  0.54339000  0.74392000  0.76419000  1.0
  H  H15  1  0.45660000  0.25608000  0.23581000  1.0
  Pb  Pb16  1  0.27879000  0.40083000  0.04286000  1.0
  Pb  Pb17  1  0.72121000  0.59917000  0.95714000  1.0
  Pb  Pb18  1  0.76553000  0.93646000  0.06903000  1.0
  Pb  Pb19  1  0.23448000  0.06353000  0.93096000  1.0
  C  C20  1  0.15189000  0.62402000  0.77346000  1.0
  C  C21  1  0.84810000  0.37598000  0.22654000  1.0
  C  C22  1  0.20337000  0.66606000  0.67259000  1.0
  C  C23  1  0.79665000  0.33394000  0.32742000  1.0
  C  C24  1  0.21281000  0.58612000  0.58602000  1.0
  C  C25  1  0.78721000  0.41388000  0.41399000  1.0
  C  C26  1  0.16983000  0.46624000  0.59964000  1.0
  C  C27  1  0.83019000  0.53376000  0.40036000  1.0
  C  C28  1  0.11467000  0.42693000  0.69942000  1.0
  C  C29  1  0.88533000  0.57307000  0.30057000  1.0
  C  C30  1  0.10302000  0.50450000  0.78965000  1.0
  C  C31  1  0.89698000  0.49550000  0.21035000  1.0
  C  C32  1  0.69434000  0.01586000  0.75624000  1.0
  C  C33  1  0.30566000  0.98414000  0.24376000  1.0
  C  C34  1  0.75114000  0.01646000  0.64889000  1.0
  C  C35  1  0.24885000  0.98354000  0.35111000  1.0
  C  C36  1  0.73447000  0.91676000  0.58437000  1.0
  C  C37  1  0.26551000  0.08324000  0.41563000  1.0
  C  C38  1  0.66097000  0.81814000  0.62663000  1.0
  C  C39  1  0.33902000  0.18186000  0.37337000  1.0
  C  C40  1  0.60701000  0.81842000  0.73394000  1.0
  C  C41  1  0.39299000  0.18158000  0.26606000  1.0
  C  C42  1  0.62368000  0.91576000  0.80304000  1.0
  C  C43  1  0.37632000  0.08424000  0.19696000  1.0
  S  S44  1  0.15813000  0.71879000  0.88525000  1.0
  S  S45  1  0.84186000  0.28121000  0.11474000  1.0
  S  S46  1  0.70225000  0.14713000  0.83616000  1.0
  S  S47  1  0.29774000  0.85286000  0.16384000  1.0
  Cl  Cl48  1  0.27866000  0.63529000  0.46118000  1.0
  Cl  Cl49  1  0.72137000  0.36471000  0.53883000  1.0
  Cl  Cl50  1  0.79997000  0.91779000  0.45012000  1.0
  Cl  Cl51  1  0.20003000  0.08221000  0.54988000  1.0
  O  O52  1  0.31406000  0.62613000  0.95900000  1.0
  O  O53  1  0.68594000  0.37387000  0.04100000  1.0
  O  O54  1  0.36357000  0.50177000  0.21459000  1.0
  O  O55  1  0.63643000  0.49822000  0.78541000  1.0
  O  O56  1  0.20630000  0.83627000  0.84458000  1.0
  O  O57  1  0.79369000  0.16374000  0.15543000  1.0
  O  O58  1  0.96342000  0.75327000  0.93644000  1.0
  O  O59  1  0.03658000  0.24673000  0.06356000  1.0
  O  O60  1  0.04877000  0.46629000  0.88541000  1.0
  O  O61  1  0.95122000  0.53372000  0.11460000  1.0
  O  O62  1  0.79537000  0.22960000  0.77288000  1.0
  O  O63  1  0.20463000  0.77040000  0.22713000  1.0
  O  O64  1  0.83312000  0.07971000  0.93113000  1.0
  O  O65  1  0.16689000  0.92028000  0.06886000  1.0
  O  O66  1  0.49913000  0.21887000  0.86868000  1.0
  O  O67  1  0.50087000  0.78112000  0.13132000  1.0
  O  O68  1  0.57083000  0.91413000  0.90697000  1.0
  O  O69  1  0.42916000  0.08588000  0.09303000  1.0
