# generated using pymatgen
data_ZnH17C21(NO2)3
_symmetry_space_group_name_H-M   'P 1'
_cell_length_a   8.58553000
_cell_length_b   10.44290000
_cell_length_c   11.00430000
_cell_angle_alpha   90.00000000
_cell_angle_beta   89.99990000
_cell_angle_gamma   102.91600000
_symmetry_Int_Tables_number   1
_chemical_formula_structural   ZnH17C21(NO2)3
_chemical_formula_sum   'Zn2 H34 C42 N6 O12'
_cell_volume   961.65897284
_cell_formula_units_Z   2
loop_
 _symmetry_equiv_pos_site_id
 _symmetry_equiv_pos_as_xyz
  1  'x, y, z'
loop_
 _atom_site_type_symbol
 _atom_site_label
 _atom_site_symmetry_multiplicity
 _atom_site_fract_x
 _atom_site_fract_y
 _atom_site_fract_z
 _atom_site_occupancy
  Zn  Zn0  1  0.75000000  0.25000000  0.08373000  1.0
  Zn  Zn1  1  0.25000000  0.75000000  0.91627000  1.0
  H  H2  1  0.02401000  0.47756000  0.10141000  1.0
  H  H3  1  0.47599000  0.02244000  0.10141000  1.0
  H  H4  1  0.97599000  0.52244000  0.89859000  1.0
  H  H5  1  0.52401000  0.97756000  0.89859000  1.0
  H  H6  1  0.13299000  0.66391000  0.23832000  1.0
  H  H7  1  0.36701000  0.83609000  0.23832000  1.0
  H  H8  1  0.86701000  0.33609000  0.76168000  1.0
  H  H9  1  0.63299000  0.16391000  0.76168000  1.0
  H  H10  1  0.98767000  0.68901000  0.43182000  1.0
  H  H11  1  0.51233000  0.81099000  0.43182000  1.0
  H  H12  1  0.01233000  0.31099000  0.56818000  1.0
  H  H13  1  0.48767000  0.18901000  0.56818000  1.0
  H  H14  1  0.63675000  0.34038000  0.32940000  1.0
  H  H15  1  0.86325000  0.15962000  0.32940000  1.0
  H  H16  1  0.36325000  0.65962000  0.67060000  1.0
  H  H17  1  0.13675000  0.84038000  0.67060000  1.0
  H  H18  1  0.71101000  0.53848000  0.75899000  1.0
  H  H19  1  0.78899000  0.96152000  0.75899000  1.0
  H  H20  1  0.28899000  0.46152000  0.24101000  1.0
  H  H21  1  0.21101000  0.03848000  0.24101000  1.0
  H  H22  1  0.75000000  0.75000000  0.87442000  1.0
  H  H23  1  0.25000000  0.25000000  0.12558000  1.0
  H  H24  1  0.04023000  0.00992000  0.84959000  1.0
  H  H25  1  0.45977000  0.49008000  0.84959000  1.0
  H  H26  1  0.95977000  0.99008000  0.15041000  1.0
  H  H27  1  0.54023000  0.50992000  0.15041000  1.0
  H  H28  1  0.18238000  0.12983000  0.93284000  1.0
  H  H29  1  0.31762000  0.37017000  0.93284000  1.0
  H  H30  1  0.81762000  0.87018000  0.06716000  1.0
  H  H31  1  0.68238000  0.62982000  0.06716000  1.0
  H  H32  1  0.09975000  0.17258000  0.79386000  1.0
  H  H33  1  0.40026000  0.32742000  0.79387000  1.0
  H  H34  1  0.90025000  0.82742000  0.20613000  1.0
  H  H35  1  0.59975000  0.67258000  0.20613000  1.0
  C  C36  1  0.96116000  0.49205000  0.18434000  1.0
  C  C37  1  0.53884000  0.00795000  0.18434000  1.0
  C  C38  1  0.03884000  0.50795000  0.81566000  1.0
  C  C39  1  0.46116000  0.99205000  0.81566000  1.0
  C  C40  1  0.02187000  0.59592000  0.26251000  1.0
  C  C41  1  0.47813000  0.90408000  0.26251000  1.0
  C  C42  1  0.97813000  0.40408000  0.73749000  1.0
  C  C43  1  0.52187000  0.09592000  0.73749000  1.0
  C  C44  1  0.94089000  0.60830000  0.36979000  1.0
  C  C45  1  0.55911000  0.89170000  0.36979000  1.0
  C  C46  1  0.05911000  0.39170000  0.63021000  1.0
  C  C47  1  0.44089000  0.10830000  0.63021000  1.0
  C  C48  1  0.80025000  0.51460000  0.39628000  1.0
  C  C49  1  0.69974000  0.98540000  0.39628000  1.0
  C  C50  1  0.19975000  0.48540000  0.60372000  1.0
  C  C51  1  0.30025000  0.01460000  0.60372000  1.0
  C  C52  1  0.74661000  0.41390000  0.31231000  1.0
  C  C53  1  0.75339000  0.08610000  0.31231000  1.0
  C  C54  1  0.25339000  0.58610000  0.68769000  1.0
  C  C55  1  0.24661000  0.91390000  0.68769000  1.0
  C  C56  1  0.71189000  0.51261000  0.51300000  1.0
  C  C57  1  0.78811000  0.98739000  0.51300000  1.0
  C  C58  1  0.28811000  0.48739000  0.48700000  1.0
  C  C59  1  0.21189000  0.01261000  0.48700000  1.0
  C  C60  1  0.73179000  0.63768000  0.58398000  1.0
  C  C61  1  0.76821000  0.86232000  0.58398000  1.0
  C  C62  1  0.26821000  0.36232000  0.41602000  1.0
  C  C63  1  0.23179000  0.13768000  0.41602000  1.0
  C  C64  1  0.72810000  0.63235000  0.71136000  1.0
  C  C65  1  0.77190000  0.86765000  0.71136000  1.0
  C  C66  1  0.27189000  0.36765000  0.28864000  1.0
  C  C67  1  0.22810000  0.13235000  0.28864000  1.0
  C  C68  1  0.75000000  0.75000000  0.77568000  1.0
  C  C69  1  0.25000000  0.25000000  0.22433000  1.0
  C  C70  1  0.93725000  0.15103000  0.94317000  1.0
  C  C71  1  0.56275000  0.34897000  0.94317000  1.0
  C  C72  1  0.06275000  0.84897000  0.05683000  1.0
  C  C73  1  0.43725000  0.65103000  0.05683000  1.0
  C  C74  1  0.07416000  0.11315000  0.87705000  1.0
  C  C75  1  0.42584000  0.38685000  0.87706000  1.0
  C  C76  1  0.92584000  0.88684000  0.12294000  1.0
  C  C77  1  0.57416000  0.61316000  0.12295000  1.0
  N  N78  1  0.82492000  0.40284000  0.20866000  1.0
  N  N79  1  0.67508000  0.09716000  0.20866000  1.0
  N  N80  1  0.17508000  0.59716000  0.79134000  1.0
  N  N81  1  0.32492000  0.90284000  0.79134000  1.0
  N  N82  1  0.75000000  0.75000000  0.52048000  1.0
  N  N83  1  0.25000000  0.25000000  0.47952000  1.0
  O  O84  1  0.62741000  0.40945000  0.55267000  1.0
  O  O85  1  0.87259000  0.09055000  0.55267000  1.0
  O  O86  1  0.37259000  0.59055000  0.44733000  1.0
  O  O87  1  0.12741000  0.90945000  0.44733000  1.0
  O  O88  1  0.97100000  0.24043000  0.02662000  1.0
  O  O89  1  0.52900000  0.25957000  0.02662000  1.0
  O  O90  1  0.02900000  0.75956000  0.97338000  1.0
  O  O91  1  0.47100000  0.74044000  0.97338000  1.0
  O  O92  1  0.79472000  0.09758000  0.91652000  1.0
  O  O93  1  0.70528000  0.40243000  0.91652000  1.0
  O  O94  1  0.20528000  0.90243000  0.08348000  1.0
  O  O95  1  0.29472000  0.59757000  0.08348000  1.0
