# generated using pymatgen
data_CoH6C6(N2O)4
_symmetry_space_group_name_H-M   'P 1'
_cell_length_a   4.86628000
_cell_length_b   7.73454000
_cell_length_c   13.24660000
_cell_angle_alpha   89.99990000
_cell_angle_beta   89.99970000
_cell_angle_gamma   76.49700000
_symmetry_Int_Tables_number   1
_chemical_formula_structural   CoH6C6(N2O)4
_chemical_formula_sum   'Co2 H12 C12 N16 O8'
_cell_volume   484.79938711
_cell_formula_units_Z   2
loop_
 _symmetry_equiv_pos_site_id
 _symmetry_equiv_pos_as_xyz
  1  'x, y, z'
loop_
 _atom_site_type_symbol
 _atom_site_label
 _atom_site_symmetry_multiplicity
 _atom_site_fract_x
 _atom_site_fract_y
 _atom_site_fract_z
 _atom_site_occupancy
  Co  Co0  1  0.00000000  0.00000000  0.00000000  1.0
  Co  Co1  1  0.50000000  0.50000000  0.50000000  1.0
  H  H2  1  0.54337000  0.88440000  0.37972000  1.0
  H  H3  1  0.95663000  0.61560000  0.87972000  1.0
  H  H4  1  0.45663000  0.11560000  0.62028000  1.0
  H  H5  1  0.04337000  0.38440000  0.12028000  1.0
  H  H6  1  0.71502000  0.02610000  0.44968000  1.0
  H  H7  1  0.78498000  0.47390000  0.94968000  1.0
  H  H8  1  0.28498000  0.97390000  0.55032000  1.0
  H  H9  1  0.21502000  0.52610000  0.05032000  1.0
  H  H10  1  0.71858000  0.82218000  0.18681000  1.0
  H  H11  1  0.78143000  0.67782000  0.68681000  1.0
  H  H12  1  0.28142000  0.17782000  0.81319000  1.0
  H  H13  1  0.21858000  0.32218000  0.31319000  1.0
  C  C14  1  0.74864000  0.90806000  0.40078000  1.0
  C  C15  1  0.75135000  0.59194000  0.90078000  1.0
  C  C16  1  0.25135000  0.09194000  0.59922000  1.0
  C  C17  1  0.24865000  0.40806000  0.09922000  1.0
  C  C18  1  0.86364000  0.89799000  0.21423000  1.0
  C  C19  1  0.63637000  0.60201000  0.71422000  1.0
  C  C20  1  0.13637000  0.10201000  0.78577000  1.0
  C  C21  1  0.36363000  0.39799000  0.28578000  1.0
  C  C22  1  0.91964000  0.74749000  0.45971000  1.0
  C  C23  1  0.58036000  0.75251000  0.95971000  1.0
  C  C24  1  0.08036000  0.25251000  0.54029000  1.0
  C  C25  1  0.41964000  0.24749000  0.04029000  1.0
  N  N26  1  0.04222000  0.96255000  0.15780000  1.0
  N  N27  1  0.45778000  0.53744000  0.65780000  1.0
  N  N28  1  0.95778000  0.03745000  0.84220000  1.0
  N  N29  1  0.54222000  0.46255000  0.34220000  1.0
  N  N30  1  0.17917000  0.05219000  0.22115000  1.0
  N  N31  1  0.32084000  0.44780000  0.72115000  1.0
  N  N32  1  0.82083000  0.94780000  0.77885000  1.0
  N  N33  1  0.67917000  0.55220000  0.27885000  1.0
  N  N34  1  0.08894000  0.04454000  0.31329000  1.0
  N  N35  1  0.41106000  0.45546000  0.81329000  1.0
  N  N36  1  0.91105000  0.95546000  0.68671000  1.0
  N  N37  1  0.58894000  0.54454000  0.18671000  1.0
  N  N38  1  0.89040000  0.94797000  0.31020000  1.0
  N  N39  1  0.60960000  0.55203000  0.81020000  1.0
  N  N40  1  0.10960000  0.05203000  0.68980000  1.0
  N  N41  1  0.39040000  0.44797000  0.18980000  1.0
  O  O42  1  0.18599000  0.72295000  0.45757000  1.0
  O  O43  1  0.31400000  0.77706000  0.95756000  1.0
  O  O44  1  0.81401000  0.27705000  0.54243000  1.0
  O  O45  1  0.68600000  0.22295000  0.04244000  1.0
  O  O46  1  0.77802000  0.65984000  0.51009000  1.0
  O  O47  1  0.72197000  0.84015000  0.01009000  1.0
  O  O48  1  0.22198000  0.34016000  0.48991000  1.0
  O  O49  1  0.27803000  0.15985000  0.98991000  1.0
