# generated using pymatgen
data_Zn2H19C26SO11
_symmetry_space_group_name_H-M   'P 1'
_cell_length_a   11.10230000
_cell_length_b   16.22580000
_cell_length_c   23.47470000
_cell_angle_alpha   89.97020000
_cell_angle_beta   95.27360000
_cell_angle_gamma   89.90890000
_symmetry_Int_Tables_number   1
_chemical_formula_structural   Zn2H19C26SO11
_chemical_formula_sum   'Zn8 H76 C104 S4 O44'
_cell_volume   4210.91309185
_cell_formula_units_Z   4
loop_
 _symmetry_equiv_pos_site_id
 _symmetry_equiv_pos_as_xyz
  1  'x, y, z'
loop_
 _atom_site_type_symbol
 _atom_site_label
 _atom_site_symmetry_multiplicity
 _atom_site_fract_x
 _atom_site_fract_y
 _atom_site_fract_z
 _atom_site_occupancy
  Zn  Zn0  1  0.94830000  0.48044000  0.15628000  1.0
  Zn  Zn1  1  0.15903000  0.33885000  0.24158000  1.0
  Zn  Zn2  1  0.84706000  0.83795000  0.26090000  1.0
  Zn  Zn3  1  0.04399000  0.51939000  0.84652000  1.0
  Zn  Zn4  1  0.85116000  0.65957000  0.75755000  1.0
  Zn  Zn5  1  0.95279000  0.01909000  0.65506000  1.0
  Zn  Zn6  1  0.15094000  0.15916000  0.74367000  1.0
  Zn  Zn7  1  0.05497000  0.98022000  0.34623000  1.0
  H  H8  1  0.21439000  0.52124000  0.41339000  1.0
  H  H9  1  0.22274000  0.38909000  0.46293000  1.0
  H  H10  1  0.49321000  0.74727000  0.40073000  1.0
  H  H11  1  0.32326000  0.25849000  0.42929000  1.0
  H  H12  1  0.09500000  0.07898000  0.50085000  1.0
  H  H13  1  0.28900000  0.25411000  0.61106000  1.0
  H  H14  1  0.28743000  0.78165000  0.38275000  1.0
  H  H15  1  0.06941000  0.69623000  0.23415000  1.0
  H  H16  1  0.30204000  0.52618000  0.33055000  1.0
  H  H17  1  0.54500000  0.22160000  0.23377000  1.0
  H  H18  1  0.63397000  0.25112000  0.29813000  1.0
  H  H19  1  0.59759000  0.32625000  0.24206000  1.0
  H  H20  1  0.40869000  0.40598000  0.36082000  1.0
  H  H21  1  0.52082000  0.42971000  0.31211000  1.0
  H  H22  1  0.55549000  0.35927000  0.37138000  1.0
  H  H23  1  0.69925000  0.02564000  0.17131000  1.0
  H  H24  1  0.46450000  0.71411000  0.26683000  1.0
  H  H25  1  0.37975000  0.74034000  0.20055000  1.0
  H  H26  1  0.40765000  0.81749000  0.25591000  1.0
  H  H27  1  0.60454000  0.89794000  0.14061000  1.0
  H  H28  1  0.48613000  0.92062000  0.18621000  1.0
  H  H29  1  0.46044000  0.84842000  0.12738000  1.0
  H  H30  1  0.78779000  0.47959000  0.58352000  1.0
  H  H31  1  0.77904000  0.61271000  0.53393000  1.0
  H  H32  1  0.51017000  0.25350000  0.59568000  1.0
  H  H33  1  0.66903000  0.74571000  0.56906000  1.0
  H  H34  1  0.91153000  0.91963000  0.50178000  1.0
  H  H35  1  0.71877000  0.74690000  0.38879000  1.0
  H  H36  1  0.71826000  0.21962000  0.61266000  1.0
  H  H37  1  0.93216000  0.30403000  0.76283000  1.0
  H  H38  1  0.69593000  0.47329000  0.66742000  1.0
  H  H39  1  0.44455000  0.78274000  0.76485000  1.0
  H  H40  1  0.35670000  0.75393000  0.70009000  1.0
  H  H41  1  0.39243000  0.67820000  0.75577000  1.0
  H  H42  1  0.57853000  0.59767000  0.63712000  1.0
  H  H43  1  0.46966000  0.57520000  0.68745000  1.0
  H  H44  1  0.43258000  0.64532000  0.62828000  1.0
  H  H45  1  0.21408000  0.98400000  0.91665000  1.0
  H  H46  1  0.22498000  0.11679000  0.96641000  1.0
  H  H47  1  0.48502000  0.75334000  0.90703000  1.0
  H  H48  1  0.33038000  0.24705000  0.93210000  1.0
  H  H49  1  0.08995000  0.42084000  0.00134000  1.0
  H  H50  1  0.28964000  0.24951000  0.11324000  1.0
  H  H51  1  0.27979000  0.72153000  0.89100000  1.0
  H  H52  1  0.06274000  0.80304000  0.74080000  1.0
  H  H53  1  0.30207000  0.97348000  0.83241000  1.0
  H  H54  1  0.52352000  0.27578000  0.71679000  1.0
  H  H55  1  0.62403000  0.26731000  0.78083000  1.0
  H  H56  1  0.59057000  0.17750000  0.73644000  1.0
  H  H57  1  0.43240000  0.12111000  0.87034000  1.0
  H  H58  1  0.54082000  0.09245000  0.82128000  1.0
  H  H59  1  0.57014000  0.17842000  0.86980000  1.0
  H  H60  1  0.78683000  0.01899000  0.08815000  1.0
  H  H61  1  0.77574000  0.88661000  0.03896000  1.0
  H  H62  1  0.51255000  0.24813000  0.10030000  1.0
  H  H63  1  0.67872000  0.75806000  0.07345000  1.0
  H  H64  1  0.90109000  0.57647000  0.99977000  1.0
  H  H65  1  0.70006000  0.75029000  0.89087000  1.0
  H  H66  1  0.71811000  0.28033000  0.11773000  1.0
  H  H67  1  0.93635000  0.19409000  0.26623000  1.0
  H  H68  1  0.20166000  0.12661000  0.85748000  1.0
  H  H69  1  0.10649000  0.32214000  0.72219000  1.0
  H  H70  1  0.16866000  0.22334000  0.85257000  1.0
  H  H71  1  0.16422000  0.31968000  0.78634000  1.0
  H  H72  1  0.80054000  0.62775000  0.64332000  1.0
  H  H73  1  0.83362000  0.81994000  0.71668000  1.0
  H  H74  1  0.82756000  0.72527000  0.64974000  1.0
  H  H75  1  0.78682000  0.81323000  0.77885000  1.0
  H  H76  1  0.05909000  0.34313000  0.33014000  1.0
  H  H77  1  0.15841000  0.27578000  0.34792000  1.0
  H  H78  1  0.11157000  0.17571000  0.21926000  1.0
  H  H79  1  0.16526000  0.17750000  0.28403000  1.0
  H  H80  1  0.94069000  0.84630000  0.16957000  1.0
  H  H81  1  0.84535000  0.77590000  0.15341000  1.0
  H  H82  1  0.84335000  0.67725000  0.21748000  1.0
  H  H83  1  0.90080000  0.67473000  0.28149000  1.0
  C  C84  1  0.29653000  0.50381000  0.43953000  1.0
  C  C85  1  0.30078000  0.42993000  0.46751000  1.0
  C  C86  1  0.40534000  0.40519000  0.50354000  1.0
  C  C87  1  0.49802000  0.53995000  0.48446000  1.0
  C  C88  1  0.39709000  0.55933000  0.44415000  1.0
  C  C89  1  0.39913000  0.63335000  0.41168000  1.0
  C  C90  1  0.49303000  0.68953000  0.42459000  1.0
  C  C91  1  0.41253000  0.32787000  0.53166000  1.0
  C  C92  1  0.31873000  0.26379000  0.52134000  1.0
  C  C93  1  0.28427000  0.23293000  0.46643000  1.0
  C  C94  1  0.20431000  0.16645000  0.45904000  1.0
  C  C95  1  0.15583000  0.13149000  0.50645000  1.0
  C  C96  1  0.18487000  0.16461000  0.56087000  1.0
  C  C97  1  0.26681000  0.22981000  0.56812000  1.0
  C  C98  1  0.30747000  0.65148000  0.36356000  1.0
  C  C99  1  0.26086000  0.73132000  0.35356000  1.0
  C  C100  1  0.17713000  0.74775000  0.30649000  1.0
  C  C101  1  0.13585000  0.68373000  0.27010000  1.0
  C  C102  1  0.17880000  0.60370000  0.28038000  1.0
  C  C103  1  0.26685000  0.58860000  0.32544000  1.0
  C  C104  1  0.12525000  0.53295000  0.24579000  1.0
  C  C105  1  0.12432000  0.36882000  0.11264000  1.0
  C  C106  1  0.88156000  0.33050000  0.20382000  1.0
  C  C107  1  0.17198000  0.13054000  0.40074000  1.0
  C  C108  1  0.56608000  0.27189000  0.26421000  1.0
  C  C109  1  0.48517000  0.38222000  0.33930000  1.0
  C  C110  1  0.82458000  0.10234000  0.22084000  1.0
  C  C111  1  0.73596000  0.08765000  0.17598000  1.0
  C  C112  1  0.87687000  0.03181000  0.25626000  1.0
  C  C113  1  0.88238000  0.86702000  0.39037000  1.0
  C  C114  1  0.12350000  0.83207000  0.29689000  1.0
  C  C115  1  0.83077000  0.62975000  0.10078000  1.0
  C  C116  1  0.44378000  0.76322000  0.23534000  1.0
  C  C117  1  0.52666000  0.87325000  0.16057000  1.0
  C  C118  1  0.70468000  0.49834000  0.55854000  1.0
  C  C119  1  0.70007000  0.57252000  0.53078000  1.0
  C  C120  1  0.59507000  0.59745000  0.49496000  1.0
  C  C121  1  0.50257000  0.46261000  0.51400000  1.0
  C  C122  1  0.60398000  0.44280000  0.55390000  1.0
  C  C123  1  0.60312000  0.36794000  0.58541000  1.0
  C  C124  1  0.50919000  0.31186000  0.57252000  1.0
  C  C125  1  0.58825000  0.67445000  0.46643000  1.0
  C  C126  1  0.68192000  0.73850000  0.47765000  1.0
  C  C127  1  0.71292000  0.76973000  0.53280000  1.0
  C  C128  1  0.79524000  0.83471000  0.54163000  1.0
  C  C129  1  0.84876000  0.86832000  0.49516000  1.0
  C  C130  1  0.82224000  0.83532000  0.44051000  1.0
  C  C131  1  0.73860000  0.77124000  0.43189000  1.0
  C  C132  1  0.69540000  0.34921000  0.63302000  1.0
  C  C133  1  0.74370000  0.26971000  0.64226000  1.0
  C  C134  1  0.82715000  0.25329000  0.68938000  1.0
  C  C135  1  0.86659000  0.31700000  0.72658000  1.0
  C  C136  1  0.82190000  0.39677000  0.71696000  1.0
  C  C137  1  0.73395000  0.41155000  0.67183000  1.0
  C  C138  1  0.87217000  0.46799000  0.75215000  1.0
  C  C139  1  0.86037000  0.62865000  0.88817000  1.0
  C  C140  1  0.11670000  0.66899000  0.80577000  1.0
  C  C141  1  0.82531000  0.87018000  0.60038000  1.0
  C  C142  1  0.42431000  0.73279000  0.73403000  1.0
  C  C143  1  0.50423000  0.62241000  0.65971000  1.0
  C  C144  1  0.29719000  0.00161000  0.94199000  1.0
  C  C145  1  0.30311000  0.07569000  0.96981000  1.0
  C  C146  1  0.40817000  0.09936000  0.00599000  1.0
  C  C147  1  0.49767000  0.96324000  0.98737000  1.0
  C  C148  1  0.39625000  0.94458000  0.94718000  1.0
  C  C149  1  0.39526000  0.86924000  0.91616000  1.0
  C  C150  1  0.48744000  0.81194000  0.92988000  1.0
  C  C151  1  0.41613000  0.17625000  0.03461000  1.0
  C  C152  1  0.32272000  0.24075000  0.02392000  1.0
  C  C153  1  0.28860000  0.27143000  0.96886000  1.0
  C  C154  1  0.20501000  0.33592000  0.96062000  1.0
  C  C155  1  0.15380000  0.36995000  0.00758000  1.0
  C  C156  1  0.18342000  0.33749000  0.06216000  1.0
  C  C157  1  0.26796000  0.27372000  0.07020000  1.0
  C  C158  1  0.30276000  0.85030000  0.86867000  1.0
  C  C159  1  0.25433000  0.77072000  0.86060000  1.0
  C  C160  1  0.17059000  0.75319000  0.81384000  1.0
  C  C161  1  0.13085000  0.81591000  0.77581000  1.0
  C  C162  1  0.17606000  0.89559000  0.78410000  1.0
  C  C163  1  0.26413000  0.91168000  0.82899000  1.0
  C  C164  1  0.12590000  0.96558000  0.74757000  1.0
  C  C165  1  0.12908000  0.13177000  0.61208000  1.0
  C  C166  1  0.88157000  0.16910000  0.69882000  1.0
  C  C167  1  0.16977000  0.36988000  0.90189000  1.0
  C  C168  1  0.55513000  0.23535000  0.75250000  1.0
  C  C169  1  0.50080000  0.14390000  0.84335000  1.0
  C  C170  1  0.70439000  0.00236000  0.06203000  1.0
  C  C171  1  0.69856000  0.92837000  0.03427000  1.0
  C  C172  1  0.59340000  0.90458000  0.99841000  1.0
  C  C173  1  0.50391000  0.04071000  0.01671000  1.0
  C  C174  1  0.60500000  0.05902000  0.05718000  1.0
  C  C175  1  0.60439000  0.13320000  0.08947000  1.0
  C  C176  1  0.51160000  0.19039000  0.07645000  1.0
  C  C177  1  0.58423000  0.82696000  0.97083000  1.0
  C  C178  1  0.67684000  0.76188000  0.98103000  1.0
  C  C179  1  0.71470000  0.73167000  0.03580000  1.0
  C  C180  1  0.79461000  0.66486000  0.04252000  1.0
  C  C181  1  0.83981000  0.62891000  0.99456000  1.0
  C  C182  1  0.80727000  0.66130000  0.94017000  1.0
  C  C183  1  0.72527000  0.72666000  0.93375000  1.0
  C  C184  1  0.69650000  0.15059000  0.13752000  1.0
  C  C185  1  0.74433000  0.23005000  0.14710000  1.0
  C  C186  1  0.82844000  0.24618000  0.19403000  1.0
  C  C187  1  0.86920000  0.18201000  0.23053000  1.0
  S  S188  1  0.42824000  0.29744000  0.29494000  1.0
  S  S189  1  0.58333000  0.79048000  0.20693000  1.0
  S  S190  1  0.56295000  0.70792000  0.70330000  1.0
  S  S191  1  0.42574000  0.21284000  0.79075000  1.0
  O  O192  1  0.34959000  0.33648000  0.24556000  1.0
  O  O193  1  0.14644000  0.33401000  0.33302000  1.0
  O  O194  1  0.17215000  0.20237000  0.24552000  1.0
  O  O195  1  0.13164000  0.32260000  0.15666000  1.0
  O  O196  1  0.06992000  0.43795000  0.10694000  1.0
  O  O197  1  0.96048000  0.34219000  0.24566000  1.0
  O  O198  1  0.84329000  0.38594000  0.16752000  1.0
  O  O199  1  0.18129000  0.46525000  0.24863000  1.0
  O  O200  1  0.02364000  0.54899000  0.21731000  1.0
  O  O201  1  0.14452000  0.05430000  0.40038000  1.0
  O  O202  1  0.17458000  0.17644000  0.35696000  1.0
  O  O203  1  0.65664000  0.83198000  0.25694000  1.0
  O  O204  1  0.93673000  0.93602000  0.39662000  1.0
  O  O205  1  0.16216000  0.88739000  0.33305000  1.0
  O  O206  1  0.82079000  0.96420000  0.25365000  1.0
  O  O207  1  0.97761000  0.04807000  0.28531000  1.0
  O  O208  1  0.85781000  0.55335000  0.10138000  1.0
  O  O209  1  0.83152000  0.67633000  0.14434000  1.0
  O  O210  1  0.64476000  0.67145000  0.75226000  1.0
  O  O211  1  0.84726000  0.66863000  0.66600000  1.0
  O  O212  1  0.84776000  0.79329000  0.75512000  1.0
  O  O213  1  0.84449000  0.67263000  0.84331000  1.0
  O  O214  1  0.91810000  0.56071000  0.89401000  1.0
  O  O215  1  0.03918000  0.65558000  0.76373000  1.0
  O  O216  1  0.15312000  0.61422000  0.84306000  1.0
  O  O217  1  0.81755000  0.53625000  0.74556000  1.0
  O  O218  1  0.96869000  0.45215000  0.78446000  1.0
  O  O219  1  0.86119000  0.94462000  0.60125000  1.0
  O  O220  1  0.81194000  0.82515000  0.64374000  1.0
  O  O221  1  0.34703000  0.15819000  0.75020000  1.0
  O  O222  1  0.15165000  0.16698000  0.83577000  1.0
  O  O223  1  0.16800000  0.29468000  0.74761000  1.0
  O  O224  1  0.14242000  0.17524000  0.65719000  1.0
  O  O225  1  0.07184000  0.06387000  0.60530000  1.0
  O  O226  1  0.96120000  0.15825000  0.74024000  1.0
  O  O227  1  0.84327000  0.11303000  0.66302000  1.0
  O  O228  1  0.17611000  0.03494000  0.75534000  1.0
  O  O229  1  0.03415000  0.94790000  0.71267000  1.0
  O  O230  1  0.13148000  0.44391000  0.90080000  1.0
  O  O231  1  0.18058000  0.32408000  0.85877000  1.0
  O  O232  1  0.85440000  0.83421000  0.16836000  1.0
  O  O233  1  0.83800000  0.70136000  0.25632000  1.0
  O  O234  1  0.87570000  0.82152000  0.34605000  1.0
  O  O235  1  0.04328000  0.84367000  0.25552000  1.0
