# generated using pymatgen
data_H16Rh2C17S2(NO4)2
_symmetry_space_group_name_H-M   'P 1'
_cell_length_a   8.14290000
_cell_length_b   13.61650000
_cell_length_c   14.13250000
_cell_angle_alpha   91.50670000
_cell_angle_beta   98.35960000
_cell_angle_gamma   90.27520000
_symmetry_Int_Tables_number   1
_chemical_formula_structural   H16Rh2C17S2(NO4)2
_chemical_formula_sum   'H32 Rh4 C34 S4 N4 O16'
_cell_volume   1549.73649507
_cell_formula_units_Z   2
loop_
 _symmetry_equiv_pos_site_id
 _symmetry_equiv_pos_as_xyz
  1  'x, y, z'
loop_
 _atom_site_type_symbol
 _atom_site_label
 _atom_site_symmetry_multiplicity
 _atom_site_fract_x
 _atom_site_fract_y
 _atom_site_fract_z
 _atom_site_occupancy
  H  H0  1  0.50352000  0.51724000  0.88906000  1.0
  H  H1  1  0.49737000  0.48056000  0.11152000  1.0
  H  H2  1  0.45842000  0.64368000  0.89596000  1.0
  H  H3  1  0.54235000  0.35412000  0.10301000  1.0
  H  H4  1  0.37597000  0.57177000  0.79106000  1.0
  H  H5  1  0.62928000  0.42540000  0.20759000  1.0
  H  H6  1  0.86964000  0.83104000  0.97257000  1.0
  H  H7  1  0.12360000  0.16715000  0.02233000  1.0
  H  H8  1  0.68496000  0.77671000  0.99999000  1.0
  H  H9  1  0.30805000  0.22114000  0.99399000  1.0
  H  H10  1  0.72004000  0.77820000  0.87813000  1.0
  H  H11  1  0.27430000  0.22019000  0.11601000  1.0
  H  H12  1  0.45602000  0.16625000  0.65826000  1.0
  H  H13  1  0.54280000  0.83402000  0.34493000  1.0
  H  H14  1  0.46158000  0.20260000  0.53989000  1.0
  H  H15  1  0.53443000  0.79892000  0.46349000  1.0
  H  H16  1  0.55457000  0.08918000  0.57795000  1.0
  H  H17  1  0.44130000  0.91172000  0.42325000  1.0
  H  H18  1  0.07177000  0.12430000  0.20782000  1.0
  H  H19  1  0.92025000  0.88176000  0.79618000  1.0
  H  H20  1  0.87439000  0.06730000  0.18094000  1.0
  H  H21  1  0.12034000  0.93573000  0.82210000  1.0
  H  H22  1  0.05803000  0.99484000  0.18017000  1.0
  H  H23  1  0.93984000  0.01093000  0.82356000  1.0
  H  H24  1  0.41868000  0.47030000  0.31939000  1.0
  H  H25  1  0.55354000  0.53290000  0.67045000  1.0
  H  H26  1  0.36905000  0.64597000  0.57263000  1.0
  H  H27  1  0.60172000  0.35654000  0.41728000  1.0
  H  H28  1  0.02274000  0.66354000  0.76449000  1.0
  H  H29  1  0.05601000  0.34746000  0.24580000  1.0
  H  H30  1  0.85439000  0.75750000  0.62376000  1.0
  H  H31  1  0.21156000  0.24132000  0.38216000  1.0
  Rh  Rh32  1  0.07132000  0.53012000  0.07258000  1.0
  Rh  Rh33  1  0.92351000  0.46856000  0.92143000  1.0
  Rh  Rh34  1  0.06615000  0.92426000  0.49265000  1.0
  Rh  Rh35  1  0.92790000  0.07900000  0.51045000  1.0
  C  C36  1  0.25709000  0.54794000  0.91526000  1.0
  C  C37  1  0.74226000  0.45042000  0.08199000  1.0
  C  C38  1  0.40677000  0.57209000  0.86910000  1.0
  C  C39  1  0.59465000  0.42562000  0.12977000  1.0
  C  C40  1  0.86431000  0.67317000  0.96593000  1.0
  C  C41  1  0.12956000  0.32512000  0.02827000  1.0
  C  C42  1  0.77988000  0.77116000  0.95218000  1.0
  C  C43  1  0.21365000  0.22702000  0.04210000  1.0
  C  C44  1  0.28763000  0.08791000  0.55267000  1.0
  C  C45  1  0.70822000  0.91359000  0.45072000  1.0
  C  C46  1  0.45112000  0.13851000  0.58420000  1.0
  C  C47  1  0.54547000  0.86250000  0.41861000  1.0
  C  C48  1  0.00302000  0.03685000  0.32006000  1.0
  C  C49  1  0.99120000  0.96739000  0.68334000  1.0
  C  C50  1  0.00251000  0.05623000  0.21538000  1.0
  C  C51  1  0.99248000  0.94859000  0.78819000  1.0
  C  C52  1  0.22754000  0.61415000  0.28357000  1.0
  C  C53  1  0.75560000  0.39276000  0.70590000  1.0
  C  C54  1  0.27315000  0.63402000  0.38111000  1.0
  C  C55  1  0.70229000  0.37105000  0.60903000  1.0
  C  C56  1  0.21713000  0.71940000  0.42257000  1.0
  C  C57  1  0.76571000  0.28664000  0.57000000  1.0
  C  C58  1  0.38012000  0.56697000  0.43850000  1.0
  C  C59  1  0.59080000  0.43562000  0.55158000  1.0
  C  C60  1  0.44801000  0.48379000  0.39642000  1.0
  C  C61  1  0.52288000  0.51897000  0.59351000  1.0
  C  C62  1  0.42067000  0.58271000  0.53858000  1.0
  C  C63  1  0.55027000  0.41992000  0.45134000  1.0
  C  C64  1  0.99688000  0.63717000  0.69062000  1.0
  C  C65  1  0.06242000  0.36237000  0.32226000  1.0
  C  C66  1  0.90667000  0.68473000  0.61838000  1.0
  C  C67  1  0.14521000  0.30877000  0.39288000  1.0
  C  C68  1  0.99448000  0.52484000  0.54374000  1.0
  C  C69  1  0.02810000  0.45269000  0.47803000  1.0
  S  S70  1  0.07330000  0.52320000  0.66416000  1.0
  S  S71  1  0.95933000  0.46441000  0.35693000  1.0
  S  S72  1  0.87363000  0.62529000  0.50815000  1.0
  S  S73  1  0.14065000  0.34830000  0.50905000  1.0
  N  N74  1  0.19520000  0.58911000  0.20285000  1.0
  N  N75  1  0.80155000  0.41536000  0.78632000  1.0
  N  N76  1  0.17822000  0.79040000  0.46240000  1.0
  N  N77  1  0.81772000  0.21565000  0.53602000  1.0
  O  O78  1  0.26696000  0.56686000  0.00500000  1.0
  O  O79  1  0.72881000  0.43370000  0.99149000  1.0
  O  O80  1  0.13031000  0.50922000  0.86260000  1.0
  O  O81  1  0.87023000  0.48763000  0.13458000  1.0
  O  O82  1  0.96427000  0.66368000  0.04352000  1.0
  O  O83  1  0.02885000  0.33453000  0.95099000  1.0
  O  O84  1  0.82744000  0.60719000  0.89976000  1.0
  O  O85  1  0.16797000  0.39137000  0.09413000  1.0
  O  O86  1  0.28773000  0.99608000  0.53159000  1.0
  O  O87  1  0.70741000  0.00616000  0.46905000  1.0
  O  O88  1  0.15750000  0.14137000  0.54878000  1.0
  O  O89  1  0.83802000  0.85971000  0.45740000  1.0
  O  O90  1  0.06709000  0.95643000  0.35158000  1.0
  O  O91  1  0.92410000  0.04674000  0.65113000  1.0
  O  O92  1  0.93912000  0.10318000  0.36891000  1.0
  O  O93  1  0.05748000  0.90153000  0.63500000  1.0
