# generated using pymatgen
data_Zr3H20C27O16
_symmetry_space_group_name_H-M   'P 1'
_cell_length_a   14.79860000
_cell_length_b   14.79836989
_cell_length_c   14.80610000
_cell_angle_alpha   90.02734348
_cell_angle_beta   119.98260000
_cell_angle_gamma   119.97534236
_symmetry_Int_Tables_number   1
_chemical_formula_structural   Zr3H20C27O16
_chemical_formula_sum   'Zr6 H40 C54 O32'
_cell_volume   2293.67851198
_cell_formula_units_Z   2
loop_
 _symmetry_equiv_pos_site_id
 _symmetry_equiv_pos_as_xyz
  1  'x, y, z'
loop_
 _atom_site_type_symbol
 _atom_site_label
 _atom_site_symmetry_multiplicity
 _atom_site_fract_x
 _atom_site_fract_y
 _atom_site_fract_z
 _atom_site_occupancy
  Zr  Zr0  1  0.75657000  0.87821000  0.37830000  1.0
  Zr  Zr1  1  0.23352000  0.11675000  0.61689000  1.0
  Zr  Zr2  1  0.99459000  0.11635000  0.37803000  1.0
  Zr  Zr3  1  0.99452000  0.87806000  0.61679000  1.0
  Zr  Zr4  1  0.99678000  0.11723000  0.61823000  1.0
  Zr  Zr5  1  0.99687000  0.87843000  0.37982000  1.0
  H  H6  1  0.80797000  0.09209000  0.40388000  1.0
  H  H7  1  0.18399000  0.09208000  0.77983000  1.0
  H  H8  1  0.18363000  0.09169000  0.40429000  1.0
  H  H9  1  0.80771000  0.71555000  0.40405000  1.0
  H  H10  1  0.43161000  0.84878000  0.35750000  1.0
  H  H11  1  0.73184000  0.14079000  0.64380000  1.0
  H  H12  1  0.27083000  0.85749000  0.36611000  1.0
  H  H13  1  0.43138000  0.58321000  0.07347000  1.0
  H  H14  1  0.73196000  0.59172000  0.08762000  1.0
  H  H15  1  0.27084000  0.41394000  0.90399000  1.0
  H  H16  1  0.99010000  0.14034000  0.91544000  1.0
  H  H17  1  0.99583000  0.85393000  0.90656000  1.0
  H  H18  1  0.99008000  0.13139000  0.08477000  1.0
  H  H19  1  0.00843000  0.58394000  0.35904000  1.0
  H  H20  1  0.00500000  0.59408000  0.64643000  1.0
  H  H21  1  0.00794000  0.41427000  0.36781000  1.0
  H  H22  1  0.72148000  0.13911000  0.07303000  1.0
  H  H23  1  0.44404000  0.85177000  0.08661000  1.0
  H  H24  1  0.54316000  0.13042000  0.90410000  1.0
  H  H25  1  0.72091000  0.58224000  0.64811000  1.0
  H  H26  1  0.44319000  0.59113000  0.35649000  1.0
  H  H27  1  0.54277000  0.41267000  0.63906000  1.0
  H  H28  1  0.66859000  0.26032000  0.67951000  1.0
  H  H29  1  0.53196000  0.19108000  0.68300000  1.0
  H  H30  1  0.65814000  0.17577000  0.76312000  1.0
  H  H31  1  0.66702000  0.40712000  0.98777000  1.0
  H  H32  1  0.53246000  0.34319000  0.84698000  1.0
  H  H33  1  0.66084000  0.48459000  0.89678000  1.0
  H  H34  1  0.07972000  0.81796000  0.08758000  1.0
  H  H35  1  0.01088000  0.81638000  0.15830000  1.0
  H  H36  1  0.91199000  0.73461000  0.01695000  1.0
  H  H37  1  0.91803000  0.40582000  0.67981000  1.0
  H  H38  1  0.00226000  0.34817000  0.69065000  1.0
  H  H39  1  0.08669000  0.48934000  0.76583000  1.0
  H  H40  1  0.22478000  0.81835000  0.98804000  1.0
  H  H41  1  0.15426000  0.81118000  0.84697000  1.0
  H  H42  1  0.21725000  0.73277000  0.89756000  1.0
  H  H43  1  0.22501000  0.40730000  0.23652000  1.0
  H  H44  1  0.15373000  0.34119000  0.30582000  1.0
  H  H45  1  0.21568000  0.48270000  0.32016000  1.0
  C  C46  1  0.69142000  0.99353000  0.50008000  1.0
  C  C47  1  0.30509000  0.30602000  0.79955000  1.0
  C  C48  1  0.30487000  0.99890000  0.50547000  1.0
  C  C49  1  0.69136000  0.69753000  0.19161000  1.0
  C  C50  1  0.69409000  0.99607000  0.19041000  1.0
  C  C51  1  0.69335000  0.69735000  0.50301000  1.0
  C  C52  1  0.29643000  0.99124000  0.79950000  1.0
  C  C53  1  0.29594000  0.30500000  0.49704000  1.0
  C  C54  1  0.00347000  0.30601000  0.50599000  1.0
  C  C55  1  0.99121000  0.99133000  0.19135000  1.0
  C  C56  1  0.00423000  0.69833000  0.50072000  1.0
  C  C57  1  0.99057000  0.99690000  0.79928000  1.0
  C  C58  1  0.41061000  0.00354000  0.50961000  1.0
  C  C59  1  0.59185000  0.99475000  0.50152000  1.0
  C  C60  1  0.54259000  0.08636000  0.58996000  1.0
  C  C61  1  0.46132000  0.91400000  0.42174000  1.0
  C  C62  1  0.62973000  0.07871000  0.58312000  1.0
  C  C63  1  0.37289000  0.91920000  0.42678000  1.0
  C  C64  1  0.41080000  0.40771000  0.90049000  1.0
  C  C65  1  0.59180000  0.59745000  0.08997000  1.0
  C  C66  1  0.54282000  0.45710000  0.95198000  1.0
  C  C67  1  0.46122000  0.54785000  0.03892000  1.0
  C  C68  1  0.62981000  0.55170000  0.04605000  1.0
  C  C69  1  0.37291000  0.45434000  0.94540000  1.0
  C  C70  1  0.99258000  0.98783000  0.09069000  1.0
  C  C71  1  0.99147000  0.99598000  0.90056000  1.0
  C  C72  1  0.99556000  0.90778000  0.04160000  1.0
  C  C73  1  0.99089000  0.07592000  0.95068000  1.0
  C  C74  1  0.99432000  0.91453000  0.94668000  1.0
  C  C75  1  0.99114000  0.07078000  0.04431000  1.0
  C  C76  1  0.00589000  0.40862000  0.51152000  1.0
  C  C77  1  0.00673000  0.59872000  0.50317000  1.0
  C  C78  1  0.00519000  0.45890000  0.59266000  1.0
  C  C79  1  0.00782000  0.54881000  0.42353000  1.0
  C  C80  1  0.00584000  0.55357000  0.58556000  1.0
  C  C81  1  0.00749000  0.45510000  0.42868000  1.0
  C  C82  1  0.39366000  0.98665000  0.90040000  1.0
  C  C83  1  0.59210000  0.99460000  0.08921000  1.0
  C  C84  1  0.36275000  0.90593000  0.95173000  1.0
  C  C85  1  0.62185000  0.07456000  0.03854000  1.0
  C  C86  1  0.46449000  0.91266000  0.04534000  1.0
  C  C87  1  0.52303000  0.06953000  0.94531000  1.0
  C  C88  1  0.39309000  0.40656000  0.49305000  1.0
  C  C89  1  0.59132000  0.59684000  0.50223000  1.0
  C  C90  1  0.36209000  0.45602000  0.41052000  1.0
  C  C91  1  0.62122000  0.54691000  0.58291000  1.0
  C  C92  1  0.46375000  0.55095000  0.41842000  1.0
  C  C93  1  0.52251000  0.45319000  0.57752000  1.0
  C  C94  1  0.60161000  0.18351000  0.68354000  1.0
  C  C95  1  0.60208000  0.41920000  0.91748000  1.0
  C  C96  1  0.00015000  0.81461000  0.07997000  1.0
  C  C97  1  0.00287000  0.42184000  0.68704000  1.0
  C  C98  1  0.23125000  0.81235000  0.91764000  1.0
  C  C99  1  0.23062000  0.41796000  0.31312000  1.0
  O  O100  1  0.65312000  0.91762000  0.42168000  1.0
  O  O101  1  0.33590000  0.26218000  0.75573000  1.0
  O  O102  1  0.33563000  0.07346000  0.58008000  1.0
  O  O103  1  0.65302000  0.73550000  0.23135000  1.0
  O  O104  1  0.81033000  0.07412000  0.23053000  1.0
  O  O105  1  0.80938000  0.73514000  0.57894000  1.0
  O  O106  1  0.17825000  0.91692000  0.75640000  1.0
  O  O107  1  0.17760000  0.26144000  0.42249000  1.0
  O  O108  1  0.00293000  0.26216000  0.58042000  1.0
  O  O109  1  0.99156000  0.91678000  0.23499000  1.0
  O  O110  1  0.00295000  0.73674000  0.42299000  1.0
  O  O111  1  0.99307000  0.07526000  0.76159000  1.0
  O  O112  1  0.99087000  0.06896000  0.22876000  1.0
  O  O113  1  0.00134000  0.73697000  0.57566000  1.0
  O  O114  1  0.98905000  0.91972000  0.75828000  1.0
  O  O115  1  0.00034000  0.26701000  0.42672000  1.0
  O  O116  1  0.65777000  0.91994000  0.23076000  1.0
  O  O117  1  0.33628000  0.26667000  0.57383000  1.0
  O  O118  1  0.33665000  0.06973000  0.76276000  1.0
  O  O119  1  0.65719000  0.73745000  0.42650000  1.0
  O  O120  1  0.80794000  0.73699000  0.23251000  1.0
  O  O121  1  0.80804000  0.06970000  0.57667000  1.0
  O  O122  1  0.18999000  0.26769000  0.76322000  1.0
  O  O123  1  0.18972000  0.92162000  0.42721000  1.0
  O  O124  1  0.86110000  0.79576000  0.43079000  1.0
  O  O125  1  0.13005000  0.06481000  0.43091000  1.0
  O  O126  1  0.13007000  0.06523000  0.69967000  1.0
  O  O127  1  0.86106000  0.06495000  0.43037000  1.0
  O  O128  1  0.09426000  0.14611000  0.54705000  1.0
  O  O129  1  0.89623000  0.94835000  0.54728000  1.0
  O  O130  1  0.09476000  0.94805000  0.54785000  1.0
  O  O131  1  0.89672000  0.94791000  0.34949000  1.0
