# generated using pymatgen
data_AlH4C8O5
_symmetry_space_group_name_H-M   'P 1'
_cell_length_a   11.90980000
_cell_length_b   12.09540000
_cell_length_c   12.09546730
_cell_angle_alpha   75.97273397
_cell_angle_beta   60.50667389
_cell_angle_gamma   60.50610000
_symmetry_Int_Tables_number   1
_chemical_formula_structural   AlH4C8O5
_chemical_formula_sum   'Al4 H16 C32 O20'
_cell_volume   1320.06610655
_cell_formula_units_Z   4
loop_
 _symmetry_equiv_pos_site_id
 _symmetry_equiv_pos_as_xyz
  1  'x, y, z'
loop_
 _atom_site_type_symbol
 _atom_site_label
 _atom_site_symmetry_multiplicity
 _atom_site_fract_x
 _atom_site_fract_y
 _atom_site_fract_z
 _atom_site_occupancy
  Al  Al0  1  0.19213000  0.00000000  0.61574000  1.0
  Al  Al1  1  0.55791000  0.88418000  0.50000000  1.0
  Al  Al2  1  0.94209000  0.11582000  0.50000000  1.0
  Al  Al3  1  0.80787000  0.00000000  0.38426000  1.0
  H  H4  1  0.18907000  0.93591000  0.43589000  1.0
  H  H5  1  0.56088000  0.06409000  0.56411000  1.0
  H  H6  1  0.37504000  0.06409000  0.43589000  1.0
  H  H7  1  0.87501000  0.93591000  0.56411000  1.0
  H  H8  1  0.89050000  0.00000000  1.00000000  1.0
  H  H9  1  0.85962000  0.50000000  0.50000000  1.0
  H  H10  1  0.10950000  0.00000000  1.00000000  1.0
  H  H11  1  0.64038000  0.50000000  0.50000000  1.0
  H  H12  1  0.64806000  0.05846000  0.80323000  1.0
  H  H13  1  0.10207000  0.69675000  0.44144000  1.0
  H  H14  1  0.54870000  0.94154000  0.80323000  1.0
  H  H15  1  0.45649000  0.30325000  0.44144000  1.0
  H  H16  1  0.20117000  0.69675000  0.55857000  1.0
  H  H17  1  0.29347000  0.05846000  0.19677000  1.0
  H  H18  1  0.24025000  0.30325000  0.55857000  1.0
  H  H19  1  0.50976000  0.94154000  0.19677000  1.0
  C  C20  1  0.89190000  0.04769000  0.76550000  1.0
  C  C21  1  0.85820000  0.73449000  0.45223000  1.0
  C  C22  1  0.34260000  0.95231000  0.76550000  1.0
  C  C23  1  0.68957000  0.26551000  0.45223000  1.0
  C  C24  1  0.40731000  0.73449000  0.54777000  1.0
  C  C25  1  0.06041000  0.04769000  0.23450000  1.0
  C  C26  1  0.04492000  0.26551000  0.54777000  1.0
  C  C27  1  0.70509000  0.95231000  0.23450000  1.0
  C  C28  1  0.78185000  0.02669000  0.88867000  1.0
  C  C29  1  0.96829000  0.61131000  0.47321000  1.0
  C  C30  1  0.32948000  0.97331000  0.88867000  1.0
  C  C31  1  0.55851000  0.38869000  0.47321000  1.0
  C  C32  1  0.42040000  0.61131000  0.52679000  1.0
  C  C33  1  0.19146000  0.02669000  0.11133000  1.0
  C  C34  1  0.05281000  0.38869000  0.52679000  1.0
  C  C35  1  0.69721000  0.97331000  0.11133000  1.0
  C  C36  1  0.79908000  0.00000000  0.00000000  1.0
  C  C37  1  0.95104000  0.50000000  0.50000000  1.0
  C  C38  1  0.20092000  0.00000000  0.00000000  1.0
  C  C39  1  0.54897000  0.50000000  0.50000000  1.0
  C  C40  1  0.66196000  0.03051000  0.89002000  1.0
  C  C41  1  0.08815000  0.60997000  0.46940000  1.0
  C  C42  1  0.44802000  0.96949000  0.89002000  1.0
  C  C43  1  0.44246000  0.39003000  0.46940000  1.0
  C  C44  1  0.30189000  0.60997000  0.53060000  1.0
  C  C45  1  0.30752000  0.03051000  0.10998000  1.0
  C  C46  1  0.16751000  0.39003000  0.53060000  1.0
  C  C47  1  0.58250000  0.96949000  0.10998000  1.0
  C  C48  1  0.56187000  0.00000000  0.00000000  1.0
  C  C49  1  0.18816000  0.50000000  0.50000000  1.0
  C  C50  1  0.43812000  0.00000000  0.00000000  1.0
  C  C51  1  0.31184000  0.50000000  0.50000000  1.0
  O  O52  1  0.12411000  0.00094000  0.50086000  1.0
  O  O53  1  0.62590000  0.99906000  0.49914000  1.0
  O  O54  1  0.37503000  0.99906000  0.50086000  1.0
  O  O55  1  0.87495000  0.00094000  0.49914000  1.0
  O  O56  1  0.01872000  0.99982000  0.75404000  1.0
  O  O57  1  0.73139000  0.74593000  0.50010000  1.0
  O  O58  1  0.22724000  0.00018000  0.75404000  1.0
  O  O59  1  0.76851000  0.25407000  0.50010000  1.0
  O  O60  1  0.52269000  0.74593000  0.49990000  1.0
  O  O61  1  0.98145000  0.99982000  0.24597000  1.0
  O  O62  1  0.97741000  0.25407000  0.49990000  1.0
  O  O63  1  0.77259000  0.00018000  0.24596000  1.0
  O  O64  1  0.85017000  0.10911000  0.68021000  1.0
  O  O65  1  0.89987000  0.81983000  0.39087000  1.0
  O  O66  1  0.46961000  0.89089000  0.68021000  1.0
  O  O67  1  0.70926000  0.18017000  0.39087000  1.0
  O  O68  1  0.28030000  0.81983000  0.60913000  1.0
  O  O69  1  0.04072000  0.10911000  0.31979000  1.0
  O  O70  1  0.11057000  0.18017000  0.60913000  1.0
  O  O71  1  0.63949000  0.89089000  0.31979000  1.0
