# generated using pymatgen
data_CoH3C8ClO4
_symmetry_space_group_name_H-M   'P 1'
_cell_length_a   4.82494000
_cell_length_b   12.88610000
_cell_length_c   13.81800000
_cell_angle_alpha   77.41100000
_cell_angle_beta   89.99940000
_cell_angle_gamma   89.99960000
_symmetry_Int_Tables_number   1
_chemical_formula_structural   CoH3C8ClO4
_chemical_formula_sum   'Co4 H12 C32 Cl4 O16'
_cell_volume   838.47478904
_cell_formula_units_Z   4
loop_
 _symmetry_equiv_pos_site_id
 _symmetry_equiv_pos_as_xyz
  1  'x, y, z'
loop_
 _atom_site_type_symbol
 _atom_site_label
 _atom_site_symmetry_multiplicity
 _atom_site_fract_x
 _atom_site_fract_y
 _atom_site_fract_z
 _atom_site_occupancy
  Co  Co0  1  0.78165000  0.39325000  0.56151000  1.0
  Co  Co1  1  0.28164000  0.10676000  0.43849000  1.0
  Co  Co2  1  0.21836000  0.60676000  0.43849000  1.0
  Co  Co3  1  0.71835000  0.89324000  0.56151000  1.0
  H  H4  1  0.57808000  0.22630000  0.97305000  1.0
  H  H5  1  0.07810000  0.27369000  0.02696000  1.0
  H  H6  1  0.42192000  0.77369000  0.02695000  1.0
  H  H7  1  0.92191000  0.72631000  0.97304000  1.0
  H  H8  1  0.82051000  0.05934000  0.96002000  1.0
  H  H9  1  0.32055000  0.44065000  0.03998000  1.0
  H  H10  1  0.17948000  0.94065000  0.03998000  1.0
  H  H11  1  0.67947000  0.55935000  0.96002000  1.0
  H  H12  1  0.79783000  0.99638000  0.80102000  1.0
  H  H13  1  0.29785000  0.50361000  0.19898000  1.0
  H  H14  1  0.20216000  0.00361000  0.19899000  1.0
  H  H15  1  0.70216000  0.49639000  0.80101000  1.0
  C  C16  1  0.25869000  0.29065000  0.64801000  1.0
  C  C17  1  0.75868000  0.20935000  0.35199000  1.0
  C  C18  1  0.74132000  0.70935000  0.35199000  1.0
  C  C19  1  0.24131000  0.79065000  0.64801000  1.0
  C  C20  1  0.41167000  0.22168000  0.73309000  1.0
  C  C21  1  0.91167000  0.27832000  0.26691000  1.0
  C  C22  1  0.58834000  0.77832000  0.26691000  1.0
  C  C23  1  0.08832000  0.72169000  0.73309000  1.0
  C  C24  1  0.42585000  0.25524000  0.82284000  1.0
  C  C25  1  0.92586000  0.24476000  0.17716000  1.0
  C  C26  1  0.57414000  0.74476000  0.17716000  1.0
  C  C27  1  0.07413000  0.75525000  0.82284000  1.0
  C  C28  1  0.57161000  0.19796000  0.90436000  1.0
  C  C29  1  0.07162000  0.30204000  0.09565000  1.0
  C  C30  1  0.42839000  0.80204000  0.09565000  1.0
  C  C31  1  0.92838000  0.69796000  0.90435000  1.0
  C  C32  1  0.70659000  0.10448000  0.89651000  1.0
  C  C33  1  0.20661000  0.39552000  0.10349000  1.0
  C  C34  1  0.29340000  0.89552000  0.10349000  1.0
  C  C35  1  0.79339000  0.60448000  0.89650000  1.0
  C  C36  1  0.69330000  0.06895000  0.80853000  1.0
  C  C37  1  0.19331000  0.43105000  0.19147000  1.0
  C  C38  1  0.30669000  0.93105000  0.19147000  1.0
  C  C39  1  0.80669000  0.56895000  0.80853000  1.0
  C  C40  1  0.54521000  0.12623000  0.72707000  1.0
  C  C41  1  0.04522000  0.37376000  0.27293000  1.0
  C  C42  1  0.45479000  0.87377000  0.27293000  1.0
  C  C43  1  0.95477000  0.62624000  0.72707000  1.0
  C  C44  1  0.52882000  0.08286000  0.63565000  1.0
  C  C45  1  0.02882000  0.41714000  0.36435000  1.0
  C  C46  1  0.47118000  0.91713000  0.36435000  1.0
  C  C47  1  0.97118000  0.58287000  0.63564000  1.0
  Cl  Cl48  1  0.25763000  0.37126000  0.83405000  1.0
  Cl  Cl49  1  0.75763000  0.12874000  0.16595000  1.0
  Cl  Cl50  1  0.74238000  0.62874000  0.16595000  1.0
  Cl  Cl51  1  0.24237000  0.87126000  0.83405000  1.0
  O  O52  1  0.99620000  0.28358000  0.65060000  1.0
  O  O53  1  0.49619000  0.21643000  0.34941000  1.0
  O  O54  1  0.00382000  0.71643000  0.34940000  1.0
  O  O55  1  0.50380000  0.78358000  0.65060000  1.0
  O  O56  1  0.38701000  0.35842000  0.58223000  1.0
  O  O57  1  0.88699000  0.14158000  0.41777000  1.0
  O  O58  1  0.61301000  0.64158000  0.41776000  1.0
  O  O59  1  0.11300000  0.85842000  0.58223000  1.0
  O  O60  1  0.34852000  0.12360000  0.57079000  1.0
  O  O61  1  0.84853000  0.37640000  0.42921000  1.0
  O  O62  1  0.65147000  0.87640000  0.42921000  1.0
  O  O63  1  0.15147000  0.62360000  0.57079000  1.0
  O  O64  1  0.69279000  0.00714000  0.62989000  1.0
  O  O65  1  0.19280000  0.49286000  0.37010000  1.0
  O  O66  1  0.30720000  0.99286000  0.37011000  1.0
  O  O67  1  0.80719000  0.50715000  0.62989000  1.0
