# generated using pymatgen
data_CuH19C17N9
_symmetry_space_group_name_H-M   'P 1'
_cell_length_a   8.16450000
_cell_length_b   10.51780000
_cell_length_c   11.59130000
_cell_angle_alpha   63.94390000
_cell_angle_beta   88.51430000
_cell_angle_gamma   76.74050000
_symmetry_Int_Tables_number   1
_chemical_formula_structural   CuH19C17N9
_chemical_formula_sum   'Cu2 H38 C34 N18'
_cell_volume   867.17872465
_cell_formula_units_Z   2
loop_
 _symmetry_equiv_pos_site_id
 _symmetry_equiv_pos_as_xyz
  1  'x, y, z'
loop_
 _atom_site_type_symbol
 _atom_site_label
 _atom_site_symmetry_multiplicity
 _atom_site_fract_x
 _atom_site_fract_y
 _atom_site_fract_z
 _atom_site_occupancy
  Cu  Cu0  1  0.73884000  0.40926000  0.41076000  1.0
  Cu  Cu1  1  0.31789000  0.62379000  0.27389000  1.0
  H  H2  1  0.94569000  0.31560000  0.60751000  1.0
  H  H3  1  0.49133000  0.70231000  0.39700000  1.0
  H  H4  1  0.71427000  0.93859000  0.36313000  1.0
  H  H5  1  0.45786000  0.33078000  0.22560000  1.0
  H  H6  1  0.54002000  0.19304000  0.17388000  1.0
  H  H7  1  0.64365000  0.33401000  0.14378000  1.0
  H  H8  1  0.04969000  0.81841000  0.63081000  1.0
  H  H9  1  0.89575000  0.74469000  0.59263000  1.0
  H  H10  1  0.85909000  0.81233000  0.70928000  1.0
  H  H11  1  0.93604000  0.03911000  0.70103000  1.0
  H  H12  1  0.05207000  0.13038000  0.56849000  1.0
  H  H13  1  0.62482000  0.22252000  0.67475000  1.0
  H  H14  1  0.66026000  0.38718000  0.66250000  1.0
  H  H15  1  0.71708000  0.99782000  0.86160000  1.0
  H  H16  1  0.81926000  0.86460000  0.09240000  1.0
  H  H17  1  0.92570000  0.99026000  0.20070000  1.0
  H  H18  1  0.99687000  0.21013000  0.19060000  1.0
  H  H19  1  0.04660000  0.45715000  0.06080000  1.0
  H  H20  1  0.98574000  0.57803000  0.82360000  1.0
  H  H21  1  0.86225000  0.46393000  0.71406000  1.0
  H  H22  1  0.19184000  0.06640000  0.80664000  1.0
  H  H23  1  0.22279000  0.64876000  0.97346000  1.0
  H  H24  1  0.13378000  0.80960000  0.83118000  1.0
  H  H25  1  0.01905000  0.75404000  0.97129000  1.0
  H  H26  1  0.30192000  0.21183000  0.03144000  1.0
  H  H27  1  0.31031000  0.25163000  0.86676000  1.0
  H  H28  1  0.49682000  0.15543000  0.97439000  1.0
  H  H29  1  0.44266000  0.97956000  0.22544000  1.0
  H  H30  1  0.58180000  0.82990000  0.21112000  1.0
  H  H31  1  0.18312000  0.75279000  0.44373000  1.0
  H  H32  1  0.16139000  0.92155000  0.30831000  1.0
  H  H33  1  0.23326000  0.12011000  0.32345000  1.0
  H  H34  1  0.34132000  0.22570000  0.45110000  1.0
  H  H35  1  0.47441000  0.06524000  0.67327000  1.0
  H  H36  1  0.57189000  0.81911000  0.85396000  1.0
  H  H37  1  0.59598000  0.55519000  0.94930000  1.0
  H  H38  1  0.48188000  0.44701000  0.82496000  1.0
  H  H39  1  0.35785000  0.60100000  0.60204000  1.0
  C  C40  1  0.67905000  0.16676000  0.33833000  1.0
  C  C41  1  0.73719000  0.01356000  0.39801000  1.0
  C  C42  1  0.82770000  0.97530000  0.51303000  1.0
  C  C43  1  0.57364000  0.26135000  0.21416000  1.0
  C  C44  1  0.91321000  0.83044000  0.61705000  1.0
  C  C45  1  0.92548000  0.12874000  0.60312000  1.0
  C  C46  1  0.72118000  0.27210000  0.69084000  1.0
  C  C47  1  0.78878000  0.19385000  0.83056000  1.0
  C  C48  1  0.77469000  0.05229000  0.90517000  1.0
  C  C49  1  0.82803000  0.97729000  0.03810000  1.0
  C  C50  1  0.88967000  0.04689000  0.09737000  1.0
  C  C51  1  0.90835000  0.19125000  0.02555000  1.0
  C  C52  1  0.86293000  0.26506000  0.88882000  1.0
  C  C53  1  0.97136000  0.26417000  0.08595000  1.0
  C  C54  1  0.99781000  0.40145000  0.01443000  1.0
  C  C55  1  0.96141000  0.47086000  0.87937000  1.0
  C  C56  1  0.89305000  0.40593000  0.81809000  1.0
  C  C57  1  0.22225000  0.84957000  0.97957000  1.0
  C  C58  1  0.23551000  0.99454000  0.90690000  1.0
  C  C59  1  0.31476000  0.03094000  0.98878000  1.0
  C  C60  1  0.14498000  0.76054000  0.93676000  1.0
  C  C61  1  0.35952000  0.16933000  0.96479000  1.0
  C  C62  1  0.44981000  0.87696000  0.21926000  1.0
  C  C63  1  0.25087000  0.83636000  0.38835000  1.0
  C  C64  1  0.31180000  0.89873000  0.46886000  1.0
  C  C65  1  0.29516000  0.04755000  0.41993000  1.0
  C  C66  1  0.35416000  0.10849000  0.49296000  1.0
  C  C67  1  0.42957000  0.01919000  0.61577000  1.0
  C  C68  1  0.44860000  0.86597000  0.67099000  1.0
  C  C69  1  0.38803000  0.80388000  0.59712000  1.0
  C  C70  1  0.52448000  0.77271000  0.79788000  1.0
  C  C71  1  0.53661000  0.62486000  0.85194000  1.0
  C  C72  1  0.47324000  0.56395000  0.78091000  1.0
  C  C73  1  0.40244000  0.65088000  0.65602000  1.0
  N  N74  1  0.73297000  0.21983000  0.41298000  1.0
  N  N75  1  0.82146000  0.10270000  0.51898000  1.0
  N  N76  1  0.84968000  0.27107000  0.59772000  1.0
  N  N77  1  0.60490000  0.53776000  0.24324000  1.0
  N  N78  1  0.67546000  0.60918000  0.15370000  1.0
  N  N79  1  0.73810000  0.68081000  0.06420000  1.0
  N  N80  1  0.73294000  0.57825000  0.44917000  1.0
  N  N81  1  0.84010000  0.64434000  0.40347000  1.0
  N  N82  1  0.94158000  0.71129000  0.36053000  1.0
  N  N83  1  0.20447000  0.51269000  0.21692000  1.0
  N  N84  1  0.10533000  0.44823000  0.27985000  1.0
  N  N85  1  0.00958000  0.37990000  0.33702000  1.0
  N  N86  1  0.35790000  0.47471000  0.45748000  1.0
  N  N87  1  0.25692000  0.42466000  0.53028000  1.0
  N  N88  1  0.16720000  0.37088000  0.60822000  1.0
  N  N89  1  0.29138000  0.79883000  0.10046000  1.0
  N  N90  1  0.34542000  0.91037000  0.10490000  1.0
  N  N91  1  0.38947000  0.77013000  0.33081000  1.0
