# generated using pymatgen
data_KH22C17(NO2)3
_symmetry_space_group_name_H-M   'P 1'
_cell_length_a   7.36325000
_cell_length_b   8.21683000
_cell_length_c   14.99400000
_cell_angle_alpha   92.71030000
_cell_angle_beta   90.00000000
_cell_angle_gamma   89.99990000
_symmetry_Int_Tables_number   1
_chemical_formula_structural   KH22C17(NO2)3
_chemical_formula_sum   'K2 H44 C34 N6 O12'
_cell_volume   906.16081183
_cell_formula_units_Z   2
loop_
 _symmetry_equiv_pos_site_id
 _symmetry_equiv_pos_as_xyz
  1  'x, y, z'
loop_
 _atom_site_type_symbol
 _atom_site_label
 _atom_site_symmetry_multiplicity
 _atom_site_fract_x
 _atom_site_fract_y
 _atom_site_fract_z
 _atom_site_occupancy
  K  K0  1  0.72554000  0.03871000  0.90988000  1.0
  K  K1  1  0.22553000  0.96129000  0.09012000  1.0
  H  H2  1  0.70474000  0.43854000  0.94929000  1.0
  H  H3  1  0.20474000  0.56146000  0.05071000  1.0
  H  H4  1  0.54763000  0.88566000  0.68650000  1.0
  H  H5  1  0.04763000  0.11434000  0.31350000  1.0
  H  H6  1  0.08249000  0.73727000  0.92005000  1.0
  H  H7  1  0.58249000  0.26273000  0.07995000  1.0
  H  H8  1  0.90801000  0.72135000  0.97831000  1.0
  H  H9  1  0.40801000  0.27865000  0.02169000  1.0
  H  H10  1  0.40820000  0.73790000  0.93521000  1.0
  H  H11  1  0.90820000  0.26210000  0.06479000  1.0
  H  H12  1  0.57856000  0.72859000  0.99648000  1.0
  H  H13  1  0.07856000  0.27141000  0.00352000  1.0
  H  H14  1  0.84657000  0.30973000  0.78573000  1.0
  H  H15  1  0.34657000  0.69027000  0.21427000  1.0
  H  H16  1  0.92572000  0.47359000  0.85622000  1.0
  H  H17  1  0.42572000  0.52641000  0.14378000  1.0
  H  H18  1  0.57164000  0.48901000  0.74940000  1.0
  H  H19  1  0.07164000  0.51099000  0.25060000  1.0
  H  H20  1  0.68050000  0.65224000  0.80788000  1.0
  H  H21  1  0.18051000  0.34776000  0.19212000  1.0
  H  H22  1  0.90516000  0.97483000  0.65875000  1.0
  H  H23  1  0.40516000  0.02518000  0.34125000  1.0
  H  H24  1  0.76307000  0.84314000  0.59265000  1.0
  H  H25  1  0.26307000  0.15686000  0.40735000  1.0
  H  H26  1  0.04275000  0.71042000  0.65795000  1.0
  H  H27  1  0.54275000  0.28958000  0.34205000  1.0
  H  H28  1  0.95260000  0.75136000  0.76583000  1.0
  H  H29  1  0.45260000  0.24864000  0.23417000  1.0
  H  H30  1  0.98831000  0.61545000  0.53458000  1.0
  H  H31  1  0.48830000  0.38454000  0.46542000  1.0
  H  H32  1  0.00008000  0.41561000  0.40903000  1.0
  H  H33  1  0.50008000  0.58439000  0.59097000  1.0
  H  H34  1  0.65128000  0.09319000  0.54813000  1.0
  H  H35  1  0.15128000  0.90681000  0.45187000  1.0
  H  H36  1  0.64024000  0.28568000  0.67614000  1.0
  H  H37  1  0.14024000  0.71432000  0.32386000  1.0
  H  H38  1  0.78143000  0.07199000  0.22717000  1.0
  H  H39  1  0.28143000  0.92801000  0.77283000  1.0
  H  H40  1  0.77765000  0.86751000  0.10005000  1.0
  H  H41  1  0.27765000  0.13249000  0.89995000  1.0
  H  H42  1  0.73542000  0.48009000  0.28149000  1.0
  H  H43  1  0.23542000  0.51991000  0.71851000  1.0
  H  H44  1  0.72999000  0.68565000  0.41058000  1.0
  H  H45  1  0.22999000  0.31435000  0.58942000  1.0
  C  C46  1  0.80246000  0.41633000  0.82768000  1.0
  C  C47  1  0.30246000  0.58367000  0.17232000  1.0
  C  C48  1  0.70519000  0.53755000  0.76952000  1.0
  C  C49  1  0.20519000  0.46245000  0.23048000  1.0
  C  C50  1  0.81115000  0.87095000  0.66128000  1.0
  C  C51  1  0.31115000  0.12905000  0.33872000  1.0
  C  C52  1  0.91545000  0.72579000  0.69551000  1.0
  C  C53  1  0.41545000  0.27421000  0.30449000  1.0
  C  C54  1  0.81825000  0.46711000  0.61862000  1.0
  C  C55  1  0.31825000  0.53289000  0.38138000  1.0
  C  C56  1  0.91702000  0.50046000  0.54000000  1.0
  C  C57  1  0.41702000  0.49954000  0.46000000  1.0
  C  C58  1  0.92365000  0.38808000  0.46860000  1.0
  C  C59  1  0.42366000  0.61191000  0.53140000  1.0
  C  C60  1  0.83168000  0.23805000  0.47032000  1.0
  C  C61  1  0.33168000  0.76195000  0.52968000  1.0
  C  C62  1  0.72713000  0.20655000  0.54684000  1.0
  C  C63  1  0.22713000  0.79345000  0.45316000  1.0
  C  C64  1  0.72105000  0.31636000  0.61871000  1.0
  C  C65  1  0.22105000  0.68364000  0.38129000  1.0
  C  C66  1  0.76325000  0.89031000  0.32747000  1.0
  C  C67  1  0.26325000  0.10969000  0.67253000  1.0
  C  C68  1  0.77344000  0.94231000  0.23919000  1.0
  C  C69  1  0.27344000  0.05769000  0.76081000  1.0
  C  C70  1  0.77039000  0.82758000  0.16818000  1.0
  C  C71  1  0.27039000  0.17242000  0.83182000  1.0
  C  C72  1  0.75966000  0.66029000  0.18313000  1.0
  C  C73  1  0.25966000  0.33971000  0.81687000  1.0
  C  C74  1  0.74543000  0.61003000  0.27100000  1.0
  C  C75  1  0.24542000  0.38996000  0.72900000  1.0
  C  C76  1  0.74322000  0.72346000  0.34229000  1.0
  C  C77  1  0.24322000  0.27654000  0.65771000  1.0
  C  C78  1  0.75709000  0.53455000  0.10790000  1.0
  C  C79  1  0.25709000  0.46545000  0.89210000  1.0
  N  N80  1  0.81217000  0.57404000  0.69089000  1.0
  N  N81  1  0.31217000  0.42595000  0.30911000  1.0
  N  N82  1  0.84678000  0.13037000  0.39652000  1.0
  N  N83  1  0.34678000  0.86963000  0.60348000  1.0
  N  N84  1  0.76348000  0.99427000  0.40368000  1.0
  N  N85  1  0.26348000  0.00573000  0.59632000  1.0
  O  O86  1  0.68655000  0.36226000  0.89581000  1.0
  O  O87  1  0.18655000  0.63774000  0.10419000  1.0
  O  O88  1  0.66173000  0.91649000  0.71838000  1.0
  O  O89  1  0.16173000  0.08351000  0.28162000  1.0
  O  O90  1  0.74853000  0.58322000  0.02769000  1.0
  O  O91  1  0.24852000  0.41678000  0.97231000  1.0
  O  O92  1  0.75886000  0.38526000  0.12701000  1.0
  O  O93  1  0.25886000  0.61474000  0.87299000  1.0
  O  O94  1  0.97869000  0.80110000  0.94518000  1.0
  O  O95  1  0.47869000  0.19890000  0.05482000  1.0
  O  O96  1  0.49466000  0.80770000  0.97067000  1.0
  O  O97  1  0.99466000  0.19230000  0.02932000  1.0
