# generated using pymatgen
data_ZnH16C22NO4
_symmetry_space_group_name_H-M   'P 1'
_cell_length_a   13.94130000
_cell_length_b   15.26620000
_cell_length_c   17.81280000
_cell_angle_alpha   89.99600000
_cell_angle_beta   90.21680000
_cell_angle_gamma   89.99910000
_symmetry_Int_Tables_number   1
_chemical_formula_structural   ZnH16C22NO4
_chemical_formula_sum   'Zn2 H32 C44 N2 O8'
_cell_volume   3791.08308121
_cell_formula_units_Z   2
loop_
 _symmetry_equiv_pos_site_id
 _symmetry_equiv_pos_as_xyz
  1  'x, y, z'
loop_
 _atom_site_type_symbol
 _atom_site_label
 _atom_site_symmetry_multiplicity
 _atom_site_fract_x
 _atom_site_fract_y
 _atom_site_fract_z
 _atom_site_occupancy
  Zn  Zn0  1  0.40056000  0.49481000  0.50129000  1.0
  Zn  Zn1  1  0.59945000  0.49480000  0.49872000  1.0
  H  H2  1  0.34546000  0.54394000  0.87760000  1.0
  H  H3  1  0.65453000  0.54392000  0.12239000  1.0
  H  H4  1  0.34567000  0.55903000  0.12292000  1.0
  H  H5  1  0.65432000  0.55902000  0.87708000  1.0
  H  H6  1  0.34692000  0.51601000  0.73919000  1.0
  H  H7  1  0.65307000  0.51600000  0.26081000  1.0
  H  H8  1  0.34605000  0.53248000  0.26147000  1.0
  H  H9  1  0.65394000  0.53248000  0.73852000  1.0
  H  H10  1  0.43784000  0.05463000  0.61038000  1.0
  H  H11  1  0.55417000  0.93547000  0.61329000  1.0
  H  H12  1  0.44582000  0.93549000  0.38669000  1.0
  H  H13  1  0.56216000  0.05466000  0.38962000  1.0
  H  H14  1  0.93302000  0.45152000  0.38524000  1.0
  H  H15  1  0.06698000  0.45156000  0.61479000  1.0
  H  H16  1  0.93073000  0.54766000  0.61365000  1.0
  H  H17  1  0.06927000  0.54762000  0.38633000  1.0
  H  H18  1  0.75277000  0.45241000  0.38915000  1.0
  H  H19  1  0.24723000  0.45246000  0.61088000  1.0
  H  H20  1  0.75055000  0.54220000  0.60774000  1.0
  H  H21  1  0.24945000  0.54217000  0.39226000  1.0
  H  H22  1  0.35882000  0.26709000  0.61326000  1.0
  H  H23  1  0.40686000  0.18633000  0.67518000  1.0
  H  H24  1  0.47534000  0.28033000  0.65022000  1.0
  H  H25  1  0.62817000  0.71811000  0.61940000  1.0
  H  H26  1  0.58465000  0.80350000  0.67844000  1.0
  H  H27  1  0.50984000  0.71356000  0.65368000  1.0
  H  H28  1  0.49014000  0.71359000  0.34629000  1.0
  H  H29  1  0.37183000  0.71814000  0.38060000  1.0
  H  H30  1  0.41533000  0.80354000  0.32154000  1.0
  H  H31  1  0.64119000  0.26711000  0.38676000  1.0
  H  H32  1  0.59315000  0.18637000  0.32483000  1.0
  H  H33  1  0.52467000  0.28037000  0.34980000  1.0
  C  C34  1  0.50002000  0.32530000  0.50001000  1.0
  C  C35  1  0.50001000  0.66498000  0.49999000  1.0
  C  C36  1  0.50001000  0.22701000  0.50001000  1.0
  C  C37  1  0.50000000  0.76326000  0.49999000  1.0
  C  C38  1  0.49999000  0.04349000  0.50000000  1.0
  C  C39  1  0.50000000  0.94667000  0.49999000  1.0
  C  C40  1  0.89574000  0.47332000  0.43553000  1.0
  C  C41  1  0.10426000  0.47334000  0.56448000  1.0
  C  C42  1  0.89451000  0.52498000  0.56294000  1.0
  C  C43  1  0.10549000  0.52496000  0.43705000  1.0
  C  C44  1  0.79608000  0.47267000  0.43725000  1.0
  C  C45  1  0.20392000  0.47270000  0.56276000  1.0
  C  C46  1  0.79492000  0.52302000  0.56017000  1.0
  C  C47  1  0.20508000  0.52300000  0.43983000  1.0
  C  C48  1  0.94709000  0.49955000  0.49959000  1.0
  C  C49  1  0.05292000  0.49955000  0.50041000  1.0
  C  C50  1  0.49909000  0.50455000  0.35213000  1.0
  C  C51  1  0.50090000  0.50456000  0.64788000  1.0
  C  C52  1  0.41288000  0.54126000  0.84689000  1.0
  C  C53  1  0.58710000  0.54125000  0.15311000  1.0
  C  C54  1  0.41288000  0.54997000  0.15342000  1.0
  C  C55  1  0.58711000  0.54997000  0.84658000  1.0
  C  C56  1  0.41367000  0.52564000  0.77010000  1.0
  C  C57  1  0.58632000  0.52563000  0.22990000  1.0
  C  C58  1  0.41306000  0.53501000  0.23029000  1.0
  C  C59  1  0.58693000  0.53501000  0.76971000  1.0
  C  C60  1  0.50053000  0.52172000  0.73073000  1.0
  C  C61  1  0.49946000  0.52172000  0.26927000  1.0
  C  C62  1  0.49991000  0.55232000  0.88668000  1.0
  C  C63  1  0.50008000  0.55231000  0.11331000  1.0
  C  C64  1  0.49995000  0.56083000  0.96571000  1.0
  C  C65  1  0.50004000  0.56082000  0.03428000  1.0
  C  C66  1  0.46592000  0.09045000  0.56212000  1.0
  C  C67  1  0.52948000  0.89971000  0.56374000  1.0
  C  C68  1  0.47051000  0.89973000  0.43624000  1.0
  C  C69  1  0.53408000  0.09047000  0.43788000  1.0
  C  C70  1  0.46413000  0.18196000  0.56281000  1.0
  C  C71  1  0.53094000  0.80819000  0.56458000  1.0
  C  C72  1  0.46906000  0.80821000  0.43539000  1.0
  C  C73  1  0.53588000  0.18197000  0.43721000  1.0
  C  C74  1  0.42425000  0.23117000  0.62906000  1.0
  C  C75  1  0.56523000  0.75862000  0.63274000  1.0
  C  C76  1  0.43476000  0.75865000  0.36724000  1.0
  C  C77  1  0.57576000  0.23120000  0.37095000  1.0
  N  N78  1  0.74682000  0.49698000  0.49854000  1.0
  N  N79  1  0.25318000  0.49698000  0.50147000  1.0
  O  O80  1  0.41956000  0.36318000  0.49030000  1.0
  O  O81  1  0.57942000  0.62715000  0.48650000  1.0
  O  O82  1  0.42058000  0.62715000  0.51347000  1.0
  O  O83  1  0.58045000  0.36317000  0.50972000  1.0
  O  O84  1  0.41909000  0.51265000  0.38593000  1.0
  O  O85  1  0.58091000  0.51265000  0.61407000  1.0
  O  O86  1  0.42131000  0.48386000  0.61720000  1.0
  O  O87  1  0.57868000  0.48385000  0.38280000  1.0
