# generated using pymatgen
data_NaH11C9O7
_symmetry_space_group_name_H-M   'P 1'
_cell_length_a   4.94318000
_cell_length_b   5.77635000
_cell_length_c   18.16880000
_cell_angle_alpha   83.54670000
_cell_angle_beta   86.67170000
_cell_angle_gamma   81.17240000
_symmetry_Int_Tables_number   1
_chemical_formula_structural   NaH11C9O7
_chemical_formula_sum   'Na2 H22 C18 O14'
_cell_volume   508.94998132
_cell_formula_units_Z   2
loop_
 _symmetry_equiv_pos_site_id
 _symmetry_equiv_pos_as_xyz
  1  'x, y, z'
loop_
 _atom_site_type_symbol
 _atom_site_label
 _atom_site_symmetry_multiplicity
 _atom_site_fract_x
 _atom_site_fract_y
 _atom_site_fract_z
 _atom_site_occupancy
  Na  Na0  1  0.57667000  0.93053000  0.40484000  1.0
  Na  Na1  1  0.42333000  0.06946000  0.59516000  1.0
  H  H2  1  0.05772000  0.42471000  0.05925000  1.0
  H  H3  1  0.94227000  0.57530000  0.94076000  1.0
  H  H4  1  0.36715000  0.49862000  0.15176000  1.0
  H  H5  1  0.63285000  0.50139000  0.84825000  1.0
  H  H6  1  0.16852000  0.88691000  0.29184000  1.0
  H  H7  1  0.83148000  0.11309000  0.70816000  1.0
  H  H8  1  0.86917000  0.80616000  0.19614000  1.0
  H  H9  1  0.13082000  0.19384000  0.80387000  1.0
  H  H10  1  0.72497000  0.42228000  0.22393000  1.0
  H  H11  1  0.27503000  0.57771000  0.77607000  1.0
  H  H12  1  0.44444000  0.58165000  0.27172000  1.0
  H  H13  1  0.55556000  0.41834000  0.72828000  1.0
  H  H14  1  0.57032000  0.17149000  0.97514000  1.0
  H  H15  1  0.42970000  0.82852000  0.02485000  1.0
  H  H16  1  0.28427000  0.36244000  0.46439000  1.0
  H  H17  1  0.71573000  0.63755000  0.53561000  1.0
  H  H18  1  0.08962000  0.20561000  0.43702000  1.0
  H  H19  1  0.91037000  0.79438000  0.56297000  1.0
  H  H20  1  0.11280000  0.63925000  0.39460000  1.0
  H  H21  1  0.88720000  0.36074000  0.60540000  1.0
  H  H22  1  0.12087000  0.73221000  0.47039000  1.0
  H  H23  1  0.87913000  0.26778000  0.52961000  1.0
  C  C24  1  0.94433000  0.10768000  0.12076000  1.0
  C  C25  1  0.05566000  0.89233000  0.87925000  1.0
  C  C26  1  0.08437000  0.30336000  0.10949000  1.0
  C  C27  1  0.91563000  0.69666000  0.89052000  1.0
  C  C28  1  0.25987000  0.34639000  0.16218000  1.0
  C  C29  1  0.74013000  0.65362000  0.83782000  1.0
  C  C30  1  0.29354000  0.19221000  0.22754000  1.0
  C  C31  1  0.70646000  0.80779000  0.77246000  1.0
  C  C32  1  0.15146000  0.99820000  0.23950000  1.0
  C  C33  1  0.84854000  0.00179000  0.76050000  1.0
  C  C34  1  0.98094000  0.95559000  0.18654000  1.0
  C  C35  1  0.01905000  0.04441000  0.81346000  1.0
  C  C36  1  0.75388000  0.05737000  0.06704000  1.0
  C  C37  1  0.24611000  0.94263000  0.93296000  1.0
  C  C38  1  0.59442000  0.42001000  0.27523000  1.0
  C  C39  1  0.40558000  0.57999000  0.72476000  1.0
  C  C40  1  0.77917000  0.41785000  0.33949000  1.0
  C  C41  1  0.22084000  0.58213000  0.66051000  1.0
  O  O42  1  0.63904000  0.87687000  0.07725000  1.0
  O  O43  1  0.36097000  0.12316000  0.92274000  1.0
  O  O44  1  0.71377000  0.21561000  0.00869000  1.0
  O  O45  1  0.28624000  0.78440000  0.99131000  1.0
  O  O46  1  0.45696000  0.21699000  0.28358000  1.0
  O  O47  1  0.54305000  0.78300000  0.71642000  1.0
  O  O48  1  0.86524000  0.61272000  0.34311000  1.0
  O  O49  1  0.13477000  0.38728000  0.65689000  1.0
  O  O50  1  0.83823000  0.22952000  0.38179000  1.0
  O  O51  1  0.16177000  0.77048000  0.61821000  1.0
  O  O52  1  0.23709000  0.20003000  0.47380000  1.0
  O  O53  1  0.76290000  0.79996000  0.52620000  1.0
  O  O54  1  0.24767000  0.67068000  0.43091000  1.0
  O  O55  1  0.75233000  0.32931000  0.56908000  1.0
