# generated using pymatgen
data_Zn4H27C39N3O16
_symmetry_space_group_name_H-M   'P 1'
_cell_length_a   21.25550000
_cell_length_b   21.57510000
_cell_length_c   21.46388819
_cell_angle_alpha   118.87341096
_cell_angle_beta   119.38976505
_cell_angle_gamma   60.86300000
_symmetry_Int_Tables_number   1
_chemical_formula_structural   Zn4H27C39N3O16
_chemical_formula_sum   'Zn8 H54 C78 N6 O32'
_cell_volume   7095.83779082
_cell_formula_units_Z   2
loop_
 _symmetry_equiv_pos_site_id
 _symmetry_equiv_pos_as_xyz
  1  'x, y, z'
loop_
 _atom_site_type_symbol
 _atom_site_label
 _atom_site_symmetry_multiplicity
 _atom_site_fract_x
 _atom_site_fract_y
 _atom_site_fract_z
 _atom_site_occupancy
  Zn  Zn0  1  0.12149000  0.94014000  0.03479000  1.0
  Zn  Zn1  1  0.97383000  0.94239000  0.03830000  1.0
  Zn  Zn2  1  0.97433000  0.94177000  0.88870000  1.0
  Zn  Zn3  1  0.97665000  0.09089000  0.03843000  1.0
  Zn  Zn4  1  0.40624000  0.50752000  0.46408000  1.0
  Zn  Zn5  1  0.53919000  0.51900000  0.45713000  1.0
  Zn  Zn6  1  0.55655000  0.36411000  0.46796000  1.0
  Zn  Zn7  1  0.54657000  0.52426000  0.61234000  1.0
  H  H8  1  0.42109000  0.60379000  0.18458000  1.0
  H  H9  1  0.48205000  0.64122000  0.18913000  1.0
  H  H10  1  0.38871000  0.65152000  0.12067000  1.0
  H  H11  1  0.39289000  0.77196000  0.22807000  1.0
  H  H12  1  0.42536000  0.72660000  0.29327000  1.0
  H  H13  1  0.27552000  0.80948000  0.16017000  1.0
  H  H14  1  0.13051000  0.70418000  0.24323000  1.0
  H  H15  1  0.22996000  0.62943000  0.33217000  1.0
  H  H16  1  0.40726000  0.65399000  0.31295000  1.0
  H  H17  1  0.42845000  0.78077000  0.84990000  1.0
  H  H18  1  0.48760000  0.77560000  0.94248000  1.0
  H  H19  1  0.39526000  0.84478000  0.92752000  1.0
  H  H20  1  0.39481000  0.73914000  0.94692000  1.0
  H  H21  1  0.42798000  0.67389000  0.87059000  1.0
  H  H22  1  0.27768000  0.80879000  0.93493000  1.0
  H  H23  1  0.13670000  0.72070000  0.60762000  1.0
  H  H24  1  0.23743000  0.63297000  0.54488000  1.0
  H  H25  1  0.41274000  0.65662000  0.76178000  1.0
  H  H26  1  0.43031000  0.11642000  0.37430000  1.0
  H  H27  1  0.49006000  0.02368000  0.34048000  1.0
  H  H28  1  0.39437000  0.04037000  0.32752000  1.0
  H  H29  1  0.40544000  0.01864000  0.20677000  1.0
  H  H30  1  0.44188000  0.09324000  0.25115000  1.0
  H  H31  1  0.28639000  0.03268000  0.16725000  1.0
  H  H32  1  0.15128000  0.35753000  0.25619000  1.0
  H  H33  1  0.25391000  0.41849000  0.33562000  1.0
  H  H34  1  0.42637000  0.20216000  0.32298000  1.0
  H  H35  1  0.81544000  0.60935000  0.84201000  1.0
  H  H36  1  0.81275000  0.63852000  0.93389000  1.0
  H  H37  1  0.88092000  0.65358000  0.92222000  1.0
  H  H38  1  0.77346000  0.77310000  0.94663000  1.0
  H  H39  1  0.70596000  0.73150000  0.86877000  1.0
  H  H40  1  0.84386000  0.81245000  0.93710000  1.0
  H  H41  1  0.73323000  0.74806000  0.61147000  1.0
  H  H42  1  0.65410000  0.66239000  0.54452000  1.0
  H  H43  1  0.68662000  0.66232000  0.75795000  1.0
  H  H44  1  0.64781000  0.12316000  0.19934000  1.0
  H  H45  1  0.68680000  0.03271000  0.20853000  1.0
  H  H46  1  0.69744000  0.04499000  0.13832000  1.0
  H  H47  1  0.81948000  0.03163000  0.24818000  1.0
  H  H48  1  0.77242000  0.10839000  0.31068000  1.0
  H  H49  1  0.85556000  0.04164000  0.17632000  1.0
  H  H50  1  0.75491000  0.36569000  0.25485000  1.0
  H  H51  1  0.67070000  0.42974000  0.33518000  1.0
  H  H52  1  0.69563000  0.21589000  0.32461000  1.0
  H  H53  1  0.82518000  0.12893000  0.59099000  1.0
  H  H54  1  0.81656000  0.03871000  0.53150000  1.0
  H  H55  1  0.88606000  0.05000000  0.62336000  1.0
  H  H56  1  0.77359000  0.03693000  0.62032000  1.0
  H  H57  1  0.71106000  0.11454000  0.58772000  1.0
  H  H58  1  0.84605000  0.04555000  0.73613000  1.0
  H  H59  1  0.76151000  0.36930000  0.87796000  1.0
  H  H60  1  0.67782000  0.43508000  0.77926000  1.0
  H  H61  1  0.69584000  0.22234000  0.60448000  1.0
  C  C62  1  0.42256000  0.65097000  0.17899000  1.0
  C  C63  1  0.39126000  0.72532000  0.23451000  1.0
  C  C64  1  0.25584000  0.78542000  0.17899000  1.0
  C  C65  1  0.17842000  0.80173000  0.15769000  1.0
  C  C66  1  0.12845000  0.85364000  0.11214000  1.0
  C  C67  1  0.15035000  0.76872000  0.18047000  1.0
  C  C68  1  0.21238000  0.72321000  0.23069000  1.0
  C  C69  1  0.19145000  0.69308000  0.26001000  1.0
  C  C70  1  0.24585000  0.65198000  0.30831000  1.0
  C  C71  1  0.32379000  0.63870000  0.32722000  1.0
  C  C72  1  0.34641000  0.66645000  0.29764000  1.0
  C  C73  1  0.29089000  0.70991000  0.25021000  1.0
  C  C74  1  0.38217000  0.59511000  0.38005000  1.0
  C  C75  1  0.42842000  0.78663000  0.90358000  1.0
  C  C76  1  0.39455000  0.73251000  0.89277000  1.0
  C  C77  1  0.25873000  0.78924000  0.87347000  1.0
  C  C78  1  0.18160000  0.81072000  0.83445000  1.0
  C  C79  1  0.13077000  0.85867000  0.88127000  1.0
  C  C80  1  0.15465000  0.78634000  0.75189000  1.0
  C  C81  1  0.21743000  0.73544000  0.71894000  1.0
  C  C82  1  0.19748000  0.70516000  0.64014000  1.0
  C  C83  1  0.25261000  0.65745000  0.60595000  1.0
  C  C84  1  0.33040000  0.64041000  0.65079000  1.0
  C  C85  1  0.35204000  0.67059000  0.72918000  1.0
  C  C86  1  0.29566000  0.71699000  0.76381000  1.0
  C  C87  1  0.38903000  0.58950000  0.61269000  1.0
  C  C88  1  0.43136000  0.06290000  0.32827000  1.0
  C  C89  1  0.40445000  0.07257000  0.25225000  1.0
  C  C90  1  0.26847000  0.09368000  0.18798000  1.0
  C  C91  1  0.19163000  0.13333000  0.16748000  1.0
  C  C92  1  0.13882000  0.08852000  0.11763000  1.0
  C  C93  1  0.16628000  0.21528000  0.19460000  1.0
  C  C94  1  0.23057000  0.24669000  0.24337000  1.0
  C  C95  1  0.21189000  0.32478000  0.27116000  1.0
  C  C96  1  0.26814000  0.35792000  0.31474000  1.0
  C  C97  1  0.34569000  0.31298000  0.33268000  1.0
  C  C98  1  0.36598000  0.23514000  0.30724000  1.0
  C  C99  1  0.30844000  0.20148000  0.26163000  1.0
  C  C100  1  0.40400000  0.35210000  0.37868000  1.0
  C  C101  1  0.82192000  0.65322000  0.89730000  1.0
  C  C102  1  0.76534000  0.73001000  0.89085000  1.0
  C  C103  1  0.81898000  0.79688000  0.87575000  1.0
  C  C104  1  0.83444000  0.82194000  0.83841000  1.0
  C  C105  1  0.88642000  0.86758000  0.88564000  1.0
  C  C106  1  0.79911000  0.80436000  0.75649000  1.0
  C  C107  1  0.75407000  0.75304000  0.72116000  1.0
  C  C108  1  0.72208000  0.72849000  0.64220000  1.0
  C  C109  1  0.67864000  0.68190000  0.60577000  1.0
  C  C110  1  0.66569000  0.65891000  0.64853000  1.0
  C  C111  1  0.69720000  0.68205000  0.72706000  1.0
  C  C112  1  0.74176000  0.72911000  0.76402000  1.0
  C  C113  1  0.61804000  0.60908000  0.60862000  1.0
  C  C114  1  0.69631000  0.07079000  0.19629000  1.0
  C  C115  1  0.77172000  0.08458000  0.25221000  1.0
  C  C116  1  0.83276000  0.10265000  0.19479000  1.0
  C  C117  1  0.85061000  0.14078000  0.17294000  1.0
  C  C118  1  0.89963000  0.09426000  0.12432000  1.0
  C  C119  1  0.82123000  0.22274000  0.19765000  1.0
  C  C120  1  0.77216000  0.25600000  0.24484000  1.0
  C  C121  1  0.74088000  0.33425000  0.27084000  1.0
  C  C122  1  0.69505000  0.36906000  0.31479000  1.0
  C  C123  1  0.67923000  0.32556000  0.33407000  1.0
  C  C124  1  0.70938000  0.24760000  0.30882000  1.0
  C  C125  1  0.75625000  0.21226000  0.26419000  1.0
  C  C126  1  0.62970000  0.36517000  0.38209000  1.0
  C  C127  1  0.82782000  0.07642000  0.59008000  1.0
  C  C128  1  0.76990000  0.09002000  0.62151000  1.0
  C  C129  1  0.82683000  0.10660000  0.75546000  1.0
  C  C130  1  0.84816000  0.14398000  0.83187000  1.0
  C  C131  1  0.89628000  0.09650000  0.88210000  1.0
  C  C132  1  0.82319000  0.22592000  0.85913000  1.0
  C  C133  1  0.77421000  0.26017000  0.79720000  1.0
  C  C134  1  0.74579000  0.33855000  0.81764000  1.0
  C  C135  1  0.70034000  0.37428000  0.76363000  1.0
  C  C136  1  0.68260000  0.33150000  0.68652000  1.0
  C  C137  1  0.71030000  0.25342000  0.66457000  1.0
  C  C138  1  0.75566000  0.21715000  0.71970000  1.0
  C  C139  1  0.63343000  0.37129000  0.62895000  1.0
  N  N140  1  0.31112000  0.74180000  0.22234000  1.0
  N  N141  1  0.31473000  0.74538000  0.84235000  1.0
  N  N142  1  0.32572000  0.12359000  0.23224000  1.0
  N  N143  1  0.77429000  0.75368000  0.84266000  1.0
  N  N144  1  0.78855000  0.13426000  0.23821000  1.0
  N  N145  1  0.78297000  0.13907000  0.70046000  1.0
  O  O146  1  0.01056000  0.97977000  0.99978000  1.0
  O  O147  1  0.05667000  0.86864000  0.08920000  1.0
  O  O148  1  0.16315000  0.87962000  0.10016000  1.0
  O  O149  1  0.08265000  0.77598000  0.16235000  1.0
  O  O150  1  0.45236000  0.57279000  0.38679000  1.0
  O  O151  1  0.35680000  0.58373000  0.41522000  1.0
  O  O152  1  0.05937000  0.88246000  0.84809000  1.0
  O  O153  1  0.16464000  0.87197000  0.95297000  1.0
  O  O154  1  0.08745000  0.80396000  0.71015000  1.0
  O  O155  1  0.45848000  0.58765000  0.65017000  1.0
  O  O156  1  0.36374000  0.55125000  0.54374000  1.0
  O  O157  1  0.06765000  0.12289000  0.10355000  1.0
  O  O158  1  0.17104000  0.01713000  0.09313000  1.0
  O  O159  1  0.09941000  0.25760000  0.17997000  1.0
  O  O160  1  0.47416000  0.31616000  0.40730000  1.0
  O  O161  1  0.37722000  0.42151000  0.38527000  1.0
  O  O162  1  0.91555000  0.87653000  0.85243000  1.0
  O  O163  1  0.89842000  0.89314000  0.95699000  1.0
  O  O164  1  0.80268000  0.82914000  0.71732000  1.0
  O  O165  1  0.60630000  0.58948000  0.64853000  1.0
  O  O166  1  0.59237000  0.59030000  0.53670000  1.0
  O  O167  1  0.91261000  0.12730000  0.09864000  1.0
  O  O168  1  0.92450000  0.02320000  0.11205000  1.0
  O  O169  1  0.83385000  0.26384000  0.18332000  1.0
  O  O170  1  0.61768000  0.32648000  0.40287000  1.0
  O  O171  1  0.60330000  0.43625000  0.39844000  1.0
  O  O172  1  0.91834000  0.12913000  0.95288000  1.0
  O  O173  1  0.91143000  0.02548000  0.84851000  1.0
  O  O174  1  0.83872000  0.26638000  0.92583000  1.0
  O  O175  1  0.61996000  0.33184000  0.55906000  1.0
  O  O176  1  0.60877000  0.44266000  0.65559000  1.0
  O  O177  1  0.51762000  0.47485000  0.50262000  1.0
