# generated using pymatgen
data_Ni2H68C53(N3O2)4
_symmetry_space_group_name_H-M   'P 1'
_cell_length_a   12.18730000
_cell_length_b   16.66010000
_cell_length_c   16.66010000
_cell_angle_alpha   90.00000000
_cell_angle_beta   89.99990000
_cell_angle_gamma   90.00000000
_symmetry_Int_Tables_number   1
_chemical_formula_structural   Ni2H68C53(N3O2)4
_chemical_formula_sum   'Ni4 H136 C106 N24 O16'
_cell_volume   3382.69397208
_cell_formula_units_Z   2
loop_
 _symmetry_equiv_pos_site_id
 _symmetry_equiv_pos_as_xyz
  1  'x, y, z'
loop_
 _atom_site_type_symbol
 _atom_site_label
 _atom_site_symmetry_multiplicity
 _atom_site_fract_x
 _atom_site_fract_y
 _atom_site_fract_z
 _atom_site_occupancy
  Ni  Ni0  1  0.00000000  0.69331000  0.80669000  1.0
  Ni  Ni1  1  0.00000000  0.80669000  0.30669000  1.0
  Ni  Ni2  1  0.00000000  0.30669000  0.19331000  1.0
  Ni  Ni3  1  0.00000000  0.19331000  0.69331000  1.0
  H  H4  1  0.15328000  0.60995000  0.85673000  1.0
  H  H5  1  0.84671000  0.85673000  0.39005000  1.0
  H  H6  1  0.15329000  0.39005000  0.14327000  1.0
  H  H7  1  0.84671000  0.14327000  0.60995000  1.0
  H  H8  1  0.15329000  0.89005000  0.35673000  1.0
  H  H9  1  0.84672000  0.35673000  0.10995000  1.0
  H  H10  1  0.15329000  0.10995000  0.64327000  1.0
  H  H11  1  0.84671000  0.64327000  0.89005000  1.0
  H  H12  1  0.48307000  0.46217000  0.66358000  1.0
  H  H13  1  0.51693000  0.66358000  0.53783000  1.0
  H  H14  1  0.48307000  0.53783000  0.33642000  1.0
  H  H15  1  0.51693000  0.33642000  0.46217000  1.0
  H  H16  1  0.48307000  0.03783000  0.16358000  1.0
  H  H17  1  0.51693000  0.16358000  0.96217000  1.0
  H  H18  1  0.48307000  0.96217000  0.83642000  1.0
  H  H19  1  0.51692000  0.83642000  0.03783000  1.0
  H  H20  1  0.68732000  0.58921000  0.49449000  1.0
  H  H21  1  0.31267000  0.49449000  0.41079000  1.0
  H  H22  1  0.68732000  0.41079000  0.50551000  1.0
  H  H23  1  0.31267000  0.50551000  0.58921000  1.0
  H  H24  1  0.68732000  0.91079000  0.99449000  1.0
  H  H25  1  0.31268000  0.99449000  0.08921000  1.0
  H  H26  1  0.68732000  0.08921000  0.00551000  1.0
  H  H27  1  0.31267000  0.00552000  0.91079000  1.0
  H  H28  1  0.80922000  0.63034000  0.60440000  1.0
  H  H29  1  0.19078000  0.60440000  0.36966000  1.0
  H  H30  1  0.80922000  0.36966000  0.39560000  1.0
  H  H31  1  0.19078000  0.39560000  0.63034000  1.0
  H  H32  1  0.80922000  0.86966000  0.10440000  1.0
  H  H33  1  0.19078000  0.10440000  0.13034000  1.0
  H  H34  1  0.80922000  0.13034000  0.89560000  1.0
  H  H35  1  0.19079000  0.89560000  0.86966000  1.0
  H  H36  1  0.60640000  0.50622000  0.77429000  1.0
  H  H37  1  0.39360000  0.77429000  0.49378000  1.0
  H  H38  1  0.60640000  0.49378000  0.22571000  1.0
  H  H39  1  0.39360000  0.22571000  0.50622000  1.0
  H  H40  1  0.60640000  0.99378000  0.27429000  1.0
  H  H41  1  0.39360000  0.27429000  0.00622000  1.0
  H  H42  1  0.60640000  0.00622000  0.72571000  1.0
  H  H43  1  0.39360000  0.72571000  0.99378000  1.0
  H  H44  1  0.31213000  0.63113000  0.66074000  1.0
  H  H45  1  0.68786000  0.66074000  0.36887000  1.0
  H  H46  1  0.31213000  0.36887000  0.33926000  1.0
  H  H47  1  0.68786000  0.33926000  0.63113000  1.0
  H  H48  1  0.31214000  0.86887000  0.16074000  1.0
  H  H49  1  0.68787000  0.16074000  0.13113000  1.0
  H  H50  1  0.31213000  0.13113000  0.83926000  1.0
  H  H51  1  0.68786000  0.83926000  0.86887000  1.0
  H  H52  1  0.27982000  0.62983000  0.76482000  1.0
  H  H53  1  0.72018000  0.76482000  0.37017000  1.0
  H  H54  1  0.27982000  0.37017000  0.23518000  1.0
  H  H55  1  0.72018000  0.23518000  0.62983000  1.0
  H  H56  1  0.27981000  0.87017000  0.26482000  1.0
  H  H57  1  0.72018000  0.26482000  0.12983000  1.0
  H  H58  1  0.27981000  0.12983000  0.73518000  1.0
  H  H59  1  0.72018000  0.73518000  0.87017000  1.0
  H  H60  1  0.21864000  0.76609000  0.74525000  1.0
  H  H61  1  0.78136000  0.74525000  0.23391000  1.0
  H  H62  1  0.21864000  0.23391000  0.25475000  1.0
  H  H63  1  0.78136000  0.25475000  0.76609000  1.0
  H  H64  1  0.21864000  0.73391000  0.24525000  1.0
  H  H65  1  0.78136000  0.24525000  0.26609000  1.0
  H  H66  1  0.21864000  0.26609000  0.75475000  1.0
  H  H67  1  0.78136000  0.75475000  0.73391000  1.0
  H  H68  1  0.22447000  0.75314000  0.63841000  1.0
  H  H69  1  0.77553000  0.63841000  0.24686000  1.0
  H  H70  1  0.22447000  0.24686000  0.36159000  1.0
  H  H71  1  0.77553000  0.36159000  0.75314000  1.0
  H  H72  1  0.22446000  0.74686000  0.13841000  1.0
  H  H73  1  0.77553000  0.13841000  0.25314000  1.0
  H  H74  1  0.22446000  0.25314000  0.86159000  1.0
  H  H75  1  0.77553000  0.86159000  0.74686000  1.0
  H  H76  1  0.93474000  0.75230000  0.63661000  1.0
  H  H77  1  0.06527000  0.63661000  0.24769000  1.0
  H  H78  1  0.93473000  0.24770000  0.36339000  1.0
  H  H79  1  0.06527000  0.36339000  0.75230000  1.0
  H  H80  1  0.93473000  0.74770000  0.13661000  1.0
  H  H81  1  0.06527000  0.13661000  0.25230000  1.0
  H  H82  1  0.93473000  0.25231000  0.86339000  1.0
  H  H83  1  0.06526000  0.86339000  0.74770000  1.0
  H  H84  1  0.05486000  0.80587000  0.60682000  1.0
  H  H85  1  0.94514000  0.60682000  0.19413000  1.0
  H  H86  1  0.05486000  0.19413000  0.39318000  1.0
  H  H87  1  0.94514000  0.39318000  0.80586000  1.0
  H  H88  1  0.05486000  0.69414000  0.10682000  1.0
  H  H89  1  0.94514000  0.10682000  0.30587000  1.0
  H  H90  1  0.05486000  0.30587000  0.89318000  1.0
  H  H91  1  0.94514000  0.89318000  0.69413000  1.0
  H  H92  1  0.06756000  0.49950000  0.92117000  1.0
  H  H93  1  0.93244000  0.92117000  0.50050000  1.0
  H  H94  1  0.06756000  0.50050000  0.07883000  1.0
  H  H95  1  0.93244000  0.07883000  0.49950000  1.0
  H  H96  1  0.06756000  0.00050000  0.42117000  1.0
  H  H97  1  0.93244000  0.42117000  0.99950000  1.0
  H  H98  1  0.06756000  0.99950000  0.57883000  1.0
  H  H99  1  0.93244000  0.57883000  0.00050000  1.0
  H  H100  1  0.94655000  0.51868000  0.86341000  1.0
  H  H101  1  0.05345000  0.86341000  0.48132000  1.0
  H  H102  1  0.94655000  0.48132000  0.13659000  1.0
  H  H103  1  0.05345000  0.13659000  0.51868000  1.0
  H  H104  1  0.94655000  0.98132000  0.36341000  1.0
  H  H105  1  0.05345000  0.36341000  0.01868000  1.0
  H  H106  1  0.94655000  0.01868000  0.63659000  1.0
  H  H107  1  0.05345000  0.63659000  0.98132000  1.0
  H  H108  1  0.17448000  0.49423000  0.77312000  1.0
  H  H109  1  0.82552000  0.77312000  0.50577000  1.0
  H  H110  1  0.17448000  0.50577000  0.22688000  1.0
  H  H111  1  0.82552000  0.22688000  0.49423000  1.0
  H  H112  1  0.17448000  0.00577000  0.27312000  1.0
  H  H113  1  0.82552000  0.27312000  0.99423000  1.0
  H  H114  1  0.17448000  0.99423000  0.72689000  1.0
  H  H115  1  0.82552000  0.72688000  0.00577000  1.0
  H  H116  1  0.03775000  0.50800000  0.73710000  1.0
  H  H117  1  0.96225000  0.73710000  0.49200000  1.0
  H  H118  1  0.03775000  0.49200000  0.26290000  1.0
  H  H119  1  0.96225000  0.26290000  0.50800000  1.0
  H  H120  1  0.03775000  0.99200000  0.23710000  1.0
  H  H121  1  0.96225000  0.23710000  0.00800000  1.0
  H  H122  1  0.03775000  0.00800000  0.76290000  1.0
  H  H123  1  0.96225000  0.76290000  0.99200000  1.0
  H  H124  1  0.99053000  0.60857000  0.65030000  1.0
  H  H125  1  0.00947000  0.65030000  0.39143000  1.0
  H  H126  1  0.99053000  0.39143000  0.34970000  1.0
  H  H127  1  0.00947000  0.34970000  0.60857000  1.0
  H  H128  1  0.99053000  0.89144000  0.15030000  1.0
  H  H129  1  0.00947000  0.15030000  0.10857000  1.0
  H  H130  1  0.99053000  0.10857000  0.84970000  1.0
  H  H131  1  0.00947000  0.84970000  0.89143000  1.0
  H  H132  1  0.09890000  0.64407000  0.58483000  1.0
  H  H133  1  0.90110000  0.58483000  0.35593000  1.0
  H  H134  1  0.09890000  0.35593000  0.41517000  1.0
  H  H135  1  0.90110000  0.41517000  0.64407000  1.0
  H  H136  1  0.09890000  0.85593000  0.08483000  1.0
  H  H137  1  0.90110000  0.08483000  0.14407000  1.0
  H  H138  1  0.09890000  0.14407000  0.91517000  1.0
  H  H139  1  0.90110000  0.91517000  0.85593000  1.0
  C  C140  1  0.50000000  0.50000000  0.50000000  1.0
  C  C141  1  0.50000000  0.00000000  0.00000000  1.0
  C  C142  1  0.57462000  0.52330000  0.57087000  1.0
  C  C143  1  0.42538000  0.57087000  0.47669000  1.0
  C  C144  1  0.57462000  0.47670000  0.42913000  1.0
  C  C145  1  0.42538000  0.42913000  0.52330000  1.0
  C  C146  1  0.57462000  0.97670000  0.07087000  1.0
  C  C147  1  0.42538000  0.07087000  0.02330000  1.0
  C  C148  1  0.57462000  0.02330000  0.92913000  1.0
  C  C149  1  0.42538000  0.92914000  0.97670000  1.0
  C  C150  1  0.55378000  0.49976000  0.65006000  1.0
  C  C151  1  0.44622000  0.65006000  0.50024000  1.0
  C  C152  1  0.55378000  0.50024000  0.34994000  1.0
  C  C153  1  0.44622000  0.34994000  0.49976000  1.0
  C  C154  1  0.55378000  0.00024000  0.15006000  1.0
  C  C155  1  0.44622000  0.15006000  0.99976000  1.0
  C  C156  1  0.55378000  0.99976000  0.84994000  1.0
  C  C157  1  0.44622000  0.84994000  0.00024000  1.0
  C  C158  1  0.66769000  0.57080000  0.55559000  1.0
  C  C159  1  0.33231000  0.55559000  0.42920000  1.0
  C  C160  1  0.66769000  0.42920000  0.44441000  1.0
  C  C161  1  0.33231000  0.44441000  0.57080000  1.0
  C  C162  1  0.66769000  0.92920000  0.05559000  1.0
  C  C163  1  0.33231000  0.05559000  0.07080000  1.0
  C  C164  1  0.66769000  0.07080000  0.94441000  1.0
  C  C165  1  0.33231000  0.94441000  0.92920000  1.0
  C  C166  1  0.73721000  0.59385000  0.61737000  1.0
  C  C167  1  0.26279000  0.61737000  0.40615000  1.0
  C  C168  1  0.73721000  0.40615000  0.38263000  1.0
  C  C169  1  0.26279000  0.38263000  0.59386000  1.0
  C  C170  1  0.73721000  0.90615000  0.11737000  1.0
  C  C171  1  0.26279000  0.11737000  0.09385000  1.0
  C  C172  1  0.73721000  0.09385000  0.88263000  1.0
  C  C173  1  0.26279000  0.88263000  0.90614000  1.0
  C  C174  1  0.71537000  0.57068000  0.69664000  1.0
  C  C175  1  0.28463000  0.69664000  0.42932000  1.0
  C  C176  1  0.71537000  0.42932000  0.30336000  1.0
  C  C177  1  0.28463000  0.30336000  0.57068000  1.0
  C  C178  1  0.71537000  0.92932000  0.19664000  1.0
  C  C179  1  0.28463000  0.19665000  0.07068000  1.0
  C  C180  1  0.71537000  0.07068000  0.80336000  1.0
  C  C181  1  0.28463000  0.80335000  0.92932000  1.0
  C  C182  1  0.62298000  0.52359000  0.71237000  1.0
  C  C183  1  0.37702000  0.71237000  0.47641000  1.0
  C  C184  1  0.62298000  0.47641000  0.28763000  1.0
  C  C185  1  0.37703000  0.28763000  0.52359000  1.0
  C  C186  1  0.62297000  0.97641000  0.21237000  1.0
  C  C187  1  0.37702000  0.21237000  0.02359000  1.0
  C  C188  1  0.62297000  0.02359000  0.78763000  1.0
  C  C189  1  0.37702000  0.78763000  0.97641000  1.0
  C  C190  1  0.78846000  0.59699000  0.76416000  1.0
  C  C191  1  0.21154000  0.76415000  0.40301000  1.0
  C  C192  1  0.78846000  0.40301000  0.23585000  1.0
  C  C193  1  0.21154000  0.23585000  0.59699000  1.0
  C  C194  1  0.78846000  0.90301000  0.26416000  1.0
  C  C195  1  0.21154000  0.26415000  0.09699000  1.0
  C  C196  1  0.78846000  0.09699000  0.73584000  1.0
  C  C197  1  0.21154000  0.73585000  0.90301000  1.0
  C  C198  1  0.24592000  0.64022000  0.70472000  1.0
  C  C199  1  0.75408000  0.70472000  0.35978000  1.0
  C  C200  1  0.24593000  0.35978000  0.29528000  1.0
  C  C201  1  0.75408000  0.29528000  0.64022000  1.0
  C  C202  1  0.24592000  0.85978000  0.20472000  1.0
  C  C203  1  0.75408000  0.20472000  0.14022000  1.0
  C  C204  1  0.24592000  0.14022000  0.79528000  1.0
  C  C205  1  0.75407000  0.79528000  0.85978000  1.0
  C  C206  1  0.19731000  0.72602000  0.69565000  1.0
  C  C207  1  0.80269000  0.69565000  0.27398000  1.0
  C  C208  1  0.19731000  0.27398000  0.30435000  1.0
  C  C209  1  0.80268000  0.30435000  0.72602000  1.0
  C  C210  1  0.19731000  0.77398000  0.19565000  1.0
  C  C211  1  0.80268000  0.19565000  0.22602000  1.0
  C  C212  1  0.19731000  0.22602000  0.80435000  1.0
  C  C213  1  0.80268000  0.80435000  0.77398000  1.0
  C  C214  1  0.01231000  0.77794000  0.65835000  1.0
  C  C215  1  0.98769000  0.65835000  0.22206000  1.0
  C  C216  1  0.01231000  0.22206000  0.34165000  1.0
  C  C217  1  0.98769000  0.34165000  0.77794000  1.0
  C  C218  1  0.01231000  0.72206000  0.15835000  1.0
  C  C219  1  0.98769000  0.15835000  0.27794000  1.0
  C  C220  1  0.01231000  0.27794000  0.84165000  1.0
  C  C221  1  0.98769000  0.84165000  0.72206000  1.0
  C  C222  1  0.01899000  0.54674000  0.89105000  1.0
  C  C223  1  0.98101000  0.89105000  0.45326000  1.0
  C  C224  1  0.01899000  0.45326000  0.10895000  1.0
  C  C225  1  0.98101000  0.10895000  0.54674000  1.0
  C  C226  1  0.01899000  0.95326000  0.39105000  1.0
  C  C227  1  0.98101000  0.39105000  0.04674000  1.0
  C  C228  1  0.01899000  0.04674000  0.60895000  1.0
  C  C229  1  0.98101000  0.60895000  0.95326000  1.0
  C  C230  1  0.11206000  0.53962000  0.75690000  1.0
  C  C231  1  0.88794000  0.75690000  0.46038000  1.0
  C  C232  1  0.11206000  0.46038000  0.24310000  1.0
  C  C233  1  0.88794000  0.24310000  0.53962000  1.0
  C  C234  1  0.11206000  0.96038000  0.25690000  1.0
  C  C235  1  0.88794000  0.25690000  0.03962000  1.0
  C  C236  1  0.11206000  0.03962000  0.74310000  1.0
  C  C237  1  0.88794000  0.74310000  0.96038000  1.0
  C  C238  1  0.07311000  0.63411000  0.64790000  1.0
  C  C239  1  0.92689000  0.64790000  0.36589000  1.0
  C  C240  1  0.07311000  0.36589000  0.35210000  1.0
  C  C241  1  0.92689000  0.35210000  0.63411000  1.0
  C  C242  1  0.07311000  0.86589000  0.14790000  1.0
  C  C243  1  0.92689000  0.14790000  0.13411000  1.0
  C  C244  1  0.07311000  0.13411000  0.85210000  1.0
  C  C245  1  0.92689000  0.85210000  0.86589000  1.0
  N  N246  1  0.07718000  0.71185000  0.69261000  1.0
  N  N247  1  0.92282000  0.69262000  0.28814000  1.0
  N  N248  1  0.07718000  0.28814000  0.30739000  1.0
  N  N249  1  0.92282000  0.30738000  0.71185000  1.0
  N  N250  1  0.07718000  0.78815000  0.19261000  1.0
  N  N251  1  0.92282000  0.19262000  0.21186000  1.0
  N  N252  1  0.07718000  0.21186000  0.80738000  1.0
  N  N253  1  0.92282000  0.80739000  0.78814000  1.0
  N  N254  1  0.15348000  0.58457000  0.68831000  1.0
  N  N255  1  0.84652000  0.68831000  0.41543000  1.0
  N  N256  1  0.15348000  0.41543000  0.31170000  1.0
  N  N257  1  0.84652000  0.31169000  0.58457000  1.0
  N  N258  1  0.15348000  0.91543000  0.18831000  1.0
  N  N259  1  0.84652000  0.18830000  0.08457000  1.0
  N  N260  1  0.15348000  0.08457000  0.81170000  1.0
  N  N261  1  0.84652000  0.81169000  0.91543000  1.0
  N  N262  1  0.08285000  0.58805000  0.82829000  1.0
  N  N263  1  0.91716000  0.82829000  0.41195000  1.0
  N  N264  1  0.08285000  0.41195000  0.17171000  1.0
  N  N265  1  0.91716000  0.17171000  0.58805000  1.0
  N  N266  1  0.08284000  0.91195000  0.32829000  1.0
  N  N267  1  0.91716000  0.32829000  0.08805000  1.0
  N  N268  1  0.08284000  0.08805000  0.67171000  1.0
  N  N269  1  0.91716000  0.67171000  0.91195000  1.0
  O  O270  1  0.87618000  0.63435000  0.74242000  1.0
  O  O271  1  0.12383000  0.74242000  0.36565000  1.0
  O  O272  1  0.87618000  0.36566000  0.25758000  1.0
  O  O273  1  0.12382000  0.25758000  0.63435000  1.0
  O  O274  1  0.87617000  0.86565000  0.24242000  1.0
  O  O275  1  0.12383000  0.24241000  0.13435000  1.0
  O  O276  1  0.87617000  0.13434000  0.75758000  1.0
  O  O277  1  0.12383000  0.75758000  0.86566000  1.0
  O  O278  1  0.75954000  0.58222000  0.83544000  1.0
  O  O279  1  0.24047000  0.83544000  0.41778000  1.0
  O  O280  1  0.75954000  0.41779000  0.16456000  1.0
  O  O281  1  0.24046000  0.16455000  0.58222000  1.0
  O  O282  1  0.75955000  0.91778000  0.33544000  1.0
  O  O283  1  0.24046000  0.33544000  0.08222000  1.0
  O  O284  1  0.75954000  0.08222000  0.66456000  1.0
  O  O285  1  0.24046000  0.66456000  0.91778000  1.0
