# generated using pymatgen
data_CuH13C17N3O4
_symmetry_space_group_name_H-M   'P 1'
_cell_length_a   14.64140000
_cell_length_b   17.79300000
_cell_length_c   17.80162961
_cell_angle_alpha   80.26200468
_cell_angle_beta   65.71512173
_cell_angle_gamma   65.71410000
_symmetry_Int_Tables_number   1
_chemical_formula_structural   CuH13C17N3O4
_chemical_formula_sum   'Cu8 H104 C136 N24 O32'
_cell_volume   3853.12139347
_cell_formula_units_Z   8
loop_
 _symmetry_equiv_pos_site_id
 _symmetry_equiv_pos_as_xyz
  1  'x, y, z'
loop_
 _atom_site_type_symbol
 _atom_site_label
 _atom_site_symmetry_multiplicity
 _atom_site_fract_x
 _atom_site_fract_y
 _atom_site_fract_z
 _atom_site_occupancy
  Cu  Cu0  1  0.77417000  0.23368000  0.55614000  1.0
  Cu  Cu1  1  0.56400000  0.26625000  0.94395000  1.0
  Cu  Cu2  1  0.50784000  0.55608000  0.26624000  1.0
  Cu  Cu3  1  0.33034000  0.94384000  0.23364000  1.0
  Cu  Cu4  1  0.22583000  0.76632000  0.44386000  1.0
  Cu  Cu5  1  0.43599000  0.73375000  0.05605000  1.0
  Cu  Cu6  1  0.49216000  0.44392000  0.73376000  1.0
  Cu  Cu7  1  0.66966000  0.05616000  0.76636000  1.0
  H  H8  1  0.07993000  0.28995000  0.46787000  1.0
  H  H9  1  0.83786000  0.20998000  0.03212000  1.0
  H  H10  1  0.86989000  0.46767000  0.20978000  1.0
  H  H11  1  0.54780000  0.03220000  0.28989000  1.0
  H  H12  1  0.92006000  0.71005000  0.53213000  1.0
  H  H13  1  0.16213000  0.79002000  0.96789000  1.0
  H  H14  1  0.13011000  0.53233000  0.79022000  1.0
  H  H15  1  0.45219000  0.96780000  0.71011000  1.0
  H  H16  1  0.77119000  0.47672000  0.68884000  1.0
  H  H17  1  0.93663000  0.02326000  0.81124000  1.0
  H  H18  1  0.74775000  0.68895000  0.02333000  1.0
  H  H19  1  0.45996000  0.81126000  0.47668000  1.0
  H  H20  1  0.22880000  0.52329000  0.31116000  1.0
  H  H21  1  0.06338000  0.97674000  0.18876000  1.0
  H  H22  1  0.25225000  0.31104000  0.97667000  1.0
  H  H23  1  0.54004000  0.18874000  0.52332000  1.0
  H  H24  1  0.69290000  0.94568000  0.50847000  1.0
  H  H25  1  0.14716000  0.55440000  0.99166000  1.0
  H  H26  1  0.13895000  0.50831000  0.55432000  1.0
  H  H27  1  0.20147000  0.99153000  0.94581000  1.0
  H  H28  1  0.30710000  0.05432000  0.49153000  1.0
  H  H29  1  0.85284000  0.44560000  0.00834000  1.0
  H  H30  1  0.86106000  0.49169000  0.44567000  1.0
  H  H31  1  0.79853000  0.00847000  0.05419000  1.0
  H  H32  1  0.77507000  0.04213000  0.50751000  1.0
  H  H33  1  0.32466000  0.45780000  0.99275000  1.0
  H  H34  1  0.31749000  0.50735000  0.45778000  1.0
  H  H35  1  0.28253000  0.99259000  0.04230000  1.0
  H  H36  1  0.22493000  0.95787000  0.49249000  1.0
  H  H37  1  0.67534000  0.54221000  0.00725000  1.0
  H  H38  1  0.68251000  0.49265000  0.54222000  1.0
  H  H39  1  0.71747000  0.00742000  0.95770000  1.0
  H  H40  1  0.07293000  0.89712000  0.31881000  1.0
  H  H41  1  0.28937000  0.60306000  0.18101000  1.0
  H  H42  1  0.47052000  0.31915000  0.60308000  1.0
  H  H43  1  0.39286000  0.18066000  0.89680000  1.0
  H  H44  1  0.92707000  0.10288000  0.68119000  1.0
  H  H45  1  0.71063000  0.39694000  0.81899000  1.0
  H  H46  1  0.52949000  0.68085000  0.39691000  1.0
  H  H47  1  0.60714000  0.81934000  0.10320000  1.0
  H  H48  1  0.10131000  0.40293000  0.51387000  1.0
  H  H49  1  0.01829000  0.09701000  0.98598000  1.0
  H  H50  1  0.00416000  0.51384000  0.09692000  1.0
  H  H51  1  0.61530000  0.98615000  0.40276000  1.0
  H  H52  1  0.89869000  0.59707000  0.48613000  1.0
  H  H53  1  0.98170000  0.90299000  0.01403000  1.0
  H  H54  1  0.99584000  0.48616000  0.90308000  1.0
  H  H55  1  0.38470000  0.01386000  0.59724000  1.0
  H  H56  1  0.79897000  0.82406000  0.41301000  1.0
  H  H57  1  0.03646000  0.67616000  0.08693000  1.0
  H  H58  1  0.12358000  0.41305000  0.67606000  1.0
  H  H59  1  0.21263000  0.08675000  0.82400000  1.0
  H  H60  1  0.20103000  0.17594000  0.58699000  1.0
  H  H61  1  0.96354000  0.32384000  0.91307000  1.0
  H  H62  1  0.87641000  0.58695000  0.32394000  1.0
  H  H63  1  0.78737000  0.91325000  0.17600000  1.0
  H  H64  1  0.94555000  0.49815000  0.62674000  1.0
  H  H65  1  0.07036000  0.00179000  0.87320000  1.0
  H  H66  1  0.94352000  0.62680000  0.00190000  1.0
  H  H67  1  0.57227000  0.87335000  0.49801000  1.0
  H  H68  1  0.05445000  0.50185000  0.37326000  1.0
  H  H69  1  0.92963000  0.99821000  0.12681000  1.0
  H  H70  1  0.05649000  0.37319000  0.99809000  1.0
  H  H71  1  0.42773000  0.12665000  0.50199000  1.0
  H  H72  1  0.99010000  0.80033000  0.31888000  1.0
  H  H73  1  0.10986000  0.69997000  0.18092000  1.0
  H  H74  1  0.29095000  0.31921000  0.69989000  1.0
  H  H75  1  0.31009000  0.18059000  0.80008000  1.0
  H  H76  1  0.00990000  0.19966000  0.68112000  1.0
  H  H77  1  0.89014000  0.30003000  0.81908000  1.0
  H  H78  1  0.70904000  0.68079000  0.30011000  1.0
  H  H79  1  0.68991000  0.81941000  0.19992000  1.0
  H  H80  1  0.21804000  0.16380000  0.39173000  1.0
  H  H81  1  0.77336000  0.33624000  0.10849000  1.0
  H  H82  1  0.88190000  0.39156000  0.33612000  1.0
  H  H83  1  0.60937000  0.10863000  0.16395000  1.0
  H  H84  1  0.78196000  0.83620000  0.60827000  1.0
  H  H85  1  0.22664000  0.66376000  0.89151000  1.0
  H  H86  1  0.11810000  0.60844000  0.66388000  1.0
  H  H87  1  0.39063000  0.89137000  0.83605000  1.0
  H  H88  1  0.14866000  0.23219000  0.33103000  1.0
  H  H89  1  0.71184000  0.26775000  0.16917000  1.0
  H  H90  1  0.88102000  0.33083000  0.26770000  1.0
  H  H91  1  0.47921000  0.16927000  0.23231000  1.0
  H  H92  1  0.85134000  0.76780000  0.66897000  1.0
  H  H93  1  0.28816000  0.73225000  0.83083000  1.0
  H  H94  1  0.11898000  0.66917000  0.73230000  1.0
  H  H95  1  0.52079000  0.83073000  0.76769000  1.0
  H  H96  1  0.26635000  0.14205000  0.28454000  1.0
  H  H97  1  0.69271000  0.35794000  0.21566000  1.0
  H  H98  1  0.90849000  0.28432000  0.35784000  1.0
  H  H99  1  0.55032000  0.21584000  0.14223000  1.0
  H  H100  1  0.73366000  0.85795000  0.71546000  1.0
  H  H101  1  0.30729000  0.64206000  0.78434000  1.0
  H  H102  1  0.09151000  0.71568000  0.64216000  1.0
  H  H103  1  0.44968000  0.78416000  0.85777000  1.0
  H  H104  1  0.06146000  0.01415000  0.36348000  1.0
  H  H105  1  0.43916000  0.48573000  0.13665000  1.0
  H  H106  1  0.57599000  0.36344000  0.48569000  1.0
  H  H107  1  0.42512000  0.13650000  0.01420000  1.0
  H  H108  1  0.93854000  0.98585000  0.63652000  1.0
  H  H109  1  0.56084000  0.51427000  0.86335000  1.0
  H  H110  1  0.42402000  0.63656000  0.51431000  1.0
  H  H111  1  0.57488000  0.86350000  0.98580000  1.0
  C  C112  1  0.91445000  0.31897000  0.55072000  1.0
  C  C113  1  0.78415000  0.18098000  0.94934000  1.0
  C  C114  1  0.73336000  0.55064000  0.18088000  1.0
  C  C115  1  0.46508000  0.94936000  0.31896000  1.0
  C  C116  1  0.08555000  0.68103000  0.44928000  1.0
  C  C117  1  0.21585000  0.81902000  0.05067000  1.0
  C  C118  1  0.26664000  0.44936000  0.81912000  1.0
  C  C119  1  0.53492000  0.05064000  0.68104000  1.0
  C  C120  1  0.92925000  0.97643000  0.41253000  1.0
  C  C121  1  0.31838000  0.52362000  0.08752000  1.0
  C  C122  1  0.40606000  0.41253000  0.52354000  1.0
  C  C123  1  0.34225000  0.08727000  0.97637000  1.0
  C  C124  1  0.07074000  0.02357000  0.58748000  1.0
  C  C125  1  0.68162000  0.47638000  0.91248000  1.0
  C  C126  1  0.59394000  0.58747000  0.47646000  1.0
  C  C127  1  0.65775000  0.91273000  0.02363000  1.0
  C  C128  1  0.01790000  0.14405000  0.42523000  1.0
  C  C129  1  0.58706000  0.35577000  0.07500000  1.0
  C  C130  1  0.66210000  0.42504000  0.35575000  1.0
  C  C131  1  0.44295000  0.07492000  0.14414000  1.0
  C  C132  1  0.98209000  0.85595000  0.57477000  1.0
  C  C133  1  0.41295000  0.64423000  0.92500000  1.0
  C  C134  1  0.33789000  0.57496000  0.64426000  1.0
  C  C135  1  0.55706000  0.92508000  0.85585000  1.0
  C  C136  1  0.12597000  0.11625000  0.35955000  1.0
  C  C137  1  0.60155000  0.38360000  0.14071000  1.0
  C  C138  1  0.74237000  0.35931000  0.38353000  1.0
  C  C139  1  0.48518000  0.14069000  0.11640000  1.0
  C  C140  1  0.87403000  0.88375000  0.64045000  1.0
  C  C141  1  0.39845000  0.61640000  0.85929000  1.0
  C  C142  1  0.25763000  0.64069000  0.61647000  1.0
  C  C143  1  0.51482000  0.85931000  0.88360000  1.0
  C  C144  1  0.82650000  0.37244000  0.61460000  1.0
  C  C145  1  0.81348000  0.12755000  0.88543000  1.0
  C  C146  1  0.69881000  0.61461000  0.12750000  1.0
  C  C147  1  0.44100000  0.88547000  0.37242000  1.0
  C  C148  1  0.17350000  0.62756000  0.38540000  1.0
  C  C149  1  0.18652000  0.87245000  0.11457000  1.0
  C  C150  1  0.30119000  0.38539000  0.87250000  1.0
  C  C151  1  0.55901000  0.11453000  0.62758000  1.0
  C  C152  1  0.01263000  0.33182000  0.51606000  1.0
  C  C153  1  0.86062000  0.16813000  0.98390000  1.0
  C  C154  1  0.84440000  0.51596000  0.16801000  1.0
  C  C155  1  0.52871000  0.98399000  0.33173000  1.0
  C  C156  1  0.98737000  0.66818000  0.48394000  1.0
  C  C157  1  0.13938000  0.83186000  0.01610000  1.0
  C  C158  1  0.15560000  0.48404000  0.83199000  1.0
  C  C159  1  0.47130000  0.01601000  0.66826000  1.0
  C  C160  1  0.71562000  0.37070000  0.65548000  1.0
  C  C161  1  0.74180000  0.12934000  0.84449000  1.0
  C  C162  1  0.58617000  0.65555000  0.12929000  1.0
  C  C163  1  0.37107000  0.84452000  0.37065000  1.0
  C  C164  1  0.28438000  0.62931000  0.34452000  1.0
  C  C165  1  0.25820000  0.87066000  0.15551000  1.0
  C  C166  1  0.41383000  0.34445000  0.87071000  1.0
  C  C167  1  0.62893000  0.15549000  0.62935000  1.0
  C  C168  1  0.84071000  0.43611000  0.64047000  1.0
  C  C169  1  0.91721000  0.06387000  0.85958000  1.0
  C  C170  1  0.77666000  0.64052000  0.06388000  1.0
  C  C171  1  0.48109000  0.85963000  0.43607000  1.0
  C  C172  1  0.15928000  0.56389000  0.35953000  1.0
  C  C173  1  0.08278000  0.93613000  0.14043000  1.0
  C  C174  1  0.22334000  0.35947000  0.93612000  1.0
  C  C175  1  0.51891000  0.14037000  0.56393000  1.0
  C  C176  1  0.77639000  0.93438000  0.46622000  1.0
  C  C177  1  0.17716000  0.56572000  0.03387000  1.0
  C  C178  1  0.21118000  0.46609000  0.56559000  1.0
  C  C179  1  0.24286000  0.03371000  0.93444000  1.0
  C  C180  1  0.22361000  0.06562000  0.53378000  1.0
  C  C181  1  0.82284000  0.43428000  0.96613000  1.0
  C  C182  1  0.78882000  0.53391000  0.43441000  1.0
  C  C183  1  0.75714000  0.96629000  0.06556000  1.0
  C  C184  1  0.94457000  0.09989000  0.44672000  1.0
  C  C185  1  0.49108000  0.39992000  0.05352000  1.0
  C  C186  1  0.54466000  0.44660000  0.39995000  1.0
  C  C187  1  0.39129000  0.05331000  0.09995000  1.0
  C  C188  1  0.05542000  0.90011000  0.55328000  1.0
  C  C189  1  0.50892000  0.60008000  0.94648000  1.0
  C  C190  1  0.45534000  0.55339000  0.60005000  1.0
  C  C191  1  0.60870000  0.94669000  0.90005000  1.0
  C  C192  1  0.82189000  0.98950000  0.46641000  1.0
  C  C193  1  0.27785000  0.51051000  0.03375000  1.0
  C  C194  1  0.31174000  0.46626000  0.51042000  1.0
  C  C195  1  0.28846000  0.03356000  0.98958000  1.0
  C  C196  1  0.17811000  0.01050000  0.53359000  1.0
  C  C197  1  0.72215000  0.48949000  0.96625000  1.0
  C  C198  1  0.68825000  0.53374000  0.48958000  1.0
  C  C199  1  0.71153000  0.96644000  0.01042000  1.0
  C  C200  1  0.98939000  0.90736000  0.35994000  1.0
  C  C201  1  0.25712000  0.59282000  0.13994000  1.0
  C  C202  1  0.39724000  0.36014000  0.59274000  1.0
  C  C203  1  0.35028000  0.13960000  0.90714000  1.0
  C  C204  1  0.01061000  0.09264000  0.64006000  1.0
  C  C205  1  0.74288000  0.40718000  0.86006000  1.0
  C  C206  1  0.60276000  0.63985000  0.40726000  1.0
  C  C207  1  0.64971000  0.86039000  0.09286000  1.0
  C  C208  1  0.02417000  0.39506000  0.54253000  1.0
  C  C209  1  0.96188000  0.10492000  0.95738000  1.0
  C  C210  1  0.91912000  0.54250000  0.10486000  1.0
  C  C211  1  0.56677000  0.95751000  0.39490000  1.0
  C  C212  1  0.97583000  0.60494000  0.45747000  1.0
  C  C213  1  0.03813000  0.89507000  0.04262000  1.0
  C  C214  1  0.08088000  0.45750000  0.89514000  1.0
  C  C215  1  0.43323000  0.04249000  0.60510000  1.0
  C  C216  1  0.83547000  0.86645000  0.41325000  1.0
  C  C217  1  0.11555000  0.63374000  0.08671000  1.0
  C  C218  1  0.20243000  0.41326000  0.63361000  1.0
  C  C219  1  0.24935000  0.08649000  0.86638000  1.0
  C  C220  1  0.16453000  0.13355000  0.58675000  1.0
  C  C221  1  0.88446000  0.36626000  0.91329000  1.0
  C  C222  1  0.79756000  0.58674000  0.36639000  1.0
  C  C223  1  0.75065000  0.91350000  0.13362000  1.0
  C  C224  1  0.93764000  0.44795000  0.60560000  1.0
  C  C225  1  0.99115000  0.05201000  0.89438000  1.0
  C  C226  1  0.88541000  0.60564000  0.05205000  1.0
  C  C227  1  0.54321000  0.89447000  0.44784000  1.0
  C  C228  1  0.06236000  0.55205000  0.39440000  1.0
  C  C229  1  0.00884000  0.94799000  0.10563000  1.0
  C  C230  1  0.11459000  0.39436000  0.94795000  1.0
  C  C231  1  0.45679000  0.10553000  0.55216000  1.0
  C  C232  1  0.94231000  0.85345000  0.36014000  1.0
  C  C233  1  0.15641000  0.64680000  0.13970000  1.0
  C  C234  1  0.29629000  0.36035000  0.64668000  1.0
  C  C235  1  0.30345000  0.13939000  0.85324000  1.0
  C  C236  1  0.05769000  0.14655000  0.63986000  1.0
  C  C237  1  0.84359000  0.35320000  0.86030000  1.0
  C  C238  1  0.70370000  0.63965000  0.35332000  1.0
  C  C239  1  0.69655000  0.86061000  0.14676000  1.0
  C  C240  1  0.19398000  0.16700000  0.33999000  1.0
  C  C241  1  0.70078000  0.33296000  0.16023000  1.0
  C  C242  1  0.86111000  0.33977000  0.33287000  1.0
  C  C243  1  0.53350000  0.16033000  0.16718000  1.0
  C  C244  1  0.80603000  0.83299000  0.66001000  1.0
  C  C245  1  0.29922000  0.66704000  0.83977000  1.0
  C  C246  1  0.13889000  0.66023000  0.66713000  1.0
  C  C247  1  0.46650000  0.83966000  0.83282000  1.0
  N  N248  1  0.99559000  0.21157000  0.46302000  1.0
  N  N249  1  0.67015000  0.28830000  0.03717000  1.0
  N  N250  1  0.70728000  0.46284000  0.28822000  1.0
  N  N251  1  0.45840000  0.03716000  0.21167000  1.0
  N  N252  1  0.00440000  0.78843000  0.53698000  1.0
  N  N253  1  0.32985000  0.71170000  0.96283000  1.0
  N  N254  1  0.29272000  0.53716000  0.71178000  1.0
  N  N255  1  0.54160000  0.96284000  0.78833000  1.0
  N  N256  1  0.90749000  0.25238000  0.52173000  1.0
  N  N257  1  0.68160000  0.24751000  0.97841000  1.0
  N  N258  1  0.65990000  0.52158000  0.24745000  1.0
  N  N259  1  0.42909000  0.97837000  0.25243000  1.0
  N  N260  1  0.09251000  0.74762000  0.47827000  1.0
  N  N261  1  0.31840000  0.75249000  0.02159000  1.0
  N  N262  1  0.34010000  0.47842000  0.75255000  1.0
  N  N263  1  0.57091000  0.02163000  0.74757000  1.0
  N  N264  1  0.98256000  0.02862000  0.40639000  1.0
  N  N265  1  0.41763000  0.47129000  0.09372000  1.0
  N  N266  1  0.51150000  0.40637000  0.47127000  1.0
  N  N267  1  0.38917000  0.09354000  0.02864000  1.0
  N  N268  1  0.01744000  0.97138000  0.59361000  1.0
  N  N269  1  0.58237000  0.52871000  0.90628000  1.0
  N  N270  1  0.48851000  0.59363000  0.52872000  1.0
  N  N271  1  0.61083000  0.90646000  0.97136000  1.0
  O  O272  1  0.64747000  0.42196000  0.71376000  1.0
  O  O273  1  0.78313000  0.07799000  0.78630000  1.0
  O  O274  1  0.56934000  0.71381000  0.07799000  1.0
  O  O275  1  0.36113000  0.78628000  0.42198000  1.0
  O  O276  1  0.35253000  0.57804000  0.28624000  1.0
  O  O277  1  0.21686000  0.92201000  0.21371000  1.0
  O  O278  1  0.43067000  0.28619000  0.92200000  1.0
  O  O279  1  0.63887000  0.21372000  0.57802000  1.0
  O  O280  1  0.16294000  0.05174000  0.31936000  1.0
  O  O281  1  0.53369000  0.44802000  0.18100000  1.0
  O  O282  1  0.71484000  0.31906000  0.44799000  1.0
  O  O283  1  0.48195000  0.18090000  0.05192000  1.0
  O  O284  1  0.83706000  0.94826000  0.68064000  1.0
  O  O285  1  0.46631000  0.55198000  0.81900000  1.0
  O  O286  1  0.28515000  0.68094000  0.55202000  1.0
  O  O287  1  0.51805000  0.81910000  0.94808000  1.0
  O  O288  1  0.68631000  0.32338000  0.63199000  1.0
  O  O289  1  0.64179000  0.17685000  0.86779000  1.0
  O  O290  1  0.50954000  0.63214000  0.17668000  1.0
  O  O291  1  0.31850000  0.86784000  0.32321000  1.0
  O  O292  1  0.31368000  0.67662000  0.36801000  1.0
  O  O293  1  0.35821000  0.82315000  0.13221000  1.0
  O  O294  1  0.49047000  0.36786000  0.82331000  1.0
  O  O295  1  0.68150000  0.13216000  0.67679000  1.0
  O  O296  1  0.84944000  0.12708000  0.50112000  1.0
  O  O297  1  0.47745000  0.37271000  0.99917000  1.0
  O  O298  1  0.47664000  0.50100000  0.37281000  1.0
  O  O299  1  0.35064000  0.99883000  0.12706000  1.0
  O  O300  1  0.15056000  0.87292000  0.49888000  1.0
  O  O301  1  0.52255000  0.62729000  0.00083000  1.0
  O  O302  1  0.52336000  0.49900000  0.62719000  1.0
  O  O303  1  0.64935000  0.00117000  0.87294000  1.0
