# generated using pymatgen
data_CdH18C23N4ClO4
_symmetry_space_group_name_H-M   'P 1'
_cell_length_a   10.06120000
_cell_length_b   10.38410000
_cell_length_c   11.63590000
_cell_angle_alpha   68.69630000
_cell_angle_beta   72.57230000
_cell_angle_gamma   75.24280000
_symmetry_Int_Tables_number   1
_chemical_formula_structural   CdH18C23N4ClO4
_chemical_formula_sum   'Cd2 H36 C46 N8 Cl2 O8'
_cell_volume   1065.95879862
_cell_formula_units_Z   2
loop_
 _symmetry_equiv_pos_site_id
 _symmetry_equiv_pos_as_xyz
  1  'x, y, z'
loop_
 _atom_site_type_symbol
 _atom_site_label
 _atom_site_symmetry_multiplicity
 _atom_site_fract_x
 _atom_site_fract_y
 _atom_site_fract_z
 _atom_site_occupancy
  Cd  Cd0  1  0.42601000  0.32542000  0.57144000  1.0
  Cd  Cd1  1  0.57399000  0.67458000  0.42856000  1.0
  H  H2  1  0.60467000  0.46157000  0.28084000  1.0
  H  H3  1  0.39533000  0.53843000  0.71916000  1.0
  H  H4  1  0.46440000  0.07181000  0.40707000  1.0
  H  H5  1  0.53560000  0.92820000  0.59293000  1.0
  H  H6  1  0.59495000  0.13005000  0.15300000  1.0
  H  H7  1  0.40505000  0.86995000  0.84700000  1.0
  H  H8  1  0.56879000  0.33566000  0.96100000  1.0
  H  H9  1  0.43122000  0.66434000  0.03901000  1.0
  H  H10  1  0.67816000  0.48204000  0.74612000  1.0
  H  H11  1  0.32184000  0.51796000  0.25388000  1.0
  H  H12  1  0.91958000  0.62475000  0.91280000  1.0
  H  H13  1  0.08042000  0.37525000  0.08720000  1.0
  H  H14  1  0.81591000  0.47432000  0.12560000  1.0
  H  H15  1  0.18410000  0.52568000  0.87440000  1.0
  H  H16  1  0.12331000  0.67904000  0.62304000  1.0
  H  H17  1  0.87668000  0.32096000  0.37696000  1.0
  H  H18  1  0.21202000  0.89232000  0.59249000  1.0
  H  H19  1  0.78798000  0.10768000  0.40751000  1.0
  H  H20  1  0.78540000  0.08899000  0.72100000  1.0
  H  H21  1  0.21460000  0.91101000  0.27900000  1.0
  H  H22  1  0.69759000  0.87645000  0.74599000  1.0
  H  H23  1  0.30240000  0.12356000  0.25401000  1.0
  H  H24  1  0.27628000  0.04185000  0.64491000  1.0
  H  H25  1  0.72372000  0.95815000  0.35508000  1.0
  H  H26  1  0.06004000  0.45652000  0.58982000  1.0
  H  H27  1  0.93996000  0.54348000  0.41018000  1.0
  H  H28  1  0.87057000  0.28628000  0.62531000  1.0
  H  H29  1  0.12943000  0.71372000  0.37469000  1.0
  H  H30  1  0.41947000  0.08903000  0.01720000  1.0
  H  H31  1  0.58054000  0.91097000  0.98280000  1.0
  H  H32  1  0.24886000  0.19171000  0.01323000  1.0
  H  H33  1  0.75114000  0.80829000  0.98677000  1.0
  H  H34  1  0.10023000  0.22157000  0.89369000  1.0
  H  H35  1  0.89977000  0.77844000  0.10630000  1.0
  H  H36  1  0.14437000  0.78078000  0.10375000  1.0
  H  H37  1  0.85563000  0.21922000  0.89624000  1.0
  C  C38  1  0.58628000  0.36132000  0.28470000  1.0
  C  C39  1  0.41372000  0.63868000  0.71530000  1.0
  C  C40  1  0.51402000  0.16148000  0.34430000  1.0
  C  C41  1  0.48599000  0.83852000  0.65570000  1.0
  C  C42  1  0.57541000  0.19074000  0.21683000  1.0
  C  C43  1  0.42459000  0.80926000  0.78317000  1.0
  C  C44  1  0.68564000  0.39643000  0.05651000  1.0
  C  C45  1  0.31436000  0.60357000  0.94349000  1.0
  C  C46  1  0.64672000  0.39787000  0.95019000  1.0
  C  C47  1  0.35329000  0.60213000  0.04981000  1.0
  C  C48  1  0.70629000  0.48067000  0.83012000  1.0
  C  C49  1  0.29371000  0.51933000  0.16988000  1.0
  C  C50  1  0.80184000  0.56474000  0.81755000  1.0
  C  C51  1  0.19816000  0.43525000  0.18245000  1.0
  C  C52  1  0.84274000  0.56149000  0.92351000  1.0
  C  C53  1  0.15727000  0.43850000  0.07649000  1.0
  C  C54  1  0.78507000  0.47640000  0.04289000  1.0
  C  C55  1  0.21493000  0.52360000  0.95711000  1.0
  C  C56  1  0.90554000  0.76502000  0.68762000  1.0
  C  C57  1  0.09446000  0.23498000  0.31238000  1.0
  C  C58  1  0.04994000  0.76823000  0.64608000  1.0
  C  C59  1  0.95006000  0.23177000  0.35392000  1.0
  C  C60  1  0.09960000  0.88877000  0.62945000  1.0
  C  C61  1  0.90040000  0.11123000  0.37055000  1.0
  C  C62  1  0.00521000  0.00422000  0.65700000  1.0
  C  C63  1  0.99479000  0.99578000  0.34300000  1.0
  C  C64  1  0.86022000  0.00007000  0.69920000  1.0
  C  C65  1  0.13978000  0.99993000  0.30080000  1.0
  C  C66  1  0.81035000  0.88029000  0.71390000  1.0
  C  C67  1  0.18965000  0.11971000  0.28610000  1.0
  C  C68  1  0.19429000  0.13283000  0.63018000  1.0
  C  C69  1  0.80571000  0.86717000  0.36982000  1.0
  C  C70  1  0.07741000  0.34461000  0.60596000  1.0
  C  C71  1  0.92259000  0.65539000  0.39404000  1.0
  C  C72  1  0.98190000  0.26104000  0.62517000  1.0
  C  C73  1  0.01810000  0.73896000  0.37483000  1.0
  C  C74  1  0.38118000  0.18617000  0.82963000  1.0
  C  C75  1  0.61881000  0.81383000  0.17037000  1.0
  C  C76  1  0.32962000  0.11681000  0.97252000  1.0
  C  C77  1  0.67038000  0.88319000  0.02748000  1.0
  C  C78  1  0.13996000  0.99975000  0.99966000  1.0
  C  C79  1  0.86004000  0.00025000  0.00034000  1.0
  C  C80  1  0.05764000  0.12412000  0.94191000  1.0
  C  C81  1  0.94236000  0.87589000  0.05808000  1.0
  C  C82  1  0.08120000  0.87672000  0.05719000  1.0
  C  C83  1  0.91881000  0.12328000  0.94281000  1.0
  N  N84  1  0.52201000  0.26801000  0.38549000  1.0
  N  N85  1  0.47799000  0.73199000  0.61451000  1.0
  N  N86  1  0.62072000  0.31798000  0.18046000  1.0
  N  N87  1  0.37928000  0.68202000  0.81954000  1.0
  N  N88  1  0.05751000  0.12648000  0.63938000  1.0
  N  N89  1  0.94248000  0.87352000  0.36062000  1.0
  N  N90  1  0.20910000  0.26336000  0.60905000  1.0
  N  N91  1  0.79089000  0.73664000  0.39095000  1.0
  Cl  Cl92  1  0.66148000  0.40908000  0.54664000  1.0
  Cl  Cl93  1  0.33852000  0.59091000  0.45336000  1.0
  O  O94  1  0.35400000  0.31972000  0.78936000  1.0
  O  O95  1  0.64600000  0.68028000  0.21064000  1.0
  O  O96  1  0.44707000  0.10984000  0.75962000  1.0
  O  O97  1  0.55292000  0.89015000  0.24038000  1.0
  O  O98  1  0.27845000  0.98844000  0.00488000  1.0
  O  O99  1  0.72156000  0.01156000  0.99512000  1.0
  O  O100  1  0.85598000  0.64692000  0.69697000  1.0
  O  O101  1  0.14402000  0.35308000  0.30303000  1.0
