# generated using pymatgen
data_CuH10C17N5O4
_symmetry_space_group_name_H-M   'P 1'
_cell_length_a   7.70871000
_cell_length_b   9.08791000
_cell_length_c   12.33970000
_cell_angle_alpha   98.05410000
_cell_angle_beta   97.16980000
_cell_angle_gamma   99.96650000
_symmetry_Int_Tables_number   1
_chemical_formula_structural   CuH10C17N5O4
_chemical_formula_sum   'Cu2 H20 C34 N10 O8'
_cell_volume   833.12073060
_cell_formula_units_Z   2
loop_
 _symmetry_equiv_pos_site_id
 _symmetry_equiv_pos_as_xyz
  1  'x, y, z'
loop_
 _atom_site_type_symbol
 _atom_site_label
 _atom_site_symmetry_multiplicity
 _atom_site_fract_x
 _atom_site_fract_y
 _atom_site_fract_z
 _atom_site_occupancy
  Cu  Cu0  1  0.62553000  0.89911000  0.94676000  1.0
  Cu  Cu1  1  0.37447000  0.10089000  0.05324000  1.0
  H  H2  1  0.70105000  0.42397000  0.88707000  1.0
  H  H3  1  0.29894000  0.57602000  0.11292000  1.0
  H  H4  1  0.36555000  0.72846000  0.77285000  1.0
  H  H5  1  0.63445000  0.27153000  0.22714000  1.0
  H  H6  1  0.20359000  0.75360000  0.59100000  1.0
  H  H7  1  0.79641000  0.24640000  0.40900000  1.0
  H  H8  1  0.51471000  0.20575000  0.63132000  1.0
  H  H9  1  0.48529000  0.79425000  0.36868000  1.0
  H  H10  1  0.66666667  0.16165000  0.81039000  1.0
  H  H11  1  0.33340000  0.83834000  0.18961000  1.0
  H  H12  1  0.90518000  0.65039000  0.33283000  1.0
  H  H13  1  0.09483000  0.34962000  0.66718000  1.0
  H  H14  1  0.66368000  0.49536000  0.18028000  1.0
  H  H15  1  0.33632000  0.50464000  0.81973000  1.0
  H  H16  1  0.56061000  0.61942000  0.02284000  1.0
  H  H17  1  0.43939000  0.38058000  0.97717000  1.0
  H  H18  1  0.90591000  0.02469000  0.15235000  1.0
  H  H19  1  0.09409000  0.97531000  0.84765000  1.0
  H  H20  1  0.10791000  0.16356000  0.30162000  1.0
  H  H21  1  0.89209000  0.83645000  0.69838000  1.0
  C  C22  1  0.86787000  0.68735000  0.84710000  1.0
  C  C23  1  0.13213000  0.31266000  0.15290000  1.0
  C  C24  1  0.93931000  0.59313000  0.92701000  1.0
  C  C25  1  0.06069000  0.40687000  0.07299000  1.0
  C  C26  1  0.83308000  0.45599000  0.93680000  1.0
  C  C27  1  0.16691000  0.54401000  0.06319000  1.0
  C  C28  1  0.89122000  0.36242000  0.00856000  1.0
  C  C29  1  0.10878000  0.63758000  0.99143000  1.0
  C  C30  1  0.76441000  0.21802000  0.01273000  1.0
  C  C31  1  0.23559000  0.78197000  0.98727000  1.0
  C  C32  1  0.39457000  0.83205000  0.73873000  1.0
  C  C33  1  0.60543000  0.16795000  0.26127000  1.0
  C  C34  1  0.30513000  0.84664000  0.63774000  1.0
  C  C35  1  0.69487000  0.15336000  0.36226000  1.0
  C  C36  1  0.34329000  0.98304000  0.59689000  1.0
  C  C37  1  0.65670000  0.01696000  0.40310000  1.0
  C  C38  1  0.47650000  0.09877000  0.66033000  1.0
  C  C39  1  0.52350000  0.90123000  0.33967000  1.0
  C  C40  1  0.56080000  0.07493000  0.76068000  1.0
  C  C41  1  0.43920000  0.92507000  0.23932000  1.0
  C  C42  1  0.24319000  0.99745000  0.49210000  1.0
  C  C43  1  0.75681000  0.00255000  0.50789000  1.0
  C  C44  1  0.06031000  0.93539000  0.34295000  1.0
  C  C45  1  0.93969000  0.06461000  0.65705000  1.0
  C  C46  1  0.92423000  0.84790000  0.25358000  1.0
  C  C47  1  0.07577000  0.15210000  0.74643000  1.0
  C  C48  1  0.85428000  0.69718000  0.26148000  1.0
  C  C49  1  0.14573000  0.30282000  0.73853000  1.0
  C  C50  1  0.72167000  0.61292000  0.17877000  1.0
  C  C51  1  0.27834000  0.38708000  0.82123000  1.0
  C  C52  1  0.66240000  0.68033000  0.09054000  1.0
  C  C53  1  0.33760000  0.31967000  0.90946000  1.0
  C  C54  1  0.85698000  0.90824000  0.16216000  1.0
  C  C55  1  0.14302000  0.09176000  0.83784000  1.0
  N  N56  1  0.51899000  0.94495000  0.80118000  1.0
  N  N57  1  0.48101000  0.05504000  0.19882000  1.0
  N  N58  1  0.12652000  0.87726000  0.42907000  1.0
  N  N59  1  0.87348000  0.12274000  0.57093000  1.0
  N  N60  1  0.25267000  0.12676000  0.44940000  1.0
  N  N61  1  0.74733000  0.87324000  0.55060000  1.0
  N  N62  1  0.13596000  0.08495000  0.35508000  1.0
  N  N63  1  0.86404000  0.91506000  0.64492000  1.0
  N  N64  1  0.72760000  0.82551000  0.08303000  1.0
  N  N65  1  0.27241000  0.17449000  0.91697000  1.0
  O  O66  1  0.70690000  0.70268000  0.84600000  1.0
  O  O67  1  0.29310000  0.29732000  0.15400000  1.0
  O  O68  1  0.97513000  0.74210000  0.78605000  1.0
  O  O69  1  0.02487000  0.25791000  0.21395000  1.0
  O  O70  1  0.61685000  0.23602000  0.04275000  1.0
  O  O71  1  0.38315000  0.76398000  0.95724000  1.0
  O  O72  1  0.80924000  0.09285000  0.97870000  1.0
  O  O73  1  0.19076000  0.90714000  0.02129000  1.0
