# generated using pymatgen
data_Cu2H2C2Br2N3
_symmetry_space_group_name_H-M   'P 1'
_cell_length_a   7.00572000
_cell_length_b   7.21488000
_cell_length_c   7.84714894
_cell_angle_alpha   114.00758132
_cell_angle_beta   112.92232466
_cell_angle_gamma   96.92120000
_symmetry_Int_Tables_number   1
_chemical_formula_structural   Cu2H2C2Br2N3
_chemical_formula_sum   'Cu4 H4 C4 Br4 N6'
_cell_volume   314.83567231
_cell_formula_units_Z   2
loop_
 _symmetry_equiv_pos_site_id
 _symmetry_equiv_pos_as_xyz
  1  'x, y, z'
loop_
 _atom_site_type_symbol
 _atom_site_label
 _atom_site_symmetry_multiplicity
 _atom_site_fract_x
 _atom_site_fract_y
 _atom_site_fract_z
 _atom_site_occupancy
  Cu  Cu0  1  0.00001000  0.00000000  0.00000000  1.0
  Cu  Cu1  1  0.49999000  0.99998000  1.00000000  1.0
  Cu  Cu2  1  0.70060000  0.45128000  0.90353000  1.0
  Cu  Cu3  1  0.29932000  0.54869000  0.09647000  1.0
  H  H4  1  0.79255000  0.72860000  0.48766000  1.0
  H  H5  1  0.19702000  0.75901000  0.48774000  1.0
  H  H6  1  0.20741000  0.27138000  0.51232000  1.0
  H  H7  1  0.80298000  0.24101000  0.51229000  1.0
  C  C8  1  0.67157000  0.76153000  0.53887000  1.0
  C  C9  1  0.36903000  0.77734000  0.53893000  1.0
  C  C10  1  0.32840000  0.23844000  0.46109000  1.0
  C  C11  1  0.63099000  0.22268000  0.46110000  1.0
  Br  Br12  1  0.89399000  0.34393000  0.14994000  1.0
  Br  Br13  1  0.75510000  0.80685000  0.14956000  1.0
  Br  Br14  1  0.10610000  0.65611000  0.85006000  1.0
  Br  Br15  1  0.24500000  0.19320000  0.85047000  1.0
  N  N16  1  0.71878000  0.86637000  0.74205000  1.0
  N  N17  1  0.52433000  0.87566000  0.74206000  1.0
  N  N18  1  0.28121000  0.13362000  0.25794000  1.0
  N  N19  1  0.47567000  0.12434000  0.25793000  1.0
  N  N20  1  0.45392000  0.70281000  0.40568000  1.0
  N  N21  1  0.54606000  0.29719000  0.59432000  1.0
