# generated using pymatgen
data_CdH17C25(NO)5
_symmetry_space_group_name_H-M   'P 1'
_cell_length_a   12.43350000
_cell_length_b   15.81020000
_cell_length_c   16.04520000
_cell_angle_alpha   66.50100000
_cell_angle_beta   89.96930000
_cell_angle_gamma   66.87300000
_symmetry_Int_Tables_number   1
_chemical_formula_structural   CdH17C25(NO)5
_chemical_formula_sum   'Cd4 H68 C100 N20 O20'
_cell_volume   2614.12330613
_cell_formula_units_Z   4
loop_
 _symmetry_equiv_pos_site_id
 _symmetry_equiv_pos_as_xyz
  1  'x, y, z'
loop_
 _atom_site_type_symbol
 _atom_site_label
 _atom_site_symmetry_multiplicity
 _atom_site_fract_x
 _atom_site_fract_y
 _atom_site_fract_z
 _atom_site_occupancy
  Cd  Cd0  1  0.56413000  0.85529000  0.00881000  1.0
  Cd  Cd1  1  0.42006000  0.14389000  0.49148000  1.0
  Cd  Cd2  1  0.43588000  0.14471000  0.99119000  1.0
  Cd  Cd3  1  0.57994000  0.85608000  0.50852000  1.0
  H  H4  1  0.47481000  0.69617000  0.17840000  1.0
  H  H5  1  0.17211000  0.30354000  0.32183000  1.0
  H  H6  1  0.52520000  0.30384000  0.82158000  1.0
  H  H7  1  0.82788000  0.69646000  0.67816000  1.0
  H  H8  1  0.54620000  0.93545000  0.18017000  1.0
  H  H9  1  0.48192000  0.06390000  0.31982000  1.0
  H  H10  1  0.45380000  0.06455000  0.81982000  1.0
  H  H11  1  0.51808000  0.93610000  0.68017000  1.0
  H  H12  1  0.45046000  0.86399000  0.33500000  1.0
  H  H13  1  0.31479000  0.13572000  0.16507000  1.0
  H  H14  1  0.54954000  0.13601000  0.66499000  1.0
  H  H15  1  0.68520000  0.86428000  0.83492000  1.0
  H  H16  1  0.29227000  0.51878000  0.51664000  1.0
  H  H17  1  0.81214000  0.48038000  0.98387000  1.0
  H  H18  1  0.70773000  0.48122000  0.48336000  1.0
  H  H19  1  0.18785000  0.51963000  0.01613000  1.0
  H  H20  1  0.25121000  0.68586000  0.51870000  1.0
  H  H21  1  0.93859000  0.31350000  0.98158000  1.0
  H  H22  1  0.74879000  0.31414000  0.48129000  1.0
  H  H23  1  0.06140000  0.68650000  0.01841000  1.0
  H  H24  1  0.32772000  0.80284000  0.40751000  1.0
  H  H25  1  0.13202000  0.19699000  0.09256000  1.0
  H  H26  1  0.67228000  0.19715000  0.59249000  1.0
  H  H27  1  0.86798000  0.80302000  0.90743000  1.0
  H  H28  1  0.53835000  0.46590000  0.30035000  1.0
  H  H29  1  0.00429000  0.53379000  0.20007000  1.0
  H  H30  1  0.46166000  0.53409000  0.69966000  1.0
  H  H31  1  0.99571000  0.46621000  0.79993000  1.0
  H  H32  1  0.31479000  0.38628000  0.48802000  1.0
  H  H33  1  0.70184000  0.61272000  0.01241000  1.0
  H  H34  1  0.68522000  0.61371000  0.51198000  1.0
  H  H35  1  0.29816000  0.38728000  0.98759000  1.0
  H  H36  1  0.71764000  0.09294000  0.03842000  1.0
  H  H37  1  0.81104000  0.90674000  0.46163000  1.0
  H  H38  1  0.28235000  0.90706000  0.96157000  1.0
  H  H39  1  0.18898000  0.09325000  0.53837000  1.0
  H  H40  1  0.81791000  0.21005000  0.98162000  1.0
  H  H41  1  0.02822000  0.78965000  0.51844000  1.0
  H  H42  1  0.18207000  0.78995000  0.01838000  1.0
  H  H43  1  0.97181000  0.21034000  0.48158000  1.0
  H  H44  1  0.91441000  0.11317000  0.76536000  1.0
  H  H45  1  0.02770000  0.88648000  0.73472000  1.0
  H  H46  1  0.08560000  0.88683000  0.23464000  1.0
  H  H47  1  0.97229000  0.11354000  0.26529000  1.0
  H  H48  1  0.81569000  0.99580000  0.82436000  1.0
  H  H49  1  0.81178000  0.00387000  0.67574000  1.0
  H  H50  1  0.18432000  0.00420000  0.17565000  1.0
  H  H51  1  0.18821000  0.99613000  0.32426000  1.0
  H  H52  1  0.88734000  0.37605000  0.67197000  1.0
  H  H53  1  0.26301000  0.62348000  0.82818000  1.0
  H  H54  1  0.11265000  0.62395000  0.32803000  1.0
  H  H55  1  0.73698000  0.37652000  0.17185000  1.0
  H  H56  1  0.03414000  0.36115000  0.56339000  1.0
  H  H57  1  0.39532000  0.63790000  0.93670000  1.0
  H  H58  1  0.96585000  0.63884000  0.43660000  1.0
  H  H59  1  0.60468000  0.36211000  0.06332000  1.0
  H  H60  1  0.27253000  0.06600000  0.77212000  1.0
  H  H61  1  0.33865000  0.93347000  0.72853000  1.0
  H  H62  1  0.72746000  0.93399000  0.22788000  1.0
  H  H63  1  0.66137000  0.06652000  0.27147000  1.0
  H  H64  1  0.12714000  0.07987000  0.87885000  1.0
  H  H65  1  0.20710000  0.91990000  0.62168000  1.0
  H  H66  1  0.87286000  0.92013000  0.12115000  1.0
  H  H67  1  0.79290000  0.08009000  0.37834000  1.0
  H  H68  1  0.55978000  0.27161000  0.33626000  1.0
  H  H69  1  0.83114000  0.72787000  0.16419000  1.0
  H  H70  1  0.44023000  0.72839000  0.66374000  1.0
  H  H71  1  0.16887000  0.27213000  0.83580000  1.0
  C  C72  1  0.48379000  0.75058000  0.19938000  1.0
  C  C73  1  0.23534000  0.24916000  0.30075000  1.0
  C  C74  1  0.51621000  0.24942000  0.80062000  1.0
  C  C75  1  0.76466000  0.75084000  0.69925000  1.0
  C  C76  1  0.51715000  0.87487000  0.20319000  1.0
  C  C77  1  0.39243000  0.12460000  0.29691000  1.0
  C  C78  1  0.48286000  0.12514000  0.79681000  1.0
  C  C79  1  0.60756000  0.87540000  0.70308000  1.0
  C  C80  1  0.47068000  0.84004000  0.28014000  1.0
  C  C81  1  0.31114000  0.15957000  0.22001000  1.0
  C  C82  1  0.52933000  0.15996000  0.71985000  1.0
  C  C83  1  0.68885000  0.84044000  0.77998000  1.0
  C  C84  1  0.40383000  0.69957000  0.34325000  1.0
  C  C85  1  0.10437000  0.30023000  0.15691000  1.0
  C  C86  1  0.59617000  0.30044000  0.65674000  1.0
  C  C87  1  0.89562000  0.69978000  0.84309000  1.0
  C  C88  1  0.38572000  0.54918000  0.40100000  1.0
  C  C89  1  0.93571000  0.45028000  0.09932000  1.0
  C  C90  1  0.61429000  0.45082000  0.59900000  1.0
  C  C91  1  0.06428000  0.54972000  0.90068000  1.0
  C  C92  1  0.32158000  0.57199000  0.46680000  1.0
  C  C93  1  0.89466000  0.42736000  0.03353000  1.0
  C  C94  1  0.67842000  0.42802000  0.53319000  1.0
  C  C95  1  0.10533000  0.57264000  0.96647000  1.0
  C  C96  1  0.29964000  0.66505000  0.46801000  1.0
  C  C97  1  0.96602000  0.33448000  0.03218000  1.0
  C  C98  1  0.70036000  0.33496000  0.53198000  1.0
  C  C99  1  0.03397000  0.66553000  0.96781000  1.0
  C  C100  1  0.34111000  0.73113000  0.40579000  1.0
  C  C101  1  0.07355000  0.26866000  0.09427000  1.0
  C  C102  1  0.65889000  0.26888000  0.59420000  1.0
  C  C103  1  0.92645000  0.73134000  0.90573000  1.0
  C  C104  1  0.49703000  0.41995000  0.34385000  1.0
  C  C105  1  0.91709000  0.57959000  0.15660000  1.0
  C  C106  1  0.50298000  0.58004000  0.65616000  1.0
  C  C107  1  0.08290000  0.42042000  0.84340000  1.0
  C  C108  1  0.38069000  0.38036000  0.44379000  1.0
  C  C109  1  0.76154000  0.61876000  0.05671000  1.0
  C  C110  1  0.61931000  0.61963000  0.55621000  1.0
  C  C111  1  0.23846000  0.38124000  0.94329000  1.0
  C  C112  1  0.69750000  0.97032000  0.96590000  1.0
  C  C113  1  0.66839000  0.02952000  0.53442000  1.0
  C  C114  1  0.30250000  0.02969000  0.03409000  1.0
  C  C115  1  0.33161000  0.97048000  0.46558000  1.0
  C  C116  1  0.76181000  0.03635000  0.93545000  1.0
  C  C117  1  0.79856000  0.96331000  0.56467000  1.0
  C  C118  1  0.23818000  0.96365000  0.06454000  1.0
  C  C119  1  0.20144000  0.03669000  0.43534000  1.0
  C  C120  1  0.76221000  0.09722000  0.97941000  1.0
  C  C121  1  0.85973000  0.90239000  0.52072000  1.0
  C  C122  1  0.23778000  0.90278000  0.02058000  1.0
  C  C123  1  0.14028000  0.09761000  0.47929000  1.0
  C  C124  1  0.81745000  0.16241000  0.94791000  1.0
  C  C125  1  0.98007000  0.83717000  0.55223000  1.0
  C  C126  1  0.18254000  0.83759000  0.05208000  1.0
  C  C127  1  0.01993000  0.16283000  0.44778000  1.0
  C  C128  1  0.87181000  0.16814000  0.87065000  1.0
  C  C129  1  0.04008000  0.83148000  0.62947000  1.0
  C  C130  1  0.12818000  0.83187000  0.12934000  1.0
  C  C131  1  0.95992000  0.16852000  0.37055000  1.0
  C  C132  1  0.87257000  0.10787000  0.82577000  1.0
  C  C133  1  0.98061000  0.89175000  0.67434000  1.0
  C  C134  1  0.12743000  0.89213000  0.17422000  1.0
  C  C135  1  0.01939000  0.10826000  0.32566000  1.0
  C  C136  1  0.81809000  0.04212000  0.85898000  1.0
  C  C137  1  0.86052000  0.95748000  0.64117000  1.0
  C  C138  1  0.18191000  0.95788000  0.14101000  1.0
  C  C139  1  0.13947000  0.04252000  0.35884000  1.0
  C  C140  1  0.99977000  0.22845000  0.78014000  1.0
  C  C141  1  0.22807000  0.77120000  0.72013000  1.0
  C  C142  1  0.00023000  0.77155000  0.21987000  1.0
  C  C143  1  0.77193000  0.22879000  0.27989000  1.0
  C  C144  1  0.97223000  0.30902000  0.69254000  1.0
  C  C145  1  0.28095000  0.69052000  0.80765000  1.0
  C  C146  1  0.02777000  0.69098000  0.30746000  1.0
  C  C147  1  0.71905000  0.30948000  0.19237000  1.0
  C  C148  1  0.05346000  0.30055000  0.63296000  1.0
  C  C149  1  0.35386000  0.69875000  0.86727000  1.0
  C  C150  1  0.94654000  0.69944000  0.36703000  1.0
  C  C151  1  0.64614000  0.30125000  0.13275000  1.0
  C  C152  1  0.16132000  0.21279000  0.66062000  1.0
  C  C153  1  0.37412000  0.78649000  0.83981000  1.0
  C  C154  1  0.83868000  0.78721000  0.33938000  1.0
  C  C155  1  0.62589000  0.21350000  0.16020000  1.0
  C  C156  1  0.18805000  0.13356000  0.74979000  1.0
  C  C157  1  0.32163000  0.86591000  0.75074000  1.0
  C  C158  1  0.81195000  0.86644000  0.25021000  1.0
  C  C159  1  0.67837000  0.13409000  0.24926000  1.0
  C  C160  1  0.10746000  0.14107000  0.80966000  1.0
  C  C161  1  0.24855000  0.85855000  0.69080000  1.0
  C  C162  1  0.89254000  0.85893000  0.19034000  1.0
  C  C163  1  0.75145000  0.14144000  0.30922000  1.0
  C  C164  1  0.24492000  0.20362000  0.59379000  1.0
  C  C165  1  0.44886000  0.79529000  0.90668000  1.0
  C  C166  1  0.75508000  0.79637000  0.40621000  1.0
  C  C167  1  0.55114000  0.20470000  0.09333000  1.0
  C  C168  1  0.50604000  0.32477000  0.36264000  1.0
  C  C169  1  0.83076000  0.67464000  0.13782000  1.0
  C  C170  1  0.49396000  0.67523000  0.63736000  1.0
  C  C171  1  0.16924000  0.32536000  0.86217000  1.0
  N  N172  1  0.52376000  0.81910000  0.15360000  1.0
  N  N173  1  0.34361000  0.18047000  0.34647000  1.0
  N  N174  1  0.47624000  0.18091000  0.84639000  1.0
  N  N175  1  0.65639000  0.81953000  0.65352000  1.0
  N  N176  1  0.45031000  0.76047000  0.27766000  1.0
  N  N177  1  0.21157000  0.23933000  0.22248000  1.0
  N  N178  1  0.54969000  0.23953000  0.72233000  1.0
  N  N179  1  0.78843000  0.76067000  0.77752000  1.0
  N  N180  1  0.42560000  0.61120000  0.34042000  1.0
  N  N181  1  0.03757000  0.38849000  0.15982000  1.0
  N  N182  1  0.57440000  0.38880000  0.65957000  1.0
  N  N183  1  0.96242000  0.61152000  0.84018000  1.0
  N  N184  1  0.41696000  0.45519000  0.39600000  1.0
  N  N185  1  0.87261000  0.54415000  0.10445000  1.0
  N  N186  1  0.58305000  0.54480000  0.60400000  1.0
  N  N187  1  0.12739000  0.45585000  0.89555000  1.0
  N  N188  1  0.43327000  0.30149000  0.42455000  1.0
  N  N189  1  0.73493000  0.69769000  0.07594000  1.0
  N  N190  1  0.56673000  0.69850000  0.57545000  1.0
  N  N191  1  0.26507000  0.30231000  0.92405000  1.0
  O  O192  1  0.62786000  0.97932000  0.02377000  1.0
  O  O193  1  0.60738000  0.02054000  0.47677000  1.0
  O  O194  1  0.37213000  0.02069000  0.97622000  1.0
  O  O195  1  0.39262000  0.97946000  0.52323000  1.0
  O  O196  1  0.71198000  0.90689000  0.93198000  1.0
  O  O197  1  0.61993000  0.09308000  0.56823000  1.0
  O  O198  1  0.28800000  0.09313000  0.06801000  1.0
  O  O199  1  0.38007000  0.90691000  0.43177000  1.0
  O  O200  1  0.91909000  0.23867000  0.83983000  1.0
  O  O201  1  0.15776000  0.76105000  0.66033000  1.0
  O  O202  1  0.08090000  0.76133000  0.16017000  1.0
  O  O203  1  0.84223000  0.23895000  0.33969000  1.0
  O  O204  1  0.33982000  0.11907000  0.62109000  1.0
  O  O205  1  0.45893000  0.88000000  0.87966000  1.0
  O  O206  1  0.66019000  0.88094000  0.37891000  1.0
  O  O207  1  0.54108000  0.11998000  0.12035000  1.0
  O  O208  1  0.21833000  0.27631000  0.51398000  1.0
  O  O209  1  0.49548000  0.72220000  0.98619000  1.0
  O  O210  1  0.78167000  0.72370000  0.48602000  1.0
  O  O211  1  0.50453000  0.27779000  0.01383000  1.0
