# generated using pymatgen
data_H16PbC22(BrN2)2
_symmetry_space_group_name_H-M   'P 1'
_cell_length_a   4.15769000
_cell_length_b   16.09060000
_cell_length_c   17.41680000
_cell_angle_alpha   113.79400000
_cell_angle_beta   89.99900000
_cell_angle_gamma   89.99980000
_symmetry_Int_Tables_number   1
_chemical_formula_structural   H16PbC22(BrN2)2
_chemical_formula_sum   'H32 Pb2 C44 Br4 N8'
_cell_volume   1066.14117085
_cell_formula_units_Z   2
loop_
 _symmetry_equiv_pos_site_id
 _symmetry_equiv_pos_as_xyz
  1  'x, y, z'
loop_
 _atom_site_type_symbol
 _atom_site_label
 _atom_site_symmetry_multiplicity
 _atom_site_fract_x
 _atom_site_fract_y
 _atom_site_fract_z
 _atom_site_occupancy
  H  H0  1  0.85946000  0.78219000  0.23287000  1.0
  H  H1  1  0.85946000  0.21781000  0.26713000  1.0
  H  H2  1  0.14053000  0.21781000  0.76712000  1.0
  H  H3  1  0.14052000  0.78219000  0.73288000  1.0
  H  H4  1  0.29533000  0.97088000  0.41750000  1.0
  H  H5  1  0.29535000  0.02912000  0.08251000  1.0
  H  H6  1  0.70467000  0.02912000  0.58250000  1.0
  H  H7  1  0.70465000  0.97088000  0.91749000  1.0
  H  H8  1  0.27563000  0.87457000  0.50027000  1.0
  H  H9  1  0.27562000  0.12543000  0.99973000  1.0
  H  H10  1  0.72439000  0.12543000  0.49973000  1.0
  H  H11  1  0.72436000  0.87457000  0.00026000  1.0
  H  H12  1  0.87144000  0.67901000  0.30940000  1.0
  H  H13  1  0.87142000  0.32099000  0.19059000  1.0
  H  H14  1  0.12857000  0.32099000  0.69060000  1.0
  H  H15  1  0.12857000  0.67901000  0.80940000  1.0
  H  H16  1  0.39181000  0.73223000  0.51080000  1.0
  H  H17  1  0.39181000  0.26776000  0.98920000  1.0
  H  H18  1  0.60819000  0.26777000  0.48920000  1.0
  H  H19  1  0.60819000  0.73224000  0.01080000  1.0
  H  H20  1  0.40214000  0.28623000  0.38724000  1.0
  H  H21  1  0.40214000  0.71377000  0.11276000  1.0
  H  H22  1  0.59787000  0.71377000  0.61276000  1.0
  H  H23  1  0.59785000  0.28623000  0.88725000  1.0
  H  H24  1  0.34502000  0.37079000  0.29678000  1.0
  H  H25  1  0.34505000  0.62921000  0.20323000  1.0
  H  H26  1  0.65497000  0.62921000  0.70322000  1.0
  H  H27  1  0.65497000  0.37079000  0.79677000  1.0
  H  H28  1  0.07181000  0.52173000  0.35059000  1.0
  H  H29  1  0.07182000  0.47828000  0.14940000  1.0
  H  H30  1  0.92819000  0.47827000  0.64941000  1.0
  H  H31  1  0.92821000  0.52172000  0.85060000  1.0
  Pb  Pb32  1  0.58088000  0.00000000  0.25000000  1.0
  Pb  Pb33  1  0.41910000  0.00000000  0.74999000  1.0
  C  C34  1  0.73385000  0.80009000  0.29257000  1.0
  C  C35  1  0.73385000  0.19991000  0.20743000  1.0
  C  C36  1  0.26615000  0.19991000  0.70743000  1.0
  C  C37  1  0.26615000  0.80009000  0.79257000  1.0
  C  C38  1  0.41989000  0.90558000  0.39572000  1.0
  C  C39  1  0.41990000  0.09442000  0.10428000  1.0
  C  C40  1  0.58011000  0.09442000  0.60428000  1.0
  C  C41  1  0.58011000  0.90558000  0.89572000  1.0
  C  C42  1  0.40909000  0.85212000  0.44142000  1.0
  C  C43  1  0.40911000  0.14788000  0.05858000  1.0
  C  C44  1  0.59090000  0.14789000  0.55858000  1.0
  C  C45  1  0.59091000  0.85212000  0.94142000  1.0
  C  C46  1  0.73990000  0.74300000  0.33485000  1.0
  C  C47  1  0.73990000  0.25699000  0.16515000  1.0
  C  C48  1  0.26010000  0.25700000  0.66516000  1.0
  C  C49  1  0.26010000  0.74300000  0.83484000  1.0
  C  C50  1  0.57587000  0.76925000  0.41160000  1.0
  C  C51  1  0.57587000  0.23074000  0.08840000  1.0
  C  C52  1  0.42414000  0.23075000  0.58840000  1.0
  C  C53  1  0.42415000  0.76925000  0.91160000  1.0
  C  C54  1  0.57928000  0.71545000  0.46220000  1.0
  C  C55  1  0.57928000  0.28455000  0.03781000  1.0
  C  C56  1  0.42073000  0.28455000  0.53781000  1.0
  C  C57  1  0.42073000  0.71544000  0.96219000  1.0
  C  C58  1  0.81814000  0.60975000  0.50469000  1.0
  C  C59  1  0.81814000  0.39025000  0.99531000  1.0
  C  C60  1  0.18186000  0.39025000  0.49530000  1.0
  C  C61  1  0.18186000  0.60974000  0.00469000  1.0
  C  C62  1  0.29103000  0.35327000  0.41256000  1.0
  C  C63  1  0.29103000  0.64673000  0.08743000  1.0
  C  C64  1  0.70898000  0.64673000  0.58743000  1.0
  C  C65  1  0.70898000  0.35327000  0.91257000  1.0
  C  C66  1  0.25228000  0.40067000  0.36077000  1.0
  C  C67  1  0.25228000  0.59934000  0.13923000  1.0
  C  C68  1  0.74773000  0.59933000  0.63923000  1.0
  C  C69  1  0.74773000  0.40066000  0.86077000  1.0
  C  C70  1  0.10097000  0.48422000  0.39006000  1.0
  C  C71  1  0.10095000  0.51579000  0.10994000  1.0
  C  C72  1  0.89904000  0.51578000  0.60993000  1.0
  C  C73  1  0.89906000  0.48421000  0.89006000  1.0
  C  C74  1  0.98067000  0.52357000  0.47308000  1.0
  C  C75  1  0.98065000  0.47643000  0.02692000  1.0
  C  C76  1  0.01934000  0.47643000  0.52691000  1.0
  C  C77  1  0.01935000  0.52357000  0.97308000  1.0
  Br  Br78  1  0.07413000  0.11612000  0.36968000  1.0
  Br  Br79  1  0.07412000  0.88387000  0.13032000  1.0
  Br  Br80  1  0.92582000  0.88389000  0.63032000  1.0
  Br  Br81  1  0.92581000  0.11613000  0.86970000  1.0
  N  N82  1  0.57927000  0.88059000  0.32262000  1.0
  N  N83  1  0.57928000  0.11941000  0.17738000  1.0
  N  N84  1  0.42072000  0.11942000  0.67738000  1.0
  N  N85  1  0.42072000  0.88058000  0.82262000  1.0
  N  N86  1  0.79479000  0.65419000  0.45060000  1.0
  N  N87  1  0.79479000  0.34582000  0.04940000  1.0
  N  N88  1  0.20521000  0.34582000  0.54940000  1.0
  N  N89  1  0.20521000  0.65418000  0.95060000  1.0
