# generated using pymatgen
data_Al2H13C22NO14
_symmetry_space_group_name_H-M   'P 1'
_cell_length_a   6.63281000
_cell_length_b   11.05960000
_cell_length_c   11.17163540
_cell_angle_alpha   89.49036966
_cell_angle_beta   72.76860745
_cell_angle_gamma   73.25930000
_symmetry_Int_Tables_number   1
_chemical_formula_structural   Al2H13C22NO14
_chemical_formula_sum   'Al2 H13 C22 N1 O14'
_cell_volume   746.93119268
_cell_formula_units_Z   1
loop_
 _symmetry_equiv_pos_site_id
 _symmetry_equiv_pos_as_xyz
  1  'x, y, z'
loop_
 _atom_site_type_symbol
 _atom_site_label
 _atom_site_symmetry_multiplicity
 _atom_site_fract_x
 _atom_site_fract_y
 _atom_site_fract_z
 _atom_site_occupancy
  Al  Al0  1  0.98237000  0.50631000  0.50151000  1.0
  Al  Al1  1  0.48688000  0.49777000  0.49936000  1.0
  H  H2  1  0.62200000  0.56692000  0.65306000  1.0
  H  H3  1  0.33008000  0.34683000  0.44014000  1.0
  H  H4  1  0.66641000  0.10366000  0.42457000  1.0
  H  H5  1  0.21450000  0.13190000  0.54184000  1.0
  H  H6  1  0.80399000  0.86729000  0.42278000  1.0
  H  H7  1  0.47601000  0.31807000  0.75799000  1.0
  H  H8  1  0.26930000  0.37093000  0.22417000  1.0
  H  H9  1  0.60979000  0.59464000  0.12470000  1.0
  H  H10  1  0.72800000  0.58982000  0.89034000  1.0
  H  H11  1  0.46373000  0.79330000  0.53679000  1.0
  H  H12  1  0.47444000  0.94546000  0.56852000  1.0
  H  H13  1  0.62935000  0.06471000  0.82183000  1.0
  H  H14  1  0.62029000  0.34440000  0.23846000  1.0
  C  C15  1  0.12339000  0.49018000  0.72853000  1.0
  C  C16  1  0.13795000  0.72870000  0.49163000  1.0
  C  C17  1  0.85356000  0.50281000  0.27259000  1.0
  C  C18  1  0.85161000  0.27087000  0.49285000  1.0
  C  C19  1  0.08001000  0.86655000  0.48492000  1.0
  C  C20  1  0.93181000  0.13041000  0.48686000  1.0
  C  C21  1  0.20599000  0.93989000  0.51556000  1.0
  C  C22  1  0.81125000  0.05742000  0.45318000  1.0
  C  C23  1  0.12601000  0.07299000  0.51490000  1.0
  C  C24  1  0.88865000  0.92720000  0.45170000  1.0
  C  C25  1  0.06211000  0.48029000  0.86735000  1.0
  C  C26  1  0.21928000  0.41406000  0.92787000  1.0
  C  C27  1  0.84638000  0.54230000  0.93830000  1.0
  C  C28  1  0.43042000  0.33075000  0.86001000  1.0
  C  C29  1  0.57578000  0.26379000  0.92079000  1.0
  C  C30  1  0.93248000  0.49221000  0.13236000  1.0
  C  C31  1  0.78046000  0.54619000  0.07006000  1.0
  C  C32  1  0.15619000  0.42480000  0.06288000  1.0
  C  C33  1  0.31469000  0.36082000  0.12215000  1.0
  C  C34  1  0.51996000  0.28214000  0.05389000  1.0
  C  C35  1  0.79471000  0.17454000  0.84426000  1.0
  C  C36  1  0.67023000  0.20056000  0.11910000  1.0
  N  N37  1  0.39086000  0.88849000  0.54961000  1.0
  O  O38  1  0.97587000  0.49451000  0.67568000  1.0
  O  O39  1  0.33708000  0.66825000  0.48725000  1.0
  O  O40  1  0.66173000  0.49013000  0.32469000  1.0
  O  O41  1  0.99241000  0.33073000  0.48605000  1.0
  O  O42  1  0.97949000  0.52272000  0.33095000  1.0
  O  O43  1  0.64696000  0.32310000  0.50462000  1.0
  O  O44  1  0.31642000  0.49891000  0.67366000  1.0
  O  O45  1  0.98610000  0.67571000  0.50408000  1.0
  O  O46  1  0.67506000  0.55757000  0.56177000  1.0
  O  O47  1  0.29145000  0.43880000  0.44395000  1.0
  O  O48  1  0.78150000  0.06834000  0.79045000  1.0
  O  O49  1  0.97123000  0.19582000  0.82451000  1.0
  O  O50  1  0.68450000  0.25138000  0.22501000  1.0
  O  O51  1  0.77114000  0.09003000  0.08167000  1.0
