# generated using pymatgen
data_ZnH36C52(NO2)4
_symmetry_space_group_name_H-M   'P 1'
_cell_length_a   9.01657000
_cell_length_b   13.71810000
_cell_length_c   21.08760000
_cell_angle_alpha   92.67030000
_cell_angle_beta   90.00000000
_cell_angle_gamma   90.00000000
_symmetry_Int_Tables_number   1
_chemical_formula_structural   ZnH36C52(NO2)4
_chemical_formula_sum   'Zn2 H72 C104 N8 O16'
_cell_volume   2605.49741826
_cell_formula_units_Z   2
loop_
 _symmetry_equiv_pos_site_id
 _symmetry_equiv_pos_as_xyz
  1  'x, y, z'
loop_
 _atom_site_type_symbol
 _atom_site_label
 _atom_site_symmetry_multiplicity
 _atom_site_fract_x
 _atom_site_fract_y
 _atom_site_fract_z
 _atom_site_occupancy
  Zn  Zn0  1  0.00000000  0.50000000  0.50000000  1.0
  Zn  Zn1  1  0.50000000  0.50000000  0.00000000  1.0
  H  H2  1  0.50633000  0.65152000  0.58595000  1.0
  H  H3  1  0.00633000  0.34848000  0.91405000  1.0
  H  H4  1  0.49367000  0.34848000  0.41405000  1.0
  H  H5  1  0.99367000  0.65152000  0.08595000  1.0
  H  H6  1  0.41128000  0.53813000  0.67809000  1.0
  H  H7  1  0.91128000  0.46187000  0.82191000  1.0
  H  H8  1  0.58872000  0.46187000  0.32191000  1.0
  H  H9  1  0.08872000  0.53813000  0.17809000  1.0
  H  H10  1  0.94290000  0.31073000  0.71213000  1.0
  H  H11  1  0.44290000  0.68927000  0.78787000  1.0
  H  H12  1  0.05710000  0.68927000  0.28787000  1.0
  H  H13  1  0.55710000  0.31073000  0.21213000  1.0
  H  H14  1  0.69798000  0.26351000  0.64433000  1.0
  H  H15  1  0.19798000  0.73649000  0.85567000  1.0
  H  H16  1  0.30202000  0.73649000  0.35567000  1.0
  H  H17  1  0.80202000  0.26351000  0.14433000  1.0
  H  H18  1  0.59980000  0.60321000  0.47063000  1.0
  H  H19  1  0.09980000  0.39679000  0.02937000  1.0
  H  H20  1  0.40020000  0.39679000  0.52937000  1.0
  H  H21  1  0.90020000  0.60321000  0.97063000  1.0
  H  H22  1  0.80776000  0.71467000  0.45109000  1.0
  H  H23  1  0.30776000  0.28533000  0.04891000  1.0
  H  H24  1  0.19223000  0.28533000  0.54891000  1.0
  H  H25  1  0.69224000  0.71467000  0.95109000  1.0
  H  H26  1  0.50458000  0.95769000  0.45152000  1.0
  H  H27  1  0.00458000  0.04231000  0.04848000  1.0
  H  H28  1  0.49542000  0.04230000  0.54848000  1.0
  H  H29  1  0.99542000  0.95769000  0.95153000  1.0
  H  H30  1  0.29496000  0.84522000  0.47037000  1.0
  H  H31  1  0.79496000  0.15478000  0.02963000  1.0
  H  H32  1  0.70504000  0.15478000  0.52963000  1.0
  H  H33  1  0.20504000  0.84522000  0.97037000  1.0
  H  H34  1  0.12325000  0.88499000  0.38117000  1.0
  H  H35  1  0.62325000  0.11501000  0.11883000  1.0
  H  H36  1  0.87675000  0.11501000  0.61883000  1.0
  H  H37  1  0.37675000  0.88499000  0.88117000  1.0
  H  H38  1  0.07199000  0.97251000  0.44374000  1.0
  H  H39  1  0.57199000  0.02749000  0.05626000  1.0
  H  H40  1  0.92801000  0.02749000  0.55626000  1.0
  H  H41  1  0.42801000  0.97251000  0.94374000  1.0
  H  H42  1  0.00319000  0.98599000  0.36484000  1.0
  H  H43  1  0.50319000  0.01401000  0.13516000  1.0
  H  H44  1  0.99681000  0.01401000  0.63516000  1.0
  H  H45  1  0.49681000  0.98599000  0.86484000  1.0
  H  H46  1  0.11830000  0.53685000  0.76210000  1.0
  H  H47  1  0.61830000  0.46315000  0.73790000  1.0
  H  H48  1  0.88170000  0.46315000  0.23790000  1.0
  H  H49  1  0.38170000  0.53685000  0.26210000  1.0
  H  H50  1  0.22342000  0.48416000  0.86467000  1.0
  H  H51  1  0.72341000  0.51584000  0.63533000  1.0
  H  H52  1  0.77659000  0.51584000  0.13533000  1.0
  H  H53  1  0.27659000  0.48416000  0.36467000  1.0
  H  H54  1  0.40910000  0.22925000  0.76832000  1.0
  H  H55  1  0.90910000  0.77075000  0.73168000  1.0
  H  H56  1  0.59090000  0.77075000  0.23168000  1.0
  H  H57  1  0.09090000  0.22925000  0.26832000  1.0
  H  H58  1  0.29893000  0.27932000  0.66666667  1.0
  H  H59  1  0.79893000  0.72068000  0.83337000  1.0
  H  H60  1  0.70107000  0.72068000  0.33337000  1.0
  H  H61  1  0.20107000  0.27932000  0.16663000  1.0
  H  H62  1  0.58992000  0.14255000  0.92365000  1.0
  H  H63  1  0.08992000  0.85744000  0.57635000  1.0
  H  H64  1  0.41008000  0.85744000  0.07635000  1.0
  H  H65  1  0.91008000  0.14256000  0.42365000  1.0
  H  H66  1  0.43356000  0.18950000  0.96869000  1.0
  H  H67  1  0.93357000  0.81050000  0.53131000  1.0
  H  H68  1  0.56644000  0.81050000  0.03131000  1.0
  H  H69  1  0.06644000  0.18950000  0.46869000  1.0
  H  H70  1  0.59446000  0.26341000  0.96088000  1.0
  H  H71  1  0.09446000  0.73659000  0.53912000  1.0
  H  H72  1  0.40554000  0.73659000  0.03912000  1.0
  H  H73  1  0.90554000  0.26341000  0.46088000  1.0
  C  C74  1  0.30463000  0.64909000  0.47840000  1.0
  C  C75  1  0.80462000  0.35091000  0.02160000  1.0
  C  C76  1  0.69537000  0.35091000  0.52160000  1.0
  C  C77  1  0.19537000  0.64909000  0.97840000  1.0
  C  C78  1  0.29884000  0.59807000  0.53492000  1.0
  C  C79  1  0.79884000  0.40193000  0.96508000  1.0
  C  C80  1  0.70116000  0.40193000  0.46508000  1.0
  C  C81  1  0.20116000  0.59807000  0.03492000  1.0
  C  C82  1  0.40674000  0.60711000  0.58586000  1.0
  C  C83  1  0.90673000  0.39289000  0.91414000  1.0
  C  C84  1  0.59326000  0.39289000  0.41414000  1.0
  C  C85  1  0.09327000  0.60711000  0.08586000  1.0
  C  C86  1  0.35840000  0.54954000  0.63282000  1.0
  C  C87  1  0.85840000  0.45046000  0.86718000  1.0
  C  C88  1  0.64160000  0.45046000  0.36718000  1.0
  C  C89  1  0.14160000  0.54954000  0.13282000  1.0
  C  C90  1  0.22062000  0.50539000  0.61120000  1.0
  C  C91  1  0.72062000  0.49461000  0.88880000  1.0
  C  C92  1  0.77938000  0.49461000  0.38880000  1.0
  C  C93  1  0.27938000  0.50539000  0.11120000  1.0
  C  C94  1  0.13724000  0.43948000  0.64589000  1.0
  C  C95  1  0.63725000  0.56052000  0.85411000  1.0
  C  C96  1  0.86275000  0.56052000  0.35411000  1.0
  C  C97  1  0.36276000  0.43948000  0.14589000  1.0
  C  C98  1  0.00288000  0.39539000  0.62649000  1.0
  C  C99  1  0.50288000  0.60461000  0.87351000  1.0
  C  C100  1  0.99712000  0.60461000  0.37351000  1.0
  C  C101  1  0.49712000  0.39539000  0.12649000  1.0
  C  C102  1  0.91479000  0.33225000  0.66468000  1.0
  C  C103  1  0.41479000  0.66775000  0.83532000  1.0
  C  C104  1  0.08521000  0.66775000  0.33531000  1.0
  C  C105  1  0.58521000  0.33225000  0.16468000  1.0
  C  C106  1  0.79085000  0.30784000  0.63010000  1.0
  C  C107  1  0.29085000  0.69216000  0.86990000  1.0
  C  C108  1  0.20915000  0.69216000  0.36990000  1.0
  C  C109  1  0.70915000  0.30784000  0.13010000  1.0
  C  C110  1  0.80318000  0.35539000  0.57027000  1.0
  C  C111  1  0.30318000  0.64461000  0.92973000  1.0
  C  C112  1  0.19682000  0.64461000  0.42973000  1.0
  C  C113  1  0.69682000  0.35539000  0.07027000  1.0
  C  C114  1  0.43215000  0.71581000  0.46974000  1.0
  C  C115  1  0.93215000  0.28419000  0.03026000  1.0
  C  C116  1  0.56785000  0.28419000  0.53026000  1.0
  C  C117  1  0.06785000  0.71581000  0.96974000  1.0
  C  C118  1  0.57812000  0.68062000  0.46580000  1.0
  C  C119  1  0.07812000  0.31938000  0.03420000  1.0
  C  C120  1  0.42188000  0.31937000  0.53420000  1.0
  C  C121  1  0.92188000  0.68062000  0.96580000  1.0
  C  C122  1  0.69559000  0.74354000  0.45476000  1.0
  C  C123  1  0.19559000  0.25646000  0.04524000  1.0
  C  C124  1  0.30441000  0.25646000  0.54524000  1.0
  C  C125  1  0.80441000  0.74354000  0.95476000  1.0
  C  C126  1  0.66903000  0.84349000  0.44866000  1.0
  C  C127  1  0.16903000  0.15651000  0.05134000  1.0
  C  C128  1  0.33097000  0.15651000  0.55134000  1.0
  C  C129  1  0.83097000  0.84349000  0.94866000  1.0
  C  C130  1  0.52392000  0.87973000  0.45493000  1.0
  C  C131  1  0.02392000  0.12027000  0.04507000  1.0
  C  C132  1  0.47608000  0.12027000  0.54507000  1.0
  C  C133  1  0.97608000  0.87973000  0.95493000  1.0
  C  C134  1  0.40697000  0.81646000  0.46498000  1.0
  C  C135  1  0.90697000  0.18354000  0.03501000  1.0
  C  C136  1  0.59303000  0.18354000  0.53502000  1.0
  C  C137  1  0.09303000  0.81646000  0.96498000  1.0
  C  C138  1  0.78934000  0.91380000  0.43642000  1.0
  C  C139  1  0.28933000  0.08620000  0.06358000  1.0
  C  C140  1  0.21067000  0.08619000  0.56358000  1.0
  C  C141  1  0.71066000  0.91380000  0.93642000  1.0
  C  C142  1  0.03560000  0.93329000  0.39992000  1.0
  C  C143  1  0.53560000  0.06671000  0.10008000  1.0
  C  C144  1  0.96440000  0.06671000  0.60008000  1.0
  C  C145  1  0.46440000  0.93329000  0.89992000  1.0
  C  C146  1  0.20059000  0.41094000  0.70781000  1.0
  C  C147  1  0.70059000  0.58906000  0.79219000  1.0
  C  C148  1  0.79941000  0.58906000  0.29219000  1.0
  C  C149  1  0.29941000  0.41094000  0.20781000  1.0
  C  C150  1  0.18092000  0.46895000  0.76369000  1.0
  C  C151  1  0.68092000  0.53105000  0.73631000  1.0
  C  C152  1  0.81908000  0.53105000  0.23631000  1.0
  C  C153  1  0.31908000  0.46895000  0.26369000  1.0
  C  C154  1  0.24018000  0.44022000  0.82092000  1.0
  C  C155  1  0.74018000  0.55978000  0.67908000  1.0
  C  C156  1  0.75982000  0.55978000  0.17908000  1.0
  C  C157  1  0.25982000  0.44022000  0.32092000  1.0
  C  C158  1  0.32259000  0.35380000  0.82283000  1.0
  C  C159  1  0.82259000  0.64620000  0.67717000  1.0
  C  C160  1  0.67741000  0.64620000  0.17717000  1.0
  C  C161  1  0.17741000  0.35380000  0.32283000  1.0
  C  C162  1  0.34440000  0.29614000  0.76684000  1.0
  C  C163  1  0.84440000  0.70386000  0.73316000  1.0
  C  C164  1  0.65560000  0.70386000  0.23316000  1.0
  C  C165  1  0.15560000  0.29614000  0.26684000  1.0
  C  C166  1  0.28293000  0.32426000  0.71007000  1.0
  C  C167  1  0.78293000  0.67574000  0.78993000  1.0
  C  C168  1  0.71707000  0.67574000  0.28993000  1.0
  C  C169  1  0.21707000  0.32426000  0.21007000  1.0
  C  C170  1  0.38315000  0.32480000  0.88453000  1.0
  C  C171  1  0.88315000  0.67520000  0.61547000  1.0
  C  C172  1  0.61685000  0.67520000  0.11547000  1.0
  C  C173  1  0.11685000  0.32480000  0.38453000  1.0
  C  C174  1  0.52493000  0.20752000  0.93706000  1.0
  C  C175  1  0.02493000  0.79248000  0.56294000  1.0
  C  C176  1  0.47507000  0.79248000  0.06294000  1.0
  C  C177  1  0.97507000  0.20753000  0.43706000  1.0
  N  N178  1  0.18701000  0.53606000  0.55169000  1.0
  N  N179  1  0.68701000  0.46394000  0.94831000  1.0
  N  N180  1  0.81299000  0.46394000  0.44831000  1.0
  N  N181  1  0.31299000  0.53606000  0.05169000  1.0
  N  N182  1  0.93294000  0.40780000  0.56946000  1.0
  N  N183  1  0.43294000  0.59220000  0.93054000  1.0
  N  N184  1  0.06706000  0.59220000  0.43054000  1.0
  N  N185  1  0.56706000  0.40780000  0.06946000  1.0
  O  O186  1  0.77957000  0.00265000  0.44602000  1.0
  O  O187  1  0.27958000  0.99735000  0.05398000  1.0
  O  O188  1  0.22043000  0.99735000  0.55398000  1.0
  O  O189  1  0.72043000  0.00265000  0.94602000  1.0
  O  O190  1  0.91312000  0.86926000  0.41275000  1.0
  O  O191  1  0.41312000  0.13074000  0.08725000  1.0
  O  O192  1  0.08688000  0.13074000  0.58725000  1.0
  O  O193  1  0.58688000  0.86926000  0.91275000  1.0
  O  O194  1  0.35967000  0.36883000  0.93575000  1.0
  O  O195  1  0.85966000  0.63117000  0.56425000  1.0
  O  O196  1  0.64034000  0.63117000  0.06425000  1.0
  O  O197  1  0.14034000  0.36883000  0.43575000  1.0
  O  O198  1  0.46609000  0.24288000  0.87859000  1.0
  O  O199  1  0.96609000  0.75712000  0.62141000  1.0
  O  O200  1  0.53391000  0.75712000  0.12141000  1.0
  O  O201  1  0.03391000  0.24288000  0.37859000  1.0
