# generated using pymatgen
data_H16Au2C15(SCl)2
_symmetry_space_group_name_H-M   'P 1'
_cell_length_a   8.37137000
_cell_length_b   11.54810000
_cell_length_c   18.80920000
_cell_angle_alpha   102.42500000
_cell_angle_beta   90.00000000
_cell_angle_gamma   90.00000000
_symmetry_Int_Tables_number   1
_chemical_formula_structural   H16Au2C15(SCl)2
_chemical_formula_sum   'H64 Au8 C60 S8 Cl8'
_cell_volume   1775.76115627
_cell_formula_units_Z   4
loop_
 _symmetry_equiv_pos_site_id
 _symmetry_equiv_pos_as_xyz
  1  'x, y, z'
loop_
 _atom_site_type_symbol
 _atom_site_label
 _atom_site_symmetry_multiplicity
 _atom_site_fract_x
 _atom_site_fract_y
 _atom_site_fract_z
 _atom_site_occupancy
  H  H0  1  0.50155000  0.79172000  0.10150000  1.0
  H  H1  1  0.00154000  0.20829000  0.39850000  1.0
  H  H2  1  0.49846000  0.20829000  0.89850000  1.0
  H  H3  1  0.99846000  0.79172000  0.60150000  1.0
  H  H4  1  0.48205000  0.99936000  0.08192000  1.0
  H  H5  1  0.98205000  0.00064000  0.41808000  1.0
  H  H6  1  0.51796000  0.00064000  0.91808000  1.0
  H  H7  1  0.01796000  0.99936000  0.58192000  1.0
  H  H8  1  0.25335000  0.05811000  0.01461000  1.0
  H  H9  1  0.75335000  0.94189000  0.48538000  1.0
  H  H10  1  0.74665000  0.94189000  0.98538000  1.0
  H  H11  1  0.24665000  0.05811000  0.51461000  1.0
  H  H12  1  0.03933000  0.91069000  0.96652000  1.0
  H  H13  1  0.53933000  0.08931000  0.53348000  1.0
  H  H14  1  0.96067000  0.08931000  0.03348000  1.0
  H  H15  1  0.46067000  0.91069000  0.46652000  1.0
  H  H16  1  0.05714000  0.70563000  0.98553000  1.0
  H  H17  1  0.55714000  0.29437000  0.51447000  1.0
  H  H18  1  0.94286000  0.29437000  0.01447000  1.0
  H  H19  1  0.44285000  0.70563000  0.48553000  1.0
  H  H20  1  0.12043000  0.47352000  0.10295000  1.0
  H  H21  1  0.62042000  0.52647000  0.39705000  1.0
  H  H22  1  0.87957000  0.52647000  0.89705000  1.0
  H  H23  1  0.37957000  0.47353000  0.60295000  1.0
  H  H24  1  0.02459000  0.60013000  0.08154000  1.0
  H  H25  1  0.52459000  0.39987000  0.41846000  1.0
  H  H26  1  0.97541000  0.39987000  0.91846000  1.0
  H  H27  1  0.47541000  0.60013000  0.58154000  1.0
  H  H28  1  0.03093000  0.63224000  0.21320000  1.0
  H  H29  1  0.53093000  0.36776000  0.28680000  1.0
  H  H30  1  0.96907000  0.36776000  0.78680000  1.0
  H  H31  1  0.46907000  0.63224000  0.71320000  1.0
  H  H32  1  0.17094000  0.73074000  0.18817000  1.0
  H  H33  1  0.67093000  0.26926000  0.31183000  1.0
  H  H34  1  0.82906000  0.26926000  0.81183000  1.0
  H  H35  1  0.32906000  0.73074000  0.68817000  1.0
  H  H36  1  0.25429000  0.49228000  0.22867000  1.0
  H  H37  1  0.75428000  0.50772000  0.27133000  1.0
  H  H38  1  0.74572000  0.50772000  0.77133000  1.0
  H  H39  1  0.24572000  0.49228000  0.72867000  1.0
  H  H40  1  0.39661000  0.59058000  0.20262000  1.0
  H  H41  1  0.89660000  0.40942000  0.29739000  1.0
  H  H42  1  0.60339000  0.40942000  0.79738000  1.0
  H  H43  1  0.10339000  0.59058000  0.70261000  1.0
  H  H44  1  0.60386000  0.76130000  0.31503000  1.0
  H  H45  1  0.10385000  0.23870000  0.18497000  1.0
  H  H46  1  0.39615000  0.23870000  0.68497000  1.0
  H  H47  1  0.89615000  0.76130000  0.81503000  1.0
  H  H48  1  0.69263000  0.96667000  0.31655000  1.0
  H  H49  1  0.19263000  0.03333000  0.18345000  1.0
  H  H50  1  0.30737000  0.03334000  0.68345000  1.0
  H  H51  1  0.80737000  0.96666000  0.81655000  1.0
  H  H52  1  0.49145000  0.12851000  0.32396000  1.0
  H  H53  1  0.99145000  0.87149000  0.17604000  1.0
  H  H54  1  0.50855000  0.87149000  0.67604000  1.0
  H  H55  1  0.00855000  0.12850000  0.82396000  1.0
  H  H56  1  0.20337000  0.08333000  0.32533000  1.0
  H  H57  1  0.70337000  0.91667000  0.17467000  1.0
  H  H58  1  0.79663000  0.91667000  0.67467000  1.0
  H  H59  1  0.29663000  0.08333000  0.82533000  1.0
  H  H60  1  0.11231000  0.87513000  0.32111000  1.0
  H  H61  1  0.61231000  0.12488000  0.17889000  1.0
  H  H62  1  0.88769000  0.12487000  0.67888000  1.0
  H  H63  1  0.38769000  0.87512000  0.82112000  1.0
  Au  Au64  1  0.29011000  0.46988000  0.94189000  1.0
  Au  Au65  1  0.79011000  0.53012000  0.55811000  1.0
  Au  Au66  1  0.70989000  0.53012000  0.05811000  1.0
  Au  Au67  1  0.20989000  0.46989000  0.44189000  1.0
  Au  Au68  1  0.05064000  0.67411000  0.37314000  1.0
  Au  Au69  1  0.55064000  0.32589000  0.12686000  1.0
  Au  Au70  1  0.94937000  0.32589000  0.62686000  1.0
  Au  Au71  1  0.44937000  0.67410000  0.87314000  1.0
  C  C72  1  0.28055000  0.73774000  0.04499000  1.0
  C  C73  1  0.78055000  0.26226000  0.45501000  1.0
  C  C74  1  0.71945000  0.26226000  0.95501000  1.0
  C  C75  1  0.21945000  0.73774000  0.54499000  1.0
  C  C76  1  0.40004000  0.81955000  0.07290000  1.0
  C  C77  1  0.90004000  0.18045000  0.42711000  1.0
  C  C78  1  0.59996000  0.18045000  0.92711000  1.0
  C  C79  1  0.09996000  0.81955000  0.57290000  1.0
  C  C80  1  0.38865000  0.93497000  0.06162000  1.0
  C  C81  1  0.88865000  0.06503000  0.43838000  1.0
  C  C82  1  0.61136000  0.06503000  0.93838000  1.0
  C  C83  1  0.11136000  0.93498000  0.56162000  1.0
  C  C84  1  0.25975000  0.96784000  0.02331000  1.0
  C  C85  1  0.75975000  0.03215000  0.47669000  1.0
  C  C86  1  0.74026000  0.03215000  0.97669000  1.0
  C  C87  1  0.24025000  0.96785000  0.52331000  1.0
  C  C88  1  0.13961000  0.88572000  0.99684000  1.0
  C  C89  1  0.63961000  0.11428000  0.50316000  1.0
  C  C90  1  0.86039000  0.11428000  0.00315000  1.0
  C  C91  1  0.36039000  0.88572000  0.49684000  1.0
  C  C92  1  0.14935000  0.77027000  0.00742000  1.0
  C  C93  1  0.64935000  0.22972000  0.49258000  1.0
  C  C94  1  0.85065000  0.22973000  0.99258000  1.0
  C  C95  1  0.35065000  0.77028000  0.50742000  1.0
  C  C96  1  0.12939000  0.56964000  0.10746000  1.0
  C  C97  1  0.62939000  0.43036000  0.39254000  1.0
  C  C98  1  0.87061000  0.43036000  0.89254000  1.0
  C  C99  1  0.37061000  0.56964000  0.60746000  1.0
  C  C100  1  0.14701000  0.63637000  0.18623000  1.0
  C  C101  1  0.64701000  0.36363000  0.31377000  1.0
  C  C102  1  0.85299000  0.36363000  0.81377000  1.0
  C  C103  1  0.35299000  0.63637000  0.68623000  1.0
  C  C104  1  0.27755000  0.58517000  0.22652000  1.0
  C  C105  1  0.77755000  0.41483000  0.27348000  1.0
  C  C106  1  0.72245000  0.41483000  0.77348000  1.0
  C  C107  1  0.22245000  0.58517000  0.72652000  1.0
  C  C108  1  0.35275000  0.80634000  0.31670000  1.0
  C  C109  1  0.85275000  0.19366000  0.18330000  1.0
  C  C110  1  0.64725000  0.19366000  0.68330000  1.0
  C  C111  1  0.14725000  0.80634000  0.81670000  1.0
  C  C112  1  0.51613000  0.83109000  0.31531000  1.0
  C  C113  1  0.01613000  0.16892000  0.18469000  1.0
  C  C114  1  0.48387000  0.16892000  0.68469000  1.0
  C  C115  1  0.98387000  0.83108000  0.81531000  1.0
  C  C116  1  0.56556000  0.94695000  0.31685000  1.0
  C  C117  1  0.06555000  0.05305000  0.18315000  1.0
  C  C118  1  0.43444000  0.05305000  0.68315000  1.0
  C  C119  1  0.93445000  0.94694000  0.81685000  1.0
  C  C120  1  0.45307000  0.03742000  0.32084000  1.0
  C  C121  1  0.95308000  0.96259000  0.17916000  1.0
  C  C122  1  0.54692000  0.96259000  0.67915000  1.0
  C  C123  1  0.04692000  0.03741000  0.82085000  1.0
  C  C124  1  0.29015000  0.01204000  0.32212000  1.0
  C  C125  1  0.79015000  0.98796000  0.17789000  1.0
  C  C126  1  0.70985000  0.98796000  0.67788000  1.0
  C  C127  1  0.20985000  0.01204000  0.82212000  1.0
  C  C128  1  0.23919000  0.89618000  0.31953000  1.0
  C  C129  1  0.73919000  0.10382000  0.18047000  1.0
  C  C130  1  0.76081000  0.10382000  0.68047000  1.0
  C  C131  1  0.26081000  0.89618000  0.81953000  1.0
  S  S132  1  0.30747000  0.58869000  0.05485000  1.0
  S  S133  1  0.80747000  0.41131000  0.44516000  1.0
  S  S134  1  0.69253000  0.41131000  0.94515000  1.0
  S  S135  1  0.19253000  0.58869000  0.55485000  1.0
  S  S136  1  0.29885000  0.65878000  0.32209000  1.0
  S  S137  1  0.79885000  0.34122000  0.17791000  1.0
  S  S138  1  0.70115000  0.34122000  0.67791000  1.0
  S  S139  1  0.20115000  0.65877000  0.82209000  1.0
  Cl  Cl140  1  0.28523000  0.34222000  0.82979000  1.0
  Cl  Cl141  1  0.78524000  0.65779000  0.67021000  1.0
  Cl  Cl142  1  0.71477000  0.65778000  0.17021000  1.0
  Cl  Cl143  1  0.21476000  0.34222000  0.32979000  1.0
  Cl  Cl144  1  0.80529000  0.70819000  0.42662000  1.0
  Cl  Cl145  1  0.30529000  0.29181000  0.07338000  1.0
  Cl  Cl146  1  0.19471000  0.29181000  0.57338000  1.0
  Cl  Cl147  1  0.69471000  0.70819000  0.92662000  1.0
