# generated using pymatgen
data_AlH7C11SO5
_symmetry_space_group_name_H-M   'P 1'
_cell_length_a   6.60159000
_cell_length_b   11.02760089
_cell_length_c   12.66930000
_cell_angle_alpha   90.28794968
_cell_angle_beta   103.93380000
_cell_angle_gamma   106.22565735
_symmetry_Int_Tables_number   1
_chemical_formula_structural   AlH7C11SO5
_chemical_formula_sum   'Al2 H14 C22 S2 O10'
_cell_volume   856.93388704
_cell_formula_units_Z   2
loop_
 _symmetry_equiv_pos_site_id
 _symmetry_equiv_pos_as_xyz
  1  'x, y, z'
loop_
 _atom_site_type_symbol
 _atom_site_label
 _atom_site_symmetry_multiplicity
 _atom_site_fract_x
 _atom_site_fract_y
 _atom_site_fract_z
 _atom_site_occupancy
  Al  Al0  1  0.00004000  0.49943000  0.50065000  1.0
  Al  Al1  1  0.50042000  0.50000000  0.50053000  1.0
  H  H2  1  0.35435000  0.65396000  0.56250000  1.0
  H  H3  1  0.64539000  0.34420000  0.44223000  1.0
  H  H4  1  0.25045000  0.55784000  0.84861000  1.0
  H  H5  1  0.75004000  0.44263000  0.15290000  1.0
  H  H6  1  0.54130000  0.76090000  0.34929000  1.0
  H  H7  1  0.31862000  0.87519000  0.22953000  1.0
  H  H8  1  0.79721000  0.23098000  0.35455000  1.0
  H  H9  1  0.44820000  0.11166000  0.23170000  1.0
  H  H10  1  0.40896000  0.11191000  0.73626000  1.0
  H  H11  1  0.44150000  0.24255000  0.65465000  1.0
  H  H12  1  0.55001000  0.11741000  0.63355000  1.0
  H  H13  1  0.42183000  0.87382000  0.61569000  1.0
  H  H14  1  0.18998000  0.76784000  0.64761000  1.0
  H  H15  1  0.32742000  0.91310000  0.72631000  1.0
  C  C16  1  0.86266000  0.72601000  0.49273000  1.0
  C  C17  1  0.83439000  0.50452000  0.69686000  1.0
  C  C18  1  0.13932000  0.27374000  0.50919000  1.0
  C  C19  1  0.16623000  0.49553000  0.30457000  1.0
  C  C20  1  0.10796000  0.53100000  0.88163000  1.0
  C  C21  1  0.89258000  0.46990000  0.11993000  1.0
  C  C22  1  0.89766000  0.50265000  0.81597000  1.0
  C  C23  1  0.10288000  0.49807000  0.18554000  1.0
  C  C24  1  0.89411000  0.48195000  0.00932000  1.0
  C  C25  1  0.10647000  0.51939000  0.99229000  1.0
  C  C26  1  0.93349000  0.86749000  0.49711000  1.0
  C  C27  1  0.79678000  0.93046000  0.42762000  1.0
  C  C28  1  0.13065000  0.93387000  0.56818000  1.0
  C  C29  1  0.59685000  0.86390000  0.35298000  1.0
  C  C30  1  0.47238000  0.92801000  0.28533000  1.0
  C  C31  1  0.07029000  0.13233000  0.50539000  1.0
  C  C32  1  0.20017000  0.06943000  0.57292000  1.0
  C  C33  1  0.86838000  0.06595000  0.43084000  1.0
  C  C34  1  0.73948000  0.12860000  0.35712000  1.0
  C  C35  1  0.54502000  0.06143000  0.28687000  1.0
  C  C36  1  0.41009000  0.13980000  0.65312000  1.0
  C  C37  1  0.27293000  0.86774000  0.64295000  1.0
  S  S38  1  0.69745000  0.46199000  0.88788000  1.0
  S  S39  1  0.30315000  0.53925000  0.11373000  1.0
  O  O40  1  0.98990000  0.66794000  0.46955000  1.0
  O  O41  1  0.63081000  0.48030000  0.65145000  1.0
  O  O42  1  0.32005000  0.32811000  0.48711000  1.0
  O  O43  1  0.01203000  0.46715000  0.35268000  1.0
  O  O44  1  0.01053000  0.33106000  0.53187000  1.0
  O  O45  1  0.37003000  0.52043000  0.34989000  1.0
  O  O46  1  0.68081000  0.67214000  0.51410000  1.0
  O  O47  1  0.98871000  0.53186000  0.64878000  1.0
  O  O48  1  0.30122000  0.56274000  0.54707000  1.0
  O  O49  1  0.69880000  0.43590000  0.45432000  1.0
