# generated using pymatgen
data_ZnH12C20(N4O5)2
_symmetry_space_group_name_H-M   'P 1'
_cell_length_a   16.18710000
_cell_length_b   16.99630000
_cell_length_c   17.19040000
_cell_angle_alpha   91.52620000
_cell_angle_beta   92.20130000
_cell_angle_gamma   93.70100000
_symmetry_Int_Tables_number   1
_chemical_formula_structural   ZnH12C20(N4O5)2
_chemical_formula_sum   'Zn2 H24 C40 N16 O20'
_cell_volume   4714.08020276
_cell_formula_units_Z   2
loop_
 _symmetry_equiv_pos_site_id
 _symmetry_equiv_pos_as_xyz
  1  'x, y, z'
loop_
 _atom_site_type_symbol
 _atom_site_label
 _atom_site_symmetry_multiplicity
 _atom_site_fract_x
 _atom_site_fract_y
 _atom_site_fract_z
 _atom_site_occupancy
  Zn  Zn0  1  0.59435000  0.50694000  0.49531000  1.0
  Zn  Zn1  1  0.40564000  0.49306000  0.50471000  1.0
  H  H2  1  0.62798000  0.25295000  0.47423000  1.0
  H  H3  1  0.37210000  0.74702000  0.52582000  1.0
  H  H4  1  0.47062000  0.60874000  0.75387000  1.0
  H  H5  1  0.52927000  0.39118000  0.24614000  1.0
  H  H6  1  0.61282000  0.10451000  0.47139000  1.0
  H  H7  1  0.38721000  0.89547000  0.52868000  1.0
  H  H8  1  0.46385000  0.59999000  0.89876000  1.0
  H  H9  1  0.53605000  0.39995000  0.10125000  1.0
  H  H10  1  0.62299000  0.88455000  0.42249000  1.0
  H  H11  1  0.37701000  0.11547000  0.57750000  1.0
  H  H12  1  0.39154000  0.60368000  0.10950000  1.0
  H  H13  1  0.60851000  0.39635000  0.89055000  1.0
  H  H14  1  0.89805000  0.56887000  0.58667000  1.0
  H  H15  1  0.10196000  0.43123000  0.41327000  1.0
  H  H16  1  0.13269000  0.56647000  0.62938000  1.0
  H  H17  1  0.86728000  0.43373000  0.37050000  1.0
  H  H18  1  0.35824000  0.53804000  0.64214000  1.0
  H  H19  1  0.32423000  0.61559000  0.74378000  1.0
  H  H20  1  0.22324000  0.56790000  0.73968000  1.0
  H  H21  1  0.24494000  0.65389000  0.68415000  1.0
  H  H22  1  0.64172000  0.46203000  0.35785000  1.0
  H  H23  1  0.67575000  0.38450000  0.25620000  1.0
  H  H24  1  0.75503000  0.34622000  0.31585000  1.0
  H  H25  1  0.77673000  0.43218000  0.26029000  1.0
  C  C26  1  0.53096000  0.51016000  0.65261000  1.0
  C  C27  1  0.46900000  0.48980000  0.34742000  1.0
  C  C28  1  0.51910000  0.35469000  0.51650000  1.0
  C  C29  1  0.48095000  0.64531000  0.48350000  1.0
  C  C30  1  0.48828000  0.73280000  0.47405000  1.0
  C  C31  1  0.51177000  0.26721000  0.52596000  1.0
  C  C32  1  0.46270000  0.49538000  0.26028000  1.0
  C  C33  1  0.53728000  0.50460000  0.73975000  1.0
  C  C34  1  0.42659000  0.77852000  0.50351000  1.0
  C  C35  1  0.57346000  0.22147000  0.49654000  1.0
  C  C36  1  0.50138000  0.43889000  0.21558000  1.0
  C  C37  1  0.49855000  0.56105000  0.78444000  1.0
  C  C38  1  0.43490000  0.86019000  0.50544000  1.0
  C  C39  1  0.56514000  0.13980000  0.49461000  1.0
  C  C40  1  0.50476000  0.44305000  0.13540000  1.0
  C  C41  1  0.49517000  0.55691000  0.86463000  1.0
  C  C42  1  0.50708000  0.89858000  0.47777000  1.0
  C  C43  1  0.49294000  0.10142000  0.52224000  1.0
  C  C44  1  0.46808000  0.50498000  0.09713000  1.0
  C  C45  1  0.53191000  0.49501000  0.90291000  1.0
  C  C46  1  0.56789000  0.85440000  0.44509000  1.0
  C  C47  1  0.43213000  0.14562000  0.55491000  1.0
  C  C48  1  0.42287000  0.55769000  0.13943000  1.0
  C  C49  1  0.57713000  0.44232000  0.86061000  1.0
  C  C50  1  0.55762000  0.77267000  0.44312000  1.0
  C  C51  1  0.44241000  0.22734000  0.55688000  1.0
  C  C52  1  0.42143000  0.55283000  0.22000000  1.0
  C  C53  1  0.57857000  0.44718000  0.78004000  1.0
  C  C54  1  0.22404000  0.44902000  0.46692000  1.0
  C  C55  1  0.77595000  0.55107000  0.53305000  1.0
  C  C56  1  0.14028000  0.45761000  0.46141000  1.0
  C  C57  1  0.85972000  0.54251000  0.53853000  1.0
  C  C58  1  0.10764000  0.50177000  0.52219000  1.0
  C  C59  1  0.89235000  0.49839000  0.47771000  1.0
  C  C60  1  0.15922000  0.53324000  0.58267000  1.0
  C  C61  1  0.84076000  0.46693000  0.41724000  1.0
  C  C62  1  0.24549000  0.52124000  0.58314000  1.0
  C  C63  1  0.75448000  0.47888000  0.41681000  1.0
  C  C64  1  0.27015000  0.59929000  0.70515000  1.0
  C  C65  1  0.72982000  0.40081000  0.29483000  1.0
  N  N66  1  0.52449000  0.98105000  0.47991000  1.0
  N  N67  1  0.47552000  0.01895000  0.52011000  1.0
  N  N68  1  0.47312000  0.51913000  0.01688000  1.0
  N  N69  1  0.52685000  0.48086000  0.98317000  1.0
  N  N70  1  0.27764000  0.47958000  0.52327000  1.0
  N  N71  1  0.72233000  0.52050000  0.47671000  1.0
  N  N72  1  0.02280000  0.51667000  0.52703000  1.0
  N  N73  1  0.97720000  0.48350000  0.47285000  1.0
  N  N74  1  0.62338000  0.73131000  0.40416000  1.0
  N  N75  1  0.37667000  0.26871000  0.59583000  1.0
  N  N76  1  0.37737000  0.61416000  0.26094000  1.0
  N  N77  1  0.62267000  0.38586000  0.73910000  1.0
  N  N78  1  0.74290000  0.60346000  0.59424000  1.0
  N  N79  1  0.25711000  0.39658000  0.40577000  1.0
  N  N80  1  0.29656000  0.55030000  0.64173000  1.0
  N  N81  1  0.70341000  0.44981000  0.35823000  1.0
  O  O82  1  0.59616000  0.50620000  0.61502000  1.0
  O  O83  1  0.40379000  0.49382000  0.38499000  1.0
  O  O84  1  0.45267000  0.38954000  0.52410000  1.0
  O  O85  1  0.54736000  0.61045000  0.47584000  1.0
  O  O86  1  0.45901000  0.52091000  0.62410000  1.0
  O  O87  1  0.54092000  0.47900000  0.37594000  1.0
  O  O88  1  0.58901000  0.38619000  0.49910000  1.0
  O  O89  1  0.41106000  0.61381000  0.50096000  1.0
  O  O90  1  0.69442000  0.74178000  0.43337000  1.0
  O  O91  1  0.60337000  0.69378000  0.34308000  1.0
  O  O92  1  0.30562000  0.25822000  0.56665000  1.0
  O  O93  1  0.39670000  0.30626000  0.65689000  1.0
  O  O94  1  0.30992000  0.63054000  0.23101000  1.0
  O  O95  1  0.41140000  0.64598000  0.32021000  1.0
  O  O96  1  0.69011000  0.36948000  0.76907000  1.0
  O  O97  1  0.58868000  0.35405000  0.67981000  1.0
  O  O98  1  0.68518000  0.64327000  0.57431000  1.0
  O  O99  1  0.77849000  0.60479000  0.65929000  1.0
  O  O100  1  0.31480000  0.35675000  0.42575000  1.0
  O  O101  1  0.22157000  0.39524000  0.34070000  1.0
