# generated using pymatgen
data_K3HC(NO)6
_symmetry_space_group_name_H-M   'P 1'
_cell_length_a   7.33031000
_cell_length_b   7.83742197
_cell_length_c   19.20731962
_cell_angle_alpha   82.21149204
_cell_angle_beta   79.00871336
_cell_angle_gamma   62.14451395
_symmetry_Int_Tables_number   1
_chemical_formula_structural   K3HC(NO)6
_chemical_formula_sum   'K12 H4 C4 N24 O24'
_cell_volume   956.34575364
_cell_formula_units_Z   4
loop_
 _symmetry_equiv_pos_site_id
 _symmetry_equiv_pos_as_xyz
  1  'x, y, z'
loop_
 _atom_site_type_symbol
 _atom_site_label
 _atom_site_symmetry_multiplicity
 _atom_site_fract_x
 _atom_site_fract_y
 _atom_site_fract_z
 _atom_site_occupancy
  K  K0  1  0.83434000  0.99505000  0.69538000  1.0
  K  K1  1  0.52550000  0.50455000  0.80451000  1.0
  K  K2  1  0.16566000  0.00495000  0.30462000  1.0
  K  K3  1  0.47450000  0.49545000  0.19549000  1.0
  K  K4  1  0.46124000  0.77897000  0.61313000  1.0
  K  K5  1  0.85323000  0.72126000  0.88691000  1.0
  K  K6  1  0.53876000  0.22103000  0.38687000  1.0
  K  K7  1  0.14677000  0.27874000  0.11309000  1.0
  K  K8  1  0.04112000  0.73611000  0.49441000  1.0
  K  K9  1  0.27167000  0.76334000  0.00550000  1.0
  K  K10  1  0.95888000  0.26389000  0.50559000  1.0
  K  K11  1  0.72833000  0.23666000  0.99450000  1.0
  H  H12  1  0.33872000  0.21760000  0.68476000  1.0
  H  H13  1  0.24107000  0.28245000  0.81529000  1.0
  H  H14  1  0.66128000  0.78240000  0.31524000  1.0
  H  H15  1  0.75894000  0.71754000  0.18471000  1.0
  C  C16  1  0.24968000  0.32348000  0.64498000  1.0
  C  C17  1  0.21810000  0.17656000  0.85507000  1.0
  C  C18  1  0.75033000  0.67652000  0.35502000  1.0
  C  C19  1  0.78190000  0.82344000  0.14493000  1.0
  N  N20  1  0.19631000  0.51510000  0.66631000  1.0
  N  N21  1  0.37759000  0.98494000  0.83373000  1.0
  N  N22  1  0.80369000  0.48490000  0.33369000  1.0
  N  N23  1  0.62241000  0.01506000  0.16627000  1.0
  N  N24  1  0.20235000  0.51337000  0.73459000  1.0
  N  N25  1  0.45006000  0.98671000  0.76545000  1.0
  N  N26  1  0.79765000  0.48663000  0.26541000  1.0
  N  N27  1  0.54994000  0.01329000  0.23455000  1.0
  N  N28  1  0.37836000  0.27668000  0.57505000  1.0
  N  N29  1  0.23014000  0.22332000  0.92499000  1.0
  N  N30  1  0.62164000  0.72332000  0.42495000  1.0
  N  N31  1  0.76986000  0.77668000  0.07501000  1.0
  N  N32  1  0.57283000  0.14617000  0.57922000  1.0
  N  N33  1  0.29815000  0.35400000  0.92083000  1.0
  N  N34  1  0.42716000  0.85384000  0.42078000  1.0
  N  N35  1  0.70186000  0.64600000  0.07917000  1.0
  N  N36  1  0.06477000  0.29527000  0.64502000  1.0
  N  N37  1  0.00510000  0.20473000  0.85501000  1.0
  N  N38  1  0.93523000  0.70473000  0.35498000  1.0
  N  N39  1  0.99489000  0.79527000  0.14499000  1.0
  N  N40  1  0.87963000  0.44194000  0.65787000  1.0
  N  N41  1  0.97928000  0.05812000  0.84215000  1.0
  N  N42  1  0.12037000  0.55806000  0.34213000  1.0
  N  N43  1  0.02072000  0.94188000  0.15785000  1.0
  O  O44  1  0.13881000  0.66766000  0.62317000  1.0
  O  O45  1  0.42961000  0.83236000  0.87685000  1.0
  O  O46  1  0.86118000  0.33234000  0.37684000  1.0
  O  O47  1  0.57039000  0.16764000  0.12315000  1.0
  O  O48  1  0.14068000  0.68045000  0.75809000  1.0
  O  O49  1  0.57895000  0.81966000  0.74194000  1.0
  O  O50  1  0.85932000  0.31955000  0.24191000  1.0
  O  O51  1  0.42105000  0.18034000  0.25806000  1.0
  O  O52  1  0.29619000  0.35100000  0.51704000  1.0
  O  O53  1  0.16443000  0.14882000  0.98298000  1.0
  O  O54  1  0.70380000  0.64901000  0.48296000  1.0
  O  O55  1  0.83557000  0.85118000  0.01702000  1.0
  O  O56  1  0.68989000  0.09825000  0.51892000  1.0
  O  O57  1  0.30701000  0.40190000  0.98114000  1.0
  O  O58  1  0.31011000  0.90175000  0.48108000  1.0
  O  O59  1  0.69299000  0.59810000  0.01886000  1.0
  O  O60  1  0.10584000  0.11935000  0.63388000  1.0
  O  O61  1  0.85938000  0.38071000  0.86613000  1.0
  O  O62  1  0.89415000  0.88066000  0.36612000  1.0
  O  O63  1  0.14062000  0.61929000  0.13387000  1.0
  O  O64  1  0.72779000  0.39859000  0.66068000  1.0
  O  O65  1  0.78696000  0.10153000  0.83928000  1.0
  O  O66  1  0.27222000  0.60140000  0.33932000  1.0
  O  O67  1  0.21304000  0.89847000  0.16072000  1.0
