# generated using pymatgen
data_NaH11(C2O)4
_symmetry_space_group_name_H-M   'P 1'
_cell_length_a   7.28044000
_cell_length_b   7.98985000
_cell_length_c   16.19590000
_cell_angle_alpha   89.99990000
_cell_angle_beta   92.60220000
_cell_angle_gamma   89.99990000
_symmetry_Int_Tables_number   1
_chemical_formula_structural   NaH11(C2O)4
_chemical_formula_sum   'Na4 H44 C32 O16'
_cell_volume   941.13792824
_cell_formula_units_Z   4
loop_
 _symmetry_equiv_pos_site_id
 _symmetry_equiv_pos_as_xyz
  1  'x, y, z'
loop_
 _atom_site_type_symbol
 _atom_site_label
 _atom_site_symmetry_multiplicity
 _atom_site_fract_x
 _atom_site_fract_y
 _atom_site_fract_z
 _atom_site_occupancy
  Na  Na0  1  0.25188000  0.35462000  0.01465000  1.0
  Na  Na1  1  0.24812000  0.85462000  0.98535000  1.0
  Na  Na2  1  0.74813000  0.64538000  0.98535000  1.0
  Na  Na3  1  0.75188000  0.14538000  0.01465000  1.0
  H  H4  1  0.63703000  0.58024000  0.27439000  1.0
  H  H5  1  0.86297000  0.08025000  0.72561000  1.0
  H  H6  1  0.36297000  0.41975000  0.72561000  1.0
  H  H7  1  0.13703000  0.91976000  0.27440000  1.0
  H  H8  1  0.59062000  0.72834000  0.35300000  1.0
  H  H9  1  0.90938000  0.22835000  0.64700000  1.0
  H  H10  1  0.40938000  0.27165000  0.64700000  1.0
  H  H11  1  0.09062000  0.77165000  0.35300000  1.0
  H  H12  1  0.48168000  0.74559000  0.25323000  1.0
  H  H13  1  0.01832000  0.24560000  0.74677000  1.0
  H  H14  1  0.51831000  0.25440000  0.74677000  1.0
  H  H15  1  0.98169000  0.75440000  0.25323000  1.0
  H  H16  1  0.15742000  0.07742000  0.12262000  1.0
  H  H17  1  0.34259000  0.57742000  0.87738000  1.0
  H  H18  1  0.84259000  0.92258000  0.87738000  1.0
  H  H19  1  0.65742000  0.42258000  0.12262000  1.0
  H  H20  1  0.37590000  0.07505000  0.12015000  1.0
  H  H21  1  0.12411000  0.57505000  0.87986000  1.0
  H  H22  1  0.62411000  0.92495000  0.87986000  1.0
  H  H23  1  0.87589000  0.42495000  0.12014000  1.0
  H  H24  1  0.53012000  0.34720000  0.90205000  1.0
  H  H25  1  0.96988000  0.84722000  0.09796000  1.0
  H  H26  1  0.46988000  0.65280000  0.09795000  1.0
  H  H27  1  0.03012000  0.15280000  0.90205000  1.0
  H  H28  1  0.45052000  0.16072000  0.90457000  1.0
  H  H29  1  0.04947000  0.66073000  0.09543000  1.0
  H  H30  1  0.54948000  0.83928000  0.09543000  1.0
  H  H31  1  0.95052000  0.33928000  0.90457000  1.0
  H  H32  1  0.01354000  0.30214000  0.26446000  1.0
  H  H33  1  0.48646000  0.80214000  0.73554000  1.0
  H  H34  1  0.98645000  0.69786000  0.73554000  1.0
  H  H35  1  0.51354000  0.19785000  0.26446000  1.0
  H  H36  1  0.43521000  0.61416000  0.45721000  1.0
  H  H37  1  0.06480000  0.11416000  0.54279000  1.0
  H  H38  1  0.56480000  0.38584000  0.54279000  1.0
  H  H39  1  0.93521000  0.88584000  0.45721000  1.0
  H  H40  1  0.97027000  0.28606000  0.41545000  1.0
  H  H41  1  0.52973000  0.78606000  0.58455000  1.0
  H  H42  1  0.02973000  0.71394000  0.58455000  1.0
  H  H43  1  0.47027000  0.21393000  0.41545000  1.0
  H  H44  1  0.18332000  0.44610000  0.51272000  1.0
  H  H45  1  0.31668000  0.94610000  0.48728000  1.0
  H  H46  1  0.81668000  0.55391000  0.48728000  1.0
  H  H47  1  0.68332000  0.05390000  0.51272000  1.0
  C  C48  1  0.26490000  0.46952000  0.18402000  1.0
  C  C49  1  0.23510000  0.96952000  0.81598000  1.0
  C  C50  1  0.73509000  0.53049000  0.81598000  1.0
  C  C51  1  0.76490000  0.03048000  0.18402000  1.0
  C  C52  1  0.25139000  0.46160000  0.27592000  1.0
  C  C53  1  0.24861000  0.96160000  0.72408000  1.0
  C  C54  1  0.74861000  0.53840000  0.72408000  1.0
  C  C55  1  0.75138000  0.03839000  0.27592000  1.0
  C  C56  1  0.37456000  0.54982000  0.33010000  1.0
  C  C57  1  0.12544000  0.04982000  0.66990000  1.0
  C  C58  1  0.62544000  0.45018000  0.66990000  1.0
  C  C59  1  0.87455000  0.95018000  0.33010000  1.0
  C  C60  1  0.10677000  0.36881000  0.30754000  1.0
  C  C61  1  0.39324000  0.86881000  0.69246000  1.0
  C  C62  1  0.89323000  0.63119000  0.69246000  1.0
  C  C63  1  0.60675000  0.13118000  0.30754000  1.0
  C  C64  1  0.34435000  0.54296000  0.41493000  1.0
  C  C65  1  0.15565000  0.04296000  0.58506000  1.0
  C  C66  1  0.65565000  0.45704000  0.58506000  1.0
  C  C67  1  0.84434000  0.95704000  0.41494000  1.0
  C  C68  1  0.52908000  0.65634000  0.30121000  1.0
  C  C69  1  0.97092000  0.15634000  0.69879000  1.0
  C  C70  1  0.47092000  0.34366000  0.69879000  1.0
  C  C71  1  0.02908000  0.84366000  0.30121000  1.0
  C  C72  1  0.08248000  0.36021000  0.39226000  1.0
  C  C73  1  0.41752000  0.86021000  0.60774000  1.0
  C  C74  1  0.91752000  0.63980000  0.60774000  1.0
  C  C75  1  0.58248000  0.13979000  0.39226000  1.0
  C  C76  1  0.20174000  0.44897000  0.44624000  1.0
  C  C77  1  0.29826000  0.94897000  0.55376000  1.0
  C  C78  1  0.79826000  0.55103000  0.55376000  1.0
  C  C79  1  0.70174000  0.05103000  0.44625000  1.0
  O  O80  1  0.42248000  0.47480000  0.15276000  1.0
  O  O81  1  0.07753000  0.97480000  0.84724000  1.0
  O  O82  1  0.57753000  0.52520000  0.84724000  1.0
  O  O83  1  0.92247000  0.02521000  0.15276000  1.0
  O  O84  1  0.11534000  0.47101000  0.13909000  1.0
  O  O85  1  0.38466000  0.97101000  0.86091000  1.0
  O  O86  1  0.88466000  0.52899000  0.86090000  1.0
  O  O87  1  0.61533000  0.02899000  0.13909000  1.0
  O  O88  1  0.26092000  0.09010000  0.08621000  1.0
  O  O89  1  0.23909000  0.59010000  0.91379000  1.0
  O  O90  1  0.73909000  0.90990000  0.91379000  1.0
  O  O91  1  0.76092000  0.40990000  0.08621000  1.0
  O  O92  1  0.49653000  0.25491000  0.93956000  1.0
  O  O93  1  0.00347000  0.75492000  0.06044000  1.0
  O  O94  1  0.50347000  0.74509000  0.06044000  1.0
  O  O95  1  0.99653000  0.24509000  0.93956000  1.0
