# generated using pymatgen
data_AgH22C23N6ClO5
_symmetry_space_group_name_H-M   'P 1'
_cell_length_a   8.91955000
_cell_length_b   15.29560000
_cell_length_c   19.28090000
_cell_angle_alpha   92.39570000
_cell_angle_beta   89.99970000
_cell_angle_gamma   89.99990000
_symmetry_Int_Tables_number   1
_chemical_formula_structural   AgH22C23N6ClO5
_chemical_formula_sum   'Ag4 H88 C92 N24 Cl4 O20'
_cell_volume   2628.19153307
_cell_formula_units_Z   4
loop_
 _symmetry_equiv_pos_site_id
 _symmetry_equiv_pos_as_xyz
  1  'x, y, z'
loop_
 _atom_site_type_symbol
 _atom_site_label
 _atom_site_symmetry_multiplicity
 _atom_site_fract_x
 _atom_site_fract_y
 _atom_site_fract_z
 _atom_site_occupancy
  Ag  Ag0  1  0.69853000  0.76502000  0.60527000  1.0
  Ag  Ag1  1  0.19853000  0.73498000  0.89474000  1.0
  Ag  Ag2  1  0.30147000  0.23498000  0.39474000  1.0
  Ag  Ag3  1  0.80147000  0.26502000  0.10527000  1.0
  H  H4  1  0.02654000  0.70524000  0.63114000  1.0
  H  H5  1  0.52654000  0.79476000  0.86886000  1.0
  H  H6  1  0.97347000  0.29476000  0.36886000  1.0
  H  H7  1  0.47346000  0.20524000  0.13114000  1.0
  H  H8  1  0.35573000  0.39139000  0.58331000  1.0
  H  H9  1  0.85573000  0.10861000  0.91669000  1.0
  H  H10  1  0.64427000  0.60861000  0.41669000  1.0
  H  H11  1  0.14427000  0.89139000  0.08331000  1.0
  H  H12  1  0.16745000  0.50656000  0.54914000  1.0
  H  H13  1  0.66745000  0.99344000  0.95086000  1.0
  H  H14  1  0.83255000  0.49344000  0.45086000  1.0
  H  H15  1  0.33255000  0.00656000  0.04914000  1.0
  H  H16  1  0.14262000  0.62072000  0.54080000  1.0
  H  H17  1  0.64263000  0.87929000  0.95920000  1.0
  H  H18  1  0.85737000  0.37929000  0.45920000  1.0
  H  H19  1  0.35738000  0.12071000  0.04080000  1.0
  H  H20  1  0.83580000  0.56731000  0.60129000  1.0
  H  H21  1  0.33580000  0.93268000  0.89871000  1.0
  H  H22  1  0.16420000  0.43269000  0.39871000  1.0
  H  H23  1  0.66420000  0.06732000  0.10129000  1.0
  H  H24  1  0.83652000  0.40388000  0.60870000  1.0
  H  H25  1  0.33653000  0.09612000  0.89130000  1.0
  H  H26  1  0.16348000  0.59612000  0.39130000  1.0
  H  H27  1  0.66348000  0.90388000  0.10870000  1.0
  H  H28  1  0.82777000  0.96014000  0.55607000  1.0
  H  H29  1  0.32778000  0.53986000  0.94393000  1.0
  H  H30  1  0.17223000  0.03986000  0.44393000  1.0
  H  H31  1  0.67223000  0.46014000  0.05607000  1.0
  H  H32  1  0.60221000  0.31961000  0.59931000  1.0
  H  H33  1  0.10221000  0.18039000  0.90069000  1.0
  H  H34  1  0.39779000  0.68039000  0.40068000  1.0
  H  H35  1  0.89779000  0.81961000  0.09931000  1.0
  H  H36  1  0.94669000  0.59602000  0.83081000  1.0
  H  H37  1  0.44669000  0.90398000  0.66919000  1.0
  H  H38  1  0.05331000  0.40398000  0.16919000  1.0
  H  H39  1  0.55330000  0.09602000  0.33081000  1.0
  H  H40  1  0.75803000  0.72213000  0.74145000  1.0
  H  H41  1  0.25803000  0.77787000  0.75855000  1.0
  H  H42  1  0.24197000  0.27787000  0.25855000  1.0
  H  H43  1  0.74197000  0.22213000  0.24145000  1.0
  H  H44  1  0.88031000  0.74699000  0.81270000  1.0
  H  H45  1  0.38031000  0.75301000  0.68730000  1.0
  H  H46  1  0.11969000  0.25301000  0.18730000  1.0
  H  H47  1  0.61969000  0.24699000  0.31270000  1.0
  H  H48  1  0.99235000  0.09402000  0.55779000  1.0
  H  H49  1  0.49236000  0.40598000  0.94221000  1.0
  H  H50  1  0.00765000  0.90598000  0.44221000  1.0
  H  H51  1  0.50765000  0.59402000  0.05779000  1.0
  H  H52  1  0.20274000  0.02336000  0.74975000  1.0
  H  H53  1  0.70275000  0.47664000  0.75025000  1.0
  H  H54  1  0.79725000  0.97664000  0.25025000  1.0
  H  H55  1  0.29725000  0.52336000  0.24975000  1.0
  H  H56  1  0.19547000  0.44947000  0.67433000  1.0
  H  H57  1  0.69547000  0.05053000  0.82567000  1.0
  H  H58  1  0.80453000  0.55054000  0.32567000  1.0
  H  H59  1  0.30453000  0.94947000  0.17433000  1.0
  H  H60  1  0.17010000  0.12558000  0.65225000  1.0
  H  H61  1  0.67010000  0.37442000  0.84774000  1.0
  H  H62  1  0.82990000  0.87442000  0.34775000  1.0
  H  H63  1  0.32990000  0.62558000  0.15225000  1.0
  H  H64  1  0.08695000  0.46285000  0.79277000  1.0
  H  H65  1  0.58694000  0.03715000  0.70723000  1.0
  H  H66  1  0.91306000  0.53715000  0.20723000  1.0
  H  H67  1  0.41305000  0.96285000  0.29276000  1.0
  H  H68  1  0.27586000  0.84832000  0.58633000  1.0
  H  H69  1  0.77586000  0.65168000  0.91367000  1.0
  H  H70  1  0.72413000  0.15167000  0.41366000  1.0
  H  H71  1  0.22412000  0.34832000  0.08634000  1.0
  H  H72  1  0.21445000  0.82797000  0.49836000  1.0
  H  H73  1  0.71445000  0.67203000  0.00164000  1.0
  H  H74  1  0.78555000  0.17203000  0.50163000  1.0
  H  H75  1  0.28555000  0.32797000  0.99837000  1.0
  H  H76  1  0.22973000  0.93662000  0.53346000  1.0
  H  H77  1  0.72972000  0.56338000  0.96654000  1.0
  H  H78  1  0.77027000  0.06338000  0.46653000  1.0
  H  H79  1  0.27026000  0.43662000  0.03347000  1.0
  H  H80  1  0.44973000  0.94362000  0.41524000  1.0
  H  H81  1  0.94973000  0.55638000  0.08476000  1.0
  H  H82  1  0.55027000  0.05638000  0.58476000  1.0
  H  H83  1  0.05027000  0.44362000  0.91524000  1.0
  H  H84  1  0.39598000  0.83263000  0.40398000  1.0
  H  H85  1  0.89598000  0.66736000  0.09602000  1.0
  H  H86  1  0.60402000  0.16737000  0.59601000  1.0
  H  H87  1  0.10402000  0.33263000  0.90399000  1.0
  H  H88  1  0.58929000  0.86041000  0.42257000  1.0
  H  H89  1  0.08929000  0.63958000  0.07743000  1.0
  H  H90  1  0.41071000  0.13959000  0.57743000  1.0
  H  H91  1  0.91071000  0.36042000  0.92258000  1.0
  C  C92  1  0.03981000  0.65269000  0.66733000  1.0
  C  C93  1  0.53980000  0.84731000  0.83267000  1.0
  C  C94  1  0.96019000  0.34731000  0.33268000  1.0
  C  C95  1  0.46020000  0.15269000  0.16732000  1.0
  C  C96  1  0.45822000  0.42986000  0.58771000  1.0
  C  C97  1  0.95822000  0.07014000  0.91229000  1.0
  C  C98  1  0.54178000  0.57014000  0.41229000  1.0
  C  C99  1  0.04178000  0.92986000  0.08771000  1.0
  C  C100  1  0.46006000  0.52130000  0.58434000  1.0
  C  C101  1  0.96006000  0.97870000  0.91566000  1.0
  C  C102  1  0.53994000  0.47871000  0.41566000  1.0
  C  C103  1  0.03995000  0.02129000  0.08434000  1.0
  C  C104  1  0.03195000  0.93466000  0.70669000  1.0
  C  C105  1  0.53196000  0.56535000  0.79331000  1.0
  C  C106  1  0.96805000  0.06535000  0.29332000  1.0
  C  C107  1  0.46804000  0.43466000  0.20669000  1.0
  C  C108  1  0.97407000  0.65900000  0.73326000  1.0
  C  C109  1  0.47407000  0.84100000  0.76674000  1.0
  C  C110  1  0.02593000  0.34100000  0.26674000  1.0
  C  C111  1  0.52593000  0.15900000  0.23326000  1.0
  C  C112  1  0.92538000  0.91815000  0.65249000  1.0
  C  C113  1  0.42538000  0.58185000  0.84751000  1.0
  C  C114  1  0.07462000  0.08185000  0.34751000  1.0
  C  C115  1  0.57462000  0.41815000  0.15249000  1.0
  C  C116  1  0.59403000  0.57014000  0.58880000  1.0
  C  C117  1  0.09403000  0.92986000  0.91120000  1.0
  C  C118  1  0.40597000  0.42987000  0.41120000  1.0
  C  C119  1  0.90597000  0.07014000  0.08880000  1.0
  C  C120  1  0.12002000  0.57768000  0.64587000  1.0
  C  C121  1  0.62002000  0.92232000  0.85413000  1.0
  C  C122  1  0.87999000  0.42232000  0.35413000  1.0
  C  C123  1  0.37999000  0.07768000  0.14587000  1.0
  C  C124  1  0.18839000  0.57114000  0.57420000  1.0
  C  C125  1  0.68839000  0.92886000  0.92580000  1.0
  C  C126  1  0.81161000  0.42886000  0.42580000  1.0
  C  C127  1  0.31161000  0.07114000  0.07420000  1.0
  C  C128  1  0.73292000  0.52935000  0.59786000  1.0
  C  C129  1  0.23292000  0.97065000  0.90214000  1.0
  C  C130  1  0.26708000  0.47065000  0.40214000  1.0
  C  C131  1  0.76708000  0.02935000  0.09786000  1.0
  C  C132  1  0.73181000  0.43918000  0.60209000  1.0
  C  C133  1  0.23181000  0.06082000  0.89791000  1.0
  C  C134  1  0.26819000  0.56082000  0.39791000  1.0
  C  C135  1  0.76819000  0.93918000  0.10209000  1.0
  C  C136  1  0.90826000  0.97479000  0.59741000  1.0
  C  C137  1  0.40827000  0.52521000  0.90259000  1.0
  C  C138  1  0.09173000  0.02521000  0.40260000  1.0
  C  C139  1  0.59173000  0.47479000  0.09741000  1.0
  C  C140  1  0.59665000  0.39055000  0.59668000  1.0
  C  C141  1  0.09665000  0.10945000  0.90332000  1.0
  C  C142  1  0.40335000  0.60945000  0.40332000  1.0
  C  C143  1  0.90335000  0.89055000  0.09668000  1.0
  C  C144  1  0.99274000  0.59064000  0.77845000  1.0
  C  C145  1  0.49274000  0.90937000  0.72155000  1.0
  C  C146  1  0.00726000  0.40936000  0.22155000  1.0
  C  C147  1  0.50725000  0.09063000  0.27845000  1.0
  C  C148  1  0.87552000  0.73532000  0.75622000  1.0
  C  C149  1  0.37552000  0.76469000  0.74378000  1.0
  C  C150  1  0.12448000  0.26468000  0.24378000  1.0
  C  C151  1  0.62448000  0.23531000  0.25622000  1.0
  C  C152  1  0.99956000  0.04784000  0.59914000  1.0
  C  C153  1  0.49957000  0.45216000  0.90086000  1.0
  C  C154  1  0.00044000  0.95216000  0.40086000  1.0
  C  C155  1  0.50044000  0.54784000  0.09914000  1.0
  C  C156  1  0.12309000  0.01003000  0.70783000  1.0
  C  C157  1  0.62310000  0.48997000  0.79217000  1.0
  C  C158  1  0.87691000  0.98997000  0.29217000  1.0
  C  C159  1  0.37691000  0.51003000  0.20783000  1.0
  C  C160  1  0.13529000  0.50873000  0.69101000  1.0
  C  C161  1  0.63529000  0.99127000  0.80899000  1.0
  C  C162  1  0.86471000  0.49127000  0.30899000  1.0
  C  C163  1  0.36471000  0.00873000  0.19100000  1.0
  C  C164  1  0.10443000  0.06559000  0.65374000  1.0
  C  C165  1  0.60444000  0.43441000  0.84626000  1.0
  C  C166  1  0.89557000  0.93441000  0.34626000  1.0
  C  C167  1  0.39557000  0.56559000  0.15374000  1.0
  C  C168  1  0.44089000  0.87845000  0.50974000  1.0
  C  C169  1  0.94089000  0.62154000  0.99026000  1.0
  C  C170  1  0.55910000  0.12154000  0.49026000  1.0
  C  C171  1  0.05910000  0.37845000  0.00975000  1.0
  C  C172  1  0.07292000  0.51586000  0.75726000  1.0
  C  C173  1  0.57292000  0.98414000  0.74274000  1.0
  C  C174  1  0.92708000  0.48414000  0.24274000  1.0
  C  C175  1  0.42708000  0.01586000  0.25726000  1.0
  C  C176  1  0.28100000  0.87101000  0.53330000  1.0
  C  C177  1  0.78099000  0.62899000  0.96670000  1.0
  C  C178  1  0.71900000  0.12899000  0.46670000  1.0
  C  C179  1  0.21900000  0.37101000  0.03330000  1.0
  C  C180  1  0.47180000  0.87724000  0.43303000  1.0
  C  C181  1  0.97179000  0.62276000  0.06697000  1.0
  C  C182  1  0.52821000  0.12276000  0.56697000  1.0
  C  C183  1  0.02820000  0.37724000  0.93304000  1.0
  N  N184  1  0.55588000  0.65675000  0.58382000  1.0
  N  N185  1  0.05588000  0.84325000  0.91618000  1.0
  N  N186  1  0.44413000  0.34325000  0.41618000  1.0
  N  N187  1  0.94413000  0.15675000  0.08382000  1.0
  N  N188  1  0.85368000  0.84248000  0.66625000  1.0
  N  N189  1  0.35369000  0.65752000  0.83375000  1.0
  N  N190  1  0.14632000  0.15752000  0.33375000  1.0
  N  N191  1  0.64631000  0.34248000  0.16625000  1.0
  N  N192  1  0.40962000  0.66396000  0.57715000  1.0
  N  N193  1  0.90962000  0.83604000  0.92285000  1.0
  N  N194  1  0.59038000  0.33604000  0.42285000  1.0
  N  N195  1  0.09039000  0.16396000  0.07715000  1.0
  N  N196  1  0.02372000  0.86837000  0.75163000  1.0
  N  N197  1  0.52373000  0.63163000  0.74837000  1.0
  N  N198  1  0.97628000  0.13163000  0.24838000  1.0
  N  N199  1  0.47627000  0.36837000  0.25163000  1.0
  N  N200  1  0.35079000  0.58308000  0.57677000  1.0
  N  N201  1  0.85079000  0.91692000  0.92323000  1.0
  N  N202  1  0.64921000  0.41693000  0.42323000  1.0
  N  N203  1  0.14922000  0.08308000  0.07676000  1.0
  N  N204  1  0.91674000  0.81709000  0.72531000  1.0
  N  N205  1  0.41674000  0.68292000  0.77469000  1.0
  N  N206  1  0.08326000  0.18292000  0.27469000  1.0
  N  N207  1  0.58326000  0.31708000  0.22531000  1.0
  Cl  Cl208  1  0.91569000  0.72089000  0.45065000  1.0
  Cl  Cl209  1  0.41569000  0.77911000  0.04935000  1.0
  Cl  Cl210  1  0.08431000  0.27911000  0.54935000  1.0
  Cl  Cl211  1  0.58431000  0.22089000  0.95065000  1.0
  O  O212  1  0.54439000  0.88899000  0.55217000  1.0
  O  O213  1  0.04439000  0.61101000  0.94783000  1.0
  O  O214  1  0.45561000  0.11101000  0.44783000  1.0
  O  O215  1  0.95561000  0.38899000  0.05217000  1.0
  O  O216  1  0.90913000  0.63294000  0.47795000  1.0
  O  O217  1  0.40914000  0.86706000  0.02205000  1.0
  O  O218  1  0.09086000  0.36706000  0.52205000  1.0
  O  O219  1  0.59087000  0.13294000  0.97795000  1.0
  O  O220  1  0.05984000  0.73412000  0.41697000  1.0
  O  O221  1  0.55984000  0.76588000  0.08303000  1.0
  O  O222  1  0.94016000  0.26588000  0.58303000  1.0
  O  O223  1  0.44016000  0.23412000  0.91697000  1.0
  O  O224  1  0.79336000  0.73153000  0.40143000  1.0
  O  O225  1  0.29336000  0.76847000  0.09857000  1.0
  O  O226  1  0.20664000  0.26847000  0.59857000  1.0
  O  O227  1  0.70664000  0.23153000  0.90143000  1.0
  O  O228  1  0.90043000  0.78607000  0.50887000  1.0
  O  O229  1  0.40044000  0.71393000  0.99113000  1.0
  O  O230  1  0.09956000  0.21393000  0.49113000  1.0
  O  O231  1  0.59957000  0.28607000  0.00887000  1.0
