# generated using pymatgen
data_Zn4H7C24S4ClO17
_symmetry_space_group_name_H-M   'P 1'
_cell_length_a   19.67100000
_cell_length_b   19.72720000
_cell_length_c   33.37030000
_cell_angle_alpha   79.07420000
_cell_angle_beta   79.24080000
_cell_angle_gamma   63.98720000
_symmetry_Int_Tables_number   1
_chemical_formula_structural   Zn4H7C24S4ClO17
_chemical_formula_sum   'Zn16 H28 C96 S16 Cl4 O68'
_cell_volume   11347.72819095
_cell_formula_units_Z   4
loop_
 _symmetry_equiv_pos_site_id
 _symmetry_equiv_pos_as_xyz
  1  'x, y, z'
loop_
 _atom_site_type_symbol
 _atom_site_label
 _atom_site_symmetry_multiplicity
 _atom_site_fract_x
 _atom_site_fract_y
 _atom_site_fract_z
 _atom_site_occupancy
  Zn  Zn0  1  0.05559000  0.40006000  0.47804000  1.0
  Zn  Zn1  1  0.98511000  0.48347000  0.56083000  1.0
  Zn  Zn2  1  0.05863000  0.56059000  0.48198000  1.0
  Zn  Zn3  1  0.90082000  0.55529000  0.48013000  1.0
  Zn  Zn4  1  0.69341000  0.34886000  0.27159000  1.0
  Zn  Zn5  1  0.69075000  0.18773000  0.26635000  1.0
  Zn  Zn6  1  0.76940000  0.26656000  0.19045000  1.0
  Zn  Zn7  1  0.84861000  0.19524000  0.27250000  1.0
  Zn  Zn8  1  0.26640000  0.76628000  0.68987000  1.0
  Zn  Zn9  1  0.34981000  0.69635000  0.77151000  1.0
  Zn  Zn10  1  0.19224000  0.84831000  0.77081000  1.0
  Zn  Zn11  1  0.19105000  0.68773000  0.76709000  1.0
  Zn  Zn12  1  0.55880000  0.06147000  0.98300000  1.0
  Zn  Zn13  1  0.40177000  0.05425000  0.97792000  1.0
  Zn  Zn14  1  0.55650000  0.90052000  0.97859000  1.0
  Zn  Zn15  1  0.48188000  0.98424000  0.06041000  1.0
  H  H16  1  0.95356000  0.24983000  0.35160000  1.0
  H  H17  1  0.74657000  0.45444000  0.35011000  1.0
  H  H18  1  0.99871000  0.30058000  0.39973000  1.0
  H  H19  1  0.09629000  0.59579000  0.69977000  1.0
  H  H20  1  0.20181000  0.70122000  0.59910000  1.0
  H  H21  1  0.05019000  0.55085000  0.64921000  1.0
  H  H22  1  0.54978000  0.05086000  0.15356000  1.0
  H  H23  1  0.65080000  0.15192000  0.04843000  1.0
  H  H24  1  0.60110000  0.09973000  0.19949000  1.0
  H  H25  1  0.50185000  0.79354000  0.89782000  1.0
  H  H26  1  0.29860000  0.00177000  0.90024000  1.0
  H  H27  1  0.44860000  0.75109000  0.84967000  1.0
  H  H28  1  0.32743000  0.54001000  0.39807000  1.0
  H  H29  1  0.42277000  0.20917000  0.35242000  1.0
  H  H30  1  0.75432000  0.54065000  0.68468000  1.0
  H  H31  1  0.49581000  0.70844000  0.56584000  1.0
  H  H32  1  0.04140000  0.25407000  0.68379000  1.0
  H  H33  1  0.20900000  0.99502000  0.56618000  1.0
  H  H34  1  0.74366000  0.81699000  0.38721000  1.0
  H  H35  1  0.00569000  0.93196000  0.36289000  1.0
  H  H36  1  0.70849000  0.49551000  0.06627000  1.0
  H  H37  1  0.54097000  0.75437000  0.18411000  1.0
  H  H38  1  0.14966000  0.07561000  0.21945000  1.0
  H  H39  1  0.10087000  0.17342000  0.03070000  1.0
  H  H40  1  0.50672000  0.43249000  0.86268000  1.0
  H  H41  1  0.24445000  0.31755000  0.88715000  1.0
  H  H42  1  0.92187000  0.70913000  0.85258000  1.0
  H  H43  1  0.82788000  0.04021000  0.89776000  1.0
  C  C44  1  0.06184000  0.31623000  0.56183000  1.0
  C  C45  1  0.06909000  0.57049000  0.56868000  1.0
  C  C46  1  0.18365000  0.43994000  0.43833000  1.0
  C  C47  1  0.93586000  0.68399000  0.43883000  1.0
  C  C48  1  0.93107000  0.43017000  0.43118000  1.0
  C  C49  1  0.81719000  0.56097000  0.56283000  1.0
  C  C50  1  0.56597000  0.30956000  0.31104000  1.0
  C  C51  1  0.68251000  0.17963000  0.18067000  1.0
  C  C52  1  0.68971000  0.43335000  0.18823000  1.0
  C  C53  1  0.93559000  0.18833000  0.18986000  1.0
  C  C54  1  0.81848000  0.32036000  0.31936000  1.0
  C  C55  1  0.81327000  0.06556000  0.31150000  1.0
  C  C56  1  0.43322000  0.68954000  0.68779000  1.0
  C  C57  1  0.31815000  0.82043000  0.81881000  1.0
  C  C58  1  0.18803000  0.93312000  0.68799000  1.0
  C  C59  1  0.06536000  0.80911000  0.81099000  1.0
  C  C60  1  0.18039000  0.67926000  0.68144000  1.0
  C  C61  1  0.31426000  0.56598000  0.81122000  1.0
  C  C62  1  0.43696000  0.18406000  0.93846000  1.0
  C  C63  1  0.43293000  0.92831000  0.93064000  1.0
  C  C64  1  0.68379000  0.94063000  0.93878000  1.0
  C  C65  1  0.56077000  0.81680000  0.06214000  1.0
  C  C66  1  0.56761000  0.07022000  0.06967000  1.0
  C  C67  1  0.31499000  0.06201000  0.06037000  1.0
  C  C68  1  0.89893000  0.40535000  0.40221000  1.0
  C  C69  1  0.84712000  0.34927000  0.34799000  1.0
  C  C70  1  0.82702000  0.44893000  0.38776000  1.0
  C  C71  1  0.91862000  0.30541000  0.36189000  1.0
  C  C72  1  0.80200000  0.42057000  0.36097000  1.0
  C  C73  1  0.94340000  0.33365000  0.38851000  1.0
  C  C74  1  0.09951000  0.60022000  0.59602000  1.0
  C  C75  1  0.15184000  0.65134000  0.65232000  1.0
  C  C76  1  0.14294000  0.64313000  0.58197000  1.0
  C  C77  1  0.10900000  0.60878000  0.66679000  1.0
  C  C78  1  0.16846000  0.66820000  0.61011000  1.0
  C  C79  1  0.08359000  0.58401000  0.63878000  1.0
  C  C80  1  0.30481000  0.45432000  0.40072000  1.0
  C  C81  1  0.44525000  0.29503000  0.34924000  1.0
  C  C82  1  0.25835000  0.41550000  0.41384000  1.0
  C  C83  1  0.49168000  0.33379000  0.33594000  1.0
  C  C84  1  0.37722000  0.33910000  0.37295000  1.0
  C  C85  1  0.37309000  0.41011000  0.37716000  1.0
  C  C86  1  0.72588000  0.57580000  0.63035000  1.0
  C  C87  1  0.52436000  0.67361000  0.62019000  1.0
  C  C88  1  0.74304000  0.58509000  0.58773000  1.0
  C  C89  1  0.50732000  0.66461000  0.66286000  1.0
  C  C90  1  0.60427000  0.64106000  0.60841000  1.0
  C  C91  1  0.64598000  0.60816000  0.64209000  1.0
  C  C92  1  0.07658000  0.22530000  0.62962000  1.0
  C  C93  1  0.17393000  0.02399000  0.62033000  1.0
  C  C94  1  0.08612000  0.24216000  0.58693000  1.0
  C  C95  1  0.16415000  0.00718000  0.66299000  1.0
  C  C96  1  0.14187000  0.10370000  0.60825000  1.0
  C  C97  1  0.10872000  0.14558000  0.64170000  1.0
  C  C98  1  0.84228000  0.80122000  0.39723000  1.0
  C  C99  1  0.90681000  0.94821000  0.35307000  1.0
  C  C100  1  0.91080000  0.75816000  0.41397000  1.0
  C  C101  1  0.83827000  0.99130000  0.33631000  1.0
  C  C102  1  0.90820000  0.87868000  0.37516000  1.0
  C  C103  1  0.84115000  0.87048000  0.37488000  1.0
  C  C104  1  0.65461000  0.15310000  0.15039000  1.0
  C  C105  1  0.59729000  0.09853000  0.09810000  1.0
  C  C106  1  0.66834000  0.16779000  0.10717000  1.0
  C  C107  1  0.58301000  0.08356000  0.14086000  1.0
  C  C108  1  0.63981000  0.14044000  0.08163000  1.0
  C  C109  1  0.61152000  0.11066000  0.16619000  1.0
  C  C110  1  0.67412000  0.52440000  0.12047000  1.0
  C  C111  1  0.57569000  0.72568000  0.12990000  1.0
  C  C112  1  0.66476000  0.50745000  0.16315000  1.0
  C  C113  1  0.58515000  0.74272000  0.08723000  1.0
  C  C114  1  0.60813000  0.64593000  0.14192000  1.0
  C  C115  1  0.64145000  0.60416000  0.10843000  1.0
  C  C116  1  0.08247000  0.12369000  0.17802000  1.0
  C  C117  1  0.16806000  0.12580000  0.07217000  1.0
  C  C118  1  0.00999000  0.16294000  0.16523000  1.0
  C  C119  1  0.24057000  0.08690000  0.08498000  1.0
  C  C120  1  0.11043000  0.13911000  0.10623000  1.0
  C  C121  1  0.14006000  0.11019000  0.14394000  1.0
  C  C122  1  0.34434000  0.85153000  0.84768000  1.0
  C  C123  1  0.40324000  0.90052000  0.90194000  1.0
  C  C124  1  0.30194000  0.92300000  0.86236000  1.0
  C  C125  1  0.44601000  0.82945000  0.88776000  1.0
  C  C126  1  0.33159000  0.94666000  0.88915000  1.0
  C  C127  1  0.41644000  0.80606000  0.86111000  1.0
  C  C128  1  0.40786000  0.44864000  0.85288000  1.0
  C  C129  1  0.34332000  0.30155000  0.89696000  1.0
  C  C130  1  0.33945000  0.49169000  0.83605000  1.0
  C  C131  1  0.41182000  0.25843000  0.91375000  1.0
  C  C132  1  0.34204000  0.37101000  0.87477000  1.0
  C  C133  1  0.40905000  0.37925000  0.87513000  1.0
  C  C134  1  0.94460000  0.79488000  0.84938000  1.0
  C  C135  1  0.80492000  0.95464000  0.90076000  1.0
  C  C136  1  0.99114000  0.83347000  0.83595000  1.0
  C  C137  1  0.75822000  0.91614000  0.91408000  1.0
  C  C138  1  0.87292000  0.91020000  0.87713000  1.0
  C  C139  1  0.87668000  0.83927000  0.87306000  1.0
  S  S140  1  0.29825000  0.32540000  0.39758000  1.0
  S  S141  1  0.45199000  0.42381000  0.35236000  1.0
  S  S142  1  0.66181000  0.63301000  0.56217000  1.0
  S  S143  1  0.58859000  0.61651000  0.68836000  1.0
  S  S144  1  0.13424000  0.16084000  0.56183000  1.0
  S  S145  1  0.11610000  0.08848000  0.68812000  1.0
  S  S146  1  0.97342000  0.80215000  0.40241000  1.0
  S  S147  1  0.77594000  0.94699000  0.34762000  1.0
  S  S148  1  0.61607000  0.58867000  0.18831000  1.0
  S  S149  1  0.63361000  0.66148000  0.06205000  1.0
  S  S150  1  0.01235000  0.18302000  0.11183000  1.0
  S  S151  1  0.23815000  0.06667000  0.13837000  1.0
  S  S152  1  0.27695000  0.44754000  0.84743000  1.0
  S  S153  1  0.47417000  0.30274000  0.90245000  1.0
  S  S154  1  0.95189000  0.92357000  0.85218000  1.0
  S  S155  1  0.79758000  0.82599000  0.89788000  1.0
  Cl  Cl156  1  0.76471000  0.53819000  0.40086000  1.0
  Cl  Cl157  1  0.16862000  0.66787000  0.53076000  1.0
  Cl  Cl158  1  0.71946000  0.21907000  0.08210000  1.0
  Cl  Cl159  1  0.21265000  0.98658000  0.84934000  1.0
  O  O160  1  0.00091000  0.49816000  0.50034000  1.0
  O  O161  1  0.07817000  0.31496000  0.52278000  1.0
  O  O162  1  0.03299000  0.53058000  0.58663000  1.0
  O  O163  1  0.15478000  0.50660000  0.44903000  1.0
  O  O164  1  0.02699000  0.37474000  0.58082000  1.0
  O  O165  1  0.15409000  0.39160000  0.44666000  1.0
  O  O166  1  0.08108000  0.58706000  0.53014000  1.0
  O  O167  1  0.00348000  0.65688000  0.44904000  1.0
  O  O168  1  0.88973000  0.49391000  0.44422000  1.0
  O  O169  1  0.88912000  0.65307000  0.44815000  1.0
  O  O170  1  0.99779000  0.38488000  0.44057000  1.0
  O  O171  1  0.87632000  0.52631000  0.58161000  1.0
  O  O172  1  0.81530000  0.57750000  0.52381000  1.0
  O  O173  1  0.74966000  0.24972000  0.25068000  1.0
  O  O174  1  0.59541000  0.35804000  0.30305000  1.0
  O  O175  1  0.66487000  0.16144000  0.21876000  1.0
  O  O176  1  0.72690000  0.37480000  0.16940000  1.0
  O  O177  1  0.59464000  0.24346000  0.29962000  1.0
  O  O178  1  0.67167000  0.43445000  0.22722000  1.0
  O  O179  1  0.72126000  0.21791000  0.16635000  1.0
  O  O180  1  0.87785000  0.22376000  0.16953000  1.0
  O  O181  1  0.86245000  0.25477000  0.30874000  1.0
  O  O182  1  0.93438000  0.17340000  0.22880000  1.0
  O  O183  1  0.75288000  0.36354000  0.30809000  1.0
  O  O184  1  0.74695000  0.09159000  0.29964000  1.0
  O  O185  1  0.85903000  0.09759000  0.30391000  1.0
  O  O186  1  0.25020000  0.74904000  0.75021000  1.0
  O  O187  1  0.37440000  0.72405000  0.66874000  1.0
  O  O188  1  0.36473000  0.75548000  0.80786000  1.0
  O  O189  1  0.17049000  0.93423000  0.72700000  1.0
  O  O190  1  0.43459000  0.67412000  0.72688000  1.0
  O  O191  1  0.22374000  0.87452000  0.66909000  1.0
  O  O192  1  0.25237000  0.86033000  0.80753000  1.0
  O  O193  1  0.09434000  0.85791000  0.80241000  1.0
  O  O194  1  0.16502000  0.66137000  0.71973000  1.0
  O  O195  1  0.09445000  0.74256000  0.80011000  1.0
  O  O196  1  0.21766000  0.71865000  0.66532000  1.0
  O  O197  1  0.35994000  0.59813000  0.80300000  1.0
  O  O198  1  0.24744000  0.59181000  0.80005000  1.0
  O  O199  1  0.50044000  0.99929000  0.00004000  1.0
  O  O200  1  0.50338000  0.15813000  0.95019000  1.0
  O  O201  1  0.38964000  0.99378000  0.94160000  1.0
  O  O202  1  0.65424000  0.89227000  0.94694000  1.0
  O  O203  1  0.39144000  0.15174000  0.94610000  1.0
  O  O204  1  0.65507000  0.00700000  0.94988000  1.0
  O  O205  1  0.49862000  0.88448000  0.94161000  1.0
  O  O206  1  0.57836000  0.81542000  0.02314000  1.0
  O  O207  1  0.52898000  0.03233000  0.08629000  1.0
  O  O208  1  0.52459000  0.87553000  0.08092000  1.0
  O  O209  1  0.58355000  0.08646000  0.03125000  1.0
  O  O210  1  0.31599000  0.07651000  0.02142000  1.0
  O  O211  1  0.37286000  0.02747000  0.08065000  1.0
  O  O212  1  0.28605000  0.52503000  0.40967000  1.0
  O  O213  1  0.46381000  0.22434000  0.34027000  1.0
  O  O214  1  0.77955000  0.54026000  0.65661000  1.0
  O  O215  1  0.47070000  0.70913000  0.59395000  1.0
  O  O216  1  0.04097000  0.27901000  0.65563000  1.0
  O  O217  1  0.20953000  0.97021000  0.59438000  1.0
  O  O218  1  0.78505000  0.77864000  0.40207000  1.0
  O  O219  1  0.96397000  0.97086000  0.34846000  1.0
  O  O220  1  0.70993000  0.47071000  0.09447000  1.0
  O  O221  1  0.54003000  0.77934000  0.15594000  1.0
  O  O222  1  0.09497000  0.10192000  0.21799000  1.0
  O  O223  1  0.15557000  0.14762000  0.03221000  1.0
  O  O224  1  0.46505000  0.47128000  0.84818000  1.0
  O  O225  1  0.28622000  0.27883000  0.90162000  1.0
  O  O226  1  0.96299000  0.72420000  0.84047000  1.0
  O  O227  1  0.78656000  0.02531000  0.90965000  1.0
