# generated using pymatgen
data_AlH5C14Cl2O5F
_symmetry_space_group_name_H-M   'P 1'
_cell_length_a   6.60655000
_cell_length_b   11.05283212
_cell_length_c   17.73520000
_cell_angle_alpha   88.92178182
_cell_angle_beta   79.76880000
_cell_angle_gamma   73.53935083
_symmetry_Int_Tables_number   1
_chemical_formula_structural   AlH5C14Cl2O5F
_chemical_formula_sum   'Al2 H10 C28 Cl4 O10 F2'
_cell_volume   1221.53570089
_cell_formula_units_Z   2
loop_
 _symmetry_equiv_pos_site_id
 _symmetry_equiv_pos_as_xyz
  1  'x, y, z'
loop_
 _atom_site_type_symbol
 _atom_site_label
 _atom_site_symmetry_multiplicity
 _atom_site_fract_x
 _atom_site_fract_y
 _atom_site_fract_z
 _atom_site_occupancy
  Al  Al0  1  0.99864000  0.49934000  0.49921000  1.0
  Al  Al1  1  0.50020000  0.49562000  0.49877000  1.0
  H  H2  1  0.33967000  0.34926000  0.44920000  1.0
  H  H3  1  0.64771000  0.64961000  0.54065000  1.0
  H  H4  1  0.80548000  0.54773000  0.72844000  1.0
  H  H5  1  0.72654000  0.55213000  0.87198000  1.0
  H  H6  1  0.48229000  0.45494000  0.73277000  1.0
  H  H7  1  0.51597000  0.55466000  0.26557000  1.0
  H  H8  1  0.19271000  0.45811000  0.27035000  1.0
  H  H9  1  0.27188000  0.46177000  0.12687000  1.0
  H  H10  1  0.56907000  0.22943000  0.61072000  1.0
  H  H11  1  0.81529000  0.75975000  0.60202000  1.0
  C  C12  1  0.86520000  0.27277000  0.50765000  1.0
  C  C13  1  0.80497000  0.50006000  0.36139000  1.0
  C  C14  1  0.13741000  0.72344000  0.49306000  1.0
  C  C15  1  0.19421000  0.49877000  0.63698000  1.0
  C  C16  1  0.14724000  0.50118000  0.72215000  1.0
  C  C17  1  0.93461000  0.52865000  0.76145000  1.0
  C  C18  1  0.89082000  0.53165000  0.84093000  1.0
  C  C19  1  0.05883000  0.50689000  0.88364000  1.0
  C  C20  1  0.27035000  0.47954000  0.84212000  1.0
  C  C21  1  0.31708000  0.47645000  0.76302000  1.0
  C  C22  1  0.01788000  0.50864000  0.96441000  1.0
  C  C23  1  0.98060000  0.50959000  0.03431000  1.0
  C  C24  1  0.93957000  0.50896000  0.11503000  1.0
  C  C25  1  0.72800000  0.53555000  0.15640000  1.0
  C  C26  1  0.68122000  0.53397000  0.23542000  1.0
  C  C27  1  0.85125000  0.50517000  0.27633000  1.0
  C  C28  1  0.06380000  0.47962000  0.23718000  1.0
  C  C29  1  0.10762000  0.48121000  0.15780000  1.0
  C  C30  1  0.93672000  0.13133000  0.50600000  1.0
  C  C31  1  0.81299000  0.06396000  0.55470000  1.0
  C  C32  1  0.11968000  0.06682000  0.45540000  1.0
  C  C33  1  0.62470000  0.12675000  0.60697000  1.0
  C  C34  1  0.50601000  0.05980000  0.65293000  1.0
  C  C35  1  0.06934000  0.86486000  0.49793000  1.0
  C  C36  1  0.18618000  0.93241000  0.45094000  1.0
  C  C37  1  0.88170000  0.92872000  0.55110000  1.0
  C  C38  1  0.76142000  0.86231000  0.60112000  1.0
  C  C39  1  0.57587000  0.92539000  0.65004000  1.0
  Cl  Cl40  1  0.40578000  0.85552000  0.38425000  1.0
  Cl  Cl41  1  0.26291000  0.14686000  0.39277000  1.0
  Cl  Cl42  1  0.27494000  0.13990000  0.71365000  1.0
  Cl  Cl43  1  0.43082000  0.83978000  0.70699000  1.0
  O  O44  1  0.99387000  0.32983000  0.52407000  1.0
  O  O45  1  0.60943000  0.51911000  0.39349000  1.0
  O  O46  1  0.32126000  0.66777000  0.50804000  1.0
  O  O47  1  0.03385000  0.52795000  0.60241000  1.0
  O  O48  1  0.00269000  0.67026000  0.47697000  1.0
  O  O49  1  0.39088000  0.47007000  0.60439000  1.0
  O  O50  1  0.68060000  0.32437000  0.49162000  1.0
  O  O51  1  0.96513000  0.47463000  0.39589000  1.0
  O  O52  1  0.29231000  0.43727000  0.46649000  1.0
  O  O53  1  0.70377000  0.55888000  0.53184000  1.0
  F  F54  1  0.43440000  0.45517000  0.88218000  1.0
  F  F55  1  0.56389000  0.56325000  0.11629000  1.0
