# generated using pymatgen
data_ZnH7C6SN3O5
_symmetry_space_group_name_H-M   'P 1'
_cell_length_a   8.66636000
_cell_length_b   9.67311000
_cell_length_c   11.84020000
_cell_angle_alpha   89.99870000
_cell_angle_beta   92.84200000
_cell_angle_gamma   89.99980000
_symmetry_Int_Tables_number   1
_chemical_formula_structural   ZnH7C6SN3O5
_chemical_formula_sum   'Zn4 H28 C24 S4 N12 O20'
_cell_volume   991.35090084
_cell_formula_units_Z   4
loop_
 _symmetry_equiv_pos_site_id
 _symmetry_equiv_pos_as_xyz
  1  'x, y, z'
loop_
 _atom_site_type_symbol
 _atom_site_label
 _atom_site_symmetry_multiplicity
 _atom_site_fract_x
 _atom_site_fract_y
 _atom_site_fract_z
 _atom_site_occupancy
  Zn  Zn0  1  0.13586000  0.75164000  0.31476000  1.0
  Zn  Zn1  1  0.36415000  0.25165000  0.18523000  1.0
  Zn  Zn2  1  0.86414000  0.24836000  0.68524000  1.0
  Zn  Zn3  1  0.63585000  0.74835000  0.81477000  1.0
  H  H4  1  0.13051000  0.49362000  0.31811000  1.0
  H  H5  1  0.36949000  0.99362000  0.18189000  1.0
  H  H6  1  0.86948000  0.50638000  0.68189000  1.0
  H  H7  1  0.63050000  0.00638000  0.81811000  1.0
  H  H8  1  0.95467000  0.53400000  0.32952000  1.0
  H  H9  1  0.54533000  0.03402000  0.17047000  1.0
  H  H10  1  0.04532000  0.46599000  0.67047000  1.0
  H  H11  1  0.45467000  0.96598000  0.82954000  1.0
  H  H12  1  0.15169000  0.66206000  0.04633000  1.0
  H  H13  1  0.34831000  0.16206000  0.45367000  1.0
  H  H14  1  0.84831000  0.33795000  0.95367000  1.0
  H  H15  1  0.65168000  0.83795000  0.54633000  1.0
  H  H16  1  0.96292000  0.66297000  0.87547000  1.0
  H  H17  1  0.53708000  0.16298000  0.62453000  1.0
  H  H18  1  0.03708000  0.33704000  0.12453000  1.0
  H  H19  1  0.46292000  0.83704000  0.37547000  1.0
  H  H20  1  0.62297000  0.82948000  0.07129000  1.0
  H  H21  1  0.87704000  0.32950000  0.42871000  1.0
  H  H22  1  0.37702000  0.17051000  0.92872000  1.0
  H  H23  1  0.12297000  0.67050000  0.57128000  1.0
  H  H24  1  0.00362000  0.08016000  0.43062000  1.0
  H  H25  1  0.49638000  0.58017000  0.06937000  1.0
  H  H26  1  0.99639000  0.91983000  0.56939000  1.0
  H  H27  1  0.50361000  0.41983000  0.93063000  1.0
  H  H28  1  0.89868000  0.08373000  0.29848000  1.0
  H  H29  1  0.60133000  0.58373000  0.20151000  1.0
  H  H30  1  0.10132000  0.91627000  0.70153000  1.0
  H  H31  1  0.39867000  0.41627000  0.79848000  1.0
  C  C32  1  0.03231000  0.69523000  0.05209000  1.0
  C  C33  1  0.46769000  0.19524000  0.44791000  1.0
  C  C34  1  0.96769000  0.30477000  0.94791000  1.0
  C  C35  1  0.53231000  0.80477000  0.55209000  1.0
  C  C36  1  0.92890000  0.69716000  0.95814000  1.0
  C  C37  1  0.57110000  0.19717000  0.54186000  1.0
  C  C38  1  0.07110000  0.30285000  0.04186000  1.0
  C  C39  1  0.42890000  0.80284000  0.45814000  1.0
  C  C40  1  0.73999000  0.78893000  0.06738000  1.0
  C  C41  1  0.76002000  0.28894000  0.43262000  1.0
  C  C42  1  0.26001000  0.21107000  0.93262000  1.0
  C  C43  1  0.23998000  0.71107000  0.56738000  1.0
  C  C44  1  0.84343000  0.78298000  0.16138000  1.0
  C  C45  1  0.65658000  0.28299000  0.33862000  1.0
  C  C46  1  0.15657000  0.21702000  0.83863000  1.0
  C  C47  1  0.34343000  0.71702000  0.66137000  1.0
  C  C48  1  0.98986000  0.02799000  0.34785000  1.0
  C  C49  1  0.51014000  0.52799000  0.15214000  1.0
  C  C50  1  0.01014000  0.97201000  0.65215000  1.0
  C  C51  1  0.48986000  0.47201000  0.84786000  1.0
  C  C52  1  0.13950000  0.05232000  0.28908000  1.0
  C  C53  1  0.36050000  0.55232000  0.21092000  1.0
  C  C54  1  0.86050000  0.94768000  0.71092000  1.0
  C  C55  1  0.63950000  0.44768000  0.78908000  1.0
  S  S56  1  0.79661000  0.82940000  0.30435000  1.0
  S  S57  1  0.70340000  0.32940000  0.19565000  1.0
  S  S58  1  0.20339000  0.17061000  0.69565000  1.0
  S  S59  1  0.29660000  0.67060000  0.80435000  1.0
  N  N60  1  0.98820000  0.73751000  0.15290000  1.0
  N  N61  1  0.51181000  0.23751000  0.34711000  1.0
  N  N62  1  0.01180000  0.26249000  0.84710000  1.0
  N  N63  1  0.48820000  0.76249000  0.65289000  1.0
  N  N64  1  0.78426000  0.74422000  0.96659000  1.0
  N  N65  1  0.71575000  0.24424000  0.53341000  1.0
  N  N66  1  0.21574000  0.25577000  0.03341000  1.0
  N  N67  1  0.28425000  0.75577000  0.46658000  1.0
  N  N68  1  0.95226000  0.88171000  0.36374000  1.0
  N  N69  1  0.54775000  0.38171000  0.13625000  1.0
  N  N70  1  0.04774000  0.11829000  0.63626000  1.0
  N  N71  1  0.45225000  0.61829000  0.86375000  1.0
  O  O72  1  0.75339000  0.69802000  0.35355000  1.0
  O  O73  1  0.74662000  0.19802000  0.14645000  1.0
  O  O74  1  0.24660000  0.30198000  0.64645000  1.0
  O  O75  1  0.25338000  0.80199000  0.85355000  1.0
  O  O76  1  0.67614000  0.93492000  0.29161000  1.0
  O  O77  1  0.82386000  0.43492000  0.20838000  1.0
  O  O78  1  0.32386000  0.06509000  0.70839000  1.0
  O  O79  1  0.17614000  0.56509000  0.79162000  1.0
  O  O80  1  0.22112000  0.94839000  0.26201000  1.0
  O  O81  1  0.27888000  0.44839000  0.23798000  1.0
  O  O82  1  0.77887000  0.05161000  0.73798000  1.0
  O  O83  1  0.72112000  0.55161000  0.76202000  1.0
  O  O84  1  0.17488000  0.17741000  0.27222000  1.0
  O  O85  1  0.32512000  0.67741000  0.22779000  1.0
  O  O86  1  0.82512000  0.82259000  0.72779000  1.0
  O  O87  1  0.67488000  0.32259000  0.77221000  1.0
  O  O88  1  0.05908000  0.55193000  0.36210000  1.0
  O  O89  1  0.44093000  0.05193000  0.13789000  1.0
  O  O90  1  0.94092000  0.44807000  0.63789000  1.0
  O  O91  1  0.55907000  0.94807000  0.86211000  1.0
