# generated using pymatgen
data_CdH7C11(N2O)2
_symmetry_space_group_name_H-M   'P 1'
_cell_length_a   7.74726000
_cell_length_b   7.74737000
_cell_length_c   19.73034619
_cell_angle_alpha   100.49573686
_cell_angle_beta   100.49538880
_cell_angle_gamma   94.09460000
_symmetry_Int_Tables_number   1
_chemical_formula_structural   CdH7C11(N2O)2
_chemical_formula_sum   'Cd4 H28 C44 N16 O8'
_cell_volume   1138.21903008
_cell_formula_units_Z   4
loop_
 _symmetry_equiv_pos_site_id
 _symmetry_equiv_pos_as_xyz
  1  'x, y, z'
loop_
 _atom_site_type_symbol
 _atom_site_label
 _atom_site_symmetry_multiplicity
 _atom_site_fract_x
 _atom_site_fract_y
 _atom_site_fract_z
 _atom_site_occupancy
  Cd  Cd0  1  0.82096000  0.48155000  0.03765000  1.0
  Cd  Cd1  1  0.44425000  0.78326000  0.96233000  1.0
  Cd  Cd2  1  0.73152000  0.57094000  0.53765000  1.0
  Cd  Cd3  1  0.03322000  0.19422000  0.46232000  1.0
  H  H4  1  0.48866000  0.76323000  0.24157000  1.0
  H  H5  1  0.52169000  0.24704000  0.75848000  1.0
  H  H6  1  0.01319000  0.23863000  0.74156000  1.0
  H  H7  1  0.49703000  0.27170000  0.25847000  1.0
  H  H8  1  0.75984000  0.67488000  0.30617000  1.0
  H  H9  1  0.36922000  0.45359000  0.69383000  1.0
  H  H10  1  0.92490000  0.50986000  0.80617000  1.0
  H  H11  1  0.70359000  0.11920000  0.19382000  1.0
  H  H12  1  0.03726000  0.57206000  0.36340000  1.0
  H  H13  1  0.20879000  0.67346000  0.63648000  1.0
  H  H14  1  0.82211000  0.78729000  0.86341000  1.0
  H  H15  1  0.92347000  0.95877000  0.13648000  1.0
  H  H16  1  0.23772000  0.43338000  0.28709000  1.0
  H  H17  1  0.14660000  0.95045000  0.71271000  1.0
  H  H18  1  0.68342000  0.98773000  0.78709000  1.0
  H  H19  1  0.20044000  0.89656000  0.21270000  1.0
  H  H20  1  0.28884000  0.83769000  0.12162000  1.0
  H  H21  1  0.71547000  0.16679000  0.87849000  1.0
  H  H22  1  0.08763000  0.03880000  0.62162000  1.0
  H  H23  1  0.41677000  0.46547000  0.37849000  1.0
  H  H24  1  0.15039000  0.40199000  0.15716000  1.0
  H  H25  1  0.24562000  0.99359000  0.84263000  1.0
  H  H26  1  0.65201000  0.90039000  0.65716000  1.0
  H  H27  1  0.24357000  0.99558000  0.34263000  1.0
  H  H28  1  0.24116000  0.46429000  0.00695000  1.0
  H  H29  1  0.45816000  0.23358000  0.99333000  1.0
  H  H30  1  0.71427000  0.99114000  0.50695000  1.0
  H  H31  1  0.48357000  0.20814000  0.49334000  1.0
  C  C32  1  0.98353000  0.10642000  0.00434000  1.0
  C  C33  1  0.10275000  0.97858000  0.99582000  1.0
  C  C34  1  0.35640000  0.73351000  0.50433000  1.0
  C  C35  1  0.22855000  0.85272000  0.49581000  1.0
  C  C36  1  0.80562000  0.58724000  0.20077000  1.0
  C  C37  1  0.38710000  0.60510000  0.79917000  1.0
  C  C38  1  0.83723000  0.55562000  0.70076000  1.0
  C  C39  1  0.85509000  0.13709000  0.29917000  1.0
  C  C40  1  0.64755000  0.64718000  0.16338000  1.0
  C  C41  1  0.48424000  0.48436000  0.83661000  1.0
  C  C42  1  0.89717000  0.39754000  0.66338000  1.0
  C  C43  1  0.73434000  0.23423000  0.33660000  1.0
  C  C44  1  0.78964000  0.06268000  0.00543000  1.0
  C  C45  1  0.05773000  0.78358000  0.99462000  1.0
  C  C46  1  0.31266000  0.53963000  0.50543000  1.0
  C  C47  1  0.03356000  0.80772000  0.49462000  1.0
  C  C48  1  0.20347000  0.32484000  0.00451000  1.0
  C  C49  1  0.32116000  0.19839000  0.99577000  1.0
  C  C50  1  0.57481000  0.95345000  0.50450000  1.0
  C  C51  1  0.44836000  0.07114000  0.49577000  1.0
  C  C52  1  0.50979000  0.73281000  0.18801000  1.0
  C  C53  1  0.54488000  0.32174000  0.81203000  1.0
  C  C54  1  0.98278000  0.25977000  0.68800000  1.0
  C  C55  1  0.57173000  0.29487000  0.31202000  1.0
  C  C56  1  0.84776000  0.61224000  0.27436000  1.0
  C  C57  1  0.33843000  0.57343000  0.72559000  1.0
  C  C58  1  0.86225000  0.59776000  0.77435000  1.0
  C  C59  1  0.82341000  0.08841000  0.22558000  1.0
  C  C60  1  0.00395000  0.55780000  0.30644000  1.0
  C  C61  1  0.25168000  0.69731000  0.69344000  1.0
  C  C62  1  0.80783000  0.75397000  0.80644000  1.0
  C  C63  1  0.94731000  0.00166000  0.19344000  1.0
  C  C64  1  0.11590000  0.48072000  0.26452000  1.0
  C  C65  1  0.21663000  0.85132000  0.73531000  1.0
  C  C66  1  0.73073000  0.86591000  0.76451000  1.0
  C  C67  1  0.10132000  0.96660000  0.23531000  1.0
  C  C68  1  0.40848000  0.77262000  0.12792000  1.0
  C  C69  1  0.64438000  0.28029000  0.87215000  1.0
  C  C70  1  0.02258000  0.15846000  0.62791000  1.0
  C  C71  1  0.53028000  0.39438000  0.37215000  1.0
  C  C72  1  0.06666000  0.46120000  0.19194000  1.0
  C  C73  1  0.26992000  0.87496000  0.80788000  1.0
  C  C74  1  0.71122000  0.81667000  0.69194000  1.0
  C  C75  1  0.12493000  0.01989000  0.30788000  1.0
  N  N76  1  0.62505000  0.63659000  0.09296000  1.0
  N  N77  1  0.54394000  0.53220000  0.90703000  1.0
  N  N78  1  0.88656000  0.37502000  0.59295000  1.0
  N  N79  1  0.78217000  0.29392000  0.40702000  1.0
  N  N80  1  0.47989000  0.71369000  0.07116000  1.0
  N  N81  1  0.64239000  0.40858000  0.92888000  1.0
  N  N82  1  0.96365000  0.22986000  0.57115000  1.0
  N  N83  1  0.65856000  0.39238000  0.42888000  1.0
  N  N84  1  0.03664000  0.27802000  0.00905000  1.0
  N  N85  1  0.26967000  0.02700000  0.99115000  1.0
  N  N86  1  0.52800000  0.78662000  0.50904000  1.0
  N  N87  1  0.27697000  0.01965000  0.49115000  1.0
  N  N88  1  0.91602000  0.51208000  0.16073000  1.0
  N  N89  1  0.35204000  0.75562000  0.83917000  1.0
  N  N90  1  0.76208000  0.66602000  0.66073000  1.0
  N  N91  1  0.00559000  0.10200000  0.33916000  1.0
  O  O92  1  0.72312000  0.16478000  0.04839000  1.0
  O  O93  1  0.11670000  0.67419000  0.95159000  1.0
  O  O94  1  0.41476000  0.47311000  0.54838000  1.0
  O  O95  1  0.92415000  0.86668000  0.45159000  1.0
  O  O96  1  0.71214000  0.93029000  0.95923000  1.0
  O  O97  1  0.97155000  0.75226000  0.04085000  1.0
  O  O98  1  0.18027000  0.46212000  0.45923000  1.0
  O  O99  1  0.00224000  0.72152000  0.54084000  1.0
