# generated using pymatgen
data_AgH17C16SN2O3
_symmetry_space_group_name_H-M   'P 1'
_cell_length_a   7.52067000
_cell_length_b   9.01182000
_cell_length_c   13.80390000
_cell_angle_alpha   90.52340000
_cell_angle_beta   98.45780000
_cell_angle_gamma   92.57480000
_symmetry_Int_Tables_number   1
_chemical_formula_structural   AgH17C16SN2O3
_chemical_formula_sum   'Ag2 H34 C32 S2 N4 O6'
_cell_volume   924.33200700
_cell_formula_units_Z   2
loop_
 _symmetry_equiv_pos_site_id
 _symmetry_equiv_pos_as_xyz
  1  'x, y, z'
loop_
 _atom_site_type_symbol
 _atom_site_label
 _atom_site_symmetry_multiplicity
 _atom_site_fract_x
 _atom_site_fract_y
 _atom_site_fract_z
 _atom_site_occupancy
  Ag  Ag0  1  0.23232000  0.62853000  0.01172000  1.0
  Ag  Ag1  1  0.76767000  0.37148000  0.98828000  1.0
  H  H2  1  0.55225000  0.64951000  0.98172000  1.0
  H  H3  1  0.44775000  0.35049000  0.01828000  1.0
  H  H4  1  0.48137000  0.82152000  0.68886000  1.0
  H  H5  1  0.51862000  0.17848000  0.31113000  1.0
  H  H6  1  0.67238000  0.61750000  0.64237000  1.0
  H  H7  1  0.32761000  0.38251000  0.35763000  1.0
  H  H8  1  0.77169000  0.42621000  0.76716000  1.0
  H  H9  1  0.22831000  0.57380000  0.23284000  1.0
  H  H10  1  0.35586000  0.95583000  0.82310000  1.0
  H  H11  1  0.64412000  0.04416000  0.17690000  1.0
  H  H12  1  0.15064000  0.03507000  0.89430000  1.0
  H  H13  1  0.84935000  0.96493000  0.10571000  1.0
  H  H14  1  0.32642000  0.04257000  0.05888000  1.0
  H  H15  1  0.67357000  0.95743000  0.94112000  1.0
  H  H16  1  0.18032000  0.90448000  0.10029000  1.0
  H  H17  1  0.81968000  0.09551000  0.89972000  1.0
  H  H18  1  0.92291000  0.78326000  0.97050000  1.0
  H  H19  1  0.07709000  0.21673000  0.02950000  1.0
  H  H20  1  0.90214000  0.84770000  0.84826000  1.0
  H  H21  1  0.09786000  0.15230000  0.15174000  1.0
  H  H22  1  0.32127000  0.27481000  0.66139000  1.0
  H  H23  1  0.67874000  0.72519000  0.33860000  1.0
  H  H24  1  0.34950000  0.41890000  0.51143000  1.0
  H  H25  1  0.65051000  0.58110000  0.48856000  1.0
  H  H26  1  0.06140000  0.77166000  0.61963000  1.0
  H  H27  1  0.93861000  0.22834000  0.38037000  1.0
  H  H28  1  0.03695000  0.62764000  0.77076000  1.0
  H  H29  1  0.96306000  0.37236000  0.22924000  1.0
  H  H30  1  0.36275000  0.72102000  0.45639000  1.0
  H  H31  1  0.63726000  0.27898000  0.54361000  1.0
  H  H32  1  0.14765000  0.79350000  0.45981000  1.0
  H  H33  1  0.85236000  0.20650000  0.54019000  1.0
  H  H34  1  0.16617000  0.62560000  0.39636000  1.0
  H  H35  1  0.83384000  0.37440000  0.60364000  1.0
  C  C36  1  0.56386000  0.63923000  0.90391000  1.0
  C  C37  1  0.43612000  0.36077000  0.09609000  1.0
  C  C38  1  0.48649000  0.74195000  0.83653000  1.0
  C  C39  1  0.51350000  0.25805000  0.16347000  1.0
  C  C40  1  0.53214000  0.73867000  0.74175000  1.0
  C  C41  1  0.46784000  0.26133000  0.25825000  1.0
  C  C42  1  0.63673000  0.62567000  0.71572000  1.0
  C  C43  1  0.36326000  0.37434000  0.28428000  1.0
  C  C44  1  0.69510000  0.52010000  0.78480000  1.0
  C  C45  1  0.30490000  0.47991000  0.21520000  1.0
  C  C46  1  0.36084000  0.84988000  0.86233000  1.0
  C  C47  1  0.63914000  0.15011000  0.13767000  1.0
  C  C48  1  0.13379000  0.94241000  0.94395000  1.0
  C  C49  1  0.86621000  0.05759000  0.05605000  1.0
  C  C50  1  0.18660000  0.99811000  0.04983000  1.0
  C  C51  1  0.81339000  0.00189000  0.95018000  1.0
  C  C52  1  0.93806000  0.88244000  0.92558000  1.0
  C  C53  1  0.06193000  0.11756000  0.07443000  1.0
  C  C54  1  0.17399000  0.44177000  0.72410000  1.0
  C  C55  1  0.82602000  0.55823000  0.27590000  1.0
  C  C56  1  0.26347000  0.38347000  0.65132000  1.0
  C  C57  1  0.73653000  0.61653000  0.34868000  1.0
  C  C58  1  0.27834000  0.46485000  0.56749000  1.0
  C  C59  1  0.72167000  0.53515000  0.43251000  1.0
  C  C60  1  0.20494000  0.60513000  0.55371000  1.0
  C  C61  1  0.79507000  0.39487000  0.44629000  1.0
  C  C62  1  0.11786000  0.66212000  0.62799000  1.0
  C  C63  1  0.88215000  0.33789000  0.37201000  1.0
  C  C64  1  0.10285000  0.58188000  0.71279000  1.0
  C  C65  1  0.89716000  0.41812000  0.28721000  1.0
  C  C66  1  0.22123000  0.69095000  0.46235000  1.0
  C  C67  1  0.77878000  0.30905000  0.53765000  1.0
  S  S68  1  0.13713000  0.32755000  0.82532000  1.0
  S  S69  1  0.86288000  0.67245000  0.17468000  1.0
  N  N70  1  0.66435000  0.53026000  0.87825000  1.0
  N  N71  1  0.33565000  0.46974000  0.12175000  1.0
  N  N72  1  0.25333000  0.82489000  0.92539000  1.0
  N  N73  1  0.74666000  0.17511000  0.07463000  1.0
  O  O74  1  0.07502000  0.42803000  0.89802000  1.0
  O  O75  1  0.92499000  0.57197000  0.10198000  1.0
  O  O76  1  0.30970000  0.26264000  0.86069000  1.0
  O  O77  1  0.69031000  0.73736000  0.13931000  1.0
  O  O78  1  0.99412000  0.21904000  0.78355000  1.0
  O  O79  1  0.00589000  0.78096000  0.21644000  1.0
