# generated using pymatgen
data_Co3H42C42(N4O3)4
_symmetry_space_group_name_H-M   'P 1'
_cell_length_a   10.27240000
_cell_length_b   14.58460000
_cell_length_c   17.56380000
_cell_angle_alpha   89.99990000
_cell_angle_beta   89.99980000
_cell_angle_gamma   76.26700000
_symmetry_Int_Tables_number   1
_chemical_formula_structural   Co3H42C42(N4O3)4
_chemical_formula_sum   'Co6 H84 C84 N32 O24'
_cell_volume   2556.16355071
_cell_formula_units_Z   2
loop_
 _symmetry_equiv_pos_site_id
 _symmetry_equiv_pos_as_xyz
  1  'x, y, z'
loop_
 _atom_site_type_symbol
 _atom_site_label
 _atom_site_symmetry_multiplicity
 _atom_site_fract_x
 _atom_site_fract_y
 _atom_site_fract_z
 _atom_site_occupancy
  Co  Co0  1  0.00000000  0.50000000  0.50000000  1.0
  Co  Co1  1  0.50000000  0.00000000  0.00000000  1.0
  Co  Co2  1  0.67586000  0.67823000  0.40780000  1.0
  Co  Co3  1  0.82414000  0.82177000  0.90781000  1.0
  Co  Co4  1  0.32414000  0.32177000  0.59220000  1.0
  Co  Co5  1  0.17586000  0.17823000  0.09220000  1.0
  H  H6  1  0.78758000  0.60404000  0.65554000  1.0
  H  H7  1  0.71242000  0.89596000  0.15554000  1.0
  H  H8  1  0.21242000  0.39596000  0.34446000  1.0
  H  H9  1  0.28758000  0.10404000  0.84446000  1.0
  H  H10  1  0.76760000  0.49669000  0.61858000  1.0
  H  H11  1  0.73241000  0.00331000  0.11857000  1.0
  H  H12  1  0.23240000  0.50331000  0.38142000  1.0
  H  H13  1  0.26760000  0.99669000  0.88142000  1.0
  H  H14  1  0.43024000  0.00437000  0.74905000  1.0
  H  H15  1  0.06976000  0.49563000  0.24905000  1.0
  H  H16  1  0.56976000  0.99562000  0.25095000  1.0
  H  H17  1  0.93024000  0.50438000  0.75095000  1.0
  H  H18  1  0.58025000  0.03929000  0.72783000  1.0
  H  H19  1  0.91975000  0.46071000  0.22782000  1.0
  H  H20  1  0.41975000  0.96071000  0.27217000  1.0
  H  H21  1  0.08024000  0.53929000  0.77217000  1.0
  H  H22  1  0.12688000  0.92620000  0.75797000  1.0
  H  H23  1  0.37313000  0.57380000  0.25797000  1.0
  H  H24  1  0.87313000  0.07380000  0.24203000  1.0
  H  H25  1  0.62687000  0.42620000  0.74203000  1.0
  H  H26  1  0.21630000  0.88731000  0.84191000  1.0
  H  H27  1  0.28370000  0.61268000  0.34190000  1.0
  H  H28  1  0.78371000  0.11269000  0.15809000  1.0
  H  H29  1  0.71630000  0.38731000  0.65810000  1.0
  H  H30  1  0.76325000  0.81513000  0.30967000  1.0
  H  H31  1  0.73674000  0.68488000  0.80967000  1.0
  H  H32  1  0.23674000  0.18488000  0.69033000  1.0
  H  H33  1  0.26326000  0.31513000  0.19033000  1.0
  H  H34  1  0.80571000  0.97534000  0.32032000  1.0
  H  H35  1  0.69427000  0.52466000  0.82032000  1.0
  H  H36  1  0.19428000  0.02466000  0.67967000  1.0
  H  H37  1  0.30572000  0.47535000  0.17968000  1.0
  H  H38  1  0.70016000  0.97278000  0.55859000  1.0
  H  H39  1  0.79984000  0.52721000  0.05859000  1.0
  H  H40  1  0.29984000  0.02721000  0.44141000  1.0
  H  H41  1  0.20016000  0.47278000  0.94142000  1.0
  H  H42  1  0.66334000  0.81289000  0.53873000  1.0
  H  H43  1  0.83666000  0.68710000  0.03873000  1.0
  H  H44  1  0.33665000  0.18711000  0.46127000  1.0
  H  H45  1  0.16335000  0.31289000  0.96128000  1.0
  H  H46  1  0.90619000  0.06831000  0.45762000  1.0
  H  H47  1  0.59380000  0.43170000  0.95762000  1.0
  H  H48  1  0.09380000  0.93170000  0.54238000  1.0
  H  H49  1  0.40619000  0.56831000  0.04238000  1.0
  H  H50  1  0.77705000  0.11976000  0.39441000  1.0
  H  H51  1  0.72295000  0.38024000  0.89441000  1.0
  H  H52  1  0.22296000  0.88024000  0.60559000  1.0
  H  H53  1  0.27705000  0.61976000  0.10559000  1.0
  H  H54  1  0.74490000  0.11096000  0.56873000  1.0
  H  H55  1  0.75509000  0.38905000  0.06873000  1.0
  H  H56  1  0.25510000  0.88905000  0.43127000  1.0
  H  H57  1  0.24490000  0.61095000  0.93127000  1.0
  H  H58  1  0.61824000  0.16693000  0.50395000  1.0
  H  H59  1  0.88175000  0.33307000  0.00395000  1.0
  H  H60  1  0.38175000  0.83307000  0.49605000  1.0
  H  H61  1  0.11824000  0.66693000  0.99606000  1.0
  H  H62  1  0.94281000  0.17698000  0.59588000  1.0
  H  H63  1  0.55718000  0.32302000  0.09588000  1.0
  H  H64  1  0.05719000  0.82302000  0.40412000  1.0
  H  H65  1  0.44281000  0.67697000  0.90412000  1.0
  H  H66  1  0.03813000  0.31812000  0.58954000  1.0
  H  H67  1  0.46187000  0.18188000  0.08954000  1.0
  H  H68  1  0.96187000  0.68188000  0.41046000  1.0
  H  H69  1  0.53813000  0.81811000  0.91046000  1.0
  H  H70  1  0.74497000  0.45255000  0.43775000  1.0
  H  H71  1  0.75503000  0.04746000  0.93775000  1.0
  H  H72  1  0.25503000  0.54745000  0.56224000  1.0
  H  H73  1  0.24497000  0.95255000  0.06225000  1.0
  H  H74  1  0.63537000  0.31857000  0.43961000  1.0
  H  H75  1  0.86463000  0.18144000  0.93961000  1.0
  H  H76  1  0.36463000  0.68143000  0.56039000  1.0
  H  H77  1  0.13536000  0.81857000  0.06039000  1.0
  H  H78  1  0.53351000  0.53755000  0.65005000  1.0
  H  H79  1  0.96650000  0.96245000  0.15005000  1.0
  H  H80  1  0.46650000  0.46245000  0.34995000  1.0
  H  H81  1  0.03350000  0.03755000  0.84995000  1.0
  H  H82  1  0.67859000  0.87715000  0.68903000  1.0
  H  H83  1  0.82141000  0.62285000  0.18903000  1.0
  H  H84  1  0.32141000  0.12285000  0.31097000  1.0
  H  H85  1  0.17859000  0.37715000  0.81096000  1.0
  H  H86  1  0.17589000  0.72361000  0.77077000  1.0
  H  H87  1  0.32412000  0.77639000  0.27077000  1.0
  H  H88  1  0.82411000  0.27639000  0.22923000  1.0
  H  H89  1  0.67589000  0.22361000  0.72924000  1.0
  C  C90  1  0.52540000  0.67227000  0.68333000  1.0
  C  C91  1  0.97461000  0.82773000  0.18333000  1.0
  C  C92  1  0.47460000  0.32773000  0.31667000  1.0
  C  C93  1  0.02540000  0.17227000  0.81667000  1.0
  C  C94  1  0.51742000  0.82693000  0.70263000  1.0
  C  C95  1  0.98258000  0.67307000  0.20262000  1.0
  C  C96  1  0.48258000  0.17307000  0.29738000  1.0
  C  C97  1  0.01742000  0.32693000  0.79738000  1.0
  C  C98  1  0.34104000  0.76720000  0.73473000  1.0
  C  C99  1  0.15896000  0.73280000  0.23473000  1.0
  C  C100  1  0.65896000  0.23280000  0.26527000  1.0
  C  C101  1  0.84104000  0.26720000  0.76528000  1.0
  C  C102  1  0.71924000  0.57214000  0.62231000  1.0
  C  C103  1  0.78077000  0.92786000  0.12231000  1.0
  C  C104  1  0.28076000  0.42786000  0.37768000  1.0
  C  C105  1  0.21924000  0.07214000  0.87768000  1.0
  C  C106  1  0.71464000  0.61264000  0.54296000  1.0
  C  C107  1  0.78537000  0.88736000  0.04296000  1.0
  C  C108  1  0.28537000  0.38737000  0.45703000  1.0
  C  C109  1  0.21464000  0.11263000  0.95704000  1.0
  C  C110  1  0.53953000  0.98026000  0.74791000  1.0
  C  C111  1  0.96047000  0.51974000  0.24791000  1.0
  C  C112  1  0.46048000  0.01974000  0.25209000  1.0
  C  C113  1  0.03952000  0.48026000  0.75209000  1.0
  C  C114  1  0.58982000  0.95499000  0.82933000  1.0
  C  C115  1  0.91018000  0.54501000  0.32932000  1.0
  C  C116  1  0.41018000  0.04501000  0.17068000  1.0
  C  C117  1  0.08981000  0.45499000  0.67067000  1.0
  C  C118  1  0.14978000  0.86751000  0.79893000  1.0
  C  C119  1  0.35023000  0.63249000  0.29893000  1.0
  C  C120  1  0.85023000  0.13249000  0.20107000  1.0
  C  C121  1  0.64977000  0.36750000  0.70107000  1.0
  C  C122  1  0.02177000  0.86215000  0.83896000  1.0
  C  C123  1  0.47823000  0.63785000  0.33896000  1.0
  C  C124  1  0.97824000  0.13785000  0.16104000  1.0
  C  C125  1  0.52176000  0.36214000  0.66104000  1.0
  C  C126  1  0.75145000  0.85255000  0.36404000  1.0
  C  C127  1  0.74854000  0.64745000  0.86404000  1.0
  C  C128  1  0.24855000  0.14745000  0.63595000  1.0
  C  C129  1  0.25146000  0.35255000  0.13596000  1.0
  C  C130  1  0.77580000  0.94176000  0.37070000  1.0
  C  C131  1  0.72419000  0.55824000  0.87070000  1.0
  C  C132  1  0.22419000  0.05824000  0.62930000  1.0
  C  C133  1  0.27581000  0.44176000  0.12930000  1.0
  C  C134  1  0.76080000  0.98820000  0.44136000  1.0
  C  C135  1  0.73919000  0.51180000  0.94136000  1.0
  C  C136  1  0.23920000  0.01180000  0.55864000  1.0
  C  C137  1  0.26080000  0.48820000  0.05865000  1.0
  C  C138  1  0.71752000  0.94095000  0.50224000  1.0
  C  C139  1  0.78248000  0.55905000  0.00224000  1.0
  C  C140  1  0.28248000  0.05905000  0.49775000  1.0
  C  C141  1  0.21752000  0.44095000  0.99776000  1.0
  C  C142  1  0.69568000  0.85120000  0.49171000  1.0
  C  C143  1  0.80432000  0.64880000  0.99171000  1.0
  C  C144  1  0.30433000  0.14880000  0.50829000  1.0
  C  C145  1  0.19568000  0.35120000  0.00829000  1.0
  C  C146  1  0.79659000  0.08217000  0.44910000  1.0
  C  C147  1  0.70340000  0.41783000  0.94910000  1.0
  C  C148  1  0.20341000  0.91783000  0.55090000  1.0
  C  C149  1  0.29659000  0.58217000  0.05090000  1.0
  C  C150  1  0.72713000  0.14741000  0.51353000  1.0
  C  C151  1  0.77286000  0.35259000  0.01353000  1.0
  C  C152  1  0.27287000  0.85259000  0.48647000  1.0
  C  C153  1  0.22713000  0.64741000  0.98647000  1.0
  C  C154  1  0.78159000  0.23445000  0.51646000  1.0
  C  C155  1  0.71841000  0.26556000  0.01646000  1.0
  C  C156  1  0.21841000  0.76556000  0.48353000  1.0
  C  C157  1  0.28159000  0.73444000  0.98354000  1.0
  C  C158  1  0.89552000  0.23642000  0.55968000  1.0
  C  C159  1  0.60447000  0.26358000  0.05968000  1.0
  C  C160  1  0.10447000  0.76358000  0.44032000  1.0
  C  C161  1  0.39553000  0.73642000  0.94032000  1.0
  C  C162  1  0.94917000  0.31532000  0.55689000  1.0
  C  C163  1  0.55082000  0.18469000  0.05690000  1.0
  C  C164  1  0.05082000  0.68469000  0.44310000  1.0
  C  C165  1  0.44918000  0.81531000  0.94311000  1.0
  C  C166  1  0.78607000  0.39041000  0.47242000  1.0
  C  C167  1  0.71393000  0.10960000  0.97242000  1.0
  C  C168  1  0.21393000  0.60960000  0.52758000  1.0
  C  C169  1  0.28607000  0.89040000  0.02758000  1.0
  C  C170  1  0.72586000  0.31447000  0.47287000  1.0
  C  C171  1  0.77413000  0.18554000  0.97287000  1.0
  C  C172  1  0.27414000  0.68554000  0.52712000  1.0
  C  C173  1  0.22586000  0.81447000  0.02713000  1.0
  N  N174  1  0.58958000  0.74303000  0.67782000  1.0
  N  N175  1  0.91043000  0.75697000  0.17782000  1.0
  N  N176  1  0.41043000  0.25697000  0.32218000  1.0
  N  N177  1  0.08958000  0.24303000  0.82219000  1.0
  N  N178  1  0.39284000  0.84449000  0.73154000  1.0
  N  N179  1  0.10717000  0.65551000  0.23153000  1.0
  N  N180  1  0.60717000  0.15551000  0.26846000  1.0
  N  N181  1  0.89283000  0.34449000  0.76847000  1.0
  N  N182  1  0.40174000  0.67951000  0.71221000  1.0
  N  N183  1  0.09827000  0.82049000  0.21221000  1.0
  N  N184  1  0.59826000  0.32049000  0.28779000  1.0
  N  N185  1  0.90174000  0.17951000  0.78779000  1.0
  N  N186  1  0.59126000  0.58559000  0.65908000  1.0
  N  N187  1  0.90875000  0.91441000  0.15908000  1.0
  N  N188  1  0.40874000  0.41441000  0.34092000  1.0
  N  N189  1  0.09126000  0.08559000  0.84092000  1.0
  N  N190  1  0.57788000  0.90130000  0.69584000  1.0
  N  N191  1  0.92212000  0.59870000  0.19583000  1.0
  N  N192  1  0.42212000  0.09870000  0.30417000  1.0
  N  N193  1  0.07788000  0.40130000  0.80416000  1.0
  N  N194  1  0.21547000  0.78039000  0.76303000  1.0
  N  N195  1  0.28453000  0.71961000  0.26302000  1.0
  N  N196  1  0.78453000  0.21961000  0.23698000  1.0
  N  N197  1  0.71547000  0.28039000  0.73698000  1.0
  N  N198  1  0.71332000  0.80664000  0.42383000  1.0
  N  N199  1  0.78668000  0.69336000  0.92383000  1.0
  N  N200  1  0.28668000  0.19336000  0.57617000  1.0
  N  N201  1  0.21332000  0.30664000  0.07617000  1.0
  N  N202  1  0.89671000  0.39143000  0.51349000  1.0
  N  N203  1  0.60329000  0.10857000  0.01349000  1.0
  N  N204  1  0.10329000  0.60857000  0.48651000  1.0
  N  N205  1  0.39672000  0.89143000  0.98652000  1.0
  O  O206  1  0.82408000  0.60570000  0.50596000  1.0
  O  O207  1  0.67593000  0.89430000  0.00596000  1.0
  O  O208  1  0.17592000  0.39430000  0.49403000  1.0
  O  O209  1  0.32408000  0.10570000  0.99403000  1.0
  O  O210  1  0.60434000  0.65374000  0.51210000  1.0
  O  O211  1  0.89567000  0.84626000  0.01210000  1.0
  O  O212  1  0.39566000  0.34627000  0.48790000  1.0
  O  O213  1  0.10434000  0.15374000  0.98790000  1.0
  O  O214  1  0.68942000  0.88350000  0.83483000  1.0
  O  O215  1  0.81058000  0.61651000  0.33482000  1.0
  O  O216  1  0.31058000  0.11650000  0.16518000  1.0
  O  O217  1  0.18942000  0.38350000  0.66517000  1.0
  O  O218  1  0.52953000  0.00598000  0.88248000  1.0
  O  O219  1  0.97047000  0.49403000  0.38247000  1.0
  O  O220  1  0.47047000  0.99403000  0.11752000  1.0
  O  O221  1  0.02952000  0.50598000  0.61752000  1.0
  O  O222  1  0.94999000  0.93660000  0.86719000  1.0
  O  O223  1  0.55001000  0.56339000  0.36719000  1.0
  O  O224  1  0.05002000  0.06340000  0.13282000  1.0
  O  O225  1  0.44998000  0.43660000  0.63282000  1.0
  O  O226  1  0.99170000  0.78147000  0.84420000  1.0
  O  O227  1  0.50829000  0.71853000  0.34421000  1.0
  O  O228  1  0.00830000  0.21853000  0.15580000  1.0
  O  O229  1  0.49170000  0.28146000  0.65580000  1.0
