# generated using pymatgen
data_CdH10C14(SN2)2
_symmetry_space_group_name_H-M   'P 1'
_cell_length_a   8.61977000
_cell_length_b   9.03633000
_cell_length_c   10.47020000
_cell_angle_alpha   85.42860000
_cell_angle_beta   73.27780000
_cell_angle_gamma   74.98460000
_symmetry_Int_Tables_number   1
_chemical_formula_structural   CdH10C14(SN2)2
_chemical_formula_sum   'Cd2 H20 C28 S4 N8'
_cell_volume   754.36752970
_cell_formula_units_Z   2
loop_
 _symmetry_equiv_pos_site_id
 _symmetry_equiv_pos_as_xyz
  1  'x, y, z'
loop_
 _atom_site_type_symbol
 _atom_site_label
 _atom_site_symmetry_multiplicity
 _atom_site_fract_x
 _atom_site_fract_y
 _atom_site_fract_z
 _atom_site_occupancy
  Cd  Cd0  1  0.07868000  0.36099000  0.24063000  1.0
  Cd  Cd1  1  0.91619000  0.64129000  0.76674000  1.0
  H  H2  1  0.76124000  0.92182000  0.62611000  1.0
  H  H3  1  0.23426000  0.07996000  0.38100000  1.0
  H  H4  1  0.27168000  0.85433000  0.78325000  1.0
  H  H5  1  0.06374000  0.02542000  0.68299000  1.0
  H  H6  1  0.12163000  0.26542000  0.56578000  1.0
  H  H7  1  0.39589000  0.32370000  0.53903000  1.0
  H  H8  1  0.60435000  0.15303000  0.63794000  1.0
  H  H9  1  0.71107000  0.51131000  0.05969000  1.0
  H  H10  1  0.43158000  0.57847000  0.23062000  1.0
  H  H11  1  0.21333000  0.80647000  0.18768000  1.0
  H  H12  1  0.28203000  0.95783000  0.97892000  1.0
  H  H13  1  0.71260000  0.04463000  0.02744000  1.0
  H  H14  1  0.77993000  0.19550000  0.81819000  1.0
  H  H15  1  0.56105000  0.42331000  0.77581000  1.0
  H  H16  1  0.28254000  0.49083000  0.94784000  1.0
  H  H17  1  0.72304000  0.14887000  0.22352000  1.0
  H  H18  1  0.93178000  0.97843000  0.32339000  1.0
  H  H19  1  0.87523000  0.73787000  0.44030000  1.0
  H  H20  1  0.60160000  0.67836000  0.46714000  1.0
  H  H21  1  0.39227000  0.84847000  0.36870000  1.0
  C  C22  1  0.17581000  0.57166000  0.45999000  1.0
  C  C23  1  0.01568000  0.32455000  0.94208000  1.0
  C  C24  1  0.97955000  0.67781000  0.06460000  1.0
  C  C25  1  0.57970000  0.89015000  0.77616000  1.0
  C  C26  1  0.45132000  0.99316000  0.72061000  1.0
  C  C27  1  0.29870000  0.95798000  0.73130000  1.0
  C  C28  1  0.18170000  0.05435000  0.67419000  1.0
  C  C29  1  0.21503000  0.18705000  0.60658000  1.0
  C  C30  1  0.36851000  0.22090000  0.59250000  1.0
  C  C31  1  0.48581000  0.12454000  0.64860000  1.0
  C  C32  1  0.52985000  0.80766000  0.90504000  1.0
  C  C33  1  0.61187000  0.60824000  0.04462000  1.0
  C  C34  1  0.45694000  0.64716000  0.14030000  1.0
  C  C35  1  0.33626000  0.77312000  0.11600000  1.0
  C  C36  1  0.37352000  0.85631000  0.99772000  1.0
  C  C37  1  0.46486000  0.19460000  0.10197000  1.0
  C  C38  1  0.62082000  0.14598000  0.00886000  1.0
  C  C39  1  0.65741000  0.22897000  0.89038000  1.0
  C  C40  1  0.53642000  0.35482000  0.86635000  1.0
  C  C41  1  0.38194000  0.39387000  0.96256000  1.0
  C  C42  1  0.41548000  0.11204000  0.23085000  1.0
  C  C43  1  0.54422000  0.00925000  0.28616000  1.0
  C  C44  1  0.69657000  0.04501000  0.27539000  1.0
  C  C45  1  0.81402000  0.94900000  0.33231000  1.0
  C  C46  1  0.78145000  0.81597000  0.39974000  1.0
  C  C47  1  0.62826000  0.78150000  0.41387000  1.0
  C  C48  1  0.51052000  0.87752000  0.35798000  1.0
  C  C49  1  0.81903000  0.43070000  0.54750000  1.0
  S  S50  1  0.00716000  0.19397000  0.05831000  1.0
  S  S51  1  0.18534000  0.68423000  0.57098000  1.0
  S  S52  1  0.98771000  0.80858000  0.94850000  1.0
  S  S53  1  0.81005000  0.31776000  0.43651000  1.0
  N  N54  1  0.73784000  0.86716000  0.71664000  1.0
  N  N55  1  0.64648000  0.68520000  0.92981000  1.0
  N  N56  1  0.34800000  0.31703000  0.07751000  1.0
  N  N57  1  0.25739000  0.13474000  0.29052000  1.0
  N  N58  1  0.17302000  0.49086000  0.37768000  1.0
  N  N59  1  0.02338000  0.41797000  0.85616000  1.0
  N  N60  1  0.97232000  0.58413000  0.15028000  1.0
  N  N61  1  0.82120000  0.51173000  0.62986000  1.0
