# generated using pymatgen
data_TbH13(C4O3)4
_symmetry_space_group_name_H-M   'P 1'
_cell_length_a   8.83681000
_cell_length_b   9.73692000
_cell_length_c   12.15830000
_cell_angle_alpha   101.03700000
_cell_angle_beta   103.78400000
_cell_angle_gamma   108.43800000
_symmetry_Int_Tables_number   1
_chemical_formula_structural   TbH13(C4O3)4
_chemical_formula_sum   'Tb2 H26 C32 O24'
_cell_volume   922.56036217
_cell_formula_units_Z   2
loop_
 _symmetry_equiv_pos_site_id
 _symmetry_equiv_pos_as_xyz
  1  'x, y, z'
loop_
 _atom_site_type_symbol
 _atom_site_label
 _atom_site_symmetry_multiplicity
 _atom_site_fract_x
 _atom_site_fract_y
 _atom_site_fract_z
 _atom_site_occupancy
  Tb  Tb0  1  0.27277000  0.53774000  0.96196000  1.0
  Tb  Tb1  1  0.72723000  0.46226000  0.03804000  1.0
  H  H2  1  0.68255000  0.93070000  0.32410000  1.0
  H  H3  1  0.31745000  0.06931000  0.67590000  1.0
  H  H4  1  0.68468000  0.95909000  0.68308000  1.0
  H  H5  1  0.31532000  0.04091000  0.31692000  1.0
  H  H6  1  0.27940000  0.60857000  0.39140000  1.0
  H  H7  1  0.72060000  0.39143000  0.60860000  1.0
  H  H8  1  0.34341000  0.99238000  0.04832000  1.0
  H  H9  1  0.65659000  0.00762000  0.95168000  1.0
  H  H10  1  0.22471000  0.36648000  0.20346000  1.0
  H  H11  1  0.77530000  0.63352000  0.79653000  1.0
  H  H12  1  0.90231000  0.90680000  0.15685000  1.0
  H  H13  1  0.09769000  0.09320000  0.84316000  1.0
  H  H14  1  0.02175000  0.22855000  0.50741000  1.0
  H  H15  1  0.97825000  0.77144000  0.49259000  1.0
  H  H16  1  0.44685000  0.76626000  0.70070000  1.0
  H  H17  1  0.55314000  0.23373000  0.29930000  1.0
  H  H18  1  0.87125000  0.12566000  0.25503000  1.0
  H  H19  1  0.12875000  0.87434000  0.74497000  1.0
  H  H20  1  0.93535000  0.47032000  0.79647000  1.0
  H  H21  1  0.06465000  0.52968000  0.20353000  1.0
  H  H22  1  0.33770000  0.30886000  0.80535000  1.0
  H  H23  1  0.66231000  0.69115000  0.19465000  1.0
  H  H24  1  0.05739000  0.61385000  0.77688000  1.0
  H  H25  1  0.94261000  0.38615000  0.22312000  1.0
  H  H26  1  0.14734000  0.29441000  0.74219000  1.0
  H  H27  1  0.85266000  0.70559000  0.25781000  1.0
  C  C28  1  0.47459000  0.76156000  0.34462000  1.0
  C  C29  1  0.52541000  0.23844000  0.65538000  1.0
  C  C30  1  0.62581000  0.88770000  0.38676000  1.0
  C  C31  1  0.37419000  0.11230000  0.61323000  1.0
  C  C32  1  0.70077000  0.95770000  0.50841000  1.0
  C  C33  1  0.29922000  0.04231000  0.49159000  1.0
  C  C34  1  0.62509000  0.90229000  0.58858000  1.0
  C  C35  1  0.37491000  0.09770000  0.41141000  1.0
  C  C36  1  0.47274000  0.77628000  0.54590000  1.0
  C  C37  1  0.52726000  0.22371000  0.45409000  1.0
  C  C38  1  0.39810000  0.70610000  0.42368000  1.0
  C  C39  1  0.60191000  0.29390000  0.57632000  1.0
  C  C40  1  0.39922000  0.68633000  0.21459000  1.0
  C  C41  1  0.60078000  0.31367000  0.78541000  1.0
  C  C42  1  0.86042000  0.09210000  0.55482000  1.0
  C  C43  1  0.13957000  0.90789000  0.44516000  1.0
  C  C44  1  0.11875000  0.93412000  0.09849000  1.0
  C  C45  1  0.88126000  0.06588000  0.90151000  1.0
  C  C46  1  0.26366000  0.03593000  0.08826000  1.0
  C  C47  1  0.73635000  0.96407000  0.91174000  1.0
  C  C48  1  0.29923000  0.19111000  0.12418000  1.0
  C  C49  1  0.70078000  0.80889000  0.87582000  1.0
  C  C50  1  0.19713000  0.24561000  0.17660000  1.0
  C  C51  1  0.80287000  0.75438000  0.82341000  1.0
  C  C52  1  0.05765000  0.14346000  0.19183000  1.0
  C  C53  1  0.94236000  0.85654000  0.80818000  1.0
  C  C54  1  0.01491000  0.98773000  0.14993000  1.0
  C  C55  1  0.98510000  0.01227000  0.85007000  1.0
  C  C56  1  0.07674000  0.76760000  0.05190000  1.0
  C  C57  1  0.92326000  0.23241000  0.94810000  1.0
  C  C58  1  0.44526000  0.29622000  0.10207000  1.0
  C  C59  1  0.55474000  0.70378000  0.89793000  1.0
  O  O60  1  0.48587000  0.72730000  0.14725000  1.0
  O  O61  1  0.51414000  0.27270000  0.85275000  1.0
  O  O62  1  0.25362000  0.58068000  0.17106000  1.0
  O  O63  1  0.74638000  0.41932000  0.82895000  1.0
  O  O64  1  0.92019000  0.13617000  0.46874000  1.0
  O  O65  1  0.07981000  0.86383000  0.53126000  1.0
  O  O66  1  0.93493000  0.15915000  0.66026000  1.0
  O  O67  1  0.06507000  0.84085000  0.33975000  1.0
  O  O68  1  0.38778000  0.71608000  0.61598000  1.0
  O  O69  1  0.61222000  0.28392000  0.38402000  1.0
  O  O70  1  0.17660000  0.72970000  0.00515000  1.0
  O  O71  1  0.82340000  0.27030000  0.99485000  1.0
  O  O72  1  0.94524000  0.67564000  0.06138000  1.0
  O  O73  1  0.05476000  0.32437000  0.93862000  1.0
  O  O74  1  0.58398000  0.27722000  0.12715000  1.0
  O  O75  1  0.41602000  0.72279000  0.87285000  1.0
  O  O76  1  0.42966000  0.40090000  0.05571000  1.0
  O  O77  1  0.57034000  0.59910000  0.94429000  1.0
  O  O78  1  0.96524000  0.20460000  0.24742000  1.0
  O  O79  1  0.03476000  0.79540000  0.75258000  1.0
  O  O80  1  0.04704000  0.51347000  0.78590000  1.0
  O  O81  1  0.95296000  0.48653000  0.21410000  1.0
  O  O82  1  0.26323000  0.36543000  0.78854000  1.0
  O  O83  1  0.73677000  0.63457000  0.21146000  1.0
