# generated using pymatgen
data_Co3H48C62(NO7)2
_symmetry_space_group_name_H-M   'P 1'
_cell_length_a   13.04170000
_cell_length_b   25.40200000
_cell_length_c   25.40320185
_cell_angle_alpha   59.99869533
_cell_angle_beta   90.00000001
_cell_angle_gamma   89.99670000
_symmetry_Int_Tables_number   1
_chemical_formula_structural   Co3H48C62(NO7)2
_chemical_formula_sum   'Co9 H144 C186 N6 O42'
_cell_volume   7288.11971176
_cell_formula_units_Z   3
loop_
 _symmetry_equiv_pos_site_id
 _symmetry_equiv_pos_as_xyz
  1  'x, y, z'
loop_
 _atom_site_type_symbol
 _atom_site_label
 _atom_site_symmetry_multiplicity
 _atom_site_fract_x
 _atom_site_fract_y
 _atom_site_fract_z
 _atom_site_occupancy
  Co  Co0  1  0.80987000  0.88695000  0.39011000  1.0
  Co  Co1  1  0.14305000  0.39000000  0.72303000  1.0
  Co  Co2  1  0.47652000  0.72295000  0.88698000  1.0
  Co  Co3  1  0.19013000  0.11305000  0.27706000  1.0
  Co  Co4  1  0.85695000  0.61000000  0.11303000  1.0
  Co  Co5  1  0.52347000  0.27705000  0.60993000  1.0
  Co  Co6  1  0.00000000  1.00000000  0.31513000  1.0
  Co  Co7  1  0.33327000  0.31513000  0.68489000  1.0
  Co  Co8  1  0.66666667  0.68486000  0.00003000  1.0
  H  H9  1  0.58465000  0.00916000  0.24105000  1.0
  H  H10  1  0.51896000  0.10855000  0.15848000  1.0
  H  H11  1  0.76984000  0.19929000  0.19117000  1.0
  H  H12  1  0.83247000  0.10014000  0.27420000  1.0
  H  H13  1  0.81017000  0.44072000  0.13050000  1.0
  H  H14  1  0.76206000  0.34848000  0.12537000  1.0
  H  H15  1  0.48218000  0.43681000  0.03310000  1.0
  H  H16  1  0.53181000  0.52841000  0.03901000  1.0
  H  H17  1  0.27964000  0.37380000  0.86600000  1.0
  H  H18  1  0.37043000  0.36203000  0.95733000  1.0
  H  H19  1  0.55323000  0.21837000  0.96212000  1.0
  H  H20  1  0.46233000  0.23143000  0.87013000  1.0
  H  H21  1  0.65682000  0.26931000  0.16340000  1.0
  H  H22  1  0.52185000  0.37999000  0.98732000  1.0
  H  H23  1  0.54161000  0.18616000  0.06364000  1.0
  H  H24  1  0.60354000  0.77503000  0.35972000  1.0
  H  H25  1  0.72908000  0.78985000  0.32793000  1.0
  H  H26  1  0.66652000  0.84455000  0.34107000  1.0
  H  H27  1  0.62850000  0.64235000  0.46111000  1.0
  H  H28  1  0.75792000  0.63082000  0.44634000  1.0
  H  H29  1  0.68242000  0.68896000  0.38758000  1.0
  H  H30  1  0.80826000  0.71540000  0.52417000  1.0
  H  H31  1  0.84015000  0.64835000  0.52081000  1.0
  H  H32  1  0.71888000  0.65377000  0.55026000  1.0
  H  H33  1  0.91762000  0.24107000  0.74967000  1.0
  H  H34  1  0.85219000  0.15838000  0.73294000  1.0
  H  H35  1  0.10316000  0.19115000  0.60954000  1.0
  H  H36  1  0.16562000  0.27422000  0.62566000  1.0
  H  H37  1  0.14319000  0.13051000  0.42865000  1.0
  H  H38  1  0.09547000  0.12525000  0.52614000  1.0
  H  H39  1  0.81535000  0.03316000  0.53017000  1.0
  H  H40  1  0.86471000  0.03906000  0.43262000  1.0
  H  H41  1  0.61299000  0.86591000  0.76026000  1.0
  H  H42  1  0.70343000  0.95741000  0.68068000  1.0
  H  H43  1  0.88619000  0.96224000  0.81953000  1.0
  H  H44  1  0.79549000  0.87019000  0.89847000  1.0
  H  H45  1  0.99014000  0.16334000  0.56732000  1.0
  H  H46  1  0.85489000  0.98732000  0.63272000  1.0
  H  H47  1  0.87505000  0.06358000  0.75025000  1.0
  H  H48  1  0.93702000  0.35964000  0.86538000  1.0
  H  H49  1  0.06266000  0.32797000  0.88228000  1.0
  H  H50  1  0.00003000  0.34102000  0.81450000  1.0
  H  H51  1  0.96181000  0.46110000  0.89660000  1.0
  H  H52  1  0.09128000  0.44638000  0.92283000  1.0
  H  H53  1  0.01582000  0.38760000  0.92345000  1.0
  H  H54  1  0.14137000  0.52426000  0.76037000  1.0
  H  H55  1  0.17329000  0.52094000  0.83076000  1.0
  H  H56  1  0.05198000  0.55034000  0.79592000  1.0
  H  H57  1  0.25097000  0.74984000  0.00911000  1.0
  H  H58  1  0.18526000  0.73300000  0.10850000  1.0
  H  H59  1  0.43622000  0.60960000  0.19923000  1.0
  H  H60  1  0.49889000  0.62579000  0.10006000  1.0
  H  H61  1  0.47666000  0.42877000  0.44072000  1.0
  H  H62  1  0.42861000  0.52616000  0.34849000  1.0
  H  H63  1  0.14873000  0.53014000  0.43678000  1.0
  H  H64  1  0.19838000  0.43266000  0.52841000  1.0
  H  H65  1  0.94619000  0.76027000  0.37377000  1.0
  H  H66  1  0.03680000  0.68068000  0.36195000  1.0
  H  H67  1  0.21961000  0.81952000  0.21829000  1.0
  H  H68  1  0.12888000  0.89846000  0.23139000  1.0
  H  H69  1  0.32339000  0.56734000  0.26927000  1.0
  H  H70  1  0.18828000  0.63271000  0.37994000  1.0
  H  H71  1  0.20797000  0.75022000  0.18612000  1.0
  H  H72  1  0.27010000  0.86531000  0.77496000  1.0
  H  H73  1  0.39561000  0.88227000  0.78982000  1.0
  H  H74  1  0.33304000  0.81444000  0.84450000  1.0
  H  H75  1  0.29513000  0.89657000  0.64233000  1.0
  H  H76  1  0.42457000  0.92284000  0.63081000  1.0
  H  H77  1  0.34907000  0.92348000  0.68894000  1.0
  H  H78  1  0.47484000  0.76043000  0.71542000  1.0
  H  H79  1  0.50675000  0.83082000  0.64837000  1.0
  H  H80  1  0.38547000  0.79596000  0.65378000  1.0
  H  H81  1  0.41535000  0.99084000  0.25021000  1.0
  H  H82  1  0.48105000  0.89145000  0.26703000  1.0
  H  H83  1  0.23017000  0.80071000  0.39046000  1.0
  H  H84  1  0.16754000  0.89986000  0.37434000  1.0
  H  H85  1  0.18983000  0.55928000  0.57122000  1.0
  H  H86  1  0.23795000  0.65152000  0.47385000  1.0
  H  H87  1  0.51782000  0.56319000  0.46991000  1.0
  H  H88  1  0.46819000  0.47159000  0.56742000  1.0
  H  H89  1  0.72036000  0.62620000  0.23980000  1.0
  H  H90  1  0.62957000  0.63797000  0.31936000  1.0
  H  H91  1  0.44677000  0.78163000  0.18049000  1.0
  H  H92  1  0.53767000  0.76857000  0.10156000  1.0
  H  H93  1  0.34319000  0.73068000  0.43271000  1.0
  H  H94  1  0.47815000  0.62001000  0.36731000  1.0
  H  H95  1  0.45839000  0.81384000  0.24980000  1.0
  H  H96  1  0.39645000  0.22497000  0.13475000  1.0
  H  H97  1  0.27092000  0.21015000  0.11778000  1.0
  H  H98  1  0.33348000  0.15545000  0.18562000  1.0
  H  H99  1  0.37150000  0.35765000  0.10346000  1.0
  H  H100  1  0.24208000  0.36918000  0.07716000  1.0
  H  H101  1  0.31758000  0.31104000  0.07654000  1.0
  H  H102  1  0.19174000  0.28460000  0.23957000  1.0
  H  H103  1  0.15985000  0.35165000  0.16916000  1.0
  H  H104  1  0.28112000  0.34623000  0.20403000  1.0
  H  H105  1  0.08237000  0.75894000  0.99074000  1.0
  H  H106  1  0.14780000  0.84162000  0.89132000  1.0
  H  H107  1  0.89684000  0.80885000  0.80069000  1.0
  H  H108  1  0.83437000  0.72578000  0.89988000  1.0
  H  H109  1  0.85681000  0.86949000  0.55916000  1.0
  H  H110  1  0.90453000  0.87475000  0.65139000  1.0
  H  H111  1  0.18465000  0.96684000  0.56333000  1.0
  H  H112  1  0.13529000  0.96095000  0.47168000  1.0
  H  H113  1  0.38701000  0.13410000  0.62616000  1.0
  H  H114  1  0.29656000  0.04259000  0.63809000  1.0
  H  H115  1  0.11381000  0.03776000  0.78177000  1.0
  H  H116  1  0.20451000  0.12982000  0.76865000  1.0
  H  H117  1  0.00986000  0.83666000  0.73066000  1.0
  H  H118  1  0.14511000  0.01268000  0.62004000  1.0
  H  H119  1  0.12495000  0.93641000  0.81384000  1.0
  H  H120  1  0.06297000  0.64035000  0.22502000  1.0
  H  H121  1  0.93734000  0.67204000  0.21024000  1.0
  H  H122  1  0.99996000  0.65898000  0.15552000  1.0
  H  H123  1  0.03818000  0.53891000  0.35769000  1.0
  H  H124  1  0.90872000  0.55363000  0.36920000  1.0
  H  H125  1  0.98418000  0.61239000  0.31105000  1.0
  H  H126  1  0.85863000  0.47574000  0.28463000  1.0
  H  H127  1  0.82671000  0.47906000  0.35169000  1.0
  H  H128  1  0.94803000  0.44966000  0.34626000  1.0
  H  H129  1  0.74903000  0.25015000  0.75895000  1.0
  H  H130  1  0.81474000  0.26700000  0.84150000  1.0
  H  H131  1  0.56378000  0.39040000  0.80883000  1.0
  H  H132  1  0.50111000  0.37421000  0.72585000  1.0
  H  H133  1  0.52334000  0.57123000  0.86949000  1.0
  H  H134  1  0.57139000  0.47384000  0.87465000  1.0
  H  H135  1  0.85127000  0.46985000  0.96692000  1.0
  H  H136  1  0.80163000  0.56734000  0.96107000  1.0
  H  H137  1  0.05381000  0.23973000  0.13404000  1.0
  H  H138  1  0.96320000  0.31932000  0.04263000  1.0
  H  H139  1  0.78039000  0.18049000  0.03780000  1.0
  H  H140  1  0.87112000  0.10154000  0.12985000  1.0
  H  H141  1  0.67661000  0.43266000  0.83661000  1.0
  H  H142  1  0.81172000  0.36729000  0.01265000  1.0
  H  H143  1  0.79203000  0.24978000  0.93634000  1.0
  H  H144  1  0.72990000  0.13470000  0.64027000  1.0
  H  H145  1  0.60438000  0.11773000  0.67209000  1.0
  H  H146  1  0.66695000  0.18556000  0.65895000  1.0
  H  H147  1  0.70487000  0.10344000  0.53890000  1.0
  H  H148  1  0.57544000  0.07716000  0.55365000  1.0
  H  H149  1  0.65093000  0.07653000  0.61242000  1.0
  H  H150  1  0.52516000  0.23958000  0.47584000  1.0
  H  H151  1  0.49325000  0.16918000  0.47919000  1.0
  H  H152  1  0.61454000  0.20404000  0.44974000  1.0
  C  C153  1  0.75308000  0.98994000  0.30951000  1.0
  C  C154  1  0.71261000  0.04880000  0.26189000  1.0
  C  C155  1  0.62423000  0.05139000  0.22930000  1.0
  C  C156  1  0.58855000  0.10701000  0.18302000  1.0
  C  C157  1  0.63992000  0.16128000  0.16870000  1.0
  C  C158  1  0.72736000  0.15794000  0.20271000  1.0
  C  C159  1  0.76379000  0.10259000  0.24866000  1.0
  C  C160  1  0.70683000  0.54652000  0.08461000  1.0
  C  C161  1  0.67347000  0.48977000  0.08553000  1.0
  C  C162  1  0.73770000  0.43869000  0.11027000  1.0
  C  C163  1  0.71018000  0.38737000  0.10742000  1.0
  C  C164  1  0.61792000  0.38556000  0.07958000  1.0
  C  C165  1  0.55388000  0.43699000  0.05514000  1.0
  C  C166  1  0.58084000  0.48829000  0.05838000  1.0
  C  C167  1  0.31194000  0.31387000  0.80570000  1.0
  C  C168  1  0.36461000  0.30292000  0.86277000  1.0
  C  C169  1  0.33951000  0.33968000  0.88769000  1.0
  C  C170  1  0.39098000  0.33313000  0.93848000  1.0
  C  C171  1  0.46831000  0.28911000  0.96664000  1.0
  C  C172  1  0.49185000  0.25183000  0.94193000  1.0
  C  C173  1  0.44145000  0.25893000  0.89042000  1.0
  C  C174  1  0.60516000  0.22080000  0.11892000  1.0
  C  C175  1  0.62183000  0.27339000  0.12258000  1.0
  C  C176  1  0.59216000  0.33096000  0.07577000  1.0
  C  C177  1  0.54156000  0.33525000  0.02510000  1.0
  C  C178  1  0.55554000  0.22657000  0.06726000  1.0
  C  C179  1  0.52232000  0.28337000  0.02037000  1.0
  C  C180  1  0.72399000  0.76862000  0.42136000  1.0
  C  C181  1  0.67775000  0.79579000  0.35890000  1.0
  C  C182  1  0.69880000  0.66550000  0.43627000  1.0
  C  C183  1  0.77824000  0.67979000  0.51622000  1.0
  C  C184  1  0.08622000  0.30945000  0.70058000  1.0
  C  C185  1  0.04571000  0.26189000  0.68927000  1.0
  C  C186  1  0.95731000  0.22929000  0.71924000  1.0
  C  C187  1  0.92175000  0.18298000  0.70994000  1.0
  C  C188  1  0.97322000  0.16864000  0.67004000  1.0
  C  C189  1  0.06064000  0.20269000  0.63934000  1.0
  C  C190  1  0.09695000  0.24866000  0.64873000  1.0
  C  C191  1  0.03970000  0.08472000  0.36879000  1.0
  C  C192  1  0.00638000  0.08562000  0.42464000  1.0
  C  C193  1  0.07074000  0.11030000  0.45098000  1.0
  C  C194  1  0.04341000  0.10739000  0.50520000  1.0
  C  C195  1  0.95116000  0.07955000  0.53489000  1.0
  C  C196  1  0.88700000  0.05518000  0.50790000  1.0
  C  C197  1  0.91379000  0.05845000  0.45332000  1.0
  C  C198  1  0.64544000  0.80559000  0.88045000  1.0
  C  C199  1  0.69793000  0.86273000  0.83434000  1.0
  C  C200  1  0.67273000  0.88767000  0.77268000  1.0
  C  C201  1  0.72404000  0.93853000  0.72843000  1.0
  C  C202  1  0.80135000  0.96670000  0.74428000  1.0
  C  C203  1  0.82488000  0.94201000  0.80627000  1.0
  C  C204  1  0.77461000  0.89046000  0.85069000  1.0
  C  C205  1  0.93856000  0.11883000  0.66034000  1.0
  C  C206  1  0.95519000  0.12250000  0.60408000  1.0
  C  C207  1  0.92547000  0.07572000  0.59331000  1.0
  C  C208  1  0.87474000  0.02509000  0.63968000  1.0
  C  C209  1  0.88889000  0.06721000  0.70622000  1.0
  C  C210  1  0.85551000  0.02037000  0.69628000  1.0
  C  C211  1  0.05731000  0.42137000  0.81004000  1.0
  C  C212  1  0.01122000  0.35888000  0.84540000  1.0
  C  C213  1  0.03213000  0.43630000  0.89824000  1.0
  C  C214  1  0.11137000  0.51631000  0.80394000  1.0
  C  C215  1  0.41966000  0.70064000  0.98992000  1.0
  C  C216  1  0.37902000  0.68939000  0.04875000  1.0
  C  C217  1  0.29057000  0.71936000  0.05134000  1.0
  C  C218  1  0.25487000  0.71000000  0.10695000  1.0
  C  C219  1  0.30627000  0.67006000  0.16122000  1.0
  C  C220  1  0.39374000  0.63940000  0.15789000  1.0
  C  C221  1  0.43017000  0.64882000  0.10255000  1.0
  C  C222  1  0.37326000  0.36888000  0.54651000  1.0
  C  C223  1  0.33993000  0.42472000  0.48974000  1.0
  C  C224  1  0.40419000  0.45103000  0.43868000  1.0
  C  C225  1  0.37669000  0.50522000  0.38735000  1.0
  C  C226  1  0.28445000  0.53488000  0.38553000  1.0
  C  C227  1  0.22040000  0.50792000  0.43695000  1.0
  C  C228  1  0.24733000  0.45338000  0.48826000  1.0
  C  C229  1  0.97865000  0.88046000  0.31391000  1.0
  C  C230  1  0.03118000  0.83434000  0.30291000  1.0
  C  C231  1  0.00601000  0.77267000  0.33964000  1.0
  C  C232  1  0.05738000  0.72842000  0.33307000  1.0
  C  C233  1  0.13468000  0.74426000  0.28905000  1.0
  C  C234  1  0.15825000  0.80626000  0.25175000  1.0
  C  C235  1  0.10795000  0.85068000  0.25887000  1.0
  C  C236  1  0.27159000  0.66032000  0.22075000  1.0
  C  C237  1  0.28834000  0.60408000  0.27334000  1.0
  C  C238  1  0.25868000  0.59329000  0.33092000  1.0
  C  C239  1  0.20801000  0.63967000  0.33520000  1.0
  C  C240  1  0.22193000  0.70620000  0.22652000  1.0
  C  C241  1  0.18873000  0.69627000  0.28332000  1.0
  C  C242  1  0.39059000  0.81005000  0.76862000  1.0
  C  C243  1  0.34430000  0.84536000  0.79575000  1.0
  C  C244  1  0.36542000  0.89825000  0.66548000  1.0
  C  C245  1  0.44483000  0.80398000  0.67980000  1.0
  C  C246  1  0.24692000  0.01006000  0.29945000  1.0
  C  C247  1  0.28739000  0.95120000  0.31069000  1.0
  C  C248  1  0.37577000  0.94861000  0.28069000  1.0
  C  C249  1  0.41146000  0.89300000  0.29003000  1.0
  C  C250  1  0.36008000  0.83872000  0.32998000  1.0
  C  C251  1  0.27264000  0.84206000  0.36065000  1.0
  C  C252  1  0.23621000  0.89741000  0.35125000  1.0
  C  C253  1  0.29317000  0.45348000  0.63113000  1.0
  C  C254  1  0.32653000  0.51023000  0.57530000  1.0
  C  C255  1  0.26230000  0.56132000  0.54895000  1.0
  C  C256  1  0.28982000  0.61263000  0.49479000  1.0
  C  C257  1  0.38208000  0.61444000  0.46514000  1.0
  C  C258  1  0.44612000  0.56301000  0.49213000  1.0
  C  C259  1  0.41916000  0.51171000  0.54667000  1.0
  C  C260  1  0.68806000  0.68613000  0.11957000  1.0
  C  C261  1  0.63539000  0.69707000  0.16570000  1.0
  C  C262  1  0.66048000  0.66032000  0.22737000  1.0
  C  C263  1  0.60902000  0.66687000  0.27161000  1.0
  C  C264  1  0.53169000  0.71088000  0.25575000  1.0
  C  C265  1  0.50815000  0.74816000  0.19376000  1.0
  C  C266  1  0.55855000  0.74107000  0.14935000  1.0
  C  C267  1  0.39484000  0.77921000  0.33971000  1.0
  C  C268  1  0.37818000  0.72661000  0.39597000  1.0
  C  C269  1  0.40784000  0.66904000  0.40673000  1.0
  C  C270  1  0.45844000  0.66475000  0.36035000  1.0
  C  C271  1  0.44446000  0.77344000  0.29382000  1.0
  C  C272  1  0.47768000  0.71663000  0.30374000  1.0
  C  C273  1  0.27601000  0.23138000  0.18998000  1.0
  C  C274  1  0.32225000  0.20421000  0.15469000  1.0
  C  C275  1  0.30121000  0.33450000  0.10177000  1.0
  C  C276  1  0.22176000  0.32021000  0.19601000  1.0
  C  C277  1  0.91378000  0.69055000  0.01004000  1.0
  C  C278  1  0.95428000  0.73811000  0.95116000  1.0
  C  C279  1  0.04268000  0.77071000  0.94853000  1.0
  C  C280  1  0.07824000  0.81702000  0.89292000  1.0
  C  C281  1  0.02677000  0.83136000  0.83868000  1.0
  C  C282  1  0.93936000  0.79731000  0.84203000  1.0
  C  C283  1  0.90304000  0.75134000  0.89739000  1.0
  C  C284  1  0.96030000  0.91529000  0.45351000  1.0
  C  C285  1  0.99362000  0.91438000  0.51026000  1.0
  C  C286  1  0.92926000  0.88970000  0.56128000  1.0
  C  C287  1  0.95659000  0.89262000  0.61258000  1.0
  C  C288  1  0.04884000  0.92045000  0.61444000  1.0
  C  C289  1  0.11299000  0.94482000  0.56308000  1.0
  C  C290  1  0.08621000  0.94155000  0.51177000  1.0
  C  C291  1  0.35456000  0.19441000  0.68604000  1.0
  C  C292  1  0.30207000  0.13729000  0.69706000  1.0
  C  C293  1  0.32727000  0.11234000  0.66034000  1.0
  C  C294  1  0.27596000  0.06147000  0.66695000  1.0
  C  C295  1  0.19865000  0.03330000  0.71098000  1.0
  C  C296  1  0.17512000  0.05799000  0.74828000  1.0
  C  C297  1  0.22540000  0.10954000  0.74115000  1.0
  C  C298  1  0.06143000  0.88117000  0.77917000  1.0
  C  C299  1  0.04481000  0.87749000  0.72659000  1.0
  C  C300  1  0.07453000  0.92428000  0.66903000  1.0
  C  C301  1  0.12526000  0.97491000  0.66477000  1.0
  C  C302  1  0.11111000  0.93279000  0.77343000  1.0
  C  C303  1  0.14449000  0.97963000  0.71665000  1.0
  C  C304  1  0.94269000  0.57862000  0.23141000  1.0
  C  C305  1  0.98877000  0.64112000  0.20427000  1.0
  C  C306  1  0.96787000  0.56369000  0.33454000  1.0
  C  C307  1  0.88863000  0.48370000  0.32024000  1.0
  C  C308  1  0.58034000  0.29936000  0.69056000  1.0
  C  C309  1  0.62098000  0.31060000  0.73814000  1.0
  C  C310  1  0.70943000  0.28065000  0.77069000  1.0
  C  C311  1  0.74513000  0.29000000  0.81695000  1.0
  C  C312  1  0.69373000  0.32994000  0.83128000  1.0
  C  C313  1  0.60626000  0.36060000  0.79729000  1.0
  C  C314  1  0.56983000  0.35117000  0.75137000  1.0
  C  C315  1  0.62675000  0.63112000  0.91540000  1.0
  C  C316  1  0.66007000  0.57528000  0.91447000  1.0
  C  C317  1  0.59582000  0.54897000  0.88971000  1.0
  C  C318  1  0.62331000  0.49478000  0.89257000  1.0
  C  C319  1  0.71555000  0.46512000  0.92041000  1.0
  C  C320  1  0.77960000  0.49208000  0.94487000  1.0
  C  C321  1  0.75267000  0.54662000  0.94164000  1.0
  C  C322  1  0.02135000  0.11954000  0.19437000  1.0
  C  C323  1  0.96882000  0.16566000  0.13725000  1.0
  C  C324  1  0.99399000  0.22733000  0.11231000  1.0
  C  C325  1  0.94262000  0.27159000  0.06148000  1.0
  C  C326  1  0.86533000  0.25574000  0.03331000  1.0
  C  C327  1  0.84175000  0.19374000  0.05801000  1.0
  C  C328  1  0.89205000  0.14932000  0.10955000  1.0
  C  C329  1  0.72841000  0.33968000  0.88107000  1.0
  C  C330  1  0.71166000  0.39593000  0.87741000  1.0
  C  C331  1  0.74132000  0.40670000  0.92421000  1.0
  C  C332  1  0.79199000  0.36033000  0.97487000  1.0
  C  C333  1  0.77808000  0.29381000  0.93271000  1.0
  C  C334  1  0.81127000  0.30373000  0.97959000  1.0
  C  C335  1  0.60940000  0.18996000  0.57867000  1.0
  C  C336  1  0.65570000  0.15465000  0.64111000  1.0
  C  C337  1  0.63458000  0.10175000  0.56373000  1.0
  C  C338  1  0.55517000  0.19602000  0.48378000  1.0
  N  N339  1  0.73542000  0.70763000  0.45510000  1.0
  N  N340  1  0.06864000  0.45517000  0.83725000  1.0
  N  N341  1  0.40201000  0.83728000  0.70762000  1.0
  N  N342  1  0.26458000  0.29237000  0.16273000  1.0
  N  N343  1  0.93136000  0.54483000  0.29242000  1.0
  N  N344  1  0.59799000  0.16272000  0.54490000  1.0
  O  O345  1  0.69684000  0.94193000  0.33462000  1.0
  O  O346  1  0.84558000  0.98512000  0.32818000  1.0
  O  O347  1  0.79764000  0.54460000  0.10562000  1.0
  O  O348  1  0.64613000  0.59135000  0.06379000  1.0
  O  O349  1  0.23136000  0.34746000  0.79256000  1.0
  O  O350  1  0.34989000  0.29177000  0.77517000  1.0
  O  O351  1  0.75220000  0.80183000  0.44274000  1.0
  O  O352  1  0.03001000  0.33456000  0.72349000  1.0
  O  O353  1  0.17876000  0.32804000  0.68681000  1.0
  O  O354  1  0.13045000  0.10583000  0.34968000  1.0
  O  O355  1  0.97907000  0.06381000  0.34484000  1.0
  O  O356  1  0.56505000  0.79234000  0.85996000  1.0
  O  O357  1  0.68333000  0.77510000  0.93311000  1.0
  O  O358  1  0.08550000  0.44274000  0.75546000  1.0
  O  O359  1  0.36353000  0.72356000  0.94186000  1.0
  O  O360  1  0.51218000  0.68676000  0.98520000  1.0
  O  O361  1  0.46409000  0.34981000  0.54458000  1.0
  O  O362  1  0.31254000  0.34489000  0.59133000  1.0
  O  O363  1  0.89821000  0.85997000  0.34761000  1.0
  O  O364  1  0.01655000  0.93311000  0.29177000  1.0
  O  O365  1  0.41888000  0.75548000  0.80183000  1.0
  O  O366  1  0.30315000  0.05807000  0.27655000  1.0
  O  O367  1  0.15442000  0.01488000  0.31330000  1.0
  O  O368  1  0.20235000  0.45541000  0.65021000  1.0
  O  O369  1  0.35386000  0.40864000  0.65514000  1.0
  O  O370  1  0.76864000  0.65253000  0.14002000  1.0
  O  O371  1  0.65012000  0.70823000  0.06694000  1.0
  O  O372  1  0.24780000  0.19817000  0.24457000  1.0
  O  O373  1  0.96999000  0.66544000  0.05805000  1.0
  O  O374  1  0.82125000  0.67195000  0.01486000  1.0
  O  O375  1  0.86955000  0.89417000  0.45551000  1.0
  O  O376  1  0.02093000  0.93620000  0.40864000  1.0
  O  O377  1  0.43495000  0.20766000  0.65230000  1.0
  O  O378  1  0.31668000  0.22490000  0.70821000  1.0
  O  O379  1  0.91450000  0.55727000  0.19819000  1.0
  O  O380  1  0.63647000  0.27644000  0.66542000  1.0
  O  O381  1  0.48783000  0.31324000  0.67196000  1.0
  O  O382  1  0.53592000  0.65019000  0.89440000  1.0
  O  O383  1  0.68747000  0.65512000  0.93622000  1.0
  O  O384  1  0.10179000  0.14003000  0.20758000  1.0
  O  O385  1  0.98344000  0.06689000  0.22488000  1.0
  O  O386  1  0.58112000  0.24452000  0.55731000  1.0
