# generated using pymatgen
data_NiAg2H16(C6O5)2
_symmetry_space_group_name_H-M   'P 1'
_cell_length_a   6.52624000
_cell_length_b   7.03169000
_cell_length_c   8.83988000
_cell_angle_alpha   92.98400000
_cell_angle_beta   102.14600000
_cell_angle_gamma   105.08800000
_symmetry_Int_Tables_number   1
_chemical_formula_structural   NiAg2H16(C6O5)2
_chemical_formula_sum   'Ni1 Ag2 H16 C12 O10'
_cell_volume   380.45395110
_cell_formula_units_Z   1
loop_
 _symmetry_equiv_pos_site_id
 _symmetry_equiv_pos_as_xyz
  1  'x, y, z'
loop_
 _atom_site_type_symbol
 _atom_site_label
 _atom_site_symmetry_multiplicity
 _atom_site_fract_x
 _atom_site_fract_y
 _atom_site_fract_z
 _atom_site_occupancy
  Ni  Ni0  1  0.50000000  0.50000000  0.50000000  1.0
  Ag  Ag1  1  0.98745000  0.82405000  0.56913000  1.0
  Ag  Ag2  1  0.01255000  0.17594000  0.43087000  1.0
  H  H3  1  0.73724000  0.49245000  0.29653000  1.0
  H  H4  1  0.26276000  0.50755000  0.70347000  1.0
  H  H5  1  0.60166000  0.27082000  0.30668000  1.0
  H  H6  1  0.39834000  0.72918000  0.69332000  1.0
  H  H7  1  0.69091000  0.47437000  0.92569000  1.0
  H  H8  1  0.30909000  0.52563000  0.07431000  1.0
  H  H9  1  0.48678000  0.25254000  0.93126000  1.0
  H  H10  1  0.51322000  0.74746000  0.06873000  1.0
  H  H11  1  0.77692000  0.14381000  0.10650000  1.0
  H  H12  1  0.22308000  0.85619000  0.89350000  1.0
  H  H13  1  0.98304000  0.30872000  0.03436000  1.0
  H  H14  1  0.01696000  0.69128000  0.96564000  1.0
  H  H15  1  0.65143000  0.92795000  0.85550000  1.0
  H  H16  1  0.34857000  0.07205000  0.14450000  1.0
  H  H17  1  0.91676000  0.03597000  0.82230000  1.0
  H  H18  1  0.08324000  0.96403000  0.17770000  1.0
  C  C19  1  0.84787000  0.36077000  0.69437000  1.0
  C  C20  1  0.15212000  0.63923000  0.30563000  1.0
  C  C21  1  0.67489000  0.21106000  0.75575000  1.0
  C  C22  1  0.32511000  0.78894000  0.24425000  1.0
  C  C23  1  0.45232000  0.12307000  0.64592000  1.0
  C  C24  1  0.54768000  0.87693000  0.35408000  1.0
  C  C25  1  0.65218000  0.31246000  0.91429000  1.0
  C  C26  1  0.34782000  0.68754000  0.08571000  1.0
  C  C27  1  0.81620000  0.21061000  0.00339000  1.0
  C  C28  1  0.18380000  0.78939000  0.99661000  1.0
  C  C29  1  0.77474000  0.06693000  0.85483000  1.0
  C  C30  1  0.22526000  0.93308000  0.14517000  1.0
  O  O31  1  0.79627000  0.50646000  0.62926000  1.0
  O  O32  1  0.20373000  0.49355000  0.37074000  1.0
  O  O33  1  0.03839000  0.34082000  0.71946000  1.0
  O  O34  1  0.96162000  0.65918000  0.28054000  1.0
  O  O35  1  0.37660000  0.21795000  0.53796000  1.0
  O  O36  1  0.62340000  0.78206000  0.46204000  1.0
  O  O37  1  0.33948000  0.95662000  0.67236000  1.0
  O  O38  1  0.66053000  0.04339000  0.32764000  1.0
  O  O39  1  0.58945000  0.40754000  0.30195000  1.0
  O  O40  1  0.41055000  0.59246000  0.69805000  1.0
