# generated using pymatgen
data_Cu4H18C12IN9
_symmetry_space_group_name_H-M   'P 1'
_cell_length_a   8.51111000
_cell_length_b   11.69180000
_cell_length_c   11.69180000
_cell_angle_alpha   60.00000000
_cell_angle_beta   89.99990000
_cell_angle_gamma   89.99990000
_symmetry_Int_Tables_number   1
_chemical_formula_structural   Cu4H18C12IN9
_chemical_formula_sum   'Cu8 H36 C24 I2 N18'
_cell_volume   1007.58012119
_cell_formula_units_Z   2
loop_
 _symmetry_equiv_pos_site_id
 _symmetry_equiv_pos_as_xyz
  1  'x, y, z'
loop_
 _atom_site_type_symbol
 _atom_site_label
 _atom_site_symmetry_multiplicity
 _atom_site_fract_x
 _atom_site_fract_y
 _atom_site_fract_z
 _atom_site_occupancy
  Cu  Cu0  1  0.39116000  0.33333333  0.33333333  1.0
  Cu  Cu1  1  0.89116000  0.66666667  0.66666667  1.0
  Cu  Cu2  1  0.17611000  0.15561000  0.60556000  1.0
  Cu  Cu3  1  0.17611000  0.23883000  0.15561000  1.0
  Cu  Cu4  1  0.17611000  0.60556000  0.23884000  1.0
  Cu  Cu5  1  0.67611000  0.84439000  0.39444000  1.0
  Cu  Cu6  1  0.67611000  0.76117000  0.84439000  1.0
  Cu  Cu7  1  0.67611000  0.39443000  0.76117000  1.0
  H  H8  1  0.23425000  0.15138000  0.85349000  1.0
  H  H9  1  0.23425000  0.99513000  0.15138000  1.0
  H  H10  1  0.23425000  0.85349000  0.99513000  1.0
  H  H11  1  0.73425000  0.84862000  0.14651000  1.0
  H  H12  1  0.73425000  0.00487000  0.84862000  1.0
  H  H13  1  0.73425000  0.14651000  0.00487000  1.0
  H  H14  1  0.30034000  0.29076000  0.86357000  1.0
  H  H15  1  0.30034000  0.84567000  0.29076000  1.0
  H  H16  1  0.30034000  0.86357000  0.84567000  1.0
  H  H17  1  0.80034000  0.70924000  0.13643000  1.0
  H  H18  1  0.80034000  0.15433000  0.70924000  1.0
  H  H19  1  0.80034000  0.13643000  0.15433000  1.0
  H  H20  1  0.42192000  0.14966000  0.92309000  1.0
  H  H21  1  0.42192000  0.92725000  0.14966000  1.0
  H  H22  1  0.42192000  0.92309000  0.92725000  1.0
  H  H23  1  0.92192000  0.85034000  0.07691000  1.0
  H  H24  1  0.92192000  0.07275000  0.85034000  1.0
  H  H25  1  0.92192000  0.07690000  0.07276000  1.0
  H  H26  1  0.67212000  0.46667000  0.35557000  1.0
  H  H27  1  0.67213000  0.17776000  0.46667000  1.0
  H  H28  1  0.67213000  0.35557000  0.17776000  1.0
  H  H29  1  0.17212000  0.53333000  0.64443000  1.0
  H  H30  1  0.17213000  0.82224000  0.53333000  1.0
  H  H31  1  0.17212000  0.64444000  0.82223000  1.0
  H  H32  1  0.80184000  0.41248000  0.49271000  1.0
  H  H33  1  0.80184000  0.09481000  0.41248000  1.0
  H  H34  1  0.80184000  0.49270000  0.09481000  1.0
  H  H35  1  0.30184000  0.58751000  0.50730000  1.0
  H  H36  1  0.30184000  0.90520000  0.58751000  1.0
  H  H37  1  0.30184000  0.50730000  0.90519000  1.0
  H  H38  1  0.68330000  0.55386000  0.44479000  1.0
  H  H39  1  0.68330000  0.00135000  0.55386000  1.0
  H  H40  1  0.68330000  0.44479000  0.00135000  1.0
  H  H41  1  0.18330000  0.44614000  0.55521000  1.0
  H  H42  1  0.18330000  0.99865000  0.44614000  1.0
  H  H43  1  0.18329000  0.55521000  0.99865000  1.0
  C  C44  1  0.40822000  0.26582000  0.71206000  1.0
  C  C45  1  0.40822000  0.02212000  0.26582000  1.0
  C  C46  1  0.40822000  0.71206000  0.02212000  1.0
  C  C47  1  0.90822000  0.73418000  0.28794000  1.0
  C  C48  1  0.90822000  0.97788000  0.73418000  1.0
  C  C49  1  0.90822000  0.28794000  0.97788000  1.0
  C  C50  1  0.33754000  0.21132000  0.84516000  1.0
  C  C51  1  0.33754000  0.94352000  0.21132000  1.0
  C  C52  1  0.33754000  0.84517000  0.94352000  1.0
  C  C53  1  0.83754000  0.78868000  0.15484000  1.0
  C  C54  1  0.83754000  0.05648000  0.78868000  1.0
  C  C55  1  0.83754000  0.15484000  0.05648000  1.0
  C  C56  1  0.55742000  0.37287000  0.54130000  1.0
  C  C57  1  0.55742000  0.08583000  0.37287000  1.0
  C  C58  1  0.55742000  0.54130000  0.08583000  1.0
  C  C59  1  0.05742000  0.62713000  0.45870000  1.0
  C  C60  1  0.05742000  0.91417000  0.62713000  1.0
  C  C61  1  0.05742000  0.45870000  0.91417000  1.0
  C  C62  1  0.68574000  0.45581000  0.45370000  1.0
  C  C63  1  0.68574000  0.09050000  0.45580000  1.0
  C  C64  1  0.68574000  0.45371000  0.09049000  1.0
  C  C65  1  0.18574000  0.54419000  0.54630000  1.0
  C  C66  1  0.18574000  0.90950000  0.54420000  1.0
  C  C67  1  0.18574000  0.54630000  0.90950000  1.0
  I  I68  1  0.07118000  0.33333333  0.33333333  1.0
  I  I69  1  0.57117000  0.66666667  0.66666667  1.0
  N  N70  1  0.44255000  0.31999000  0.50516000  1.0
  N  N71  1  0.44255000  0.17485000  0.31999000  1.0
  N  N72  1  0.44255000  0.50516000  0.17485000  1.0
  N  N73  1  0.94255000  0.68001000  0.49484000  1.0
  N  N74  1  0.94255000  0.82516000  0.68001000  1.0
  N  N75  1  0.94255000  0.49484000  0.82515000  1.0
  N  N76  1  0.34769000  0.25114000  0.61427000  1.0
  N  N77  1  0.34769000  0.13459000  0.25114000  1.0
  N  N78  1  0.34769000  0.61428000  0.13458000  1.0
  N  N79  1  0.84769000  0.74887000  0.38572000  1.0
  N  N80  1  0.84769000  0.86542000  0.74886000  1.0
  N  N81  1  0.84769000  0.38573000  0.86541000  1.0
  N  N82  1  0.53973000  0.34140000  0.67006000  1.0
  N  N83  1  0.53973000  0.98854000  0.34140000  1.0
  N  N84  1  0.53973000  0.67006000  0.98854000  1.0
  N  N85  1  0.03973000  0.65860000  0.32994000  1.0
  N  N86  1  0.03973000  0.01147000  0.65859000  1.0
  N  N87  1  0.03973000  0.32995000  0.01146000  1.0
