# generated using pymatgen
data_Gd2H20C28N2O17
_symmetry_space_group_name_H-M   'P 1'
_cell_length_a   10.23630000
_cell_length_b   12.16340000
_cell_length_c   13.05850000
_cell_angle_alpha   74.04630000
_cell_angle_beta   75.48170000
_cell_angle_gamma   70.92480000
_symmetry_Int_Tables_number   1
_chemical_formula_structural   Gd2H20C28N2O17
_chemical_formula_sum   'Gd4 H40 C56 N4 O34'
_cell_volume   1454.09508194
_cell_formula_units_Z   2
loop_
 _symmetry_equiv_pos_site_id
 _symmetry_equiv_pos_as_xyz
  1  'x, y, z'
loop_
 _atom_site_type_symbol
 _atom_site_label
 _atom_site_symmetry_multiplicity
 _atom_site_fract_x
 _atom_site_fract_y
 _atom_site_fract_z
 _atom_site_occupancy
  Gd  Gd0  1  0.79749000  0.78234000  0.89691000  1.0
  Gd  Gd1  1  0.20251000  0.21766000  0.10309000  1.0
  Gd  Gd2  1  0.19272000  0.71743000  0.05126000  1.0
  Gd  Gd3  1  0.80728000  0.28257000  0.94875000  1.0
  H  H4  1  0.72062000  0.01544000  0.96763000  1.0
  H  H5  1  0.27938000  0.98456000  0.03237000  1.0
  H  H6  1  0.87716000  0.95807000  0.97455000  1.0
  H  H7  1  0.12284000  0.04193000  0.02545000  1.0
  H  H8  1  0.31456000  0.53336000  0.23020000  1.0
  H  H9  1  0.68544000  0.46664000  0.76980000  1.0
  H  H10  1  0.30672000  0.46249000  0.14397000  1.0
  H  H11  1  0.69329000  0.53751000  0.85603000  1.0
  H  H12  1  0.26458000  0.50505000  0.94490000  1.0
  H  H13  1  0.73542000  0.49494000  0.05511000  1.0
  H  H14  1  0.11303000  0.57787000  0.92618000  1.0
  H  H15  1  0.88697000  0.42213000  0.07382000  1.0
  H  H16  1  0.00823000  0.36743000  0.43084000  1.0
  H  H17  1  0.99177000  0.63256000  0.56916000  1.0
  H  H18  1  0.82889000  0.48770000  0.55798000  1.0
  H  H19  1  0.17111000  0.51230000  0.44202000  1.0
  H  H20  1  0.66000000  0.67498000  0.48057000  1.0
  H  H21  1  0.34000000  0.32502000  0.51943000  1.0
  H  H22  1  0.58897000  0.05704000  0.17875000  1.0
  H  H23  1  0.41104000  0.94296000  0.82125000  1.0
  H  H24  1  0.77695000  0.87231000  0.21608000  1.0
  H  H25  1  0.22306000  0.12769000  0.78392000  1.0
  H  H26  1  0.49189000  0.66675000  0.32635000  1.0
  H  H27  1  0.50811000  0.33326000  0.67365000  1.0
  H  H28  1  0.29105000  0.84454000  0.29381000  1.0
  H  H29  1  0.70895000  0.15547000  0.70618000  1.0
  H  H30  1  0.97293000  0.25232000  0.58612000  1.0
  H  H31  1  0.02707000  0.74768000  0.41389000  1.0
  H  H32  1  0.13019000  0.17716000  0.42193000  1.0
  H  H33  1  0.86981000  0.82284000  0.57807000  1.0
  H  H34  1  0.28964000  0.97025000  0.44916000  1.0
  H  H35  1  0.71036000  0.02975000  0.55084000  1.0
  H  H36  1  0.63489000  0.68262000  0.69347000  1.0
  H  H37  1  0.36511000  0.31738000  0.30653000  1.0
  H  H38  1  0.45957000  0.88030000  0.66224000  1.0
  H  H39  1  0.54043000  0.11970000  0.33776000  1.0
  H  H40  1  0.17172000  0.73817000  0.60638000  1.0
  H  H41  1  0.82828000  0.26183000  0.39362000  1.0
  H  H42  1  0.33628000  0.53357000  0.63086000  1.0
  H  H43  1  0.66372000  0.46643000  0.36914000  1.0
  C  C44  1  0.86516000  0.65023000  0.12471000  1.0
  C  C45  1  0.13485000  0.34977000  0.87529000  1.0
  C  C46  1  0.03854000  0.40010000  0.22047000  1.0
  C  C47  1  0.96146000  0.59990000  0.77953000  1.0
  C  C48  1  0.85359000  0.59651000  0.24401000  1.0
  C  C49  1  0.14641000  0.40349000  0.75599000  1.0
  C  C50  1  0.94388000  0.48746000  0.28797000  1.0
  C  C51  1  0.05612000  0.51254000  0.71203000  1.0
  C  C52  1  0.93529000  0.45113000  0.40031000  1.0
  C  C53  1  0.06472000  0.54887000  0.59968000  1.0
  C  C54  1  0.83621000  0.51790000  0.47062000  1.0
  C  C55  1  0.16379000  0.48209000  0.52938000  1.0
  C  C56  1  0.74151000  0.62223000  0.42786000  1.0
  C  C57  1  0.25849000  0.37777000  0.57214000  1.0
  C  C58  1  0.74963000  0.65994000  0.31596000  1.0
  C  C59  1  0.25037000  0.34006000  0.68404000  1.0
  C  C60  1  0.56088000  0.97410000  0.21477000  1.0
  C  C61  1  0.43912000  0.02590000  0.78524000  1.0
  C  C62  1  0.66746000  0.87223000  0.23460000  1.0
  C  C63  1  0.33255000  0.12778000  0.76540000  1.0
  C  C64  1  0.50613000  0.75610000  0.29849000  1.0
  C  C65  1  0.49388000  0.24390000  0.70151000  1.0
  C  C66  1  0.39600000  0.85528000  0.27982000  1.0
  C  C67  1  0.60400000  0.14473000  0.72018000  1.0
  C  C68  1  0.41758000  0.97118000  0.23900000  1.0
  C  C69  1  0.58242000  0.02883000  0.76100000  1.0
  C  C70  1  0.47496000  0.80092000  0.00604000  1.0
  C  C71  1  0.52504000  0.19908000  0.99396000  1.0
  C  C72  1  0.51845000  0.69107000  0.95456000  1.0
  C  C73  1  0.48155000  0.30893000  0.04544000  1.0
  C  C74  1  0.10823000  0.87981000  0.81687000  1.0
  C  C75  1  0.89177000  0.12019000  0.18314000  1.0
  C  C76  1  0.94938000  0.14529000  0.78973000  1.0
  C  C77  1  0.05061000  0.85471000  0.21027000  1.0
  C  C78  1  0.12093000  0.96988000  0.71128000  1.0
  C  C79  1  0.87907000  0.03012000  0.28872000  1.0
  C  C80  1  0.03637000  0.08848000  0.69688000  1.0
  C  C81  1  0.96363000  0.91152000  0.30312000  1.0
  C  C82  1  0.04056000  0.16138000  0.59285000  1.0
  C  C83  1  0.95944000  0.83862000  0.40715000  1.0
  C  C84  1  0.12837000  0.12023000  0.50279000  1.0
  C  C85  1  0.87163000  0.87977000  0.49722000  1.0
  C  C86  1  0.21751000  0.00469000  0.51741000  1.0
  C  C87  1  0.78249000  0.99531000  0.48259000  1.0
  C  C88  1  0.21340000  0.93197000  0.62063000  1.0
  C  C89  1  0.78660000  0.06803000  0.37937000  1.0
  C  C90  1  0.53409000  0.69003000  0.67457000  1.0
  C  C91  1  0.46591000  0.30997000  0.32543000  1.0
  C  C92  1  0.43936000  0.79943000  0.65782000  1.0
  C  C93  1  0.56064000  0.20057000  0.34218000  1.0
  C  C94  1  0.27579000  0.71886000  0.62505000  1.0
  C  C95  1  0.72422000  0.28114000  0.37495000  1.0
  C  C96  1  0.36683000  0.60753000  0.63966000  1.0
  C  C97  1  0.63317000  0.39247000  0.36034000  1.0
  C  C98  1  0.50119000  0.58539000  0.66878000  1.0
  C  C99  1  0.49881000  0.41461000  0.33122000  1.0
  N  N100  1  0.64108000  0.76440000  0.27836000  1.0
  N  N101  1  0.35892000  0.23560000  0.72164000  1.0
  N  N102  1  0.31053000  0.81450000  0.63473000  1.0
  N  N103  1  0.68948000  0.18550000  0.36527000  1.0
  O  O104  1  0.96471000  0.69793000  0.07945000  1.0
  O  O105  1  0.03529000  0.30207000  0.92055000  1.0
  O  O106  1  0.76938000  0.65556000  0.07703000  1.0
  O  O107  1  0.23062000  0.34444000  0.92297000  1.0
  O  O108  1  0.03135000  0.41810000  0.12033000  1.0
  O  O109  1  0.96865000  0.58189000  0.87967000  1.0
  O  O110  1  0.11998000  0.30504000  0.26571000  1.0
  O  O111  1  0.88002000  0.69496000  0.73429000  1.0
  O  O112  1  0.31408000  0.06551000  0.22616000  1.0
  O  O113  1  0.68592000  0.93449000  0.77384000  1.0
  O  O114  1  0.56460000  0.85517000  0.99438000  1.0
  O  O115  1  0.43539000  0.14483000  0.00562000  1.0
  O  O116  1  0.34752000  0.82960000  0.05405000  1.0
  O  O117  1  0.65247000  0.17040000  0.94595000  1.0
  O  O118  1  0.64448000  0.66395000  0.90336000  1.0
  O  O119  1  0.35552000  0.33605000  0.09664000  1.0
  O  O120  1  0.42749000  0.63866000  0.96442000  1.0
  O  O121  1  0.57251000  0.36134000  0.03558000  1.0
  O  O122  1  0.01075000  0.83104000  0.83224000  1.0
  O  O123  1  0.98925000  0.16896000  0.16776000  1.0
  O  O124  1  0.19608000  0.85467000  0.87846000  1.0
  O  O125  1  0.80392000  0.14533000  0.12154000  1.0
  O  O126  1  0.96376000  0.09325000  0.88744000  1.0
  O  O127  1  0.03624000  0.90675000  0.11256000  1.0
  O  O128  1  0.86772000  0.24986000  0.76712000  1.0
  O  O129  1  0.13228000  0.75014000  0.23288000  1.0
  O  O130  1  0.58460000  0.48103000  0.68674000  1.0
  O  O131  1  0.41540000  0.51897000  0.31326000  1.0
  O  O132  1  0.79056000  0.93641000  0.98180000  1.0
  O  O133  1  0.20944000  0.06359000  0.01820000  1.0
  O  O134  1  0.26343000  0.53773000  0.17122000  1.0
  O  O135  1  0.73657000  0.46227000  0.82878000  1.0
  O  O136  1  0.19970000  0.58457000  0.94214000  1.0
  O  O137  1  0.80030000  0.41543000  0.05786000  1.0
