# generated using pymatgen
data_ZnPH9C8N2O3
_symmetry_space_group_name_H-M   'P 1'
_cell_length_a   5.15964000
_cell_length_b   10.49460000
_cell_length_c   17.76760000
_cell_angle_alpha   89.99950000
_cell_angle_beta   89.99990000
_cell_angle_gamma   89.99990000
_symmetry_Int_Tables_number   1
_chemical_formula_structural   ZnPH9C8N2O3
_chemical_formula_sum   'Zn4 P4 H36 C32 N8 O12'
_cell_volume   962.08636457
_cell_formula_units_Z   4
loop_
 _symmetry_equiv_pos_site_id
 _symmetry_equiv_pos_as_xyz
  1  'x, y, z'
loop_
 _atom_site_type_symbol
 _atom_site_label
 _atom_site_symmetry_multiplicity
 _atom_site_fract_x
 _atom_site_fract_y
 _atom_site_fract_z
 _atom_site_occupancy
  Zn  Zn0  1  0.39181000  0.31717000  0.59360000  1.0
  Zn  Zn1  1  0.10821000  0.68284000  0.09361000  1.0
  Zn  Zn2  1  0.60821000  0.81717000  0.90639000  1.0
  Zn  Zn3  1  0.89179000  0.18284000  0.40639000  1.0
  P  P4  1  0.89215000  0.15073000  0.59385000  1.0
  P  P5  1  0.60787000  0.84927000  0.09386000  1.0
  P  P6  1  0.10787000  0.65073000  0.90614000  1.0
  P  P7  1  0.39214000  0.34927000  0.40614000  1.0
  H  H8  1  0.81742000  0.03456000  0.62728000  1.0
  H  H9  1  0.68262000  0.96544000  0.12728000  1.0
  H  H10  1  0.18262000  0.53456000  0.87272000  1.0
  H  H11  1  0.31739000  0.46545000  0.37272000  1.0
  H  H12  1  0.29935000  0.69494000  0.77220000  1.0
  H  H13  1  0.20066000  0.30505000  0.27220000  1.0
  H  H14  1  0.70065000  0.19495000  0.72779000  1.0
  H  H15  1  0.79934000  0.80505000  0.22781000  1.0
  H  H16  1  0.91993000  0.47305000  0.52079000  1.0
  H  H17  1  0.58009000  0.52695000  0.02079000  1.0
  H  H18  1  0.08007000  0.97307000  0.97921000  1.0
  H  H19  1  0.41990000  0.02694000  0.47921000  1.0
  H  H20  1  0.60367000  0.65103000  0.50380000  1.0
  H  H21  1  0.89634000  0.34896000  0.00380000  1.0
  H  H22  1  0.39631000  0.15106000  0.99620000  1.0
  H  H23  1  0.10365000  0.84895000  0.49621000  1.0
  H  H24  1  0.60040000  0.83569000  0.58886000  1.0
  H  H25  1  0.89959000  0.16429000  0.08886000  1.0
  H  H26  1  0.39957000  0.33572000  0.91114000  1.0
  H  H27  1  0.10041000  0.66428000  0.41114000  1.0
  H  H28  1  0.90853000  0.84828000  0.69852000  1.0
  H  H29  1  0.59143000  0.15169000  0.19851000  1.0
  H  H30  1  0.09143000  0.34831000  0.80149000  1.0
  H  H31  1  0.40857000  0.65170000  0.30149000  1.0
  H  H32  1  0.52900000  0.38915000  0.78286000  1.0
  H  H33  1  0.97101000  0.61085000  0.28286000  1.0
  H  H34  1  0.47101000  0.88915000  0.71714000  1.0
  H  H35  1  0.02898000  0.11085000  0.21714000  1.0
  H  H36  1  0.66908000  0.54293000  0.79481000  1.0
  H  H37  1  0.83095000  0.45707000  0.29482000  1.0
  H  H38  1  0.33095000  0.04293000  0.70518000  1.0
  H  H39  1  0.16904000  0.95707000  0.20518000  1.0
  H  H40  1  0.75636000  0.44450000  0.71607000  1.0
  H  H41  1  0.74365000  0.55549000  0.21607000  1.0
  H  H42  1  0.24365000  0.94451000  0.78393000  1.0
  H  H43  1  0.25634000  0.05549000  0.28393000  1.0
  C  C44  1  0.09032000  0.56149000  0.61974000  1.0
  C  C45  1  0.40969000  0.43850000  0.11973000  1.0
  C  C46  1  0.90967000  0.06151000  0.88027000  1.0
  C  C47  1  0.59030000  0.93850000  0.38027000  1.0
  C  C48  1  0.08358000  0.66722000  0.66924000  1.0
  C  C49  1  0.41642000  0.33277000  0.16923000  1.0
  C  C50  1  0.91640000  0.16724000  0.83076000  1.0
  C  C51  1  0.58358000  0.83277000  0.33077000  1.0
  C  C52  1  0.38601000  0.53007000  0.70716000  1.0
  C  C53  1  0.11401000  0.46992000  0.20716000  1.0
  C  C54  1  0.61400000  0.03008000  0.79284000  1.0
  C  C55  1  0.88598000  0.96992000  0.29284000  1.0
  C  C56  1  0.91745000  0.55394000  0.55912000  1.0
  C  C57  1  0.58258000  0.44606000  0.05911000  1.0
  C  C58  1  0.08255000  0.05396000  0.94088000  1.0
  C  C59  1  0.41742000  0.94605000  0.44089000  1.0
  C  C60  1  0.74258000  0.65403000  0.54997000  1.0
  C  C61  1  0.75743000  0.34597000  0.04996000  1.0
  C  C62  1  0.25741000  0.15405000  0.95003000  1.0
  C  C63  1  0.24256000  0.84595000  0.45004000  1.0
  C  C64  1  0.73943000  0.75944000  0.59909000  1.0
  C  C65  1  0.76056000  0.24055000  0.09908000  1.0
  C  C66  1  0.26055000  0.25946000  0.90092000  1.0
  C  C67  1  0.23944000  0.74055000  0.40092000  1.0
  C  C68  1  0.90994000  0.76783000  0.65979000  1.0
  C  C69  1  0.59004000  0.23215000  0.15978000  1.0
  C  C70  1  0.09003000  0.26785000  0.84021000  1.0
  C  C71  1  0.40996000  0.73216000  0.34022000  1.0
  C  C72  1  0.59743000  0.47451000  0.75306000  1.0
  C  C73  1  0.90259000  0.52548000  0.25306000  1.0
  C  C74  1  0.40259000  0.97452000  0.74694000  1.0
  C  C75  1  0.09740000  0.02548000  0.24695000  1.0
  N  N76  1  0.28143000  0.47773000  0.64539000  1.0
  N  N77  1  0.21859000  0.52227000  0.14539000  1.0
  N  N78  1  0.71858000  0.97775000  0.85461000  1.0
  N  N79  1  0.78140000  0.02226000  0.35461000  1.0
  N  N80  1  0.27194000  0.64365000  0.72294000  1.0
  N  N81  1  0.22806000  0.35634000  0.22293000  1.0
  N  N82  1  0.72805000  0.14367000  0.77706000  1.0
  N  N83  1  0.77193000  0.85634000  0.27707000  1.0
  O  O84  1  0.72642000  0.25588000  0.63283000  1.0
  O  O85  1  0.77361000  0.74412000  0.13283000  1.0
  O  O86  1  0.27360000  0.75589000  0.86717000  1.0
  O  O87  1  0.22640000  0.24412000  0.36717000  1.0
  O  O88  1  0.83038000  0.13716000  0.51067000  1.0
  O  O89  1  0.66962000  0.86283000  0.01067000  1.0
  O  O90  1  0.16963000  0.63717000  0.98933000  1.0
  O  O91  1  0.33039000  0.36284000  0.48933000  1.0
  O  O92  1  0.17925000  0.16511000  0.61415000  1.0
  O  O93  1  0.32078000  0.83490000  0.11415000  1.0
  O  O94  1  0.82078000  0.66511000  0.88585000  1.0
  O  O95  1  0.67923000  0.33490000  0.38585000  1.0
