# generated using pymatgen
data_Cu2H22WC14(SN)4
_symmetry_space_group_name_H-M   'P 1'
_cell_length_a   9.10304000
_cell_length_b   9.14504000
_cell_length_c   13.57390000
_cell_angle_alpha   86.27070000
_cell_angle_beta   82.14410000
_cell_angle_gamma   65.77200000
_symmetry_Int_Tables_number   1
_chemical_formula_structural   Cu2H22WC14(SN)4
_chemical_formula_sum   'Cu4 H44 W2 C28 S8 N8'
_cell_volume   1020.74403090
_cell_formula_units_Z   2
loop_
 _symmetry_equiv_pos_site_id
 _symmetry_equiv_pos_as_xyz
  1  'x, y, z'
loop_
 _atom_site_type_symbol
 _atom_site_label
 _atom_site_symmetry_multiplicity
 _atom_site_fract_x
 _atom_site_fract_y
 _atom_site_fract_z
 _atom_site_occupancy
  Cu  Cu0  1  0.55199000  0.77981000  0.64762000  1.0
  Cu  Cu1  1  0.44801000  0.22019000  0.35238000  1.0
  Cu  Cu2  1  0.25953000  0.44705000  0.85502000  1.0
  Cu  Cu3  1  0.74047000  0.55294000  0.14498000  1.0
  H  H4  1  0.41613000  0.11532000  0.69688000  1.0
  H  H5  1  0.58386000  0.88468000  0.30312000  1.0
  H  H6  1  0.45226000  0.28634000  0.64966000  1.0
  H  H7  1  0.54773000  0.71366000  0.35034000  1.0
  H  H8  1  0.57456000  0.15563000  0.73516000  1.0
  H  H9  1  0.42544000  0.84437000  0.26484000  1.0
  H  H10  1  0.72208000  0.22885000  0.50394000  1.0
  H  H11  1  0.27791000  0.77115000  0.49606000  1.0
  H  H12  1  0.05012000  0.85257000  0.37877000  1.0
  H  H13  1  0.94987000  0.14743000  0.62124000  1.0
  H  H14  1  0.95798000  0.06223000  0.35403000  1.0
  H  H15  1  0.04202000  0.93777000  0.64597000  1.0
  H  H16  1  0.89320000  0.93228000  0.29933000  1.0
  H  H17  1  0.10680000  0.06772000  0.70067000  1.0
  H  H18  1  0.87214000  0.69363000  0.37835000  1.0
  H  H19  1  0.12785000  0.30637000  0.62164000  1.0
  H  H20  1  0.73158000  0.65343000  0.46674000  1.0
  H  H21  1  0.26842000  0.34657000  0.53326000  1.0
  H  H22  1  0.92040000  0.59531000  0.59632000  1.0
  H  H23  1  0.07960000  0.40469000  0.40367000  1.0
  H  H24  1  0.06470000  0.62935000  0.50759000  1.0
  H  H25  1  0.93530000  0.37065000  0.49241000  1.0
  H  H26  1  0.94668000  0.50920000  0.80227000  1.0
  H  H27  1  0.05333000  0.49079000  0.19773000  1.0
  H  H28  1  0.78423000  0.45218000  0.85047000  1.0
  H  H29  1  0.21577000  0.54782000  0.14952000  1.0
  H  H30  1  0.94508000  0.32642000  0.76680000  1.0
  H  H31  1  0.05493000  0.67357000  0.23319000  1.0
  H  H32  1  0.85268000  0.20955000  0.00016000  1.0
  H  H33  1  0.14732000  0.79046000  0.99985000  1.0
  H  H34  1  0.99185000  0.05505000  0.16179000  1.0
  H  H35  1  0.00815000  0.94495000  0.83822000  1.0
  H  H36  1  0.12278000  0.12998000  0.20447000  1.0
  H  H37  1  0.87722000  0.87002000  0.79553000  1.0
  H  H38  1  0.20518000  0.95555000  0.12944000  1.0
  H  H39  1  0.79482000  0.04445000  0.87057000  1.0
  H  H40  1  0.33660000  0.18072000  0.12774000  1.0
  H  H41  1  0.66341000  0.81928000  0.87226000  1.0
  H  H42  1  0.35844000  0.32785000  0.04341000  1.0
  H  H43  1  0.64156000  0.67214000  0.95659000  1.0
  H  H44  1  0.60254000  0.09202000  0.01740000  1.0
  H  H45  1  0.39747000  0.90798000  0.98260000  1.0
  H  H46  1  0.49911000  0.11633000  0.91226000  1.0
  H  H47  1  0.50090000  0.88367000  0.08774000  1.0
  W  W48  1  0.41399000  0.60644000  0.75133000  1.0
  W  W49  1  0.58601000  0.39356000  0.24868000  1.0
  C  C50  1  0.50996000  0.15990000  0.67144000  1.0
  C  C51  1  0.49004000  0.84010000  0.32856000  1.0
  C  C52  1  0.62379000  0.06404000  0.58743000  1.0
  C  C53  1  0.37621000  0.93596000  0.41257000  1.0
  C  C54  1  0.80969000  0.97755000  0.45402000  1.0
  C  C55  1  0.19031000  0.02245000  0.54598000  1.0
  C  C56  1  0.71974000  0.11123000  0.51332000  1.0
  C  C57  1  0.28026000  0.88877000  0.48668000  1.0
  C  C58  1  0.93508000  0.95356000  0.36708000  1.0
  C  C59  1  0.06492000  0.04644000  0.63292000  1.0
  C  C60  1  0.83010000  0.69467000  0.45813000  1.0
  C  C61  1  0.16990000  0.30533000  0.54187000  1.0
  C  C62  1  0.96683000  0.58655000  0.51669000  1.0
  C  C63  1  0.03316000  0.41345000  0.48331000  1.0
  C  C64  1  0.91566000  0.40859000  0.82925000  1.0
  C  C65  1  0.08435000  0.59140000  0.17075000  1.0
  C  C66  1  0.00472000  0.32491000  0.91444000  1.0
  C  C67  1  0.99529000  0.67509000  0.08555000  1.0
  C  C68  1  0.96178000  0.23202000  0.98984000  1.0
  C  C69  1  0.03822000  0.76799000  0.01016000  1.0
  C  C70  1  0.08555000  0.17684000  0.05071000  1.0
  C  C71  1  0.91445000  0.82316000  0.94929000  1.0
  C  C72  1  0.10358000  0.07349000  0.14125000  1.0
  C  C73  1  0.89641000  0.92652000  0.85875000  1.0
  C  C74  1  0.34706000  0.21268000  0.04856000  1.0
  C  C75  1  0.65294000  0.78731000  0.95144000  1.0
  C  C76  1  0.49611000  0.08468000  0.99196000  1.0
  C  C77  1  0.50389000  0.91532000  0.00804000  1.0
  S  S78  1  0.37138000  0.85807000  0.78318000  1.0
  S  S79  1  0.62861000  0.14193000  0.21682000  1.0
  S  S80  1  0.60386000  0.52423000  0.62061000  1.0
  S  S81  1  0.39614000  0.47577000  0.37939000  1.0
  S  S82  1  0.18503000  0.59572000  0.71903000  1.0
  S  S83  1  0.81498000  0.40428000  0.28097000  1.0
  S  S84  1  0.49391000  0.44963000  0.88305000  1.0
  S  S85  1  0.50609000  0.55037000  0.11696000  1.0
  N  N86  1  0.65093000  0.90939000  0.57352000  1.0
  N  N87  1  0.34906000  0.09061000  0.42648000  1.0
  N  N88  1  0.76312000  0.85949000  0.49095000  1.0
  N  N89  1  0.23687000  0.14051000  0.50904000  1.0
  N  N90  1  0.14779000  0.32811000  0.92863000  1.0
  N  N91  1  0.85221000  0.67188000  0.07137000  1.0
  N  N92  1  0.19519000  0.23739000  0.01234000  1.0
  N  N93  1  0.80481000  0.76261000  0.98766000  1.0
