# generated using pymatgen
data_ZnH3C7NO4
_symmetry_space_group_name_H-M   'P 1'
_cell_length_a   6.56731000
_cell_length_b   8.50457000
_cell_length_c   12.94140000
_cell_angle_alpha   90.00030000
_cell_angle_beta   89.99980000
_cell_angle_gamma   89.99980000
_symmetry_Int_Tables_number   1
_chemical_formula_structural   ZnH3C7NO4
_chemical_formula_sum   'Zn4 H12 C28 N4 O16'
_cell_volume   722.80498302
_cell_formula_units_Z   4
loop_
 _symmetry_equiv_pos_site_id
 _symmetry_equiv_pos_as_xyz
  1  'x, y, z'
loop_
 _atom_site_type_symbol
 _atom_site_label
 _atom_site_symmetry_multiplicity
 _atom_site_fract_x
 _atom_site_fract_y
 _atom_site_fract_z
 _atom_site_occupancy
  Zn  Zn0  1  0.05784000  0.66289000  0.74879000  1.0
  Zn  Zn1  1  0.94216000  0.33711000  0.24879000  1.0
  Zn  Zn2  1  0.44216000  0.16289000  0.74879000  1.0
  Zn  Zn3  1  0.55784000  0.83711000  0.24879000  1.0
  H  H4  1  0.86223000  0.72933000  0.54452000  1.0
  H  H5  1  0.13777000  0.27067000  0.04452000  1.0
  H  H6  1  0.63776000  0.22933000  0.54451000  1.0
  H  H7  1  0.36223000  0.77067000  0.04451000  1.0
  H  H8  1  0.53500000  0.51833000  0.45354000  1.0
  H  H9  1  0.46499000  0.48167000  0.95355000  1.0
  H  H10  1  0.96499000  0.01833000  0.45354000  1.0
  H  H11  1  0.03501000  0.98167000  0.95355000  1.0
  H  H12  1  0.43364000  0.57243000  0.63603000  1.0
  H  H13  1  0.56635000  0.42757000  0.13603000  1.0
  H  H14  1  0.06635000  0.07244000  0.63602000  1.0
  H  H15  1  0.93364000  0.92757000  0.13603000  1.0
  C  C16  1  0.00875000  0.68022000  0.52145000  1.0
  C  C17  1  0.99125000  0.31978000  0.02145000  1.0
  C  C18  1  0.49124000  0.18022000  0.52144000  1.0
  C  C19  1  0.50875000  0.81978000  0.02144000  1.0
  C  C20  1  0.04959000  0.64797000  0.41767000  1.0
  C  C21  1  0.95041000  0.35203000  0.91767000  1.0
  C  C22  1  0.45040000  0.14797000  0.41767000  1.0
  C  C23  1  0.54960000  0.85203000  0.91767000  1.0
  C  C24  1  0.24140000  0.58530000  0.39188000  1.0
  C  C25  1  0.75860000  0.41471000  0.89188000  1.0
  C  C26  1  0.25859000  0.08529000  0.39188000  1.0
  C  C27  1  0.74141000  0.91470000  0.89188000  1.0
  C  C28  1  0.38390000  0.56420000  0.47107000  1.0
  C  C29  1  0.61609000  0.43580000  0.97107000  1.0
  C  C30  1  0.11609000  0.06420000  0.47107000  1.0
  C  C31  1  0.88391000  0.93580000  0.97107000  1.0
  C  C32  1  0.32896000  0.59561000  0.57255000  1.0
  C  C33  1  0.67104000  0.40439000  0.07255000  1.0
  C  C34  1  0.17104000  0.09561000  0.57255000  1.0
  C  C35  1  0.82895000  0.90439000  0.07255000  1.0
  C  C36  1  0.88956000  0.67971000  0.33763000  1.0
  C  C37  1  0.11043000  0.32029000  0.83763000  1.0
  C  C38  1  0.61043000  0.17971000  0.33762000  1.0
  C  C39  1  0.38957000  0.82029000  0.83762000  1.0
  C  C40  1  0.30440000  0.53409000  0.28487000  1.0
  C  C41  1  0.69560000  0.46591000  0.78486000  1.0
  C  C42  1  0.19560000  0.03409000  0.28486000  1.0
  C  C43  1  0.80441000  0.96591000  0.78486000  1.0
  N  N44  1  0.14271000  0.65056000  0.59743000  1.0
  N  N45  1  0.85729000  0.34944000  0.09743000  1.0
  N  N46  1  0.35729000  0.15056000  0.59743000  1.0
  N  N47  1  0.64271000  0.84944000  0.09743000  1.0
  O  O48  1  0.77084000  0.79728000  0.35583000  1.0
  O  O49  1  0.22916000  0.20273000  0.85582000  1.0
  O  O50  1  0.72916000  0.29727000  0.35582000  1.0
  O  O51  1  0.27085000  0.70273000  0.85582000  1.0
  O  O52  1  0.87921000  0.59346000  0.25878000  1.0
  O  O53  1  0.12078000  0.40654000  0.75877000  1.0
  O  O54  1  0.62078000  0.09346000  0.25877000  1.0
  O  O55  1  0.37922000  0.90655000  0.75877000  1.0
  O  O56  1  0.23632000  0.40269000  0.25250000  1.0
  O  O57  1  0.76368000  0.59731000  0.75250000  1.0
  O  O58  1  0.26368000  0.90269000  0.25250000  1.0
  O  O59  1  0.73633000  0.09732000  0.75250000  1.0
  O  O60  1  0.43506000  0.61210000  0.23579000  1.0
  O  O61  1  0.56495000  0.38790000  0.73579000  1.0
  O  O62  1  0.06494000  0.11210000  0.23578000  1.0
  O  O63  1  0.93506000  0.88790000  0.73578000  1.0
