# generated using pymatgen
data_Zr6H29C50O37F
_symmetry_space_group_name_H-M   'P 1'
_cell_length_a   14.77877877
_cell_length_b   14.77890000
_cell_length_c   14.78750000
_cell_angle_alpha   119.94670000
_cell_angle_beta   90.02134281
_cell_angle_gamma   60.10818774
_symmetry_Int_Tables_number   1
_chemical_formula_structural   Zr6H29C50O37F
_chemical_formula_sum   'Zr6 H29 C50 O37 F1'
_cell_volume   2289.79694352
_cell_formula_units_Z   1
loop_
 _symmetry_equiv_pos_site_id
 _symmetry_equiv_pos_as_xyz
  1  'x, y, z'
loop_
 _atom_site_type_symbol
 _atom_site_label
 _atom_site_symmetry_multiplicity
 _atom_site_fract_x
 _atom_site_fract_y
 _atom_site_fract_z
 _atom_site_occupancy
  Zr  Zr0  1  0.38141000  0.49618000  0.11848000  1.0
  Zr  Zr1  1  0.61838000  0.49929000  0.88176000  1.0
  Zr  Zr2  1  0.38104000  0.73538000  0.11867000  1.0
  Zr  Zr3  1  0.62100000  0.25747000  0.87913000  1.0
  Zr  Zr4  1  0.62056000  0.49606000  0.11841000  1.0
  Zr  Zr5  1  0.38189000  0.49615000  0.87911000  1.0
  H  H6  1  0.40716000  0.68481000  0.28086000  1.0
  H  H7  1  0.78234000  0.31120000  0.90617000  1.0
  H  H8  1  0.40639000  0.68610000  0.90553000  1.0
  H  H9  1  0.40683000  0.30893000  0.90467000  1.0
  H  H10  1  0.35563000  0.49383000  0.41234000  1.0
  H  H11  1  0.64667000  0.49535000  0.41142000  1.0
  H  H12  1  0.35744000  0.49485000  0.58263000  1.0
  H  H13  1  0.08228000  0.50536000  0.14959000  1.0
  H  H14  1  0.08226000  0.50765000  0.85908000  1.0
  H  H15  1  0.91208000  0.50610000  0.14799000  1.0
  H  H16  1  0.91418000  0.22781000  0.14764000  1.0
  H  H17  1  0.91087000  0.93934000  0.85655000  1.0
  H  H18  1  0.08422000  0.05584000  0.14456000  1.0
  H  H19  1  0.35877000  0.22778000  0.57965000  1.0
  H  H20  1  0.64942000  0.93939000  0.58316000  1.0
  H  H21  1  0.36127000  0.05583000  0.41004000  1.0
  H  H22  1  0.08323000  0.05815000  0.40993000  1.0
  H  H23  1  0.03726000  0.70454000  0.37505000  1.0
  H  H24  1  0.12265000  0.70661000  0.46040000  1.0
  H  H25  1  0.95265000  0.88063000  0.63035000  1.0
  H  H26  1  0.86722000  0.87891000  0.54516000  1.0
  H  H27  1  0.65018000  0.93599000  0.85587000  1.0
  H  H28  1  0.35951000  0.22884000  0.14683000  1.0
  H  H29  1  0.64743000  0.76889000  0.85826000  1.0
  H  H30  1  0.65555000  0.49338000  0.64901000  1.0
  H  H31  1  0.84488000  0.50504000  0.85043000  1.0
  H  H32  1  0.15048000  0.69326000  0.84845000  1.0
  H  H33  1  0.65712000  0.69323000  0.34381000  1.0
  H  H34  1  0.35144000  0.99731000  0.15417000  1.0
  C  C35  1  0.50250000  0.49252000  0.30045000  1.0
  C  C36  1  0.80265000  0.50590000  0.00470000  1.0
  C  C37  1  0.50114000  0.49441000  0.69153000  1.0
  C  C38  1  0.19359000  0.50488000  0.00315000  1.0
  C  C39  1  0.19490000  0.80008000  0.29857000  1.0
  C  C40  1  0.50498000  0.19280000  0.00152000  1.0
  C  C41  1  0.79981000  0.19877000  0.69433000  1.0
  C  C42  1  0.50415000  0.80319000  0.00174000  1.0
  C  C43  1  0.50406000  0.80372000  0.30178000  1.0
  C  C44  1  0.19239000  0.80384000  0.00159000  1.0
  C  C45  1  0.50421000  0.19403000  0.69184000  1.0
  C  C46  1  0.80185000  0.19394000  0.00229000  1.0
  C  C47  1  0.50242000  0.49476000  0.59194000  1.0
  C  C48  1  0.50151000  0.49409000  0.40213000  1.0
  C  C49  1  0.58517000  0.49529000  0.54339000  1.0
  C  C50  1  0.41875000  0.49451000  0.45005000  1.0
  C  C51  1  0.58321000  0.49516000  0.44852000  1.0
  C  C52  1  0.42008000  0.49484000  0.54379000  1.0
  C  C53  1  0.90191000  0.50704000  0.00362000  1.0
  C  C54  1  0.09159000  0.50698000  0.00445000  1.0
  C  C55  1  0.95060000  0.50710000  0.92060000  1.0
  C  C56  1  0.04424000  0.50644000  0.08677000  1.0
  C  C57  1  0.04528000  0.50747000  0.92259000  1.0
  C  C58  1  0.95053000  0.50662000  0.08555000  1.0
  C  C59  1  0.09276000  0.90221000  0.00013000  1.0
  C  C60  1  0.90286000  0.09304000  0.00216000  1.0
  C  C61  1  0.04377000  0.86847000  0.91714000  1.0
  C  C62  1  0.95121000  0.12736000  0.08418000  1.0
  C  C63  1  0.94873000  0.96524000  0.91962000  1.0
  C  C64  1  0.04497000  0.03223000  0.08227000  1.0
  C  C65  1  0.50601000  0.90216000  0.40104000  1.0
  C  C66  1  0.50454000  0.09309000  0.59057000  1.0
  C  C67  1  0.58873000  0.86849000  0.45031000  1.0
  C  C68  1  0.42224000  0.12733000  0.54252000  1.0
  C  C69  1  0.58653000  0.96527000  0.54514000  1.0
  C  C70  1  0.42386000  0.03221000  0.44896000  1.0
  C  C71  1  0.09467000  0.90047000  0.39864000  1.0
  C  C72  1  0.89975000  0.09946000  0.59423000  1.0
  C  C73  1  0.04387000  0.87286000  0.45080000  1.0
  C  C74  1  0.95342000  0.12518000  0.54040000  1.0
  C  C75  1  0.94995000  0.96932000  0.54498000  1.0
  C  C76  1  0.04690000  0.03044000  0.44636000  1.0
  C  C77  1  0.04871000  0.76672000  0.44824000  1.0
  C  C78  1  0.94213000  0.87595000  0.55491000  1.0
  C  C79  1  0.50309000  0.90414000  0.00315000  1.0
  C  C80  1  0.50503000  0.09187000  0.00171000  1.0
  C  C81  1  0.42028000  0.03565000  0.08569000  1.0
  C  C82  1  0.58694000  0.96200000  0.91930000  1.0
  C  C83  1  0.42268000  0.12822000  0.08370000  1.0
  C  C84  1  0.58517000  0.87007000  0.92086000  1.0
  O  O85  1  0.42568000  0.49256000  0.26063000  1.0
  O  O86  1  0.76203000  0.50488000  0.92648000  1.0
  O  O87  1  0.57825000  0.49569000  0.73322000  1.0
  O  O88  1  0.23469000  0.50217000  0.07858000  1.0
  O  O89  1  0.23534000  0.83702000  0.25903000  1.0
  O  O90  1  0.58101000  0.15607000  0.92428000  1.0
  O  O91  1  0.76266000  0.15871000  0.73287000  1.0
  O  O92  1  0.42600000  0.83956000  0.07874000  1.0
  O  O93  1  0.58080000  0.68532000  0.26205000  1.0
  O  O94  1  0.23351000  0.68539000  0.92348000  1.0
  O  O95  1  0.42675000  0.31041000  0.73222000  1.0
  O  O96  1  0.76227000  0.31037000  0.07893000  1.0
  O  O97  1  0.23382000  0.83842000  0.07705000  1.0
  O  O98  1  0.58052000  0.15744000  0.73224000  1.0
  O  O99  1  0.76256000  0.15733000  0.92485000  1.0
  O  O100  1  0.42796000  0.83821000  0.26100000  1.0
  O  O101  1  0.23416000  0.68429000  0.26037000  1.0
  O  O102  1  0.57932000  0.68663000  0.92583000  1.0
  O  O103  1  0.75852000  0.31600000  0.73592000  1.0
  O  O104  1  0.42804000  0.30910000  0.07766000  1.0
  O  O105  1  0.23407000  0.50389000  0.92587000  1.0
  O  O106  1  0.57920000  0.49282000  0.26067000  1.0
  O  O107  1  0.76252000  0.50426000  0.07967000  1.0
  O  O108  1  0.42531000  0.49443000  0.73254000  1.0
  O  O109  1  0.43379000  0.36235000  0.93143000  1.0
  O  O110  1  0.43291000  0.63263000  0.93234000  1.0
  O  O111  1  0.70217000  0.36441000  0.93295000  1.0
  O  O112  1  0.43387000  0.63159000  0.20069000  1.0
  O  O113  1  0.55026000  0.59779000  0.04998000  1.0
  O  O114  1  0.55049000  0.39806000  0.04831000  1.0
  O  O115  1  0.55008000  0.39884000  0.85059000  1.0
  O  O116  1  0.35212000  0.59608000  0.04830000  1.0
  O  O117  1  0.66680000  0.49552000  0.58372000  1.0
  O  O118  1  0.91067000  0.50621000  0.83851000  1.0
  O  O119  1  0.08459000  0.74656000  0.83499000  1.0
  O  O120  1  0.67028000  0.74658000  0.41003000  1.0
  O  O121  1  0.33837000  0.07656000  0.16689000  1.0
  F  F122  1  0.91436000  0.24744000  0.58035000  1.0
