# generated using pymatgen
data_Cd2H18C21(N3O5)2
_symmetry_space_group_name_H-M   'P 1'
_cell_length_a   6.90671000
_cell_length_b   10.24814703
_cell_length_c   17.61200000
_cell_angle_alpha   86.74011735
_cell_angle_beta   89.97560000
_cell_angle_gamma   70.31051368
_symmetry_Int_Tables_number   1
_chemical_formula_structural   Cd2H18C21(N3O5)2
_chemical_formula_sum   'Cd4 H36 C42 N12 O20'
_cell_volume   1171.57727451
_cell_formula_units_Z   2
loop_
 _symmetry_equiv_pos_site_id
 _symmetry_equiv_pos_as_xyz
  1  'x, y, z'
loop_
 _atom_site_type_symbol
 _atom_site_label
 _atom_site_symmetry_multiplicity
 _atom_site_fract_x
 _atom_site_fract_y
 _atom_site_fract_z
 _atom_site_occupancy
  Cd  Cd0  1  0.71825000  0.80173000  0.03137000  1.0
  Cd  Cd1  1  0.52044000  0.19784000  0.46871000  1.0
  Cd  Cd2  1  0.28175000  0.19827000  0.96862000  1.0
  Cd  Cd3  1  0.47956000  0.80216000  0.53128000  1.0
  H  H4  1  0.79658000  0.03736000  0.90082000  1.0
  H  H5  1  0.83354000  0.96267000  0.59965000  1.0
  H  H6  1  0.20343000  0.96262000  0.09918000  1.0
  H  H7  1  0.16647000  0.03733000  0.40035000  1.0
  H  H8  1  0.88208000  0.61953000  0.86447000  1.0
  H  H9  1  0.50061000  0.38063000  0.63540000  1.0
  H  H10  1  0.11794000  0.38046000  0.13552000  1.0
  H  H11  1  0.49939000  0.61937000  0.36460000  1.0
  H  H12  1  0.08817000  0.93344000  0.71761000  1.0
  H  H13  1  0.02024000  0.06794000  0.78268000  1.0
  H  H14  1  0.91183000  0.06657000  0.28238000  1.0
  H  H15  1  0.97976000  0.93206000  0.21732000  1.0
  H  H16  1  0.51124000  0.54723000  0.22006000  1.0
  H  H17  1  0.05932000  0.45231000  0.28011000  1.0
  H  H18  1  0.48873000  0.45278000  0.77995000  1.0
  H  H19  1  0.94070000  0.54769000  0.71989000  1.0
  H  H20  1  0.48024000  0.33920000  0.29481000  1.0
  H  H21  1  0.82035000  0.66024000  0.20535000  1.0
  H  H22  1  0.51974000  0.66080000  0.70519000  1.0
  H  H23  1  0.17965000  0.33977000  0.79465000  1.0
  H  H24  1  0.56240000  0.11546000  0.23470000  1.0
  H  H25  1  0.67867000  0.88410000  0.26535000  1.0
  H  H26  1  0.43760000  0.88454000  0.76531000  1.0
  H  H27  1  0.32132000  0.11591000  0.73465000  1.0
  H  H28  1  0.70368000  0.30080000  0.02638000  1.0
  H  H29  1  0.00504000  0.69895000  0.47367000  1.0
  H  H30  1  0.29631000  0.69921000  0.97362000  1.0
  H  H31  1  0.99496000  0.30105000  0.52633000  1.0
  H  H32  1  0.13632000  0.58345000  0.04032000  1.0
  H  H33  1  0.71969000  0.41646000  0.45965000  1.0
  H  H34  1  0.86367000  0.41656000  0.95969000  1.0
  H  H35  1  0.28030000  0.58355000  0.54035000  1.0
  H  H36  1  0.15788000  0.68193000  0.10402000  1.0
  H  H37  1  0.83987000  0.31774000  0.39600000  1.0
  H  H38  1  0.84211000  0.31808000  0.89598000  1.0
  H  H39  1  0.16012000  0.68227000  0.60400000  1.0
  C  C40  1  0.83106000  0.93840000  0.87525000  1.0
  C  C41  1  0.76891000  0.06179000  0.62507000  1.0
  C  C42  1  0.16894000  0.06159000  0.12475000  1.0
  C  C43  1  0.23109000  0.93822000  0.37493000  1.0
  C  C44  1  0.87641000  0.72633000  0.85480000  1.0
  C  C45  1  0.60190000  0.27394000  0.64522000  1.0
  C  C46  1  0.12361000  0.27366000  0.14519000  1.0
  C  C47  1  0.39810000  0.72607000  0.35478000  1.0
  C  C48  1  0.96195000  0.00050000  0.75014000  1.0
  C  C49  1  0.03805000  0.99950000  0.24986000  1.0
  C  C50  1  0.61319000  0.43662000  0.11927000  1.0
  C  C51  1  0.05069000  0.56305000  0.38083000  1.0
  C  C52  1  0.38680000  0.56338000  0.88074000  1.0
  C  C53  1  0.94932000  0.43695000  0.61917000  1.0
  C  C54  1  0.54751000  0.44739000  0.19476000  1.0
  C  C55  1  0.99576000  0.55220000  0.30536000  1.0
  C  C56  1  0.45247000  0.55261000  0.80524000  1.0
  C  C57  1  0.00425000  0.44780000  0.69464000  1.0
  C  C58  1  0.53090000  0.33166000  0.23618000  1.0
  C  C59  1  0.86342000  0.66789000  0.26394000  1.0
  C  C60  1  0.46908000  0.66834000  0.76382000  1.0
  C  C61  1  0.13659000  0.33211000  0.73606000  1.0
  C  C62  1  0.57731000  0.20526000  0.20233000  1.0
  C  C63  1  0.78338000  0.79436000  0.29773000  1.0
  C  C64  1  0.42268000  0.79474000  0.79768000  1.0
  C  C65  1  0.21662000  0.20564000  0.70227000  1.0
  C  C66  1  0.63812000  0.19465000  0.12630000  1.0
  C  C67  1  0.83345000  0.80503000  0.37374000  1.0
  C  C68  1  0.36187000  0.80535000  0.87370000  1.0
  C  C69  1  0.16656000  0.19497000  0.62626000  1.0
  C  C70  1  0.65608000  0.31051000  0.08523000  1.0
  C  C71  1  0.96726000  0.68922000  0.41482000  1.0
  C  C72  1  0.34393000  0.68949000  0.91478000  1.0
  C  C73  1  0.03275000  0.31078000  0.58518000  1.0
  C  C74  1  0.64276000  0.55825000  0.07657000  1.0
  C  C75  1  0.20172000  0.44144000  0.42360000  1.0
  C  C76  1  0.35725000  0.44175000  0.92343000  1.0
  C  C77  1  0.79829000  0.55856000  0.57640000  1.0
  C  C78  1  0.67576000  0.06369000  0.08683000  1.0
  C  C79  1  0.74003000  0.93602000  0.41317000  1.0
  C  C80  1  0.32424000  0.93631000  0.91317000  1.0
  C  C81  1  0.25997000  0.06397000  0.58683000  1.0
  N  N82  1  0.81791000  0.82207000  0.90917000  1.0
  N  N83  1  0.63939000  0.17789000  0.59099000  1.0
  N  N84  1  0.18210000  0.17791000  0.09082000  1.0
  N  N85  1  0.36062000  0.82211000  0.40901000  1.0
  N  N86  1  0.89395000  0.91270000  0.80352000  1.0
  N  N87  1  0.80595000  0.08788000  0.69673000  1.0
  N  N88  1  0.10605000  0.08729000  0.19648000  1.0
  N  N89  1  0.19404000  0.91213000  0.30327000  1.0
  N  N90  1  0.92469000  0.77731000  0.78960000  1.0
  N  N91  1  0.70106000  0.22335000  0.71045000  1.0
  N  N92  1  0.07532000  0.22269000  0.21039000  1.0
  N  N93  1  0.29894000  0.77666000  0.28955000  1.0
  O  O94  1  0.56744000  0.67694000  0.10516000  1.0
  O  O95  1  0.24511000  0.32276000  0.39498000  1.0
  O  O96  1  0.43256000  0.32306000  0.89484000  1.0
  O  O97  1  0.75489000  0.67725000  0.60502000  1.0
  O  O98  1  0.74397000  0.54295000  0.01528000  1.0
  O  O99  1  0.28730000  0.45684000  0.48492000  1.0
  O  O100  1  0.25604000  0.45705000  0.98472000  1.0
  O  O101  1  0.71271000  0.54317000  0.51508000  1.0
  O  O102  1  0.64595000  0.07168000  0.01488000  1.0
  O  O103  1  0.71815000  0.92821000  0.48514000  1.0
  O  O104  1  0.35408000  0.92831000  0.98512000  1.0
  O  O105  1  0.28185000  0.07179000  0.51486000  1.0
  O  O106  1  0.73404000  0.94737000  0.12589000  1.0
  O  O107  1  0.68179000  0.05226000  0.37403000  1.0
  O  O108  1  0.26596000  0.05262000  0.87411000  1.0
  O  O109  1  0.31819000  0.94774000  0.62597000  1.0
  O  O110  1  0.05768000  0.65254000  0.07727000  1.0
  O  O111  1  0.71020000  0.34732000  0.42273000  1.0
  O  O112  1  0.94231000  0.34747000  0.92273000  1.0
  O  O113  1  0.28980000  0.65268000  0.57727000  1.0
