# generated using pymatgen
data_ZnH18C27(NO3)2
_symmetry_space_group_name_H-M   'P 1'
_cell_length_a   7.60563000
_cell_length_b   11.54140000
_cell_length_c   13.56380000
_cell_angle_alpha   82.99490000
_cell_angle_beta   83.73380000
_cell_angle_gamma   70.78710000
_symmetry_Int_Tables_number   1
_chemical_formula_structural   ZnH18C27(NO3)2
_chemical_formula_sum   'Zn2 H36 C54 N4 O12'
_cell_volume   1112.88807850
_cell_formula_units_Z   2
loop_
 _symmetry_equiv_pos_site_id
 _symmetry_equiv_pos_as_xyz
  1  'x, y, z'
loop_
 _atom_site_type_symbol
 _atom_site_label
 _atom_site_symmetry_multiplicity
 _atom_site_fract_x
 _atom_site_fract_y
 _atom_site_fract_z
 _atom_site_occupancy
  Zn  Zn0  1  0.30040000  0.11965000  0.01554000  1.0
  Zn  Zn1  1  0.69960000  0.88035000  0.98446000  1.0
  H  H2  1  0.04418000  0.14544000  0.15232000  1.0
  H  H3  1  0.95582000  0.85456000  0.84768000  1.0
  H  H4  1  0.93234000  0.14897000  0.05332000  1.0
  H  H5  1  0.06766000  0.85103000  0.94668000  1.0
  H  H6  1  0.59897000  0.23721000  0.20086000  1.0
  H  H7  1  0.40103000  0.76278000  0.79914000  1.0
  H  H8  1  0.76462000  0.29833000  0.32602000  1.0
  H  H9  1  0.23538000  0.70167000  0.67398000  1.0
  H  H10  1  0.31039000  0.30031000  0.54524000  1.0
  H  H11  1  0.68962000  0.69969000  0.45476000  1.0
  H  H12  1  0.14452000  0.24150000  0.41931000  1.0
  H  H13  1  0.85548000  0.75850000  0.58069000  1.0
  H  H14  1  0.64408000  0.46731000  0.66851000  1.0
  H  H15  1  0.35592000  0.53269000  0.33149000  1.0
  H  H16  1  0.66272000  0.39053000  0.84852000  1.0
  H  H17  1  0.33728000  0.60947000  0.15148000  1.0
  H  H18  1  0.61751000  0.04713000  0.78335000  1.0
  H  H19  1  0.38248000  0.95287000  0.21665000  1.0
  H  H20  1  0.60472000  0.12106000  0.60299000  1.0
  H  H21  1  0.39528000  0.87894000  0.39701000  1.0
  H  H22  1  0.32901000  0.37334000  0.08385000  1.0
  H  H23  1  0.67099000  0.62666000  0.91615000  1.0
  H  H24  1  0.25895000  0.59443000  0.00737000  1.0
  H  H25  1  0.74105000  0.40557000  0.99263000  1.0
  H  H26  1  0.13111000  0.64957000  0.84012000  1.0
  H  H27  1  0.86889000  0.35043000  0.15988000  1.0
  H  H28  1  0.03608000  0.58157000  0.69051000  1.0
  H  H29  1  0.96392000  0.41843000  0.30949000  1.0
  H  H30  1  0.99821000  0.41406000  0.60514000  1.0
  H  H31  1  0.00179000  0.58594000  0.39486000  1.0
  H  H32  1  0.03987000  0.18766000  0.60393000  1.0
  H  H33  1  0.96013000  0.81234000  0.39606000  1.0
  H  H34  1  0.13756000  0.97490000  0.69344000  1.0
  H  H35  1  0.86244000  0.02511000  0.30656000  1.0
  H  H36  1  0.25883000  0.94634000  0.86355000  1.0
  H  H37  1  0.74117000  0.05366000  0.13645000  1.0
  C  C38  1  0.26948000  0.19194000  0.22911000  1.0
  C  C39  1  0.73052000  0.80806000  0.77089000  1.0
  C  C40  1  0.36392000  0.23351000  0.30358000  1.0
  C  C41  1  0.63608000  0.76649000  0.69642000  1.0
  C  C42  1  0.53755000  0.25138000  0.27670000  1.0
  C  C43  1  0.46245000  0.74862000  0.72330000  1.0
  C  C44  1  0.62881000  0.28579000  0.34577000  1.0
  C  C45  1  0.37119000  0.71421000  0.65423000  1.0
  C  C46  1  0.54878000  0.30121000  0.44363000  1.0
  C  C47  1  0.45123000  0.69879000  0.55637000  1.0
  C  C48  1  0.37428000  0.28484000  0.47016000  1.0
  C  C49  1  0.62573000  0.71516000  0.52984000  1.0
  C  C50  1  0.28155000  0.25261000  0.40028000  1.0
  C  C51  1  0.71845000  0.74739000  0.59972000  1.0
  C  C52  1  0.64745000  0.33955000  0.51616000  1.0
  C  C53  1  0.35256000  0.66044000  0.48384000  1.0
  C  C54  1  0.62543000  0.29916000  0.62411000  1.0
  C  C55  1  0.37457000  0.70084000  0.37589000  1.0
  C  C56  1  0.63825000  0.37542000  0.69428000  1.0
  C  C57  1  0.36175000  0.62458000  0.30572000  1.0
  C  C58  1  0.64858000  0.33253000  0.79431000  1.0
  C  C59  1  0.35142000  0.66747000  0.20569000  1.0
  C  C60  1  0.64435000  0.21324000  0.82653000  1.0
  C  C61  1  0.35565000  0.78676000  0.17347000  1.0
  C  C62  1  0.62383000  0.13879000  0.75731000  1.0
  C  C63  1  0.37617000  0.86121000  0.24269000  1.0
  C  C64  1  0.61477000  0.18115000  0.65677000  1.0
  C  C65  1  0.38523000  0.81885000  0.34323000  1.0
  C  C66  1  0.66567000  0.16453000  0.93396000  1.0
  C  C67  1  0.33432000  0.83547000  0.06604000  1.0
  C  C68  1  0.27385000  0.40225000  0.01068000  1.0
  C  C69  1  0.72615000  0.59775000  0.98932000  1.0
  C  C70  1  0.23603000  0.52435000  0.96793000  1.0
  C  C71  1  0.76397000  0.47565000  0.03207000  1.0
  C  C72  1  0.16651000  0.55536000  0.87482000  1.0
  C  C73  1  0.83349000  0.44464000  0.12518000  1.0
  C  C74  1  0.13806000  0.46429000  0.82367000  1.0
  C  C75  1  0.86194000  0.53571000  0.17633000  1.0
  C  C76  1  0.07069000  0.48796000  0.72624000  1.0
  C  C77  1  0.92930000  0.51204000  0.27376000  1.0
  C  C78  1  0.05224000  0.39522000  0.67879000  1.0
  C  C79  1  0.94776000  0.60478000  0.32121000  1.0
  C  C80  1  0.10182000  0.27134000  0.72471000  1.0
  C  C81  1  0.89818000  0.72867000  0.27529000  1.0
  C  C82  1  0.09182000  0.17094000  0.67795000  1.0
  C  C83  1  0.90818000  0.82906000  0.32205000  1.0
  C  C84  1  0.14569000  0.05397000  0.72689000  1.0
  C  C85  1  0.85431000  0.94603000  0.27311000  1.0
  C  C86  1  0.20984000  0.03686000  0.82283000  1.0
  C  C87  1  0.79015000  0.96314000  0.17717000  1.0
  C  C88  1  0.16501000  0.24549000  0.82197000  1.0
  C  C89  1  0.83499000  0.75452000  0.17803000  1.0
  C  C90  1  0.18225000  0.34343000  0.87255000  1.0
  C  C91  1  0.81774000  0.65657000  0.12745000  1.0
  N  N92  1  0.24662000  0.31469000  0.96467000  1.0
  N  N93  1  0.75338000  0.68531000  0.03533000  1.0
  N  N94  1  0.21702000  0.13013000  0.86901000  1.0
  N  N95  1  0.78298000  0.86988000  0.13099000  1.0
  O  O96  1  0.37245000  0.15328000  0.15098000  1.0
  O  O97  1  0.62755000  0.84673000  0.84902000  1.0
  O  O98  1  0.10041000  0.19642000  0.24856000  1.0
  O  O99  1  0.89959000  0.80358000  0.75144000  1.0
  O  O100  1  0.75248000  0.40142000  0.48742000  1.0
  O  O101  1  0.24752000  0.59858000  0.51258000  1.0
  O  O102  1  0.74673000  0.21165000  0.98586000  1.0
  O  O103  1  0.25327000  0.78835000  0.01414000  1.0
  O  O104  1  0.59561000  0.07777000  0.96662000  1.0
  O  O105  1  0.40439000  0.92223000  0.03338000  1.0
  O  O106  1  0.04964000  0.10920000  0.08763000  1.0
  O  O107  1  0.95036000  0.89080000  0.91237000  1.0
