# generated using pymatgen
data_CsH6(C2O3)2
_symmetry_space_group_name_H-M   'P 1'
_cell_length_a   5.65710000
_cell_length_b   6.47795000
_cell_length_c   9.94751000
_cell_angle_alpha   104.62560000
_cell_angle_beta   96.87230000
_cell_angle_gamma   88.30270000
_symmetry_Int_Tables_number   1
_chemical_formula_structural   CsH6(C2O3)2
_chemical_formula_sum   'Cs2 H12 C8 O12'
_cell_volume   350.19382065
_cell_formula_units_Z   2
loop_
 _symmetry_equiv_pos_site_id
 _symmetry_equiv_pos_as_xyz
  1  'x, y, z'
loop_
 _atom_site_type_symbol
 _atom_site_label
 _atom_site_symmetry_multiplicity
 _atom_site_fract_x
 _atom_site_fract_y
 _atom_site_fract_z
 _atom_site_occupancy
  Cs  Cs0  1  0.94482000  0.08753000  0.70687000  1.0
  Cs  Cs1  1  0.05512000  0.91245000  0.29309000  1.0
  H  H2  1  0.82615000  0.60866000  0.53664000  1.0
  H  H3  1  0.17411000  0.39099000  0.46328000  1.0
  H  H4  1  0.46360000  0.83712000  0.57609000  1.0
  H  H5  1  0.53637000  0.16292000  0.42391000  1.0
  H  H6  1  0.66363000  0.87776000  0.93369000  1.0
  H  H7  1  0.33638000  0.12226000  0.06631000  1.0
  H  H8  1  0.92370000  0.62378000  0.89588000  1.0
  H  H9  1  0.07631000  0.37622000  0.10412000  1.0
  H  H10  1  0.22279000  0.59024000  0.65873000  1.0
  H  H11  1  0.77721000  0.40982000  0.34127000  1.0
  H  H12  1  0.50341000  0.43869000  0.82489000  1.0
  H  H13  1  0.49657000  0.56134000  0.17510000  1.0
  C  C14  1  0.54172000  0.47542000  0.57362000  1.0
  C  C15  1  0.45826000  0.52462000  0.42640000  1.0
  C  C16  1  0.41215000  0.63743000  0.68503000  1.0
  C  C17  1  0.58785000  0.36263000  0.31498000  1.0
  C  C18  1  0.47678000  0.61117000  0.83593000  1.0
  C  C19  1  0.52322000  0.38885000  0.16408000  1.0
  C  C20  1  0.26447000  0.68273000  0.91483000  1.0
  C  C21  1  0.73553000  0.31729000  0.08518000  1.0
  O  O22  1  0.79983000  0.51953000  0.59986000  1.0
  O  O23  1  0.20016000  0.48040000  0.40018000  1.0
  O  O24  1  0.49511000  0.27172000  0.57498000  1.0
  O  O25  1  0.50475000  0.72832000  0.42501000  1.0
  O  O26  1  0.44174000  0.85281000  0.68122000  1.0
  O  O27  1  0.55829000  0.14724000  0.31879000  1.0
  O  O28  1  0.68443000  0.72052000  0.91158000  1.0
  O  O29  1  0.31557000  0.27949000  0.08843000  1.0
  O  O30  1  0.25432000  0.85482000  0.00382000  1.0
  O  O31  1  0.74566000  0.14520000  0.99618000  1.0
  O  O32  1  0.08412000  0.54833000  0.87278000  1.0
  O  O33  1  0.91588000  0.45167000  0.12723000  1.0
