# generated using pymatgen
data_MnH12C6O5
_symmetry_space_group_name_H-M   'P 1'
_cell_length_a   6.46451000
_cell_length_b   11.72150000
_cell_length_c   13.81690000
_cell_angle_alpha   112.34300000
_cell_angle_beta   90.02610000
_cell_angle_gamma   105.99100000
_symmetry_Int_Tables_number   1
_chemical_formula_structural   MnH12C6O5
_chemical_formula_sum   'Mn4 H48 C24 O20'
_cell_volume   924.35060133
_cell_formula_units_Z   4
loop_
 _symmetry_equiv_pos_site_id
 _symmetry_equiv_pos_as_xyz
  1  'x, y, z'
loop_
 _atom_site_type_symbol
 _atom_site_label
 _atom_site_symmetry_multiplicity
 _atom_site_fract_x
 _atom_site_fract_y
 _atom_site_fract_z
 _atom_site_occupancy
  Mn  Mn0  1  0.74464000  0.52715000  0.76381000  1.0
  Mn  Mn1  1  0.21751000  0.47301000  0.73637000  1.0
  Mn  Mn2  1  0.25535000  0.47285000  0.23619000  1.0
  Mn  Mn3  1  0.78249000  0.52699000  0.26363000  1.0
  H  H4  1  0.48786000  0.30053000  0.62338000  1.0
  H  H5  1  0.18761000  0.69972000  0.87671000  1.0
  H  H6  1  0.51214000  0.69948000  0.37661000  1.0
  H  H7  1  0.81238000  0.30028000  0.12329000  1.0
  H  H8  1  0.46002000  0.40134000  0.56871000  1.0
  H  H9  1  0.05914000  0.59896000  0.93150000  1.0
  H  H10  1  0.53998000  0.59867000  0.43129000  1.0
  H  H11  1  0.94085000  0.40105000  0.06850000  1.0
  H  H12  1  0.27479000  0.29829000  0.98043000  1.0
  H  H13  1  0.97635000  0.70192000  0.51979000  1.0
  H  H14  1  0.72520000  0.70171000  0.01957000  1.0
  H  H15  1  0.02365000  0.29808000  0.48021000  1.0
  H  H16  1  0.55775000  0.31866000  0.98681000  1.0
  H  H17  1  0.23860000  0.68109000  0.51310000  1.0
  H  H18  1  0.44225000  0.68133000  0.01319000  1.0
  H  H19  1  0.76140000  0.31891000  0.48691000  1.0
  H  H20  1  0.98738000  0.18121000  0.72555000  1.0
  H  H21  1  0.80620000  0.81893000  0.77449000  1.0
  H  H22  1  0.01263000  0.81879000  0.27444000  1.0
  H  H23  1  0.19379000  0.18107000  0.22551000  1.0
  H  H24  1  0.03862000  0.16909000  0.59893000  1.0
  H  H25  1  0.86959000  0.83109000  0.90110000  1.0
  H  H26  1  0.96138000  0.83090000  0.40107000  1.0
  H  H27  1  0.13041000  0.16891000  0.09891000  1.0
  H  H28  1  0.49897000  0.14011000  0.80364000  1.0
  H  H29  1  0.35957000  0.85962000  0.69623000  1.0
  H  H30  1  0.50102000  0.85988000  0.19636000  1.0
  H  H31  1  0.64043000  0.14038000  0.30377000  1.0
  H  H32  1  0.21712000  0.11868000  0.80069000  1.0
  H  H33  1  0.09945000  0.88146000  0.69949000  1.0
  H  H34  1  0.78287000  0.88131000  0.19931000  1.0
  H  H35  1  0.90055000  0.11854000  0.30051000  1.0
  H  H36  1  0.35197000  0.08357000  0.89339000  1.0
  H  H37  1  0.26897000  0.91636000  0.60661000  1.0
  H  H38  1  0.64802000  0.91642000  0.10660000  1.0
  H  H39  1  0.73103000  0.08364000  0.39338000  1.0
  H  H40  1  0.88816000  0.94783000  0.59380000  1.0
  H  H41  1  0.94037000  0.05224000  0.90619000  1.0
  H  H42  1  0.11185000  0.05217000  0.40620000  1.0
  H  H43  1  0.05964000  0.94776000  0.09381000  1.0
  H  H44  1  0.69096000  0.97583000  0.52252000  1.0
  H  H45  1  0.71525000  0.02436000  0.97743000  1.0
  H  H46  1  0.30904000  0.02417000  0.47749000  1.0
  H  H47  1  0.28476000  0.97565000  0.02257000  1.0
  H  H48  1  0.65716000  0.98484000  0.65160000  1.0
  H  H49  1  0.67237000  0.01531000  0.84826000  1.0
  H  H50  1  0.34285000  0.01516000  0.34840000  1.0
  H  H51  1  0.32764000  0.98470000  0.15174000  1.0
  C  C52  1  0.43762000  0.37962000  0.87675000  1.0
  C  C53  1  0.05800000  0.62040000  0.62332000  1.0
  C  C54  1  0.56237000  0.62037000  0.12325000  1.0
  C  C55  1  0.94200000  0.37960000  0.37669000  1.0
  C  C56  1  0.41044000  0.28927000  0.93316000  1.0
  C  C57  1  0.12113000  0.71072000  0.56691000  1.0
  C  C58  1  0.58956000  0.71072000  0.06684000  1.0
  C  C59  1  0.87887000  0.28929000  0.43309000  1.0
  C  C60  1  0.36702000  0.14973000  0.85325000  1.0
  C  C61  1  0.21790000  0.85024000  0.64677000  1.0
  C  C62  1  0.63298000  0.85027000  0.14675000  1.0
  C  C63  1  0.78211000  0.14976000  0.35323000  1.0
  C  C64  1  0.77575000  0.24092000  0.65309000  1.0
  C  C65  1  0.53499000  0.75924000  0.84692000  1.0
  C  C66  1  0.22425000  0.75909000  0.34690000  1.0
  C  C67  1  0.46502000  0.24076000  0.15308000  1.0
  C  C68  1  0.90559000  0.14920000  0.64568000  1.0
  C  C69  1  0.75636000  0.85098000  0.85433000  1.0
  C  C70  1  0.09441000  0.85080000  0.35432000  1.0
  C  C71  1  0.24365000  0.14902000  0.14568000  1.0
  C  C72  1  0.77826000  0.00648000  0.60054000  1.0
  C  C73  1  0.77177000  0.99369000  0.89942000  1.0
  C  C74  1  0.22174000  0.99352000  0.39946000  1.0
  C  C75  1  0.22824000  0.00631000  0.10058000  1.0
  O  O76  1  0.44070000  0.38391000  0.63221000  1.0
  O  O77  1  0.05738000  0.61618000  0.86788000  1.0
  O  O78  1  0.55930000  0.61609000  0.36778000  1.0
  O  O79  1  0.94261000  0.38382000  0.13212000  1.0
  O  O80  1  0.62976000  0.43856000  0.86811000  1.0
  O  O81  1  0.19092000  0.56121000  0.63184000  1.0
  O  O82  1  0.37024000  0.56143000  0.13189000  1.0
  O  O83  1  0.80908000  0.43879000  0.36816000  1.0
  O  O84  1  0.87813000  0.61320000  0.66257000  1.0
  O  O85  1  0.26497000  0.38708000  0.83764000  1.0
  O  O86  1  0.12188000  0.38680000  0.33744000  1.0
  O  O87  1  0.73503000  0.61291000  0.16236000  1.0
  O  O88  1  0.88050000  0.36310000  0.69143000  1.0
  O  O89  1  0.51784000  0.63711000  0.80877000  1.0
  O  O90  1  0.11950000  0.63690000  0.30857000  1.0
  O  O91  1  0.48217000  0.36290000  0.19123000  1.0
  O  O92  1  0.57474000  0.19879000  0.62237000  1.0
  O  O93  1  0.37596000  0.80129000  0.87751000  1.0
  O  O94  1  0.42526000  0.80121000  0.37763000  1.0
  O  O95  1  0.62403000  0.19871000  0.12250000  1.0
