# generated using pymatgen
data_UH7C5S2NO10
_symmetry_space_group_name_H-M   'P 1'
_cell_length_a   10.32590000
_cell_length_b   10.36220000
_cell_length_c   11.63600000
_cell_angle_alpha   90.00000000
_cell_angle_beta   111.12800000
_cell_angle_gamma   90.00000000
_symmetry_Int_Tables_number   1
_chemical_formula_structural   UH7C5S2NO10
_chemical_formula_sum   'U4 H28 C20 S8 N4 O40'
_cell_volume   1161.34607769
_cell_formula_units_Z   4
loop_
 _symmetry_equiv_pos_site_id
 _symmetry_equiv_pos_as_xyz
  1  'x, y, z'
loop_
 _atom_site_type_symbol
 _atom_site_label
 _atom_site_symmetry_multiplicity
 _atom_site_fract_x
 _atom_site_fract_y
 _atom_site_fract_z
 _atom_site_occupancy
  U  U0  1  0.38333000  0.80448000  0.78725000  1.0
  U  U1  1  0.11666000  0.30447000  0.71275000  1.0
  U  U2  1  0.61667000  0.19553000  0.21275000  1.0
  U  U3  1  0.88333000  0.69553000  0.28725000  1.0
  H  H4  1  0.13009000  0.97790000  0.65104000  1.0
  H  H5  1  0.36991000  0.47790000  0.84896000  1.0
  H  H6  1  0.86991000  0.02210000  0.34896000  1.0
  H  H7  1  0.63009000  0.52210000  0.15104000  1.0
  H  H8  1  0.20444000  0.93735000  0.55734000  1.0
  H  H9  1  0.29556000  0.43735000  0.94266000  1.0
  H  H10  1  0.79556000  0.06265000  0.44266000  1.0
  H  H11  1  0.70444000  0.56265000  0.05734000  1.0
  H  H12  1  0.59801000  0.07818000  0.81904000  1.0
  H  H13  1  0.90199000  0.57818000  0.68096000  1.0
  H  H14  1  0.40199000  0.92182000  0.18096000  1.0
  H  H15  1  0.09801000  0.42182000  0.31904000  1.0
  H  H16  1  0.65101000  0.27297000  0.91974000  1.0
  H  H17  1  0.84899000  0.77297000  0.58025000  1.0
  H  H18  1  0.34899000  0.72703000  0.08026000  1.0
  H  H19  1  0.15101000  0.22703000  0.41974000  1.0
  H  H20  1  0.49318000  0.04773000  0.60561000  1.0
  H  H21  1  0.00682000  0.54773000  0.89439000  1.0
  H  H22  1  0.50682000  0.95227000  0.39439000  1.0
  H  H23  1  0.99318000  0.45227000  0.10561000  1.0
  H  H24  1  0.44022000  0.24457000  0.46497000  1.0
  H  H25  1  0.05977000  0.74457000  0.03503000  1.0
  H  H26  1  0.55978000  0.75543000  0.53503000  1.0
  H  H27  1  0.94023000  0.25542000  0.96497000  1.0
  H  H28  1  0.49065000  0.46285000  0.56560000  1.0
  H  H29  1  0.00934000  0.96286000  0.93440000  1.0
  H  H30  1  0.50935000  0.53715000  0.43440000  1.0
  H  H31  1  0.99066000  0.03714000  0.06560000  1.0
  C  C32  1  0.57522000  0.38470000  0.74807000  1.0
  C  C33  1  0.92478000  0.88470000  0.75193000  1.0
  C  C34  1  0.42478000  0.61530000  0.25194000  1.0
  C  C35  1  0.07522000  0.11530000  0.24807000  1.0
  C  C36  1  0.60262000  0.27402000  0.81966000  1.0
  C  C37  1  0.89739000  0.77402000  0.68034000  1.0
  C  C38  1  0.39738000  0.72598000  0.18034000  1.0
  C  C39  1  0.10261000  0.22598000  0.31966000  1.0
  C  C40  1  0.51359000  0.14600000  0.63951000  1.0
  C  C41  1  0.98641000  0.64600000  0.86049000  1.0
  C  C42  1  0.48641000  0.85400000  0.36049000  1.0
  C  C43  1  0.01359000  0.35399000  0.13951000  1.0
  C  C44  1  0.48475000  0.25435000  0.56474000  1.0
  C  C45  1  0.01525000  0.75436000  0.93526000  1.0
  C  C46  1  0.51525000  0.74565000  0.43526000  1.0
  C  C47  1  0.98475000  0.24564000  0.06474000  1.0
  C  C48  1  0.51460000  0.37515000  0.62004000  1.0
  C  C49  1  0.98540000  0.87515000  0.87995000  1.0
  C  C50  1  0.48540000  0.62485000  0.37996000  1.0
  C  C51  1  0.01460000  0.12485000  0.12005000  1.0
  S  S52  1  0.62299000  0.53971000  0.81669000  1.0
  S  S53  1  0.87701000  0.03971000  0.68330000  1.0
  S  S54  1  0.37701000  0.46029000  0.18331000  1.0
  S  S55  1  0.12299000  0.96029000  0.31670000  1.0
  S  S56  1  0.67925000  0.91372000  0.04421000  1.0
  S  S57  1  0.82076000  0.41372000  0.45579000  1.0
  S  S58  1  0.32075000  0.08629000  0.95579000  1.0
  S  S59  1  0.17924000  0.58628000  0.54421000  1.0
  N  N60  1  0.56961000  0.15924000  0.76277000  1.0
  N  N61  1  0.93039000  0.65924000  0.73723000  1.0
  N  N62  1  0.43039000  0.84076000  0.23723000  1.0
  N  N63  1  0.06961000  0.34076000  0.26277000  1.0
  O  O64  1  0.49851000  0.87263000  0.71756000  1.0
  O  O65  1  0.00149000  0.37263000  0.78244000  1.0
  O  O66  1  0.50149000  0.12737000  0.28244000  1.0
  O  O67  1  0.99852000  0.62737000  0.21756000  1.0
  O  O68  1  0.26804000  0.73697000  0.85684000  1.0
  O  O69  1  0.23196000  0.23697000  0.64316000  1.0
  O  O70  1  0.73196000  0.26303000  0.14316000  1.0
  O  O71  1  0.76804000  0.76303000  0.35684000  1.0
  O  O72  1  0.49555000  0.58706000  0.83833000  1.0
  O  O73  1  0.00445000  0.08706000  0.66167000  1.0
  O  O74  1  0.50445000  0.41294000  0.16167000  1.0
  O  O75  1  0.99555000  0.91294000  0.33833000  1.0
  O  O76  1  0.65523000  0.61796000  0.72789000  1.0
  O  O77  1  0.84477000  0.11797000  0.77211000  1.0
  O  O78  1  0.34477000  0.38204000  0.27211000  1.0
  O  O79  1  0.15523000  0.88203000  0.22789000  1.0
  O  O80  1  0.73659000  0.51633000  0.93425000  1.0
  O  O81  1  0.76341000  0.01633000  0.56575000  1.0
  O  O82  1  0.26341000  0.48367000  0.06575000  1.0
  O  O83  1  0.23659000  0.98367000  0.43425000  1.0
  O  O84  1  0.55879000  0.82609000  0.98044000  1.0
  O  O85  1  0.94121000  0.32609000  0.51956000  1.0
  O  O86  1  0.44121000  0.17391000  0.01956000  1.0
  O  O87  1  0.05879000  0.67391000  0.48044000  1.0
  O  O88  1  0.64258000  0.98757000  0.13890000  1.0
  O  O89  1  0.85742000  0.48757000  0.36110000  1.0
  O  O90  1  0.35742000  0.01243000  0.86110000  1.0
  O  O91  1  0.14258000  0.51243000  0.63890000  1.0
  O  O92  1  0.80116000  0.82943000  0.10977000  1.0
  O  O93  1  0.69884000  0.32943000  0.39023000  1.0
  O  O94  1  0.19884000  0.17057000  0.89022000  1.0
  O  O95  1  0.30116000  0.67057000  0.60977000  1.0
  O  O96  1  0.71136000  0.99864000  0.95827000  1.0
  O  O97  1  0.78864000  0.49864000  0.54173000  1.0
  O  O98  1  0.28864000  0.00136000  0.04173000  1.0
  O  O99  1  0.21136000  0.50136000  0.45827000  1.0
  O  O100  1  0.19088000  0.91206000  0.63512000  1.0
  O  O101  1  0.30911000  0.41206000  0.86488000  1.0
  O  O102  1  0.80911000  0.08794000  0.36488000  1.0
  O  O103  1  0.69089000  0.58794000  0.13511000  1.0
