# generated using pymatgen
data_HgH4C6Br2N
_symmetry_space_group_name_H-M   'P 1'
_cell_length_a   4.05834000
_cell_length_b   9.69456000
_cell_length_c   11.21820000
_cell_angle_alpha   71.29760000
_cell_angle_beta   80.12570000
_cell_angle_gamma   79.67540000
_symmetry_Int_Tables_number   1
_chemical_formula_structural   HgH4C6Br2N
_chemical_formula_sum   'Hg2 H8 C12 Br4 N2'
_cell_volume   408.20179507
_cell_formula_units_Z   2
loop_
 _symmetry_equiv_pos_site_id
 _symmetry_equiv_pos_as_xyz
  1  'x, y, z'
loop_
 _atom_site_type_symbol
 _atom_site_label
 _atom_site_symmetry_multiplicity
 _atom_site_fract_x
 _atom_site_fract_y
 _atom_site_fract_z
 _atom_site_occupancy
  Hg  Hg0  1  0.70816000  0.78957000  0.63652000  1.0
  Hg  Hg1  1  0.29188000  0.21043000  0.36348000  1.0
  H  H2  1  0.73200000  0.45726000  0.70090000  1.0
  H  H3  1  0.26802000  0.54273000  0.29910000  1.0
  H  H4  1  0.73803000  0.92251000  0.07011000  1.0
  H  H5  1  0.26195000  0.07751000  0.92990000  1.0
  H  H6  1  0.54273000  0.22004000  0.72360000  1.0
  H  H7  1  0.45726000  0.77996000  0.27641000  1.0
  H  H8  1  0.81894000  0.83263000  0.88150000  1.0
  H  H9  1  0.18106000  0.16739000  0.11850000  1.0
  C  C10  1  0.55362000  0.45269000  0.89513000  1.0
  C  C11  1  0.44640000  0.54731000  0.10487000  1.0
  C  C12  1  0.59638000  0.63365000  0.98262000  1.0
  C  C13  1  0.40361000  0.36636000  0.01738000  1.0
  C  C14  1  0.60694000  0.39479000  0.79081000  1.0
  C  C15  1  0.39309000  0.60521000  0.20920000  1.0
  C  C16  1  0.65391000  0.81923000  0.07714000  1.0
  C  C17  1  0.34605000  0.18078000  0.92286000  1.0
  C  C18  1  0.50439000  0.26265000  0.80447000  1.0
  C  C19  1  0.49559000  0.73736000  0.19554000  1.0
  C  C20  1  0.69921000  0.77018000  0.97271000  1.0
  C  C21  1  0.30078000  0.22983000  0.02729000  1.0
  Br  Br22  1  0.24502000  0.98160000  0.68314000  1.0
  Br  Br23  1  0.75496000  0.01836000  0.31689000  1.0
  Br  Br24  1  0.21093000  0.65136000  0.54177000  1.0
  Br  Br25  1  0.78907000  0.34861000  0.45821000  1.0
  N  N26  1  0.64389000  0.58497000  0.88031000  1.0
  N  N27  1  0.35615000  0.41503000  0.11969000  1.0
