# generated using pymatgen
data_ZnPH5C2N4O3
_symmetry_space_group_name_H-M   'P 1'
_cell_length_a   8.83949000
_cell_length_b   8.83948000
_cell_length_c   10.34890000
_cell_angle_alpha   70.25760000
_cell_angle_beta   70.25760000
_cell_angle_gamma   73.84000000
_symmetry_Int_Tables_number   1
_chemical_formula_structural   ZnPH5C2N4O3
_chemical_formula_sum   'Zn4 P4 H20 C8 N16 O12'
_cell_volume   703.94458501
_cell_formula_units_Z   4
loop_
 _symmetry_equiv_pos_site_id
 _symmetry_equiv_pos_as_xyz
  1  'x, y, z'
loop_
 _atom_site_type_symbol
 _atom_site_label
 _atom_site_symmetry_multiplicity
 _atom_site_fract_x
 _atom_site_fract_y
 _atom_site_fract_z
 _atom_site_occupancy
  Zn  Zn0  1  0.44027000  0.72623000  0.04387000  1.0
  Zn  Zn1  1  0.27376000  0.55973000  0.45613000  1.0
  Zn  Zn2  1  0.55974000  0.27377000  0.95613000  1.0
  Zn  Zn3  1  0.72623000  0.44027000  0.54387000  1.0
  P  P4  1  0.32721000  0.38372000  0.22457000  1.0
  P  P5  1  0.61627000  0.67279000  0.27544000  1.0
  P  P6  1  0.67279000  0.61628000  0.77543000  1.0
  P  P7  1  0.38372000  0.32721000  0.72457000  1.0
  H  H8  1  0.18178000  0.32741000  0.25416000  1.0
  H  H9  1  0.67259000  0.81822000  0.24584000  1.0
  H  H10  1  0.81822000  0.67259000  0.74584000  1.0
  H  H11  1  0.32741000  0.18177000  0.75416000  1.0
  H  H12  1  0.86179000  0.38929000  0.21133000  1.0
  H  H13  1  0.61071000  0.13821000  0.28867000  1.0
  H  H14  1  0.13821000  0.61071000  0.78867000  1.0
  H  H15  1  0.38929000  0.86179000  0.71133000  1.0
  H  H16  1  0.78883000  0.44031000  0.06414000  1.0
  H  H17  1  0.55969000  0.21118000  0.43586000  1.0
  H  H18  1  0.21118000  0.55968000  0.93586000  1.0
  H  H19  1  0.44032000  0.78882000  0.56414000  1.0
  H  H20  1  0.90503000  0.30621000  0.89061000  1.0
  H  H21  1  0.69380000  0.09497000  0.60939000  1.0
  H  H22  1  0.09497000  0.69379000  0.10939000  1.0
  H  H23  1  0.30621000  0.90503000  0.39061000  1.0
  H  H24  1  0.07832000  0.14924000  0.89829000  1.0
  H  H25  1  0.85076000  0.92168000  0.60171000  1.0
  H  H26  1  0.92168000  0.85076000  0.10171000  1.0
  H  H27  1  0.14924000  0.07832000  0.39829000  1.0
  C  C28  1  0.20161000  0.04243000  0.10266000  1.0
  C  C29  1  0.95757000  0.79839000  0.39734000  1.0
  C  C30  1  0.79839000  0.95758000  0.89734000  1.0
  C  C31  1  0.04243000  0.20160000  0.60266000  1.0
  C  C32  1  0.98652000  0.25220000  0.06698000  1.0
  C  C33  1  0.74780000  0.01348000  0.43302000  1.0
  C  C34  1  0.01348000  0.74780000  0.93302000  1.0
  C  C35  1  0.25220000  0.98652000  0.56698000  1.0
  N  N36  1  0.30536000  0.93245000  0.07320000  1.0
  N  N37  1  0.06754000  0.69464000  0.42680000  1.0
  N  N38  1  0.69465000  0.06755000  0.92680000  1.0
  N  N39  1  0.93245000  0.30536000  0.57320000  1.0
  N  N40  1  0.09293000  0.15902000  0.14434000  1.0
  N  N41  1  0.84098000  0.90707000  0.35566000  1.0
  N  N42  1  0.90707000  0.84098000  0.85566000  1.0
  N  N43  1  0.15902000  0.09293000  0.64434000  1.0
  N  N44  1  0.87327000  0.36856000  0.11696000  1.0
  N  N45  1  0.63144000  0.12673000  0.38304000  1.0
  N  N46  1  0.12673000  0.63144000  0.88304000  1.0
  N  N47  1  0.36856000  0.87327000  0.61696000  1.0
  N  N48  1  0.98954000  0.23139000  0.94347000  1.0
  N  N49  1  0.76861000  0.01046000  0.55653000  1.0
  N  N50  1  0.01046000  0.76861000  0.05654000  1.0
  N  N51  1  0.23139000  0.98954000  0.44346000  1.0
  O  O52  1  0.29954000  0.55654000  0.12163000  1.0
  O  O53  1  0.44346000  0.70045000  0.37837000  1.0
  O  O54  1  0.70046000  0.44346000  0.87837000  1.0
  O  O55  1  0.55654000  0.29954000  0.62163000  1.0
  O  O56  1  0.46954000  0.26215000  0.15809000  1.0
  O  O57  1  0.73785000  0.53046000  0.34191000  1.0
  O  O58  1  0.53046000  0.73785000  0.84191000  1.0
  O  O59  1  0.26215000  0.46954000  0.65809000  1.0
  O  O60  1  0.34833000  0.38196000  0.36627000  1.0
  O  O61  1  0.61804000  0.65167000  0.13373000  1.0
  O  O62  1  0.65167000  0.61804000  0.63373000  1.0
  O  O63  1  0.38196000  0.34833000  0.86627000  1.0
