# generated using pymatgen
data_CdPH10C6NO6
_symmetry_space_group_name_H-M   'P 1'
_cell_length_a   6.83844000
_cell_length_b   7.57273000
_cell_length_c   10.09720000
_cell_angle_alpha   87.78000000
_cell_angle_beta   78.05670000
_cell_angle_gamma   70.04640000
_symmetry_Int_Tables_number   1
_chemical_formula_structural   CdPH10C6NO6
_chemical_formula_sum   'Cd2 P2 H20 C12 N2 O12'
_cell_volume   480.57200453
_cell_formula_units_Z   2
loop_
 _symmetry_equiv_pos_site_id
 _symmetry_equiv_pos_as_xyz
  1  'x, y, z'
loop_
 _atom_site_type_symbol
 _atom_site_label
 _atom_site_symmetry_multiplicity
 _atom_site_fract_x
 _atom_site_fract_y
 _atom_site_fract_z
 _atom_site_occupancy
  Cd  Cd0  1  0.26026000  0.19028000  0.02752000  1.0
  Cd  Cd1  1  0.73975000  0.80973000  0.97247000  1.0
  P  P2  1  0.72689000  0.22411000  0.11517000  1.0
  P  P3  1  0.27311000  0.77589000  0.88483000  1.0
  H  H4  1  0.57368000  0.28765000  0.46833000  1.0
  H  H5  1  0.42632000  0.71234000  0.53168000  1.0
  H  H6  1  0.68692000  0.42109000  0.64908000  1.0
  H  H7  1  0.31309000  0.57890000  0.35092000  1.0
  H  H8  1  0.07825000  0.35347000  0.63404000  1.0
  H  H9  1  0.92175000  0.64652000  0.36596000  1.0
  H  H10  1  0.33515000  0.16743000  0.42681000  1.0
  H  H11  1  0.66485000  0.83257000  0.57319000  1.0
  H  H12  1  0.70064000  0.01434000  0.29346000  1.0
  H  H13  1  0.29936000  0.98565000  0.70654000  1.0
  H  H14  1  0.96500000  0.94764000  0.19701000  1.0
  H  H15  1  0.03500000  0.05236000  0.80299000  1.0
  H  H16  1  0.32813000  0.45046000  0.16210000  1.0
  H  H17  1  0.67186000  0.54954000  0.83790000  1.0
  H  H18  1  0.14238000  0.57263000  0.08791000  1.0
  H  H19  1  0.85762000  0.42737000  0.91209000  1.0
  H  H20  1  0.39070000  0.39158000  0.80656000  1.0
  H  H21  1  0.60930000  0.60843000  0.19344000  1.0
  H  H22  1  0.51623000  0.17103000  0.77603000  1.0
  H  H23  1  0.48377000  0.82898000  0.22397000  1.0
  C  C24  1  0.88834000  0.15560000  0.35429000  1.0
  C  C25  1  0.11165000  0.84440000  0.64572000  1.0
  C  C26  1  0.74137000  0.26311000  0.46395000  1.0
  C  C27  1  0.25862000  0.73689000  0.53606000  1.0
  C  C28  1  0.80446000  0.33654000  0.56502000  1.0
  C  C29  1  0.19554000  0.66345000  0.43499000  1.0
  C  C30  1  0.02133000  0.30103000  0.55597000  1.0
  C  C31  1  0.97868000  0.69897000  0.44403000  1.0
  C  C32  1  0.16444000  0.19857000  0.44541000  1.0
  C  C33  1  0.83556000  0.80143000  0.55459000  1.0
  C  C34  1  0.82944000  0.06692000  0.24761000  1.0
  C  C35  1  0.17056000  0.93308000  0.75239000  1.0
  N  N36  1  0.09934000  0.12934000  0.34626000  1.0
  N  N37  1  0.90066000  0.87066000  0.65374000  1.0
  O  O38  1  0.91748000  0.25275000  0.01661000  1.0
  O  O39  1  0.08252000  0.74726000  0.98339000  1.0
  O  O40  1  0.61643000  0.11793000  0.04569000  1.0
  O  O41  1  0.38357000  0.88207000  0.95431000  1.0
  O  O42  1  0.56718000  0.40836000  0.18511000  1.0
  O  O43  1  0.43282000  0.59164000  0.81489000  1.0
  O  O44  1  0.24337000  0.03420000  0.24144000  1.0
  O  O45  1  0.75663000  0.96580000  0.75856000  1.0
  O  O46  1  0.18228000  0.46266000  0.14791000  1.0
  O  O47  1  0.81772000  0.53734000  0.85209000  1.0
  O  O48  1  0.37190000  0.26556000  0.80262000  1.0
  O  O49  1  0.62810000  0.73444000  0.19737000  1.0
