# generated using pymatgen
data_UH6C6(NO4)2
_symmetry_space_group_name_H-M   'P 1'
_cell_length_a   5.40285000
_cell_length_b   6.22561000
_cell_length_c   14.65300000
_cell_angle_alpha   89.99970000
_cell_angle_beta   97.21270000
_cell_angle_gamma   89.99990000
_symmetry_Int_Tables_number   1
_chemical_formula_structural   UH6C6(NO4)2
_chemical_formula_sum   'U2 H12 C12 N4 O16'
_cell_volume   488.96872750
_cell_formula_units_Z   2
loop_
 _symmetry_equiv_pos_site_id
 _symmetry_equiv_pos_as_xyz
  1  'x, y, z'
loop_
 _atom_site_type_symbol
 _atom_site_label
 _atom_site_symmetry_multiplicity
 _atom_site_fract_x
 _atom_site_fract_y
 _atom_site_fract_z
 _atom_site_occupancy
  U  U0  1  0.55492000  0.69963000  0.93792000  1.0
  U  U1  1  0.55493000  0.30036000  0.43791000  1.0
  H  H2  1  0.51844000  0.16655000  0.96913000  1.0
  H  H3  1  0.51844000  0.83345000  0.46913000  1.0
  H  H4  1  0.24929000  0.10275000  0.98807000  1.0
  H  H5  1  0.24929000  0.89725000  0.48807000  1.0
  H  H6  1  0.29550000  0.69377000  0.11353000  1.0
  H  H7  1  0.29550000  0.30623000  0.61353000  1.0
  H  H8  1  0.52400000  0.86990000  0.12192000  1.0
  H  H9  1  0.52399000  0.13010000  0.62192000  1.0
  H  H10  1  0.17121000  0.09980000  0.76066000  1.0
  H  H11  1  0.17121000  0.90020000  0.26066000  1.0
  H  H12  1  0.88892000  0.20680000  0.87821000  1.0
  H  H13  1  0.88891000  0.79320000  0.37820000  1.0
  C  C14  1  0.76777000  0.59511000  0.72832000  1.0
  C  C15  1  0.76777000  0.40489000  0.22832000  1.0
  C  C16  1  0.91560000  0.53152000  0.66107000  1.0
  C  C17  1  0.91561000  0.46848000  0.16107000  1.0
  C  C18  1  0.04948000  0.24007000  0.75021000  1.0
  C  C19  1  0.04948000  0.75992000  0.25021000  1.0
  C  C20  1  0.89523000  0.29983000  0.81574000  1.0
  C  C21  1  0.89522000  0.70017000  0.31574000  1.0
  C  C22  1  0.62340000  0.80054000  0.72074000  1.0
  C  C23  1  0.62340000  0.19946000  0.22074000  1.0
  C  C24  1  0.92612000  0.65391000  0.57201000  1.0
  C  C25  1  0.92612000  0.34610000  0.07202000  1.0
  N  N26  1  0.75999000  0.48043000  0.80562000  1.0
  N  N27  1  0.75999000  0.51958000  0.30562000  1.0
  N  N28  1  0.06192000  0.35724000  0.67432000  1.0
  N  N29  1  0.06192000  0.64276000  0.17432000  1.0
  O  O30  1  0.84679000  0.84207000  0.96162000  1.0
  O  O31  1  0.84678000  0.15793000  0.46162000  1.0
  O  O32  1  0.26758000  0.55274000  0.91254000  1.0
  O  O33  1  0.26758000  0.44726000  0.41254000  1.0
  O  O34  1  0.49560000  0.84135000  0.78690000  1.0
  O  O35  1  0.49560000  0.15865000  0.28690000  1.0
  O  O36  1  0.64444000  0.91783000  0.65293000  1.0
  O  O37  1  0.64444000  0.08218000  0.15293000  1.0
  O  O38  1  0.74744000  0.61263000  0.50619000  1.0
  O  O39  1  0.74745000  0.38737000  0.00619000  1.0
  O  O40  1  0.10724000  0.77346000  0.56794000  1.0
  O  O41  1  0.10725000  0.22653000  0.06794000  1.0
  O  O42  1  0.38507000  0.06101000  0.95054000  1.0
  O  O43  1  0.38507000  0.93899000  0.45054000  1.0
  O  O44  1  0.45914000  0.73183000  0.08939000  1.0
  O  O45  1  0.45914000  0.26818000  0.58939000  1.0
