# generated using pymatgen
data_ZnH6C7N4
_symmetry_space_group_name_H-M   'P 1'
_cell_length_a   7.03113000
_cell_length_b   8.68170000
_cell_length_c   8.68161000
_cell_angle_alpha   112.82200000
_cell_angle_beta   105.58700000
_cell_angle_gamma   105.58800000
_symmetry_Int_Tables_number   1
_chemical_formula_structural   ZnH6C7N4
_chemical_formula_sum   'Zn2 H12 C14 N8'
_cell_volume   426.97041376
_cell_formula_units_Z   2
loop_
 _symmetry_equiv_pos_site_id
 _symmetry_equiv_pos_as_xyz
  1  'x, y, z'
loop_
 _atom_site_type_symbol
 _atom_site_label
 _atom_site_symmetry_multiplicity
 _atom_site_fract_x
 _atom_site_fract_y
 _atom_site_fract_z
 _atom_site_occupancy
  Zn  Zn0  1  0.25000000  0.47613000  0.52387000  1.0
  Zn  Zn1  1  0.75000000  0.52387000  0.47613000  1.0
  H  H2  1  0.11385000  0.25285000  0.09447000  1.0
  H  H3  1  0.38614000  0.90552000  0.74714000  1.0
  H  H4  1  0.88614000  0.74715000  0.90553000  1.0
  H  H5  1  0.61386000  0.09447000  0.25286000  1.0
  H  H6  1  0.59234000  0.43044000  0.05250000  1.0
  H  H7  1  0.90766000  0.94750000  0.56956000  1.0
  H  H8  1  0.40767000  0.56958000  0.94751000  1.0
  H  H9  1  0.09234000  0.05250000  0.43044000  1.0
  H  H10  1  0.61721000  0.25032000  0.72283000  1.0
  H  H11  1  0.88278000  0.27716000  0.74966000  1.0
  H  H12  1  0.38279000  0.74967000  0.27717000  1.0
  H  H13  1  0.11722000  0.72284000  0.25034000  1.0
  C  C14  1  0.75000000  0.21791000  0.78208000  1.0
  C  C15  1  0.25000000  0.78209000  0.21792000  1.0
  C  C16  1  0.82365000  0.30730000  0.98716000  1.0
  C  C17  1  0.67634000  0.01283000  0.69269000  1.0
  C  C18  1  0.17635000  0.69270000  0.01284000  1.0
  C  C19  1  0.32366000  0.98716000  0.30731000  1.0
  C  C20  1  0.99794000  0.31087000  0.11574000  1.0
  C  C21  1  0.50206000  0.88425000  0.68912000  1.0
  C  C22  1  0.00206000  0.68912000  0.88425000  1.0
  C  C23  1  0.49794000  0.11575000  0.31088000  1.0
  C  C24  1  0.73310000  0.40202000  0.09436000  1.0
  C  C25  1  0.76690000  0.90563000  0.59798000  1.0
  C  C26  1  0.26690000  0.59799000  0.90564000  1.0
  C  C27  1  0.23311000  0.09437000  0.40202000  1.0
  N  N28  1  0.00955000  0.40152000  0.28658000  1.0
  N  N29  1  0.49045000  0.71341000  0.59847000  1.0
  N  N30  1  0.99045000  0.59848000  0.71342000  1.0
  N  N31  1  0.50955000  0.28659000  0.40152000  1.0
  N  N32  1  0.84663000  0.45948000  0.27424000  1.0
  N  N33  1  0.65337000  0.72575000  0.54051000  1.0
  N  N34  1  0.15338000  0.54052000  0.72576000  1.0
  N  N35  1  0.34662000  0.27424000  0.45948000  1.0
