# generated using pymatgen
data_ZnH15C27(NO2)3
_symmetry_space_group_name_H-M   'P 1'
_cell_length_a   9.70143000
_cell_length_b   16.55450000
_cell_length_c   17.01880000
_cell_angle_alpha   90.00660000
_cell_angle_beta   90.41240000
_cell_angle_gamma   86.91570000
_symmetry_Int_Tables_number   1
_chemical_formula_structural   ZnH15C27(NO2)3
_chemical_formula_sum   'Zn2 H30 C54 N6 O12'
_cell_volume   2729.22875515
_cell_formula_units_Z   2
loop_
 _symmetry_equiv_pos_site_id
 _symmetry_equiv_pos_as_xyz
  1  'x, y, z'
loop_
 _atom_site_type_symbol
 _atom_site_label
 _atom_site_symmetry_multiplicity
 _atom_site_fract_x
 _atom_site_fract_y
 _atom_site_fract_z
 _atom_site_occupancy
  Zn  Zn0  1  0.64089000  0.99068000  0.50435000  1.0
  Zn  Zn1  1  0.35937000  0.00930000  0.50323000  1.0
  H  H2  1  0.17383000  0.88866000  0.50033000  1.0
  H  H3  1  0.82623000  0.11132000  0.50017000  1.0
  H  H4  1  0.28002000  0.28759000  0.21506000  1.0
  H  H5  1  0.71866000  0.71194000  0.21713000  1.0
  H  H6  1  0.26948000  0.71624000  0.78810000  1.0
  H  H7  1  0.73194000  0.28414000  0.78955000  1.0
  H  H8  1  0.71262000  0.71829000  0.78700000  1.0
  H  H9  1  0.28881000  0.28205000  0.78468000  1.0
  H  H10  1  0.72368000  0.27728000  0.21363000  1.0
  H  H11  1  0.27502000  0.72225000  0.21255000  1.0
  H  H12  1  0.28548000  0.18402000  0.32219000  1.0
  H  H13  1  0.71358000  0.81530000  0.32447000  1.0
  H  H14  1  0.25656000  0.82203000  0.68291000  1.0
  H  H15  1  0.74493000  0.17863000  0.68417000  1.0
  H  H16  1  0.69860000  0.82361000  0.68102000  1.0
  H  H17  1  0.30293000  0.17699000  0.67860000  1.0
  H  H18  1  0.72782000  0.17188000  0.31929000  1.0
  H  H19  1  0.27117000  0.82734000  0.31847000  1.0
  H  H20  1  0.49872000  0.41824000  0.30135000  1.0
  H  H21  1  0.49864000  0.58117000  0.30154000  1.0
  H  H22  1  0.49880000  0.58191000  0.70066000  1.0
  H  H23  1  0.50294000  0.41867000  0.70049000  1.0
  H  H24  1  0.49815000  0.19062000  0.07988000  1.0
  H  H25  1  0.50130000  0.80918000  0.08063000  1.0
  H  H26  1  0.50009000  0.80927000  0.92177000  1.0
  H  H27  1  0.50078000  0.19083000  0.92104000  1.0
  H  H28  1  0.49851000  0.43412000  0.00080000  1.0
  H  H29  1  0.50135000  0.56584000  0.00102000  1.0
  H  H30  1  0.04110000  0.81352000  0.41601000  1.0
  H  H31  1  0.95534000  0.18528000  0.41385000  1.0
  C  C32  1  0.52990000  0.10857000  0.61244000  1.0
  C  C33  1  0.50780000  0.11029000  0.39196000  1.0
  C  C34  1  0.49141000  0.88899000  0.39266000  1.0
  C  C35  1  0.47160000  0.89210000  0.61304000  1.0
  C  C36  1  0.95343000  0.92434000  0.49641000  1.0
  C  C37  1  0.04644000  0.07559000  0.49525000  1.0
  C  C38  1  0.09460000  0.93795000  0.49755000  1.0
  C  C39  1  0.90535000  0.06200000  0.49750000  1.0
  C  C40  1  0.37829000  0.26235000  0.23812000  1.0
  C  C41  1  0.62048000  0.73717000  0.23953000  1.0
  C  C42  1  0.36342000  0.74023000  0.76478000  1.0
  C  C43  1  0.63800000  0.26025000  0.76534000  1.0
  C  C44  1  0.61268000  0.74140000  0.76436000  1.0
  C  C45  1  0.38877000  0.25900000  0.76284000  1.0
  C  C46  1  0.62767000  0.25642000  0.23737000  1.0
  C  C47  1  0.37110000  0.74307000  0.23702000  1.0
  C  C48  1  0.38084000  0.20461000  0.29767000  1.0
  C  C49  1  0.61814000  0.79479000  0.29918000  1.0
  C  C50  1  0.35602000  0.79902000  0.70613000  1.0
  C  C51  1  0.64546000  0.20162000  0.70658000  1.0
  C  C52  1  0.60556000  0.80013000  0.70571000  1.0
  C  C53  1  0.39597000  0.20042000  0.70412000  1.0
  C  C54  1  0.63014000  0.19819000  0.29653000  1.0
  C  C55  1  0.36881000  0.80115000  0.29632000  1.0
  C  C56  1  0.49913000  0.43405000  0.16877000  1.0
  C  C57  1  0.49903000  0.56564000  0.16894000  1.0
  C  C58  1  0.49906000  0.56594000  0.83316000  1.0
  C  C59  1  0.50223000  0.43435000  0.83302000  1.0
  C  C60  1  0.49896000  0.45866000  0.25112000  1.0
  C  C61  1  0.49864000  0.54084000  0.25122000  1.0
  C  C62  1  0.49958000  0.54134000  0.75080000  1.0
  C  C63  1  0.50199000  0.45914000  0.75072000  1.0
  C  C64  1  0.49807000  0.32498000  0.06706000  1.0
  C  C65  1  0.50133000  0.67487000  0.06750000  1.0
  C  C66  1  0.50064000  0.67498000  0.93475000  1.0
  C  C67  1  0.50001000  0.32509000  0.93433000  1.0
  C  C68  1  0.49857000  0.24251000  0.04097000  1.0
  C  C69  1  0.50119000  0.75738000  0.04159000  1.0
  C  C70  1  0.50057000  0.75745000  0.96079000  1.0
  C  C71  1  0.49992000  0.24258000  0.96018000  1.0
  C  C72  1  0.49913000  0.35256000  0.14493000  1.0
  C  C73  1  0.49953000  0.64716000  0.14528000  1.0
  C  C74  1  0.49818000  0.64744000  0.85690000  1.0
  C  C75  1  0.50302000  0.35279000  0.85658000  1.0
  C  C76  1  0.50158000  0.28929000  0.20759000  1.0
  C  C77  1  0.49709000  0.71031000  0.20806000  1.0
  C  C78  1  0.49179000  0.71083000  0.79441000  1.0
  C  C79  1  0.50961000  0.28955000  0.79399000  1.0
  C  C80  1  0.50680000  0.17204000  0.32759000  1.0
  C  C81  1  0.49227000  0.82728000  0.32828000  1.0
  C  C82  1  0.47707000  0.82937000  0.67627000  1.0
  C  C83  1  0.52445000  0.17129000  0.67565000  1.0
  C  C84  1  0.90526000  0.83891000  0.49722000  1.0
  C  C85  1  0.09452000  0.16105000  0.49464000  1.0
  N  N86  1  0.85975000  0.98706000  0.49931000  1.0
  N  N87  1  0.14028000  0.01291000  0.49823000  1.0
  N  N88  1  0.49923000  0.49990000  0.11991000  1.0
  N  N89  1  0.50053000  0.50009000  0.88208000  1.0
  N  N90  1  0.49804000  0.37246000  0.00077000  1.0
  N  N91  1  0.50193000  0.62749000  0.00110000  1.0
  O  O92  1  0.64685000  0.08742000  0.58252000  1.0
  O  O93  1  0.41533000  0.08011000  0.59273000  1.0
  O  O94  1  0.39039000  0.09185000  0.41788000  1.0
  O  O95  1  0.62437000  0.08048000  0.41627000  1.0
  O  O96  1  0.37489000  0.91886000  0.41604000  1.0
  O  O97  1  0.60889000  0.90743000  0.41949000  1.0
  O  O98  1  0.58611000  0.92054000  0.59418000  1.0
  O  O99  1  0.35458000  0.91319000  0.58221000  1.0
  O  O100  1  0.97326000  0.78652000  0.44744000  1.0
  O  O101  1  0.81661000  0.81725000  0.54068000  1.0
  O  O102  1  0.02445000  0.21273000  0.44450000  1.0
  O  O103  1  0.18493000  0.18333000  0.53728000  1.0
