# generated using pymatgen
data_Al4H20C41Br2O21
_symmetry_space_group_name_H-M   'P 1'
_cell_length_a   6.70374000
_cell_length_b   19.65970000
_cell_length_c   21.22760000
_cell_angle_alpha   86.78790000
_cell_angle_beta   88.21330000
_cell_angle_gamma   88.95420000
_symmetry_Int_Tables_number   1
_chemical_formula_structural   Al4H20C41Br2O21
_chemical_formula_sum   'Al4 H20 C41 Br2 O21'
_cell_volume   2791.52494035
_cell_formula_units_Z   1
loop_
 _symmetry_equiv_pos_site_id
 _symmetry_equiv_pos_as_xyz
  1  'x, y, z'
loop_
 _atom_site_type_symbol
 _atom_site_label
 _atom_site_symmetry_multiplicity
 _atom_site_fract_x
 _atom_site_fract_y
 _atom_site_fract_z
 _atom_site_occupancy
  Al  Al0  1  0.87378000  0.51047000  0.50753000  1.0
  Al  Al1  1  0.37258000  0.51019000  0.50852000  1.0
  Al  Al2  1  0.34677000  0.98196000  0.98415000  1.0
  Al  Al3  1  0.84784000  0.98205000  0.98378000  1.0
  H  H4  1  0.01501000  0.28285000  0.13957000  1.0
  H  H5  1  0.07673000  0.36135000  0.21456000  1.0
  H  H6  1  0.43155000  0.25364000  0.29954000  1.0
  H  H7  1  0.39825000  0.32151000  0.24349000  1.0
  H  H8  1  0.37080000  0.24633000  0.16357000  1.0
  H  H9  1  0.16072000  0.20104000  0.35534000  1.0
  H  H10  1  0.87214000  0.15425000  0.26535000  1.0
  H  H11  1  0.81774000  0.24696000  0.18774000  1.0
  H  H12  1  0.11385000  0.12078000  0.28186000  1.0
  H  H13  1  0.58527000  0.41202000  0.23973000  1.0
  H  H14  1  0.78182000  0.41316000  0.18136000  1.0
  H  H15  1  0.80797000  0.45926000  0.31685000  1.0
  H  H16  1  0.01015000  0.45921000  0.26180000  1.0
  H  H17  1  0.82199000  0.54124000  0.18782000  1.0
  H  H18  1  0.85450000  0.57561000  0.26238000  1.0
  H  H19  1  0.62023000  0.54297000  0.24397000  1.0
  H  H20  1  0.62854000  0.42171000  0.50371000  1.0
  H  H21  1  0.11711000  0.59757000  0.52140000  1.0
  H  H22  1  0.59196000  0.06928000  0.99420000  1.0
  H  H23  1  0.10304000  0.89402000  0.97324000  1.0
  C  C24  1  0.62545000  0.59451000  0.42057000  1.0
  C  C25  1  0.61170000  0.59052000  0.59064000  1.0
  C  C26  1  0.11873000  0.42404000  0.59409000  1.0
  C  C27  1  0.13651000  0.42948000  0.42654000  1.0
  C  C28  1  0.99292000  0.31771000  0.23611000  1.0
  C  C29  1  0.33310000  0.27343000  0.26226000  1.0
  C  C30  1  0.32033000  0.22340000  0.20941000  1.0
  C  C31  1  0.08047000  0.10979000  0.11512000  1.0
  C  C32  1  0.12185000  0.28859000  0.29170000  1.0
  C  C33  1  0.97409000  0.26271000  0.18748000  1.0
  C  C34  1  0.10422000  0.19869000  0.20473000  1.0
  C  C35  1  0.02876000  0.16765000  0.26969000  1.0
  C  C36  1  0.05036000  0.21894000  0.32095000  1.0
  C  C37  1  0.08892000  0.14986000  0.15643000  1.0
  C  C38  1  0.13539000  0.33802000  0.33941000  1.0
  C  C39  1  0.14259000  0.38024000  0.37882000  1.0
  C  C40  1  0.10416000  0.12153000  0.84849000  1.0
  C  C41  1  0.10628000  0.16931000  0.80877000  1.0
  C  C42  1  0.10814000  0.22190000  0.76572000  1.0
  C  C43  1  0.11006000  0.27067000  0.72652000  1.0
  C  C44  1  0.11260000  0.32323000  0.68345000  1.0
  C  C45  1  0.11528000  0.37092000  0.64364000  1.0
  C  C46  1  0.62396000  0.64264000  0.36681000  1.0
  C  C47  1  0.61766000  0.68331000  0.32091000  1.0
  C  C48  1  0.61127000  0.72712000  0.27024000  1.0
  C  C49  1  0.60523000  0.76733000  0.22353000  1.0
  C  C50  1  0.59894000  0.81120000  0.17289000  1.0
  C  C51  1  0.59374000  0.85141000  0.12664000  1.0
  C  C52  1  0.60738000  0.63781000  0.64011000  1.0
  C  C53  1  0.60837000  0.67942000  0.68104000  1.0
  C  C54  1  0.60997000  0.72521000  0.72555000  1.0
  C  C55  1  0.61206000  0.76751000  0.76633000  1.0
  C  C56  1  0.61308000  0.81318000  0.81096000  1.0
  C  C57  1  0.61382000  0.85465000  0.85202000  1.0
  C  C58  1  0.60936000  0.90209000  0.90137000  1.0
  C  C59  1  0.59348000  0.89826000  0.07189000  1.0
  C  C60  1  0.08428000  0.06216000  0.06604000  1.0
  C  C61  1  0.10198000  0.06826000  0.89794000  1.0
  C  C62  1  0.74850000  0.40823000  0.23283000  1.0
  C  C63  1  0.84665000  0.46494000  0.26612000  1.0
  C  C64  1  0.78252000  0.53498000  0.23848000  1.0
  Br  Br65  1  0.50486000  0.14433000  0.22201000  1.0
  Br  Br66  1  0.80438000  0.22473000  0.37456000  1.0
  O  O67  1  0.44382000  0.57231000  0.57143000  1.0
  O  O68  1  0.79565000  0.57623000  0.44115000  1.0
  O  O69  1  0.96351000  0.44959000  0.44495000  1.0
  O  O70  1  0.78422000  0.57241000  0.57035000  1.0
  O  O71  1  0.94975000  0.44402000  0.57362000  1.0
  O  O72  1  0.45478000  0.57573000  0.44222000  1.0
  O  O73  1  0.62542000  0.47035000  0.50904000  1.0
  O  O74  1  0.29051000  0.44453000  0.57500000  1.0
  O  O75  1  0.30283000  0.44815000  0.44662000  1.0
  O  O76  1  0.12104000  0.55126000  0.50795000  1.0
  O  O77  1  0.76460000  0.91580000  0.04958000  1.0
  O  O78  1  0.43681000  0.92003000  0.92175000  1.0
  O  O79  1  0.27149000  0.04778000  0.91751000  1.0
  O  O80  1  0.42358000  0.91647000  0.05106000  1.0
  O  O81  1  0.25678000  0.04366000  0.04582000  1.0
  O  O82  1  0.77704000  0.92066000  0.92036000  1.0
  O  O83  1  0.59531000  0.02208000  0.98325000  1.0
  O  O84  1  0.91716000  0.04338000  0.04660000  1.0
  O  O85  1  0.93054000  0.04828000  0.91789000  1.0
  O  O86  1  0.09935000  0.94121000  0.98420000  1.0
  O  O87  1  0.80141000  0.34081000  0.25688000  1.0
