# generated using pymatgen
data_ZnH20C24N3(O3F2)2
_symmetry_space_group_name_H-M   'P 1'
_cell_length_a   14.69290000
_cell_length_b   16.10370000
_cell_length_c   19.31420000
_cell_angle_alpha   90.07150000
_cell_angle_beta   90.08870000
_cell_angle_gamma   89.69690000
_symmetry_Int_Tables_number   1
_chemical_formula_structural   ZnH20C24N3(O3F2)2
_chemical_formula_sum   'Zn2 H40 C48 N6 O12 F8'
_cell_volume   4569.86096692
_cell_formula_units_Z   2
loop_
 _symmetry_equiv_pos_site_id
 _symmetry_equiv_pos_as_xyz
  1  'x, y, z'
loop_
 _atom_site_type_symbol
 _atom_site_label
 _atom_site_symmetry_multiplicity
 _atom_site_fract_x
 _atom_site_fract_y
 _atom_site_fract_z
 _atom_site_occupancy
  Zn  Zn0  1  0.40390000  0.50066000  0.49954000  1.0
  Zn  Zn1  1  0.59725000  0.50038000  0.50008000  1.0
  H  H2  1  0.35621000  0.46745000  0.71576000  1.0
  H  H3  1  0.64352000  0.51564000  0.72189000  1.0
  H  H4  1  0.44732000  0.07397000  0.60040000  1.0
  H  H5  1  0.56692000  0.07363000  0.59549000  1.0
  H  H6  1  0.08297000  0.63535000  0.51554000  1.0
  H  H7  1  0.92536000  0.63372000  0.49945000  1.0
  H  H8  1  0.92296000  0.43583000  0.40413000  1.0
  H  H9  1  0.08133000  0.44398000  0.39989000  1.0
  H  H10  1  0.91727000  0.54509000  0.39712000  1.0
  H  H11  1  0.07576000  0.55347000  0.39874000  1.0
  H  H12  1  0.92696000  0.36816000  0.50968000  1.0
  H  H13  1  0.08066000  0.36760000  0.51150000  1.0
  H  H14  1  0.91673000  0.59547000  0.58437000  1.0
  H  H15  1  0.07533000  0.57793000  0.59318000  1.0
  H  H16  1  0.35428000  0.48613000  0.28162000  1.0
  H  H17  1  0.64748000  0.49809000  0.27801000  1.0
  H  H18  1  0.64579000  0.06993000  0.48424000  1.0
  H  H19  1  0.35286000  0.07050000  0.49645000  1.0
  H  H20  1  0.44745000  0.92816000  0.60101000  1.0
  H  H21  1  0.56738000  0.92780000  0.59622000  1.0
  H  H22  1  0.96820000  0.50760000  0.65467000  1.0
  H  H23  1  0.95144000  0.41931000  0.70669000  1.0
  H  H24  1  0.78174000  0.43809000  0.69915000  1.0
  H  H25  1  0.83604000  0.52529000  0.73749000  1.0
  H  H26  1  0.79601000  0.53040000  0.65039000  1.0
  H  H27  1  0.16787000  0.31165000  0.59841000  1.0
  H  H28  1  0.05488000  0.30235000  0.63243000  1.0
  H  H29  1  0.17612000  0.28837000  0.72523000  1.0
  H  H30  1  0.21267000  0.39126000  0.70676000  1.0
  H  H31  1  0.10209000  0.37388000  0.74126000  1.0
  H  H32  1  0.37818000  0.33580000  0.88920000  1.0
  H  H33  1  0.31948000  0.33353000  0.80834000  1.0
  H  H34  1  0.17607000  0.38274000  0.86853000  1.0
  H  H35  1  0.21621000  0.28696000  0.90372000  1.0
  H  H36  1  0.23489000  0.38179000  0.94919000  1.0
  H  H37  1  0.63738000  0.63108000  0.88505000  1.0
  H  H38  1  0.70361000  0.61333000  0.80911000  1.0
  H  H39  1  0.82947000  0.55239000  0.88195000  1.0
  H  H40  1  0.80218000  0.65488000  0.91066000  1.0
  H  H41  1  0.76255000  0.56712000  0.95772000  1.0
  C  C42  1  0.50069000  0.66225000  0.49875000  1.0
  C  C43  1  0.49530000  0.47754000  0.93260000  1.0
  C  C44  1  0.41794000  0.48306000  0.18112000  1.0
  C  C45  1  0.57972000  0.48848000  0.17912000  1.0
  C  C46  1  0.41770000  0.48745000  0.25265000  1.0
  C  C47  1  0.58292000  0.49340000  0.25066000  1.0
  C  C48  1  0.50103000  0.49278000  0.28748000  1.0
  C  C49  1  0.49807000  0.48342000  0.14168000  1.0
  C  C50  1  0.41160000  0.95290000  0.46411000  1.0
  C  C51  1  0.58340000  0.95248000  0.45713000  1.0
  C  C52  1  0.58402000  0.04923000  0.45711000  1.0
  C  C53  1  0.41035000  0.04965000  0.46427000  1.0
  C  C54  1  0.49895000  0.24829000  0.49917000  1.0
  C  C55  1  0.50023000  0.91749000  0.49723000  1.0
  C  C56  1  0.49966000  0.08299000  0.49599000  1.0
  C  C57  1  0.50150000  0.49825000  0.63413000  1.0
  C  C58  1  0.50524000  0.04864000  0.57123000  1.0
  C  C59  1  0.50547000  0.95254000  0.57205000  1.0
  C  C60  1  0.49939000  0.17299000  0.49689000  1.0
  C  C61  1  0.50041000  0.82760000  0.49692000  1.0
  C  C62  1  0.50046000  0.75234000  0.49809000  1.0
  C  C63  1  0.94774000  0.58327000  0.53383000  1.0
  C  C64  1  0.05251000  0.58011000  0.53912000  1.0
  C  C65  1  0.94710000  0.49401000  0.42727000  1.0
  C  C66  1  0.05219000  0.49821000  0.42649000  1.0
  C  C67  1  0.91270000  0.50038000  0.50309000  1.0
  C  C68  1  0.08835000  0.50137000  0.50174000  1.0
  C  C69  1  0.05643000  0.42239000  0.54075000  1.0
  C  C70  1  0.94875000  0.42089000  0.54189000  1.0
  C  C71  1  0.18694000  0.50167000  0.50129000  1.0
  C  C72  1  0.81428000  0.49949000  0.50278000  1.0
  C  C73  1  0.49765000  0.33838000  0.49995000  1.0
  C  C74  1  0.50219000  0.49721000  0.36525000  1.0
  C  C75  1  0.41839000  0.47548000  0.74569000  1.0
  C  C76  1  0.58049000  0.50298000  0.74931000  1.0
  C  C77  1  0.41716000  0.46866000  0.81744000  1.0
  C  C78  1  0.57916000  0.49678000  0.82126000  1.0
  C  C79  1  0.49741000  0.47986000  0.85628000  1.0
  C  C80  1  0.50011000  0.49262000  0.71163000  1.0
  C  C81  1  0.49603000  0.47979000  0.06546000  1.0
  C  C82  1  0.92025000  0.45744000  0.66572000  1.0
  C  C83  1  0.82817000  0.48984000  0.68913000  1.0
  C  C84  1  0.11699000  0.34052000  0.63312000  1.0
  C  C85  1  0.15404000  0.34935000  0.70584000  1.0
  C  C86  1  0.32099000  0.36341000  0.85984000  1.0
  C  C87  1  0.23172000  0.35322000  0.89763000  1.0
  C  C88  1  0.69067000  0.59101000  0.86220000  1.0
  C  C89  1  0.77635000  0.59125000  0.90568000  1.0
  N  N90  1  0.44289000  0.53541000  0.96438000  1.0
  N  N91  1  0.54416000  0.41809000  0.96534000  1.0
  N  N92  1  0.44302000  0.53638000  0.03280000  1.0
  N  N93  1  0.54492000  0.41950000  0.03394000  1.0
  N  N94  1  0.26569000  0.50188000  0.49968000  1.0
  N  N95  1  0.73550000  0.49881000  0.50117000  1.0
  O  O96  1  0.42313000  0.62766000  0.50017000  1.0
  O  O97  1  0.57853000  0.62738000  0.49785000  1.0
  O  O98  1  0.42460000  0.49704000  0.60367000  1.0
  O  O99  1  0.57908000  0.50318000  0.60520000  1.0
  O  O100  1  0.41939000  0.37240000  0.49880000  1.0
  O  O101  1  0.57482000  0.37371000  0.50155000  1.0
  O  O102  1  0.42505000  0.49946000  0.39506000  1.0
  O  O103  1  0.57977000  0.49798000  0.39449000  1.0
  O  O104  1  0.90948000  0.40299000  0.60632000  1.0
  O  O105  1  0.09595000  0.42251000  0.60722000  1.0
  O  O106  1  0.33666000  0.45132000  0.85103000  1.0
  O  O107  1  0.65745000  0.50672000  0.85973000  1.0
  F  F108  1  0.33706000  0.47538000  0.14747000  1.0
  F  F109  1  0.65915000  0.49142000  0.14310000  1.0
  F  F110  1  0.39620000  0.07976000  0.39776000  1.0
  F  F111  1  0.58791000  0.07915000  0.38978000  1.0
  F  F112  1  0.39902000  0.92263000  0.39884000  1.0
  F  F113  1  0.58671000  0.92212000  0.39123000  1.0
  F  F114  1  0.66221000  0.92506000  0.49020000  1.0
  F  F115  1  0.33814000  0.92579000  0.50332000  1.0
