# generated using pymatgen
data_Zn4H15C24N3O13
_symmetry_space_group_name_H-M   'P 1'
_cell_length_a   18.23490000
_cell_length_b   18.35025952
_cell_length_c   18.38700000
_cell_angle_alpha   89.92545181
_cell_angle_beta   60.55710000
_cell_angle_gamma   60.27161973
_symmetry_Int_Tables_number   1
_chemical_formula_structural   Zn4H15C24N3O13
_chemical_formula_sum   'Zn8 H30 C48 N6 O26'
_cell_volume   4407.14476528
_cell_formula_units_Z   2
loop_
 _symmetry_equiv_pos_site_id
 _symmetry_equiv_pos_as_xyz
  1  'x, y, z'
loop_
 _atom_site_type_symbol
 _atom_site_label
 _atom_site_symmetry_multiplicity
 _atom_site_fract_x
 _atom_site_fract_y
 _atom_site_fract_z
 _atom_site_occupancy
  Zn  Zn0  1  0.89449000  0.95544000  0.05181000  1.0
  Zn  Zn1  1  0.07326000  0.95539000  0.04846000  1.0
  Zn  Zn2  1  0.89792000  0.12794000  0.04810000  1.0
  Zn  Zn3  1  0.06858000  0.95459000  0.87750000  1.0
  Zn  Zn4  1  0.06975000  0.54071000  0.46844000  1.0
  Zn  Zn5  1  0.89275000  0.54391000  0.46286000  1.0
  Zn  Zn6  1  0.89861000  0.54169000  0.63304000  1.0
  Zn  Zn7  1  0.07179000  0.36846000  0.46507000  1.0
  H  H8  1  0.85380000  0.81149000  0.22701000  1.0
  H  H9  1  0.85576000  0.71816000  0.32651000  1.0
  H  H10  1  0.17649000  0.71532000  0.27896000  1.0
  H  H11  1  0.12607000  0.66304000  0.34712000  1.0
  H  H12  1  0.11386000  0.78910000  0.19688000  1.0
  H  H13  1  0.57436000  0.08693000  0.19299000  1.0
  H  H14  1  0.38240000  0.18790000  0.28887000  1.0
  H  H15  1  0.43501000  0.45372000  0.29909000  1.0
  H  H16  1  0.31390000  0.47274000  0.35244000  1.0
  H  H17  1  0.58803000  0.31122000  0.22108000  1.0
  H  H18  1  0.83558000  0.83012000  0.91140000  1.0
  H  H19  1  0.84446000  0.72959000  0.81046000  1.0
  H  H20  1  0.24386000  0.61136000  0.58658000  1.0
  H  H21  1  0.18503000  0.57769000  0.55698000  1.0
  H  H22  1  0.14753000  0.73500000  0.71340000  1.0
  H  H23  1  0.90432000  0.31518000  0.17588000  1.0
  H  H24  1  0.90369000  0.40769000  0.27664000  1.0
  H  H25  1  0.09276000  0.10484000  0.34663000  1.0
  H  H26  1  0.06644000  0.20574000  0.39341000  1.0
  H  H27  1  0.05683000  0.08857000  0.24322000  1.0
  H  H28  1  0.38363000  0.78387000  0.69035000  1.0
  H  H29  1  0.57582000  0.68679000  0.59610000  1.0
  H  H30  1  0.54664000  0.77122000  0.89685000  1.0
  H  H31  1  0.66477000  0.69886000  0.79610000  1.0
  H  H32  1  0.38880000  0.82578000  0.91692000  1.0
  H  H33  1  0.11699000  0.08772000  0.69008000  1.0
  H  H34  1  0.11505000  0.18948000  0.59886000  1.0
  H  H35  1  0.75089000  0.44694000  0.89834000  1.0
  H  H36  1  0.80660000  0.46813000  0.79856000  1.0
  H  H37  1  0.83412000  0.30743000  0.91572000  1.0
  C  C38  1  0.98572000  0.86046000  0.14635000  1.0
  C  C39  1  0.98456000  0.80519000  0.20636000  1.0
  C  C40  1  0.91054000  0.78580000  0.24262000  1.0
  C  C41  1  0.91193000  0.73435000  0.29761000  1.0
  C  C42  1  0.98447000  0.70133000  0.31905000  1.0
  C  C43  1  0.98004000  0.64649000  0.37808000  1.0
  C  C44  1  0.05931000  0.72130000  0.28253000  1.0
  C  C45  1  0.05719000  0.77336000  0.22603000  1.0
  C  C46  1  0.70600000  0.13649000  0.14518000  1.0
  C  C47  1  0.59142000  0.19447000  0.20194000  1.0
  C  C48  1  0.53449000  0.15795000  0.22054000  1.0
  C  C49  1  0.42872000  0.21391000  0.27349000  1.0
  C  C50  1  0.37631000  0.30609000  0.30921000  1.0
  C  C51  1  0.26312000  0.36096000  0.36437000  1.0
  C  C52  1  0.43417000  0.34295000  0.29070000  1.0
  C  C53  1  0.54188000  0.28495000  0.23643000  1.0
  C  C54  1  0.98724000  0.85061000  0.87332000  1.0
  C  C55  1  0.99188000  0.78773000  0.81695000  1.0
  C  C56  1  0.90524000  0.78657000  0.84644000  1.0
  C  C57  1  0.91064000  0.73098000  0.79051000  1.0
  C  C58  1  0.00020000  0.67523000  0.70575000  1.0
  C  C59  1  0.99701000  0.62103000  0.64972000  1.0
  C  C60  1  0.08913000  0.67434000  0.67691000  1.0
  C  C61  1  0.08176000  0.73240000  0.73445000  1.0
  C  C62  1  0.98451000  0.13843000  0.14366000  1.0
  C  C63  1  0.98137000  0.19611000  0.20412000  1.0
  C  C64  1  0.93681000  0.28684000  0.21316000  1.0
  C  C65  1  0.93648000  0.33760000  0.26903000  1.0
  C  C66  1  0.97882000  0.30164000  0.31740000  1.0
  C  C67  1  0.97756000  0.36037000  0.37361000  1.0
  C  C68  1  0.02237000  0.20989000  0.30943000  1.0
  C  C69  1  0.02292000  0.15894000  0.25137000  1.0
  C  C70  1  0.26139000  0.86655000  0.86750000  1.0
  C  C71  1  0.37596000  0.80996000  0.80941000  1.0
  C  C72  1  0.42772000  0.77138000  0.71824000  1.0
  C  C73  1  0.53362000  0.71809000  0.66666667  1.0
  C  C74  1  0.59139000  0.70175000  0.70219000  1.0
  C  C75  1  0.70432000  0.64370000  0.64255000  1.0
  C  C76  1  0.53886000  0.74190000  0.79450000  1.0
  C  C77  1  0.43073000  0.79538000  0.84617000  1.0
  C  C78  1  0.97587000  0.13500000  0.86568000  1.0
  C  C79  1  0.97476000  0.19289000  0.80837000  1.0
  C  C80  1  0.05494000  0.15774000  0.71827000  1.0
  C  C81  1  0.05327000  0.21416000  0.66831000  1.0
  C  C82  1  0.97335000  0.30516000  0.70431000  1.0
  C  C83  1  0.97887000  0.36043000  0.64618000  1.0
  C  C84  1  0.89087000  0.34038000  0.79535000  1.0
  C  C85  1  0.89484000  0.28198000  0.84568000  1.0
  N  N86  1  0.13402000  0.69023000  0.29789000  1.0
  N  N87  1  0.39020000  0.43104000  0.32519000  1.0
  N  N88  1  0.17953000  0.62113000  0.59664000  1.0
  N  N89  1  0.06175000  0.17014000  0.35572000  1.0
  N  N90  1  0.58766000  0.72972000  0.83541000  1.0
  N  N91  1  0.81009000  0.42692000  0.83543000  1.0
  O  O92  1  0.98335000  0.99803000  0.00675000  1.0
  O  O93  1  0.05378000  0.87683000  0.11727000  1.0
  O  O94  1  0.91855000  0.88668000  0.12907000  1.0
  O  O95  1  0.91895000  0.62319000  0.39811000  1.0
  O  O96  1  0.03846000  0.62559000  0.40601000  1.0
  O  O97  1  0.75196000  0.17515000  0.12736000  1.0
  O  O98  1  0.74850000  0.05317000  0.11943000  1.0
  O  O99  1  0.21760000  0.32166000  0.38448000  1.0
  O  O100  1  0.21656000  0.44587000  0.38888000  1.0
  O  O101  1  0.05377000  0.86838000  0.83409000  1.0
  O  O102  1  0.91690000  0.88177000  0.95561000  1.0
  O  O103  1  0.92207000  0.61301000  0.68648000  1.0
  O  O104  1  0.06912000  0.58541000  0.56660000  1.0
  O  O105  1  0.93144000  0.17729000  0.11250000  1.0
  O  O106  1  0.03987000  0.05489000  0.12810000  1.0
  O  O107  1  0.02669000  0.32426000  0.40955000  1.0
  O  O108  1  0.92870000  0.44313000  0.38301000  1.0
  O  O109  1  0.21535000  0.88663000  0.82883000  1.0
  O  O110  1  0.21885000  0.89007000  0.95081000  1.0
  O  O111  1  0.75467000  0.62871000  0.67757000  1.0
  O  O112  1  0.74619000  0.61157000  0.56028000  1.0
  O  O113  1  0.03977000  0.05144000  0.82693000  1.0
  O  O114  1  0.91307000  0.17400000  0.94885000  1.0
  O  O115  1  0.90701000  0.44429000  0.68061000  1.0
  O  O116  1  0.05440000  0.32285000  0.56509000  1.0
  O  O117  1  0.98297000  0.49805000  0.50486000  1.0
