# generated using pymatgen
data_CuH7C8SO2
_symmetry_space_group_name_H-M   'P 1'
_cell_length_a   3.89436000
_cell_length_b   5.26795000
_cell_length_c   18.66330000
_cell_angle_alpha   90.00220000
_cell_angle_beta   90.00120000
_cell_angle_gamma   88.49860000
_symmetry_Int_Tables_number   1
_chemical_formula_structural   CuH7C8SO2
_chemical_formula_sum   'Cu2 H14 C16 S2 O4'
_cell_volume   382.75163223
_cell_formula_units_Z   2
loop_
 _symmetry_equiv_pos_site_id
 _symmetry_equiv_pos_as_xyz
  1  'x, y, z'
loop_
 _atom_site_type_symbol
 _atom_site_label
 _atom_site_symmetry_multiplicity
 _atom_site_fract_x
 _atom_site_fract_y
 _atom_site_fract_z
 _atom_site_occupancy
  Cu  Cu0  1  0.23055000  0.85393000  0.47563000  1.0
  Cu  Cu1  1  0.73050000  0.35394000  0.52436000  1.0
  H  H2  1  0.40501000  0.49838000  0.39069000  1.0
  H  H3  1  0.90502000  0.99837000  0.60931000  1.0
  H  H4  1  0.38257000  0.67655000  0.26717000  1.0
  H  H5  1  0.88257000  0.17656000  0.73282000  1.0
  H  H6  1  0.97604000  0.03820000  0.18838000  1.0
  H  H7  1  0.47600000  0.53820000  0.81163000  1.0
  H  H8  1  0.00213000  0.85840000  0.31208000  1.0
  H  H9  1  0.50209000  0.35838000  0.68792000  1.0
  H  H10  1  0.67453000  0.82034000  0.04459000  1.0
  H  H11  1  0.17448000  0.32034000  0.95541000  1.0
  H  H12  1  0.28666000  0.97263000  0.07664000  1.0
  H  H13  1  0.78662000  0.47263000  0.92337000  1.0
  H  H14  1  0.27566000  0.66191000  0.03667000  1.0
  H  H15  1  0.77563000  0.16192000  0.96332000  1.0
  C  C16  1  0.70743000  0.16700000  0.35876000  1.0
  C  C17  1  0.20745000  0.66698000  0.64124000  1.0
  C  C18  1  0.53165000  0.39797000  0.34627000  1.0
  C  C19  1  0.03169000  0.89796000  0.65372000  1.0
  C  C20  1  0.51634000  0.49690000  0.27734000  1.0
  C  C21  1  0.01632000  0.99689000  0.72265000  1.0
  C  C22  1  0.67407000  0.36805000  0.21990000  1.0
  C  C23  1  0.17405000  0.86807000  0.78010000  1.0
  C  C24  1  0.85137000  0.13766000  0.23280000  1.0
  C  C25  1  0.35135000  0.63766000  0.76721000  1.0
  C  C26  1  0.86756000  0.03813000  0.30169000  1.0
  C  C27  1  0.36752000  0.53812000  0.69832000  1.0
  C  C28  1  0.65488000  0.46681000  0.14543000  1.0
  C  C29  1  0.15484000  0.96680000  0.85458000  1.0
  C  C30  1  0.42459000  0.79089000  0.06961000  1.0
  C  C31  1  0.92453000  0.29090000  0.93039000  1.0
  S  S32  1  0.72416000  0.02880000  0.44572000  1.0
  S  S33  1  0.22416000  0.52879000  0.55428000  1.0
  O  O34  1  0.79113000  0.36196000  0.09356000  1.0
  O  O35  1  0.29104000  0.86197000  0.90644000  1.0
  O  O36  1  0.46806000  0.68660000  0.14107000  1.0
  O  O37  1  0.96800000  0.18659000  0.85893000  1.0
