# generated using pymatgen
data_Ag2H4(C3O2)3
_symmetry_space_group_name_H-M   'P 1'
_cell_length_a   7.20965000
_cell_length_b   9.40086000
_cell_length_c   13.95250000
_cell_angle_alpha   90.00000000
_cell_angle_beta   103.89700000
_cell_angle_gamma   89.99990000
_symmetry_Int_Tables_number   1
_chemical_formula_structural   Ag2H4(C3O2)3
_chemical_formula_sum   'Ag8 H16 C36 O24'
_cell_volume   917.97706029
_cell_formula_units_Z   4
loop_
 _symmetry_equiv_pos_site_id
 _symmetry_equiv_pos_as_xyz
  1  'x, y, z'
loop_
 _atom_site_type_symbol
 _atom_site_label
 _atom_site_symmetry_multiplicity
 _atom_site_fract_x
 _atom_site_fract_y
 _atom_site_fract_z
 _atom_site_occupancy
  Ag  Ag0  1  0.15577000  0.47293000  0.40999000  1.0
  Ag  Ag1  1  0.34423000  0.97293000  0.59001000  1.0
  Ag  Ag2  1  0.84422000  0.52707000  0.59001000  1.0
  Ag  Ag3  1  0.65577000  0.02707000  0.40999000  1.0
  Ag  Ag4  1  0.97159000  0.82885000  0.51334000  1.0
  Ag  Ag5  1  0.52841000  0.32886000  0.48666000  1.0
  Ag  Ag6  1  0.02840000  0.17115000  0.48666000  1.0
  Ag  Ag7  1  0.47159000  0.67114000  0.51334000  1.0
  H  H8  1  0.22703000  0.49514000  0.20599000  1.0
  H  H9  1  0.27297000  0.99515000  0.79401000  1.0
  H  H10  1  0.77297000  0.50485000  0.79401000  1.0
  H  H11  1  0.72704000  0.00486000  0.20599000  1.0
  H  H12  1  0.23521000  0.22760000  0.10197000  1.0
  H  H13  1  0.26478000  0.72760000  0.89804000  1.0
  H  H14  1  0.76480000  0.77240000  0.89804000  1.0
  H  H15  1  0.73521000  0.27240000  0.10196000  1.0
  H  H16  1  0.25411000  0.02331000  0.98906000  1.0
  H  H17  1  0.24588000  0.52331000  0.01094000  1.0
  H  H18  1  0.74590000  0.97670000  0.01094000  1.0
  H  H19  1  0.75410000  0.47669000  0.98906000  1.0
  H  H20  1  0.24620000  0.77501000  0.05205000  1.0
  H  H21  1  0.25380000  0.27501000  0.94795000  1.0
  H  H22  1  0.75380000  0.22499000  0.94795000  1.0
  H  H23  1  0.74620000  0.72499000  0.05205000  1.0
  C  C24  1  0.22487000  0.84051000  0.19648000  1.0
  C  C25  1  0.27513000  0.34052000  0.80352000  1.0
  C  C26  1  0.77513000  0.15948000  0.80352000  1.0
  C  C27  1  0.72487000  0.65948000  0.19648000  1.0
  C  C28  1  0.21956000  0.95569000  0.26058000  1.0
  C  C29  1  0.28044000  0.45569000  0.73943000  1.0
  C  C30  1  0.78045000  0.04430000  0.73942000  1.0
  C  C31  1  0.71956000  0.54431000  0.26057000  1.0
  C  C32  1  0.22338000  0.09553000  0.22492000  1.0
  C  C33  1  0.27662000  0.59554000  0.77508000  1.0
  C  C34  1  0.77663000  0.90447000  0.77508000  1.0
  C  C35  1  0.72338000  0.40447000  0.22492000  1.0
  C  C36  1  0.23347000  0.11791000  0.12701000  1.0
  C  C37  1  0.26652000  0.61791000  0.87299000  1.0
  C  C38  1  0.76654000  0.88209000  0.87299000  1.0
  C  C39  1  0.73347000  0.38209000  0.12701000  1.0
  C  C40  1  0.24414000  0.00419000  0.06468000  1.0
  C  C41  1  0.25586000  0.50419000  0.93532000  1.0
  C  C42  1  0.75587000  0.99582000  0.93532000  1.0
  C  C43  1  0.74414000  0.49581000  0.06468000  1.0
  C  C44  1  0.23999000  0.86572000  0.09969000  1.0
  C  C45  1  0.26001000  0.36572000  0.90031000  1.0
  C  C46  1  0.76001000  0.13428000  0.90031000  1.0
  C  C47  1  0.73999000  0.63429000  0.09969000  1.0
  C  C48  1  0.20744000  0.69396000  0.23264000  1.0
  C  C49  1  0.29255000  0.19396000  0.76737000  1.0
  C  C50  1  0.79255000  0.30604000  0.76736000  1.0
  C  C51  1  0.70745000  0.80604000  0.23264000  1.0
  C  C52  1  0.20390000  0.93038000  0.36520000  1.0
  C  C53  1  0.29610000  0.43039000  0.63480000  1.0
  C  C54  1  0.79611000  0.06961000  0.63480000  1.0
  C  C55  1  0.70390000  0.56962000  0.36520000  1.0
  C  C56  1  0.21980000  0.22198000  0.29006000  1.0
  C  C57  1  0.28020000  0.72198000  0.70995000  1.0
  C  C58  1  0.78021000  0.77802000  0.70995000  1.0
  C  C59  1  0.71980000  0.27802000  0.29005000  1.0
  O  O60  1  0.24421000  0.58994000  0.17523000  1.0
  O  O61  1  0.25579000  0.08994000  0.82476000  1.0
  O  O62  1  0.75579000  0.41006000  0.82476000  1.0
  O  O63  1  0.74421000  0.91006000  0.17523000  1.0
  O  O64  1  0.15641000  0.67348000  0.31017000  1.0
  O  O65  1  0.34359000  0.17348000  0.68982000  1.0
  O  O66  1  0.84359000  0.32652000  0.68982000  1.0
  O  O67  1  0.65640000  0.82653000  0.31018000  1.0
  O  O68  1  0.35757000  0.90606000  0.43116000  1.0
  O  O69  1  0.14242000  0.40606000  0.56884000  1.0
  O  O70  1  0.64243000  0.09393000  0.56884000  1.0
  O  O71  1  0.85757000  0.59394000  0.43116000  1.0
  O  O72  1  0.03744000  0.93980000  0.37952000  1.0
  O  O73  1  0.46256000  0.43980000  0.62048000  1.0
  O  O74  1  0.96257000  0.06020000  0.62048000  1.0
  O  O75  1  0.53744000  0.56020000  0.37952000  1.0
  O  O76  1  0.25920000  0.20018000  0.38383000  1.0
  O  O77  1  0.24081000  0.70019000  0.61618000  1.0
  O  O78  1  0.74081000  0.79981000  0.61618000  1.0
  O  O79  1  0.75919000  0.29982000  0.38382000  1.0
  O  O80  1  0.17804000  0.34315000  0.25122000  1.0
  O  O81  1  0.32194000  0.84316000  0.74879000  1.0
  O  O82  1  0.82195000  0.65685000  0.74879000  1.0
  O  O83  1  0.67805000  0.15685000  0.25121000  1.0
