# generated using pymatgen
data_CuH22C12N6(ClO4)2
_symmetry_space_group_name_H-M   'P 1'
_cell_length_a   7.58007000
_cell_length_b   8.15305000
_cell_length_c   9.24167000
_cell_angle_alpha   64.64670000
_cell_angle_beta   74.72490000
_cell_angle_gamma   67.02190000
_symmetry_Int_Tables_number   1
_chemical_formula_structural   CuH22C12N6(ClO4)2
_chemical_formula_sum   'Cu1 H22 C12 N6 Cl2 O8'
_cell_volume   471.98547387
_cell_formula_units_Z   1
loop_
 _symmetry_equiv_pos_site_id
 _symmetry_equiv_pos_as_xyz
  1  'x, y, z'
loop_
 _atom_site_type_symbol
 _atom_site_label
 _atom_site_symmetry_multiplicity
 _atom_site_fract_x
 _atom_site_fract_y
 _atom_site_fract_z
 _atom_site_occupancy
  Cu  Cu0  1  0.50000000  0.50000000  0.00000000  1.0
  H  H1  1  0.38341000  0.94783000  0.94796000  1.0
  H  H2  1  0.61658000  0.05217000  0.05205000  1.0
  H  H3  1  0.16496000  0.89562000  0.01220000  1.0
  H  H4  1  0.83504000  0.10437000  0.98780000  1.0
  H  H5  1  0.07543000  0.09886000  0.72211000  1.0
  H  H6  1  0.92457000  0.90114000  0.27788000  1.0
  H  H7  1  0.07313000  0.22158000  0.83998000  1.0
  H  H8  1  0.92687000  0.77842000  0.16002000  1.0
  H  H9  1  0.40493000  0.12397000  0.58445000  1.0
  H  H10  1  0.59508000  0.87602000  0.41556000  1.0
  H  H11  1  0.21875000  0.34566000  0.55543000  1.0
  H  H12  1  0.78125000  0.65434000  0.44456000  1.0
  H  H13  1  0.68177000  0.23729000  0.54234000  1.0
  H  H14  1  0.31822000  0.76273000  0.45765000  1.0
  H  H15  1  0.78355000  0.40041000  0.70421000  1.0
  H  H16  1  0.21644000  0.59961000  0.29578000  1.0
  H  H17  1  0.22337000  0.36570000  0.89663000  1.0
  H  H18  1  0.77664000  0.63429000  0.10338000  1.0
  H  H19  1  0.46107000  0.79745000  0.75649000  1.0
  H  H20  1  0.53893000  0.20256000  0.24350000  1.0
  H  H21  1  0.24922000  0.75573000  0.81162000  1.0
  H  H22  1  0.75079000  0.24427000  0.18838000  1.0
  C  C23  1  0.26905000  0.93354000  0.90649000  1.0
  C  C24  1  0.73094000  0.06646000  0.09351000  1.0
  C  C25  1  0.16887000  0.12247000  0.77929000  1.0
  C  C26  1  0.83112000  0.87753000  0.22072000  1.0
  C  C27  1  0.30341000  0.21916000  0.64596000  1.0
  C  C28  1  0.69659000  0.78083000  0.35404000  1.0
  C  C29  1  0.60242000  0.28979000  0.63793000  1.0
  C  C30  1  0.39758000  0.71022000  0.36207000  1.0
  C  C31  1  0.65202000  0.36982000  0.71869000  1.0
  C  C32  1  0.34798000  0.63018000  0.28130000  1.0
  C  C33  1  0.36159000  0.35362000  0.82283000  1.0
  C  C34  1  0.63842000  0.64637000  0.17718000  1.0
  N  N35  1  0.35476000  0.77137000  0.85040000  1.0
  N  N36  1  0.64524000  0.22863000  0.14959000  1.0
  N  N37  1  0.41955000  0.28017000  0.70503000  1.0
  N  N38  1  0.58045000  0.71982000  0.29497000  1.0
  N  N39  1  0.50069000  0.40827000  0.83402000  1.0
  N  N40  1  0.49931000  0.59173000  0.16598000  1.0
  Cl  Cl41  1  0.88497000  0.72754000  0.73516000  1.0
  Cl  Cl42  1  0.11502000  0.27246000  0.26484000  1.0
  O  O43  1  0.84540000  0.55362000  0.85807000  1.0
  O  O44  1  0.15461000  0.44637000  0.14194000  1.0
  O  O45  1  0.70701000  0.86337000  0.66453000  1.0
  O  O46  1  0.29299000  0.13663000  0.33547000  1.0
  O  O47  1  0.03151000  0.67779000  0.60944000  1.0
  O  O48  1  0.96850000  0.32221000  0.39056000  1.0
  O  O49  1  0.95179000  0.81418000  0.81097000  1.0
  O  O50  1  0.04820000  0.18583000  0.18903000  1.0
