# generated using pymatgen
data_Al4H36C61O26
_symmetry_space_group_name_H-M   'P 1'
_cell_length_a   6.62128000
_cell_length_b   20.05390000
_cell_length_c   23.11140000
_cell_angle_alpha   107.89100000
_cell_angle_beta   92.54580000
_cell_angle_gamma   93.57730000
_symmetry_Int_Tables_number   1
_chemical_formula_structural   Al4H36C61O26
_chemical_formula_sum   'Al4 H36 C61 O26'
_cell_volume   2908.16124156
_cell_formula_units_Z   1
loop_
 _symmetry_equiv_pos_site_id
 _symmetry_equiv_pos_as_xyz
  1  'x, y, z'
loop_
 _atom_site_type_symbol
 _atom_site_label
 _atom_site_symmetry_multiplicity
 _atom_site_fract_x
 _atom_site_fract_y
 _atom_site_fract_z
 _atom_site_occupancy
  Al  Al0  1  0.14157000  0.49938000  0.50241000  1.0
  Al  Al1  1  0.64152000  0.50371000  0.50392000  1.0
  Al  Al2  1  0.66102000  0.00209000  0.00242000  1.0
  Al  Al3  1  0.16028000  0.00266000  0.00378000  1.0
  H  H4  1  0.20898000  0.85315000  0.21925000  1.0
  H  H5  1  0.20402000  0.92280000  0.14645000  1.0
  H  H6  1  0.59479000  0.77105000  0.15507000  1.0
  H  H7  1  0.17413000  0.56926000  0.35168000  1.0
  H  H8  1  0.61933000  0.65910000  0.41362000  1.0
  H  H9  1  0.66985000  0.69018000  0.64219000  1.0
  H  H10  1  0.24793000  0.62325000  0.68346000  1.0
  H  H11  1  0.55075000  0.80112000  0.71157000  1.0
  H  H12  1  0.28181000  0.71744000  0.78437000  1.0
  H  H13  1  0.13713000  0.81775000  0.85944000  1.0
  H  H14  1  0.64155000  0.31889000  0.35988000  1.0
  H  H15  1  0.04399000  0.37322000  0.32067000  1.0
  H  H16  1  0.79338000  0.22018000  0.28509000  1.0
  H  H17  1  0.02045000  0.28029000  0.21955000  1.0
  H  H18  1  0.76859000  0.12679000  0.18399000  1.0
  H  H19  1  0.16932000  0.17993000  0.14561000  1.0
  H  H20  1  0.71748000  0.15645000  0.91683000  1.0
  H  H21  1  0.10904000  0.07310000  0.85048000  1.0
  H  H22  1  0.11731000  0.13886000  0.77443000  1.0
  H  H23  1  0.71295000  0.34287000  0.71260000  1.0
  H  H24  1  0.71062000  0.41728000  0.64293000  1.0
  H  H25  1  0.08232000  0.35037000  0.58955000  1.0
  H  H26  1  0.08361000  0.27385000  0.65742000  1.0
  H  H27  1  0.56294000  0.01378000  0.81778000  1.0
  H  H28  1  0.78869000  0.27072000  0.92844000  1.0
  H  H29  1  0.42246000  0.79581000  0.07970000  1.0
  H  H30  1  0.46284000  0.88381000  0.07731000  1.0
  H  H31  1  0.56578000  0.81597000  0.02266000  1.0
  H  H32  1  0.34181000  0.63400000  0.19475000  1.0
  H  H33  1  0.66247000  0.79952000  0.36047000  1.0
  H  H34  1  0.52757000  0.73751000  0.29748000  1.0
  H  H35  1  0.47289000  0.73932000  0.37284000  1.0
  H  H36  1  0.39648000  0.58141000  0.48858000  1.0
  H  H37  1  0.85958000  0.41216000  0.46349000  1.0
  H  H38  1  0.38298000  0.91679000  0.95572000  1.0
  H  H39  1  0.92458000  0.08578000  0.99365000  1.0
  C  C40  1  0.35601000  0.40604000  0.40675000  1.0
  C  C41  1  0.39769000  0.43116000  0.57029000  1.0
  C  C42  1  0.93458000  0.59470000  0.59804000  1.0
  C  C43  1  0.88999000  0.57240000  0.43400000  1.0
  C  C44  1  0.07446000  0.85054000  0.18947000  1.0
  C  C45  1  0.07144000  0.88908000  0.14897000  1.0
  C  C46  1  0.89979000  0.88604000  0.10989000  1.0
  C  C47  1  0.72289000  0.84307000  0.11176000  1.0
  C  C48  1  0.72837000  0.80484000  0.15317000  1.0
  C  C49  1  0.90102000  0.80707000  0.19178000  1.0
  C  C50  1  0.90190000  0.76523000  0.23119000  1.0
  C  C51  1  0.91272000  0.72700000  0.26322000  1.0
  C  C52  1  0.06127000  0.63876000  0.30569000  1.0
  C  C53  1  0.05544000  0.60385000  0.34958000  1.0
  C  C54  1  0.89744000  0.61119000  0.38838000  1.0
  C  C55  1  0.74458000  0.65487000  0.38391000  1.0
  C  C56  1  0.75137000  0.69409000  0.34358000  1.0
  C  C57  1  0.91126000  0.68600000  0.30326000  1.0
  C  C58  1  0.95495000  0.65154000  0.65779000  1.0
  C  C59  1  0.86581000  0.86198000  0.84125000  1.0
  C  C60  1  0.67818000  0.80400000  0.74410000  1.0
  C  C61  1  0.70134000  0.85869000  0.79802000  1.0
  C  C62  1  0.01036000  0.81377000  0.82657000  1.0
  C  C63  1  0.99635000  0.75949000  0.77018000  1.0
  C  C64  1  0.82253000  0.75294000  0.72891000  1.0
  C  C65  1  0.80343000  0.69717000  0.67345000  1.0
  C  C66  1  0.13042000  0.65949000  0.69769000  1.0
  C  C67  1  0.14858000  0.71159000  0.75315000  1.0
  C  C68  1  0.34491000  0.35072000  0.34612000  1.0
  C  C69  1  0.46627000  0.14868000  0.15940000  1.0
  C  C70  1  0.65760000  0.21171000  0.25436000  1.0
  C  C71  1  0.64468000  0.16004000  0.19872000  1.0
  C  C72  1  0.30540000  0.18989000  0.17632000  1.0
  C  C73  1  0.31645000  0.24444000  0.23249000  1.0
  C  C74  1  0.49595000  0.25547000  0.27262000  1.0
  C  C75  1  0.50591000  0.30965000  0.32906000  1.0
  C  C76  1  0.16775000  0.33979000  0.30630000  1.0
  C  C77  1  0.15522000  0.28838000  0.25058000  1.0
  C  C78  1  0.59308000  0.19118000  0.84371000  1.0
  C  C79  1  0.58591000  0.15430000  0.88599000  1.0
  C  C80  1  0.41190000  0.11251000  0.88926000  1.0
  C  C81  1  0.24303000  0.10656000  0.84841000  1.0
  C  C82  1  0.24841000  0.14230000  0.80569000  1.0
  C  C83  1  0.42145000  0.18584000  0.80270000  1.0
  C  C84  1  0.41635000  0.22501000  0.76155000  1.0
  C  C85  1  0.40335000  0.26065000  0.72743000  1.0
  C  C86  1  0.57613000  0.34449000  0.68519000  1.0
  C  C87  1  0.57468000  0.38580000  0.64682000  1.0
  C  C88  1  0.39664000  0.38773000  0.61221000  1.0
  C  C89  1  0.21918000  0.34792000  0.61658000  1.0
  C  C90  1  0.21983000  0.30567000  0.65424000  1.0
  C  C91  1  0.39881000  0.30336000  0.68900000  1.0
  C  C92  1  0.40601000  0.07534000  0.93608000  1.0
  C  C93  1  0.45128000  0.09276000  0.09929000  1.0
  C  C94  1  0.91345000  0.92893000  0.06760000  1.0
  C  C95  1  0.87565000  0.91306000  0.90382000  1.0
  C  C96  1  0.56032000  0.91586000  0.80636000  1.0
  C  C97  1  0.78286000  0.23437000  0.84079000  1.0
  C  C98  1  0.53291000  0.83416000  0.07096000  1.0
  C  C99  1  0.22833000  0.62095000  0.26375000  1.0
  C  C100  1  0.59451000  0.74499000  0.34359000  1.0
  O  O101  1  0.56835000  0.45908000  0.56262000  1.0
  O  O102  1  0.19013000  0.43168000  0.42509000  1.0
  O  O103  1  0.05924000  0.56148000  0.45661000  1.0
  O  O104  1  0.22869000  0.43677000  0.54424000  1.0
  O  O105  1  0.09317000  0.56426000  0.57947000  1.0
  O  O106  1  0.52897000  0.42316000  0.43611000  1.0
  O  O107  1  0.39819000  0.54509000  0.50824000  1.0
  O  O108  1  0.76074000  0.58137000  0.56930000  1.0
  O  O109  1  0.71475000  0.55368000  0.44707000  1.0
  O  O110  1  0.87954000  0.45804000  0.49400000  1.0
  O  O111  1  0.27918000  0.07919000  0.06950000  1.0
  O  O112  1  0.57506000  0.06952000  0.96232000  1.0
  O  O113  1  0.71016000  0.93876000  0.92269000  1.0
  O  O114  1  0.61125000  0.06287000  0.08116000  1.0
  O  O115  1  0.75000000  0.93690000  0.04020000  1.0
  O  O116  1  0.23170000  0.05289000  0.94643000  1.0
  O  O117  1  0.40050000  0.95817000  0.99146000  1.0
  O  O118  1  0.08826000  0.95521000  0.06085000  1.0
  O  O119  1  0.04531000  0.92537000  0.93494000  1.0
  O  O120  1  0.91938000  0.04667000  0.00998000  1.0
  O  O121  1  0.37554000  0.90770000  0.80415000  1.0
  O  O122  1  0.66362000  0.97866000  0.81190000  1.0
  O  O123  1  0.85784000  0.23554000  0.79402000  1.0
  O  O124  1  0.87616000  0.27328000  0.89610000  1.0
  O  O125  1  0.35829000  0.58156000  0.26817000  1.0
  O  O126  1  0.22627000  0.65147000  0.21851000  1.0
