# generated using pymatgen
data_AgH4C6N5
_symmetry_space_group_name_H-M   'P 1'
_cell_length_a   4.77913000
_cell_length_b   8.89781000
_cell_length_c   9.33467000
_cell_angle_alpha   64.54240000
_cell_angle_beta   87.45110000
_cell_angle_gamma   79.83750000
_symmetry_Int_Tables_number   1
_chemical_formula_structural   AgH4C6N5
_chemical_formula_sum   'Ag2 H8 C12 N10'
_cell_volume   352.56086366
_cell_formula_units_Z   2
loop_
 _symmetry_equiv_pos_site_id
 _symmetry_equiv_pos_as_xyz
  1  'x, y, z'
loop_
 _atom_site_type_symbol
 _atom_site_label
 _atom_site_symmetry_multiplicity
 _atom_site_fract_x
 _atom_site_fract_y
 _atom_site_fract_z
 _atom_site_occupancy
  Ag  Ag0  1  0.20677000  0.71444000  0.45328000  1.0
  Ag  Ag1  1  0.79323000  0.28556000  0.54672000  1.0
  H  H2  1  0.37546000  0.59044000  0.00700000  1.0
  H  H3  1  0.62454000  0.40957000  0.99301000  1.0
  H  H4  1  0.57468000  0.73684000  0.73751000  1.0
  H  H5  1  0.42531000  0.26316000  0.26249000  1.0
  H  H6  1  0.30777000  0.02181000  0.54995000  1.0
  H  H7  1  0.69222000  0.97818000  0.45006000  1.0
  H  H8  1  0.68412000  0.01188000  0.87543000  1.0
  H  H9  1  0.31587000  0.98811000  0.12457000  1.0
  C  C10  1  0.88336000  0.70191000  0.11116000  1.0
  C  C11  1  0.11664000  0.29810000  0.88885000  1.0
  C  C12  1  0.01323000  0.78724000  0.95990000  1.0
  C  C13  1  0.98680000  0.21274000  0.04012000  1.0
  C  C14  1  0.26797000  0.71206000  0.92008000  1.0
  C  C15  1  0.73201000  0.28793000  0.07992000  1.0
  C  C16  1  0.37792000  0.79437000  0.77154000  1.0
  C  C17  1  0.62207000  0.20562000  0.22845000  1.0
  C  C18  1  0.23139000  0.95166000  0.66754000  1.0
  C  C19  1  0.76860000  0.04835000  0.33245000  1.0
  C  C20  1  0.88117000  0.94678000  0.84907000  1.0
  C  C21  1  0.11886000  0.05322000  0.15094000  1.0
  N  N22  1  0.65633000  0.77584000  0.16356000  1.0
  N  N23  1  0.34369000  0.22416000  0.83644000  1.0
  N  N24  1  0.60142000  0.65693000  0.30276000  1.0
  N  N25  1  0.39859000  0.34308000  0.69724000  1.0
  N  N26  1  0.78912000  0.51480000  0.33347000  1.0
  N  N27  1  0.21089000  0.48521000  0.66653000  1.0
  N  N28  1  0.96940000  0.53920000  0.21511000  1.0
  N  N29  1  0.03060000  0.46081000  0.78489000  1.0
  N  N30  1  0.98841000  0.02743000  0.70567000  1.0
  N  N31  1  0.01156000  0.97256000  0.29433000  1.0
