# generated using pymatgen
data_EuH20C24NO10
_symmetry_space_group_name_H-M   'P 1'
_cell_length_a   10.60830000
_cell_length_b   16.78490000
_cell_length_c   18.73700000
_cell_angle_alpha   90.00070000
_cell_angle_beta   90.00050000
_cell_angle_gamma   89.99650000
_symmetry_Int_Tables_number   1
_chemical_formula_structural   EuH20C24NO10
_chemical_formula_sum   'Eu4 H80 C96 N4 O40'
_cell_volume   3336.29624815
_cell_formula_units_Z   4
loop_
 _symmetry_equiv_pos_site_id
 _symmetry_equiv_pos_as_xyz
  1  'x, y, z'
loop_
 _atom_site_type_symbol
 _atom_site_label
 _atom_site_symmetry_multiplicity
 _atom_site_fract_x
 _atom_site_fract_y
 _atom_site_fract_z
 _atom_site_occupancy
  Eu  Eu0  1  0.70171000  0.25001000  0.29856000  1.0
  Eu  Eu1  1  0.79830000  0.74999000  0.79855000  1.0
  Eu  Eu2  1  0.29829000  0.74999000  0.70144000  1.0
  Eu  Eu3  1  0.20170000  0.25001000  0.20145000  1.0
  H  H4  1  0.64326000  0.25000000  0.76607000  1.0
  H  H5  1  0.85673000  0.75000000  0.26606000  1.0
  H  H6  1  0.35673000  0.75000000  0.23393000  1.0
  H  H7  1  0.14327000  0.25000000  0.73394000  1.0
  H  H8  1  0.04937000  0.25000000  0.02611000  1.0
  H  H9  1  0.45061000  0.75000000  0.52611000  1.0
  H  H10  1  0.95063000  0.75000000  0.97389000  1.0
  H  H11  1  0.54940000  0.25000000  0.47389000  1.0
  H  H12  1  0.98530000  0.25000000  0.89715000  1.0
  H  H13  1  0.51470000  0.75000000  0.39716000  1.0
  H  H14  1  0.01470000  0.75000000  0.10285000  1.0
  H  H15  1  0.48530000  0.25000000  0.60285000  1.0
  H  H16  1  0.65934000  0.25000000  0.08443000  1.0
  H  H17  1  0.84065000  0.75001000  0.58443000  1.0
  H  H18  1  0.34066000  0.75001000  0.91557000  1.0
  H  H19  1  0.15935000  0.24999000  0.41557000  1.0
  H  H20  1  0.50487000  0.17440000  0.04413000  1.0
  H  H21  1  0.99514000  0.82561000  0.54413000  1.0
  H  H22  1  0.49512000  0.67439000  0.95587000  1.0
  H  H23  1  0.00487000  0.32562000  0.45587000  1.0
  H  H24  1  0.49513000  0.82561000  0.95587000  1.0
  H  H25  1  0.00487000  0.17439000  0.45587000  1.0
  H  H26  1  0.50488000  0.32562000  0.04413000  1.0
  H  H27  1  0.99513000  0.67438000  0.54413000  1.0
  H  H28  1  0.39679000  0.18318000  0.97252000  1.0
  H  H29  1  0.10321000  0.81683000  0.47251000  1.0
  H  H30  1  0.60322000  0.68316000  0.02749000  1.0
  H  H31  1  0.89679000  0.31684000  0.52749000  1.0
  H  H32  1  0.60321000  0.81682000  0.02748000  1.0
  H  H33  1  0.89679000  0.18317000  0.52749000  1.0
  H  H34  1  0.39679000  0.31684000  0.97251000  1.0
  H  H35  1  0.10321000  0.68316000  0.47251000  1.0
  H  H36  1  0.44811000  0.11660000  0.85428000  1.0
  H  H37  1  0.05189000  0.88340000  0.35428000  1.0
  H  H38  1  0.55188000  0.61658000  0.14572000  1.0
  H  H39  1  0.94811000  0.38342000  0.64573000  1.0
  H  H40  1  0.55189000  0.88340000  0.14572000  1.0
  H  H41  1  0.94811000  0.11660000  0.64572000  1.0
  H  H42  1  0.44812000  0.38342000  0.85428000  1.0
  H  H43  1  0.05189000  0.61658000  0.35428000  1.0
  H  H44  1  0.52795000  0.98986000  0.80205000  1.0
  H  H45  1  0.97205000  0.01014000  0.30204000  1.0
  H  H46  1  0.47203000  0.48986000  0.19796000  1.0
  H  H47  1  0.02797000  0.51015000  0.69797000  1.0
  H  H48  1  0.47205000  0.01014000  0.19795000  1.0
  H  H49  1  0.02796000  0.98986000  0.69796000  1.0
  H  H50  1  0.52797000  0.51015000  0.80204000  1.0
  H  H51  1  0.97203000  0.48985000  0.30204000  1.0
  H  H52  1  0.75460000  0.95051000  0.98916000  1.0
  H  H53  1  0.74540000  0.04949000  0.48916000  1.0
  H  H54  1  0.24539000  0.45051000  0.01084000  1.0
  H  H55  1  0.25462000  0.54949000  0.51084000  1.0
  H  H56  1  0.24540000  0.04949000  0.01084000  1.0
  H  H57  1  0.25461000  0.95051000  0.51084000  1.0
  H  H58  1  0.75461000  0.54949000  0.98916000  1.0
  H  H59  1  0.74538000  0.45051000  0.48916000  1.0
  H  H60  1  0.66944000  0.07563000  0.04299000  1.0
  H  H61  1  0.83057000  0.92437000  0.54300000  1.0
  H  H62  1  0.33057000  0.57563000  0.95701000  1.0
  H  H63  1  0.16944000  0.42437000  0.45701000  1.0
  H  H64  1  0.33056000  0.92437000  0.95701000  1.0
  H  H65  1  0.16944000  0.07563000  0.45700000  1.0
  H  H66  1  0.66943000  0.42437000  0.04299000  1.0
  H  H67  1  0.83056000  0.57563000  0.54299000  1.0
  H  H68  1  0.51009000  0.14227000  0.21541000  1.0
  H  H69  1  0.98990000  0.85772000  0.71541000  1.0
  H  H70  1  0.48991000  0.64226000  0.78459000  1.0
  H  H71  1  0.01009000  0.35774000  0.28459000  1.0
  H  H72  1  0.48990000  0.85773000  0.78459000  1.0
  H  H73  1  0.01010000  0.14228000  0.28458000  1.0
  H  H74  1  0.51009000  0.35774000  0.21541000  1.0
  H  H75  1  0.98991000  0.64227000  0.71541000  1.0
  H  H76  1  0.64997000  0.13612000  0.18480000  1.0
  H  H77  1  0.85004000  0.86387000  0.68480000  1.0
  H  H78  1  0.35005000  0.63612000  0.81521000  1.0
  H  H79  1  0.14993000  0.36388000  0.31521000  1.0
  H  H80  1  0.35003000  0.86388000  0.81520000  1.0
  H  H81  1  0.14996000  0.13613000  0.31520000  1.0
  H  H82  1  0.64994000  0.36388000  0.18479000  1.0
  H  H83  1  0.85007000  0.63612000  0.68479000  1.0
  C  C84  1  0.88582000  0.25000000  0.14175000  1.0
  C  C85  1  0.61416000  0.75000000  0.64175000  1.0
  C  C86  1  0.11417000  0.75000000  0.85825000  1.0
  C  C87  1  0.38584000  0.25000000  0.35825000  1.0
  C  C88  1  0.85669000  0.25000000  0.06336000  1.0
  C  C89  1  0.64330000  0.75000000  0.56335000  1.0
  C  C90  1  0.14331000  0.75000000  0.93664000  1.0
  C  C91  1  0.35670000  0.25000000  0.43665000  1.0
  C  C92  1  0.95037000  0.25000000  0.01065000  1.0
  C  C93  1  0.54961000  0.75000000  0.51064000  1.0
  C  C94  1  0.04962000  0.75000000  0.98935000  1.0
  C  C95  1  0.45039000  0.25000000  0.48936000  1.0
  C  C96  1  0.91459000  0.24999000  0.93930000  1.0
  C  C97  1  0.58543000  0.75001000  0.43929000  1.0
  C  C98  1  0.08541000  0.75001000  0.06070000  1.0
  C  C99  1  0.41457000  0.24999000  0.56071000  1.0
  C  C100  1  0.78703000  0.25000000  0.91794000  1.0
  C  C101  1  0.71300000  0.75000000  0.41794000  1.0
  C  C102  1  0.21297000  0.75000000  0.08206000  1.0
  C  C103  1  0.28700000  0.25000000  0.58206000  1.0
  C  C104  1  0.69307000  0.25000000  0.97133000  1.0
  C  C105  1  0.80694000  0.75000000  0.47134000  1.0
  C  C106  1  0.30692000  0.75000000  0.02867000  1.0
  C  C107  1  0.19306000  0.25000000  0.52866000  1.0
  C  C108  1  0.73069000  0.25000000  0.04260000  1.0
  C  C109  1  0.76930000  0.75000000  0.54260000  1.0
  C  C110  1  0.26931000  0.75000000  0.95740000  1.0
  C  C111  1  0.23070000  0.25000000  0.45740000  1.0
  C  C112  1  0.76564000  0.25000000  0.83886000  1.0
  C  C113  1  0.73436000  0.75000000  0.33886000  1.0
  C  C114  1  0.23436000  0.75000000  0.16114000  1.0
  C  C115  1  0.26564000  0.25000000  0.66114000  1.0
  C  C116  1  0.49784000  0.17812000  0.98502000  1.0
  C  C117  1  0.00217000  0.82188000  0.48502000  1.0
  C  C118  1  0.50217000  0.67811000  0.01498000  1.0
  C  C119  1  0.99783000  0.32189000  0.51498000  1.0
  C  C120  1  0.50216000  0.82188000  0.01498000  1.0
  C  C121  1  0.99783000  0.17812000  0.51498000  1.0
  C  C122  1  0.49783000  0.32189000  0.98502000  1.0
  C  C123  1  0.00217000  0.67811000  0.48502000  1.0
  C  C124  1  0.55126000  0.10331000  0.95265000  1.0
  C  C125  1  0.94875000  0.89670000  0.45265000  1.0
  C  C126  1  0.44874000  0.60331000  0.04736000  1.0
  C  C127  1  0.05125000  0.39670000  0.54736000  1.0
  C  C128  1  0.44874000  0.89669000  0.04735000  1.0
  C  C129  1  0.05125000  0.10330000  0.54735000  1.0
  C  C130  1  0.55126000  0.39669000  0.95264000  1.0
  C  C131  1  0.94875000  0.60330000  0.45264000  1.0
  C  C132  1  0.51360000  0.07930000  0.88426000  1.0
  C  C133  1  0.98640000  0.92070000  0.38425000  1.0
  C  C134  1  0.48640000  0.57929000  0.11575000  1.0
  C  C135  1  0.01360000  0.42071000  0.61575000  1.0
  C  C136  1  0.48640000  0.92070000  0.11574000  1.0
  C  C137  1  0.01360000  0.07930000  0.61575000  1.0
  C  C138  1  0.51360000  0.42071000  0.88425000  1.0
  C  C139  1  0.98640000  0.57929000  0.38425000  1.0
  C  C140  1  0.55872000  0.00874000  0.85489000  1.0
  C  C141  1  0.94129000  0.99126000  0.35489000  1.0
  C  C142  1  0.44127000  0.50873000  0.14511000  1.0
  C  C143  1  0.05872000  0.49127000  0.64511000  1.0
  C  C144  1  0.44129000  0.99127000  0.14511000  1.0
  C  C145  1  0.05872000  0.00874000  0.64511000  1.0
  C  C146  1  0.55873000  0.49127000  0.85489000  1.0
  C  C147  1  0.94128000  0.50873000  0.35489000  1.0
  C  C148  1  0.64452000  0.96159000  0.89329000  1.0
  C  C149  1  0.85549000  0.03840000  0.39329000  1.0
  C  C150  1  0.35547000  0.46160000  0.10671000  1.0
  C  C151  1  0.14453000  0.53840000  0.60671000  1.0
  C  C152  1  0.35549000  0.03841000  0.10671000  1.0
  C  C153  1  0.14451000  0.96159000  0.60671000  1.0
  C  C154  1  0.64453000  0.53840000  0.89329000  1.0
  C  C155  1  0.85547000  0.46160000  0.39329000  1.0
  C  C156  1  0.68646000  0.98706000  0.96047000  1.0
  C  C157  1  0.81354000  0.01294000  0.46047000  1.0
  C  C158  1  0.31353000  0.48707000  0.03953000  1.0
  C  C159  1  0.18647000  0.51294000  0.53953000  1.0
  C  C160  1  0.31354000  0.01294000  0.03953000  1.0
  C  C161  1  0.18646000  0.98706000  0.53953000  1.0
  C  C162  1  0.68647000  0.51293000  0.96047000  1.0
  C  C163  1  0.81353000  0.48706000  0.46047000  1.0
  C  C164  1  0.63909000  0.05702000  0.98992000  1.0
  C  C165  1  0.86091000  0.94298000  0.48992000  1.0
  C  C166  1  0.36092000  0.55702000  0.01008000  1.0
  C  C167  1  0.13909000  0.44298000  0.51008000  1.0
  C  C168  1  0.36091000  0.94298000  0.01008000  1.0
  C  C169  1  0.13910000  0.05702000  0.51008000  1.0
  C  C170  1  0.63909000  0.44298000  0.98992000  1.0
  C  C171  1  0.86091000  0.55702000  0.48992000  1.0
  C  C172  1  0.68966000  0.88429000  0.86453000  1.0
  C  C173  1  0.81034000  0.11571000  0.36453000  1.0
  C  C174  1  0.31033000  0.38430000  0.13548000  1.0
  C  C175  1  0.18968000  0.61570000  0.63548000  1.0
  C  C176  1  0.31034000  0.11571000  0.13547000  1.0
  C  C177  1  0.18967000  0.88429000  0.63547000  1.0
  C  C178  1  0.68967000  0.61570000  0.86452000  1.0
  C  C179  1  0.81032000  0.38430000  0.36452000  1.0
  N  N180  1  0.55947000  0.25000000  0.95694000  1.0
  N  N181  1  0.94054000  0.75000000  0.45694000  1.0
  N  N182  1  0.44053000  0.75000000  0.04306000  1.0
  N  N183  1  0.05947000  0.25000000  0.54306000  1.0
  O  O184  1  0.79161000  0.25000000  0.18390000  1.0
  O  O185  1  0.70838000  0.75000000  0.68391000  1.0
  O  O186  1  0.20839000  0.75000000  0.81610000  1.0
  O  O187  1  0.29163000  0.25000000  0.31609000  1.0
  O  O188  1  0.99952000  0.25002000  0.16158000  1.0
  O  O189  1  0.50049000  0.74999000  0.66158000  1.0
  O  O190  1  0.00047000  0.74998000  0.83843000  1.0
  O  O191  1  0.49951000  0.25001000  0.33842000  1.0
  O  O192  1  0.64329000  0.25000000  0.81843000  1.0
  O  O193  1  0.85671000  0.75000000  0.31843000  1.0
  O  O194  1  0.35671000  0.75000000  0.18157000  1.0
  O  O195  1  0.14329000  0.25000000  0.68157000  1.0
  O  O196  1  0.85216000  0.25000000  0.79523000  1.0
  O  O197  1  0.64784000  0.75000000  0.29523000  1.0
  O  O198  1  0.14784000  0.75000000  0.20477000  1.0
  O  O199  1  0.35217000  0.24999000  0.70477000  1.0
  O  O200  1  0.63631000  0.85332000  0.80858000  1.0
  O  O201  1  0.86369000  0.14668000  0.30858000  1.0
  O  O202  1  0.36367000  0.35333000  0.19143000  1.0
  O  O203  1  0.13633000  0.64668000  0.69142000  1.0
  O  O204  1  0.36369000  0.14668000  0.19142000  1.0
  O  O205  1  0.13631000  0.85332000  0.69142000  1.0
  O  O206  1  0.63633000  0.64667000  0.80857000  1.0
  O  O207  1  0.86367000  0.35332000  0.30858000  1.0
  O  O208  1  0.78060000  0.84759000  0.89411000  1.0
  O  O209  1  0.71940000  0.15242000  0.39411000  1.0
  O  O210  1  0.21938000  0.34760000  0.10590000  1.0
  O  O211  1  0.28062000  0.65241000  0.60590000  1.0
  O  O212  1  0.21940000  0.15242000  0.10589000  1.0
  O  O213  1  0.28060000  0.84758000  0.60589000  1.0
  O  O214  1  0.78062000  0.65240000  0.89410000  1.0
  O  O215  1  0.71939000  0.34759000  0.39411000  1.0
  O  O216  1  0.60246000  0.14398000  0.22860000  1.0
  O  O217  1  0.89755000  0.85601000  0.72861000  1.0
  O  O218  1  0.39755000  0.64397000  0.77140000  1.0
  O  O219  1  0.10244000  0.35603000  0.27140000  1.0
  O  O220  1  0.39754000  0.85602000  0.77140000  1.0
  O  O221  1  0.10245000  0.14398000  0.27139000  1.0
  O  O222  1  0.60245000  0.35603000  0.22860000  1.0
  O  O223  1  0.89755000  0.64397000  0.72860000  1.0
