# generated using pymatgen
data_CdH22C27(NO2)4
_symmetry_space_group_name_H-M   'P 1'
_cell_length_a   10.37580000
_cell_length_b   10.53480000
_cell_length_c   12.42690000
_cell_angle_alpha   92.18560000
_cell_angle_beta   103.30100000
_cell_angle_gamma   100.61900000
_symmetry_Int_Tables_number   1
_chemical_formula_structural   CdH22C27(NO2)4
_chemical_formula_sum   'Cd2 H44 C54 N8 O16'
_cell_volume   1294.65714366
_cell_formula_units_Z   2
loop_
 _symmetry_equiv_pos_site_id
 _symmetry_equiv_pos_as_xyz
  1  'x, y, z'
loop_
 _atom_site_type_symbol
 _atom_site_label
 _atom_site_symmetry_multiplicity
 _atom_site_fract_x
 _atom_site_fract_y
 _atom_site_fract_z
 _atom_site_occupancy
  Cd  Cd0  1  0.60257000  0.77934000  0.45165000  1.0
  Cd  Cd1  1  0.39743000  0.22066000  0.54835000  1.0
  H  H2  1  0.25370000  0.93872000  0.11050000  1.0
  H  H3  1  0.74630000  0.06128000  0.88950000  1.0
  H  H4  1  0.77664000  0.67516000  0.71822000  1.0
  H  H5  1  0.22335000  0.32484000  0.28178000  1.0
  H  H6  1  0.66550000  0.05086000  0.55931000  1.0
  H  H7  1  0.33450000  0.94914000  0.44069000  1.0
  H  H8  1  0.79693000  0.99640000  0.58731000  1.0
  H  H9  1  0.20307000  0.00360000  0.41270000  1.0
  H  H10  1  0.38159000  0.86454000  0.25817000  1.0
  H  H11  1  0.61841000  0.13546000  0.74183000  1.0
  H  H12  1  0.04084000  0.12896000  0.62274000  1.0
  H  H13  1  0.95916000  0.87104000  0.37726000  1.0
  H  H14  1  0.78688000  0.02716000  0.37881000  1.0
  H  H15  1  0.21312000  0.97284000  0.62118000  1.0
  H  H16  1  0.77640000  0.19285000  0.23991000  1.0
  H  H17  1  0.22360000  0.80715000  0.76009000  1.0
  H  H18  1  0.55498000  0.19323000  0.10443000  1.0
  H  H19  1  0.44502000  0.80678000  0.89557000  1.0
  H  H20  1  0.18526000  0.15808000  0.81208000  1.0
  H  H21  1  0.81475000  0.84192000  0.18792000  1.0
  H  H22  1  0.83371000  0.85558000  0.69832000  1.0
  H  H23  1  0.16629000  0.14442000  0.30167000  1.0
  H  H24  1  0.09933000  0.84190000  0.01489000  1.0
  H  H25  1  0.90067000  0.15811000  0.98511000  1.0
  H  H26  1  0.61524000  0.49805000  0.62555000  1.0
  H  H27  1  0.38476000  0.50195000  0.37445000  1.0
  H  H28  1  0.70051000  0.56648000  0.98202000  1.0
  H  H29  1  0.29949000  0.43352000  0.01799000  1.0
  H  H30  1  0.51116000  0.37596000  0.97823000  1.0
  H  H31  1  0.48884000  0.62404000  0.02177000  1.0
  H  H32  1  0.38511000  0.25770000  0.79835000  1.0
  H  H33  1  0.61489000  0.74230000  0.20165000  1.0
  H  H34  1  0.10974000  0.76607000  0.43998000  1.0
  H  H35  1  0.89025000  0.23393000  0.56001000  1.0
  H  H36  1  0.33210000  0.54959000  0.67343000  1.0
  H  H37  1  0.66790000  0.45041000  0.32657000  1.0
  H  H38  1  0.04141000  0.44228000  0.81000000  1.0
  H  H39  1  0.95859000  0.55772000  0.19000000  1.0
  H  H40  1  0.21882000  0.49907000  0.84912000  1.0
  H  H41  1  0.78118000  0.50093000  0.15088000  1.0
  H  H42  1  0.15007000  0.36228000  0.75261000  1.0
  H  H43  1  0.84993000  0.63771000  0.24740000  1.0
  H  H44  1  0.91860000  0.55827000  0.67236000  1.0
  H  H45  1  0.08139000  0.44172000  0.32764000  1.0
  C  C46  1  0.46675000  0.93939000  0.25113000  1.0
  C  C47  1  0.53325000  0.06061000  0.74887000  1.0
  C  C48  1  0.69314000  0.03010000  0.31853000  1.0
  C  C49  1  0.30686000  0.96990000  0.68146000  1.0
  C  C50  1  0.68602000  0.12216000  0.24123000  1.0
  C  C51  1  0.31398000  0.87784000  0.75877000  1.0
  C  C52  1  0.56419000  0.12300000  0.16603000  1.0
  C  C53  1  0.43581000  0.87701000  0.83398000  1.0
  C  C54  1  0.45119000  0.02824000  0.17008000  1.0
  C  C55  1  0.54881000  0.97177000  0.82992000  1.0
  C  C56  1  0.28993000  0.07050000  0.99966000  1.0
  C  C57  1  0.71007000  0.92950000  0.00034000  1.0
  C  C58  1  0.15778000  0.00877000  0.92266000  1.0
  C  C59  1  0.84222000  0.99124000  0.07735000  1.0
  C  C60  1  0.12136000  0.06824000  0.82414000  1.0
  C  C61  1  0.87865000  0.93176000  0.17586000  1.0
  C  C62  1  0.00706000  0.01016000  0.74215000  1.0
  C  C63  1  0.99294000  0.98985000  0.25785000  1.0
  C  C64  1  0.92498000  0.89620000  0.76158000  1.0
  C  C65  1  0.07503000  0.10380000  0.23841000  1.0
  C  C66  1  0.96001000  0.83754000  0.85977000  1.0
  C  C67  1  0.03999000  0.16246000  0.14023000  1.0
  C  C68  1  0.07744000  0.89331000  0.94037000  1.0
  C  C69  1  0.92256000  0.10669000  0.05962000  1.0
  C  C70  1  0.87445000  0.71721000  0.88530000  1.0
  C  C71  1  0.12556000  0.28279000  0.11469000  1.0
  C  C72  1  0.59620000  0.47364000  0.70572000  1.0
  C  C73  1  0.40380000  0.52636000  0.29428000  1.0
  C  C74  1  0.67310000  0.54665000  0.80438000  1.0
  C  C75  1  0.32690000  0.45335000  0.19562000  1.0
  C  C76  1  0.64257000  0.51163000  0.90493000  1.0
  C  C77  1  0.35743000  0.48838000  0.09507000  1.0
  C  C78  1  0.53813000  0.40702000  0.90248000  1.0
  C  C79  1  0.46187000  0.59298000  0.09752000  1.0
  C  C80  1  0.46637000  0.34033000  0.80166000  1.0
  C  C81  1  0.53363000  0.65967000  0.19834000  1.0
  C  C82  1  0.86984000  0.71383000  0.50722000  1.0
  C  C83  1  0.13016000  0.28616000  0.49278000  1.0
  C  C84  1  0.11239000  0.70476000  0.50854000  1.0
  C  C85  1  0.88760000  0.29524000  0.49146000  1.0
  C  C86  1  0.23229000  0.66285000  0.55375000  1.0
  C  C87  1  0.76770000  0.33714000  0.44624000  1.0
  C  C88  1  0.23761000  0.58134000  0.64031000  1.0
  C  C89  1  0.76238000  0.41866000  0.35969000  1.0
  C  C90  1  0.12561000  0.54331000  0.68496000  1.0
  C  C91  1  0.87438000  0.45668000  0.31504000  1.0
  C  C92  1  0.13342000  0.45742000  0.77909000  1.0
  C  C93  1  0.86658000  0.54257000  0.22091000  1.0
  C  C94  1  0.00737000  0.58795000  0.63977000  1.0
  C  C95  1  0.99263000  0.41204000  0.36023000  1.0
  C  C96  1  0.35756000  0.71044000  0.51464000  1.0
  C  C97  1  0.64243000  0.28956000  0.48536000  1.0
  C  C98  1  0.99907000  0.66846000  0.55190000  1.0
  C  C99  1  0.00092000  0.33153000  0.44809000  1.0
  N  N100  1  0.58463000  0.94032000  0.32287000  1.0
  N  N101  1  0.41538000  0.05968000  0.67713000  1.0
  N  N102  1  0.32449000  0.01237000  0.09653000  1.0
  N  N103  1  0.67551000  0.98763000  0.90347000  1.0
  N  N104  1  0.77381000  0.65200000  0.79738000  1.0
  N  N105  1  0.22619000  0.34800000  0.20261000  1.0
  N  N106  1  0.49565000  0.37313000  0.70510000  1.0
  N  N107  1  0.50435000  0.62687000  0.29490000  1.0
  O  O108  1  0.85500000  0.77904000  0.42188000  1.0
  O  O109  1  0.14499000  0.22096000  0.57812000  1.0
  O  O110  1  0.77419000  0.68589000  0.55696000  1.0
  O  O111  1  0.22581000  0.31410000  0.44304000  1.0
  O  O112  1  0.46280000  0.66516000  0.55406000  1.0
  O  O113  1  0.53720000  0.33484000  0.44593000  1.0
  O  O114  1  0.35619000  0.79512000  0.44330000  1.0
  O  O115  1  0.64380000  0.20487000  0.55670000  1.0
  O  O116  1  0.36508000  0.16485000  0.97527000  1.0
  O  O117  1  0.63492000  0.83515000  0.02473000  1.0
  O  O118  1  0.89389000  0.68197000  0.98063000  1.0
  O  O119  1  0.10611000  0.31803000  0.01937000  1.0
  O  O120  1  0.69788000  0.96819000  0.57403000  1.0
  O  O121  1  0.30212000  0.03181000  0.42597000  1.0
  O  O122  1  0.96979000  0.05743000  0.64205000  1.0
  O  O123  1  0.03022000  0.94257000  0.35795000  1.0
