# generated using pymatgen
data_ZnH14C11S(NO)4
_symmetry_space_group_name_H-M   'P 1'
_cell_length_a   7.99201000
_cell_length_b   9.37782000
_cell_length_c   10.05420000
_cell_angle_alpha   83.05680000
_cell_angle_beta   88.12330000
_cell_angle_gamma   81.53780000
_symmetry_Int_Tables_number   1
_chemical_formula_structural   ZnH14C11S(NO)4
_chemical_formula_sum   'Zn2 H28 C22 S2 N8 O8'
_cell_volume   739.78301435
_cell_formula_units_Z   2
loop_
 _symmetry_equiv_pos_site_id
 _symmetry_equiv_pos_as_xyz
  1  'x, y, z'
loop_
 _atom_site_type_symbol
 _atom_site_label
 _atom_site_symmetry_multiplicity
 _atom_site_fract_x
 _atom_site_fract_y
 _atom_site_fract_z
 _atom_site_occupancy
  Zn  Zn0  1  0.84440000  0.34473000  0.67471000  1.0
  Zn  Zn1  1  0.15560000  0.65527000  0.32530000  1.0
  H  H2  1  0.16323000  0.02184000  0.32178000  1.0
  H  H3  1  0.83677000  0.97815000  0.67822000  1.0
  H  H4  1  0.03086000  0.17767000  0.25075000  1.0
  H  H5  1  0.96913000  0.82232000  0.74925000  1.0
  H  H6  1  0.14820000  0.16176000  0.64583000  1.0
  H  H7  1  0.85179000  0.83824000  0.35417000  1.0
  H  H8  1  0.29351000  0.95812000  0.75277000  1.0
  H  H9  1  0.70648000  0.04189000  0.24724000  1.0
  H  H10  1  0.48279000  0.79889000  0.43701000  1.0
  H  H11  1  0.51719000  0.20110000  0.56300000  1.0
  H  H12  1  0.68073000  0.56669000  0.45032000  1.0
  H  H13  1  0.31924000  0.43331000  0.54969000  1.0
  H  H14  1  0.61904000  0.49080000  0.86238000  1.0
  H  H15  1  0.38097000  0.50922000  0.13763000  1.0
  H  H16  1  0.42378000  0.72622000  0.86916000  1.0
  H  H17  1  0.57622000  0.27378000  0.13085000  1.0
  H  H18  1  0.36059000  0.33060000  0.94860000  1.0
  H  H19  1  0.63942000  0.66942000  0.05139000  1.0
  H  H20  1  0.16207000  0.38634000  0.03108000  1.0
  H  H21  1  0.83794000  0.61366000  0.96892000  1.0
  H  H22  1  0.24248000  0.50799000  0.90849000  1.0
  H  H23  1  0.75752000  0.49201000  0.09150000  1.0
  H  H24  1  0.64744000  0.99012000  0.03214000  1.0
  H  H25  1  0.35256000  0.00989000  0.96785000  1.0
  H  H26  1  0.84411000  0.93371000  0.95501000  1.0
  H  H27  1  0.15589000  0.06628000  0.04499000  1.0
  H  H28  1  0.65489000  0.92820000  0.87022000  1.0
  H  H29  1  0.34512000  0.07181000  0.12977000  1.0
  C  C30  1  0.07094000  0.17986000  0.44607000  1.0
  C  C31  1  0.92905000  0.82013000  0.55393000  1.0
  C  C32  1  0.32461000  0.91825000  0.65529000  1.0
  C  C33  1  0.67538000  0.08175000  0.34472000  1.0
  C  C34  1  0.43919000  0.78309000  0.65277000  1.0
  C  C35  1  0.56080000  0.21692000  0.34723000  1.0
  C  C36  1  0.51113000  0.73498000  0.53351000  1.0
  C  C37  1  0.48886000  0.26503000  0.46650000  1.0
  C  C38  1  0.62040000  0.60537000  0.54064000  1.0
  C  C39  1  0.37958000  0.39461000  0.45937000  1.0
  C  C40  1  0.58674000  0.56491000  0.77191000  1.0
  C  C41  1  0.41326000  0.43510000  0.22810000  1.0
  C  C42  1  0.47907000  0.69512000  0.77397000  1.0
  C  C43  1  0.52092000  0.30488000  0.22605000  1.0
  C  C44  1  0.13838000  0.33783000  0.83000000  1.0
  C  C45  1  0.86163000  0.66216000  0.17000000  1.0
  C  C46  1  0.23380000  0.39238000  0.93595000  1.0
  C  C47  1  0.76620000  0.60763000  0.06405000  1.0
  C  C48  1  0.72425000  0.14334000  0.87071000  1.0
  C  C49  1  0.27578000  0.85666000  0.12928000  1.0
  C  C50  1  0.71503000  0.99037000  0.93599000  1.0
  C  C51  1  0.28498000  0.00963000  0.06401000  1.0
  S  S52  1  0.94043000  0.33989000  0.45354000  1.0
  S  S53  1  0.05956000  0.66011000  0.54645000  1.0
  N  N54  1  0.09889000  0.12508000  0.32978000  1.0
  N  N55  1  0.90110000  0.87491000  0.67022000  1.0
  N  N56  1  0.15059000  0.10931000  0.55692000  1.0
  N  N57  1  0.84940000  0.89069000  0.44308000  1.0
  N  N58  1  0.25849000  0.98612000  0.54525000  1.0
  N  N59  1  0.74150000  0.01387000  0.45475000  1.0
  N  N60  1  0.65802000  0.52077000  0.65764000  1.0
  N  N61  1  0.34198000  0.47923000  0.34236000  1.0
  O  O62  1  0.20589000  0.22949000  0.77366000  1.0
  O  O63  1  0.79412000  0.77050000  0.22635000  1.0
  O  O64  1  0.98981000  0.40769000  0.80447000  1.0
  O  O65  1  0.01020000  0.59231000  0.19551000  1.0
  O  O66  1  0.68562000  0.25010000  0.93385000  1.0
  O  O67  1  0.31440000  0.74991000  0.06613000  1.0
  O  O68  1  0.77921000  0.15242000  0.74599000  1.0
  O  O69  1  0.22083000  0.84757000  0.25400000  1.0
