# generated using pymatgen
data_CdH16C22(NO2)2
_symmetry_space_group_name_H-M   'P 1'
_cell_length_a   10.04260000
_cell_length_b   10.17000000
_cell_length_c   11.58530000
_cell_angle_alpha   88.63280000
_cell_angle_beta   71.90630000
_cell_angle_gamma   64.81640000
_symmetry_Int_Tables_number   1
_chemical_formula_structural   CdH16C22(NO2)2
_chemical_formula_sum   'Cd2 H32 C44 N4 O8'
_cell_volume   1009.72733615
_cell_formula_units_Z   2
loop_
 _symmetry_equiv_pos_site_id
 _symmetry_equiv_pos_as_xyz
  1  'x, y, z'
loop_
 _atom_site_type_symbol
 _atom_site_label
 _atom_site_symmetry_multiplicity
 _atom_site_fract_x
 _atom_site_fract_y
 _atom_site_fract_z
 _atom_site_occupancy
  Cd  Cd0  1  0.60885000  0.84822000  0.57272000  1.0
  Cd  Cd1  1  0.39113000  0.15180000  0.42725000  1.0
  H  H2  1  0.71861000  0.84187000  0.27359000  1.0
  H  H3  1  0.28137000  0.15814000  0.72640000  1.0
  H  H4  1  0.96306000  0.75325000  0.09219000  1.0
  H  H5  1  0.03694000  0.24674000  0.90779000  1.0
  H  H6  1  0.22104000  0.61194000  0.12374000  1.0
  H  H7  1  0.77896000  0.38806000  0.87625000  1.0
  H  H8  1  0.36932000  0.50579000  0.27113000  1.0
  H  H9  1  0.63069000  0.49421000  0.72885000  1.0
  H  H10  1  0.36713000  0.48053000  0.48358000  1.0
  H  H11  1  0.63287000  0.51947000  0.51641000  1.0
  H  H12  1  0.21996000  0.52592000  0.70530000  1.0
  H  H13  1  0.78004000  0.47406000  0.29468000  1.0
  H  H14  1  0.95927000  0.64283000  0.87595000  1.0
  H  H15  1  0.04073000  0.35716000  0.12405000  1.0
  H  H16  1  0.71675000  0.77789000  0.82087000  1.0
  H  H17  1  0.28323000  0.22211000  0.17912000  1.0
  H  H18  1  0.33713000  0.76670000  0.27348000  1.0
  H  H19  1  0.66280000  0.23329000  0.72657000  1.0
  H  H20  1  0.34245000  0.93868000  0.26832000  1.0
  H  H21  1  0.65749000  0.06130000  0.73170000  1.0
  H  H22  1  0.21518000  0.88872000  0.58660000  1.0
  H  H23  1  0.78478000  0.11131000  0.41344000  1.0
  H  H24  1  0.05590000  0.99192000  0.27650000  1.0
  H  H25  1  0.94405000  0.00811000  0.72354000  1.0
  H  H26  1  0.36307000  0.70357000  0.92837000  1.0
  H  H27  1  0.63702000  0.29639000  0.07162000  1.0
  H  H28  1  0.37832000  0.84549000  0.00405000  1.0
  H  H29  1  0.62178000  0.15447000  0.99593000  1.0
  H  H30  1  0.15089000  0.06109000  0.10509000  1.0
  H  H31  1  0.84920000  0.93888000  0.89493000  1.0
  H  H32  1  0.13576000  0.78866000  0.83632000  1.0
  H  H33  1  0.86431000  0.21131000  0.16369000  1.0
  C  C34  1  0.83260000  0.78183000  0.28451000  1.0
  C  C35  1  0.16739000  0.21819000  0.71546000  1.0
  C  C36  1  0.97027000  0.73039000  0.18288000  1.0
  C  C37  1  0.02972000  0.26961000  0.81709000  1.0
  C  C38  1  0.11199000  0.65378000  0.20086000  1.0
  C  C39  1  0.88800000  0.34622000  0.79912000  1.0
  C  C40  1  0.11686000  0.63071000  0.32051000  1.0
  C  C41  1  0.88313000  0.36929000  0.67948000  1.0
  C  C42  1  0.25892000  0.55394000  0.34644000  1.0
  C  C43  1  0.74109000  0.44607000  0.65354000  1.0
  C  C44  1  0.25870000  0.53898000  0.46393000  1.0
  C  C45  1  0.74130000  0.46101000  0.53605000  1.0
  C  C46  1  0.11541000  0.59951000  0.56449000  1.0
  C  C47  1  0.88459000  0.40048000  0.43549000  1.0
  C  C48  1  0.11055000  0.58690000  0.68731000  1.0
  C  C49  1  0.88946000  0.41310000  0.31266000  1.0
  C  C50  1  0.96789000  0.64960000  0.78007000  1.0
  C  C51  1  0.03212000  0.35040000  0.21992000  1.0
  C  C52  1  0.83123000  0.72437000  0.75025000  1.0
  C  C53  1  0.16877000  0.27565000  0.24974000  1.0
  C  C54  1  0.97116000  0.67511000  0.54270000  1.0
  C  C55  1  0.02883000  0.32489000  0.45729000  1.0
  C  C56  1  0.97181000  0.68987000  0.41806000  1.0
  C  C57  1  0.02819000  0.31013000  0.58193000  1.0
  C  C58  1  0.44856000  0.80608000  0.38936000  1.0
  C  C59  1  0.55141000  0.19392000  0.61065000  1.0
  C  C60  1  0.32198000  0.86024000  0.33033000  1.0
  C  C61  1  0.67797000  0.13975000  0.66971000  1.0
  C  C62  1  0.15713000  0.93221000  0.42006000  1.0
  C  C63  1  0.84282000  0.06781000  0.57998000  1.0
  C  C64  1  0.12195000  0.93690000  0.54722000  1.0
  C  C65  1  0.87801000  0.06312000  0.45282000  1.0
  C  C66  1  0.03234000  0.99581000  0.37501000  1.0
  C  C67  1  0.96760000  0.00422000  0.62503000  1.0
  C  C68  1  0.42587000  0.84854000  0.81003000  1.0
  C  C69  1  0.57414000  0.15147000  0.18997000  1.0
  C  C70  1  0.33682000  0.82029000  0.93420000  1.0
  C  C71  1  0.66324000  0.17969000  0.06579000  1.0
  C  C72  1  0.16318000  0.91308000  0.96792000  1.0
  C  C73  1  0.83688000  0.08690000  0.03211000  1.0
  C  C74  1  0.08457000  0.03374000  0.05898000  1.0
  C  C75  1  0.91548000  0.96625000  0.94103000  1.0
  C  C76  1  0.07624000  0.88105000  0.90873000  1.0
  C  C77  1  0.92381000  0.11893000  0.09130000  1.0
  N  N78  1  0.83418000  0.76130000  0.39800000  1.0
  N  N79  1  0.16582000  0.23871000  0.60199000  1.0
  N  N80  1  0.83296000  0.73585000  0.63523000  1.0
  N  N81  1  0.16705000  0.26416000  0.36477000  1.0
  O  O82  1  0.53724000  0.67373000  0.38001000  1.0
  O  O83  1  0.46270000  0.32626000  0.62003000  1.0
  O  O84  1  0.45527000  0.90845000  0.45049000  1.0
  O  O85  1  0.54473000  0.09156000  0.54948000  1.0
  O  O86  1  0.46525000  0.95179000  0.80560000  1.0
  O  O87  1  0.53475000  0.04823000  0.19439000  1.0
  O  O88  1  0.45639000  0.76365000  0.71568000  1.0
  O  O89  1  0.54362000  0.23637000  0.28431000  1.0
