# generated using pymatgen
data_CuH4C3N4O3
_symmetry_space_group_name_H-M   'P 1'
_cell_length_a   8.16099000
_cell_length_b   12.92580000
_cell_length_c   12.92650000
_cell_angle_alpha   115.65100000
_cell_angle_beta   102.21500000
_cell_angle_gamma   102.13500000
_symmetry_Int_Tables_number   1
_chemical_formula_structural   CuH4C3N4O3
_chemical_formula_sum   'Cu6 H24 C18 N24 O18'
_cell_volume   1128.68259765
_cell_formula_units_Z   6
loop_
 _symmetry_equiv_pos_site_id
 _symmetry_equiv_pos_as_xyz
  1  'x, y, z'
loop_
 _atom_site_type_symbol
 _atom_site_label
 _atom_site_symmetry_multiplicity
 _atom_site_fract_x
 _atom_site_fract_y
 _atom_site_fract_z
 _atom_site_occupancy
  Cu  Cu0  1  0.24885000  0.53257000  0.58526000  1.0
  Cu  Cu1  1  0.71603000  0.05295000  0.46736000  1.0
  Cu  Cu2  1  0.66294000  0.41421000  0.94686000  1.0
  Cu  Cu3  1  0.75115000  0.46742000  0.41473000  1.0
  Cu  Cu4  1  0.28397000  0.94705000  0.53265000  1.0
  Cu  Cu5  1  0.33706000  0.58581000  0.05314000  1.0
  H  H6  1  0.34074000  0.35274000  0.36996000  1.0
  H  H7  1  0.98891000  0.01774000  0.64769000  1.0
  H  H8  1  0.97052000  0.63004000  0.98262000  1.0
  H  H9  1  0.65927000  0.64726000  0.63005000  1.0
  H  H10  1  0.01109000  0.98226000  0.35232000  1.0
  H  H11  1  0.02948000  0.36997000  0.01737000  1.0
  H  H12  1  0.14827000  0.36660000  0.32538000  1.0
  H  H13  1  0.78273000  0.96011000  0.63433000  1.0
  H  H14  1  0.82205000  0.67421000  0.04023000  1.0
  H  H15  1  0.85174000  0.63340000  0.67461000  1.0
  H  H16  1  0.21727000  0.03987000  0.36567000  1.0
  H  H17  1  0.17796000  0.32580000  0.95976000  1.0
  H  H18  1  0.71396000  0.69938000  0.42423000  1.0
  H  H19  1  0.01533000  0.72447000  0.30127000  1.0
  H  H20  1  0.29306000  0.57767000  0.27622000  1.0
  H  H21  1  0.28604000  0.30061000  0.57576000  1.0
  H  H22  1  0.98468000  0.27552000  0.69873000  1.0
  H  H23  1  0.70693000  0.42232000  0.72377000  1.0
  H  H24  1  0.85243000  0.84392000  0.48543000  1.0
  H  H25  1  0.00846000  0.64143000  0.15643000  1.0
  H  H26  1  0.36862000  0.51514000  0.35865000  1.0
  H  H27  1  0.14757000  0.15607000  0.51458000  1.0
  H  H28  1  0.99154000  0.35857000  0.84356000  1.0
  H  H29  1  0.63137000  0.48487000  0.64134000  1.0
  C  C30  1  0.97447000  0.72111000  0.47662000  1.0
  C  C31  1  0.25354000  0.75530000  0.27916000  1.0
  C  C32  1  0.49957000  0.52391000  0.24468000  1.0
  C  C33  1  0.02553000  0.27888000  0.52338000  1.0
  C  C34  1  0.74646000  0.24470000  0.72085000  1.0
  C  C35  1  0.50043000  0.47609000  0.75532000  1.0
  C  C36  1  0.24062000  0.72689000  0.54741000  1.0
  C  C37  1  0.51356000  0.82059000  0.27322000  1.0
  C  C38  1  0.69365000  0.45211000  0.17937000  1.0
  C  C39  1  0.75937000  0.27311000  0.45259000  1.0
  C  C40  1  0.48645000  0.17942000  0.72678000  1.0
  C  C41  1  0.30636000  0.54789000  0.82063000  1.0
  C  C42  1  0.43507000  0.75848000  0.60391000  1.0
  C  C43  1  0.67615000  0.84562000  0.24146000  1.0
  C  C44  1  0.83137000  0.39551000  0.15425000  1.0
  C  C45  1  0.56492000  0.24150000  0.39608000  1.0
  C  C46  1  0.32386000  0.15440000  0.75856000  1.0
  C  C47  1  0.16861000  0.60448000  0.84575000  1.0
  N  N48  1  0.96257000  0.61350000  0.47325000  1.0
  N  N49  1  0.34940000  0.85939000  0.38685000  1.0
  N  N50  1  0.49074000  0.52740000  0.14049000  1.0
  N  N51  1  0.03741000  0.38649000  0.52674000  1.0
  N  N52  1  0.65060000  0.14060000  0.61316000  1.0
  N  N53  1  0.50927000  0.47262000  0.85951000  1.0
  N  N54  1  0.83546000  0.75186000  0.43535000  1.0
  N  N55  1  0.08395000  0.68317000  0.24847000  1.0
  N  N56  1  0.40283000  0.56565000  0.31720000  1.0
  N  N57  1  0.16454000  0.24813000  0.56465000  1.0
  N  N58  1  0.91606000  0.31683000  0.75153000  1.0
  N  N59  1  0.59717000  0.43435000  0.68279000  1.0
  N  N60  1  0.13152000  0.61929000  0.51881000  1.0
  N  N61  1  0.51248000  0.89928000  0.38105000  1.0
  N  N62  1  0.61326000  0.48102000  0.10047000  1.0
  N  N63  1  0.86846000  0.38070000  0.48118000  1.0
  N  N64  1  0.48752000  0.10072000  0.61896000  1.0
  N  N65  1  0.38674000  0.51898000  0.89953000  1.0
  N  N66  1  0.14861000  0.79374000  0.52119000  1.0
  N  N67  1  0.35472000  0.72753000  0.20634000  1.0
  N  N68  1  0.62843000  0.47855000  0.27242000  1.0
  N  N69  1  0.85139000  0.20626000  0.47881000  1.0
  N  N70  1  0.64528000  0.27247000  0.79366000  1.0
  N  N71  1  0.37157000  0.52144000  0.72757000  1.0
  O  O72  1  0.47028000  0.67568000  0.62814000  1.0
  O  O73  1  0.79389000  0.95278000  0.32406000  1.0
  O  O74  1  0.84181000  0.37123000  0.04714000  1.0
  O  O75  1  0.52972000  0.32432000  0.37185000  1.0
  O  O76  1  0.20611000  0.04723000  0.67595000  1.0
  O  O77  1  0.15818000  0.62878000  0.95286000  1.0
  O  O78  1  0.54625000  0.85294000  0.62370000  1.0
  O  O79  1  0.69272000  0.77094000  0.14701000  1.0
  O  O80  1  0.92313000  0.37589000  0.22899000  1.0
  O  O81  1  0.45378000  0.14706000  0.37630000  1.0
  O  O82  1  0.30729000  0.22908000  0.85299000  1.0
  O  O83  1  0.07685000  0.62411000  0.77099000  1.0
  O  O84  1  0.26470000  0.40483000  0.39075000  1.0
  O  O85  1  0.86060000  0.98704000  0.59591000  1.0
  O  O86  1  0.87323000  0.60896000  0.01345000  1.0
  O  O87  1  0.73531000  0.59517000  0.60925000  1.0
  O  O88  1  0.13940000  0.01295000  0.40409000  1.0
  O  O89  1  0.12678000  0.39104000  0.98655000  1.0
