# generated using pymatgen
data_DyH12C24(NO)6
_symmetry_space_group_name_H-M   'P 1'
_cell_length_a   14.88200000
_cell_length_b   21.91570000
_cell_length_c   29.02030000
_cell_angle_alpha   89.99860000
_cell_angle_beta   76.63700000
_cell_angle_gamma   89.98760000
_symmetry_Int_Tables_number   1
_chemical_formula_structural   DyH12C24(NO)6
_chemical_formula_sum   'Dy8 H96 C192 N48 O48'
_cell_volume   9208.69407698
_cell_formula_units_Z   8
loop_
 _symmetry_equiv_pos_site_id
 _symmetry_equiv_pos_as_xyz
  1  'x, y, z'
loop_
 _atom_site_type_symbol
 _atom_site_label
 _atom_site_symmetry_multiplicity
 _atom_site_fract_x
 _atom_site_fract_y
 _atom_site_fract_z
 _atom_site_occupancy
  Dy  Dy0  1  0.67573000  0.75228000  0.23442000  1.0
  Dy  Dy1  1  0.09227000  0.26214000  0.73348000  1.0
  Dy  Dy2  1  0.82455000  0.25234000  0.76535000  1.0
  Dy  Dy3  1  0.40786000  0.76211000  0.26664000  1.0
  Dy  Dy4  1  0.32432000  0.24770000  0.76562000  1.0
  Dy  Dy5  1  0.90794000  0.73788000  0.26659000  1.0
  Dy  Dy6  1  0.17571000  0.74768000  0.23447000  1.0
  Dy  Dy7  1  0.59199000  0.23796000  0.73342000  1.0
  H  H8  1  0.17379000  0.16677000  0.91355000  1.0
  H  H9  1  0.04333000  0.12964000  0.97761000  1.0
  H  H10  1  0.85431000  0.23779000  0.91823000  1.0
  H  H11  1  0.98458000  0.27297000  0.85384000  1.0
  H  H12  1  0.85328000  0.98930000  0.14858000  1.0
  H  H13  1  0.87912000  0.91037000  0.20547000  1.0
  H  H14  1  0.16546000  0.89637000  0.13291000  1.0
  H  H15  1  0.14049000  0.97550000  0.07462000  1.0
  H  H16  1  0.52151000  0.05575000  0.16157000  1.0
  H  H17  1  0.45233000  0.96866000  0.21481000  1.0
  H  H18  1  0.67167000  0.85100000  0.14191000  1.0
  H  H19  1  0.74164000  0.93677000  0.08972000  1.0
  H  H20  1  0.42695000  0.66666667  0.41006000  1.0
  H  H21  1  0.48947000  0.63434000  0.47868000  1.0
  H  H22  1  0.73049000  0.74693000  0.42645000  1.0
  H  H23  1  0.66763000  0.77818000  0.35754000  1.0
  H  H24  1  0.66558000  0.44184000  0.59526000  1.0
  H  H25  1  0.67695000  0.35355000  0.64741000  1.0
  H  H26  1  0.81818000  0.46527000  0.73063000  1.0
  H  H27  1  0.80820000  0.55487000  0.67770000  1.0
  H  H28  1  0.49549000  0.49111000  0.64909000  1.0
  H  H29  1  0.40994000  0.40933000  0.70074000  1.0
  H  H30  1  0.21513000  0.39562000  0.61233000  1.0
  H  H31  1  0.30099000  0.47768000  0.55937000  1.0
  H  H32  1  0.32619000  0.66684000  0.08652000  1.0
  H  H33  1  0.45661000  0.62972000  0.02242000  1.0
  H  H34  1  0.64568000  0.73781000  0.08179000  1.0
  H  H35  1  0.51542000  0.77299000  0.14620000  1.0
  H  H36  1  0.64666000  0.48932000  0.85145000  1.0
  H  H37  1  0.62080000  0.41038000  0.79457000  1.0
  H  H38  1  0.33449000  0.39642000  0.86716000  1.0
  H  H39  1  0.35946000  0.47556000  0.92546000  1.0
  H  H40  1  0.97841000  0.55575000  0.83844000  1.0
  H  H41  1  0.04762000  0.46863000  0.78522000  1.0
  H  H42  1  0.82831000  0.35102000  0.85811000  1.0
  H  H43  1  0.75834000  0.43681000  0.91031000  1.0
  H  H44  1  0.07419000  0.16710000  0.58966000  1.0
  H  H45  1  0.00987000  0.13295000  0.52216000  1.0
  H  H46  1  0.76923000  0.24579000  0.57429000  1.0
  H  H47  1  0.83337000  0.27837000  0.64247000  1.0
  H  H48  1  0.83359000  0.94150000  0.40499000  1.0
  H  H49  1  0.82262000  0.85330000  0.35273000  1.0
  H  H50  1  0.68311000  0.96536000  0.26890000  1.0
  H  H51  1  0.69294000  0.05493000  0.32186000  1.0
  H  H52  1  0.00524000  0.99164000  0.35020000  1.0
  H  H53  1  0.09025000  0.90916000  0.29918000  1.0
  H  H54  1  0.28412000  0.89553000  0.38811000  1.0
  H  H55  1  0.19894000  0.97852000  0.44033000  1.0
  H  H56  1  0.82620000  0.83317000  0.08649000  1.0
  H  H57  1  0.95661000  0.87032000  0.02242000  1.0
  H  H58  1  0.14573000  0.76221000  0.08176000  1.0
  H  H59  1  0.01550000  0.72701000  0.14617000  1.0
  H  H60  1  0.14667000  0.01073000  0.85144000  1.0
  H  H61  1  0.12083000  0.08967000  0.79455000  1.0
  H  H62  1  0.83446000  0.10363000  0.86708000  1.0
  H  H63  1  0.85944000  0.02450000  0.92538000  1.0
  H  H64  1  0.47845000  0.94423000  0.83843000  1.0
  H  H65  1  0.54763000  0.03134000  0.78521000  1.0
  H  H66  1  0.32830000  0.14899000  0.85814000  1.0
  H  H67  1  0.25835000  0.06320000  0.91031000  1.0
  H  H68  1  0.57299000  0.33333333  0.58996000  1.0
  H  H69  1  0.51049000  0.36567000  0.52133000  1.0
  H  H70  1  0.26947000  0.25307000  0.57355000  1.0
  H  H71  1  0.33229000  0.22184000  0.64247000  1.0
  H  H72  1  0.33441000  0.55818000  0.40472000  1.0
  H  H73  1  0.32305000  0.64647000  0.35257000  1.0
  H  H74  1  0.18180000  0.53475000  0.26935000  1.0
  H  H75  1  0.19179000  0.44515000  0.32228000  1.0
  H  H76  1  0.50460000  0.50892000  0.35090000  1.0
  H  H77  1  0.59017000  0.59072000  0.29928000  1.0
  H  H78  1  0.78491000  0.60438000  0.38773000  1.0
  H  H79  1  0.69904000  0.52227000  0.44065000  1.0
  H  H80  1  0.67395000  0.33320000  0.91343000  1.0
  H  H81  1  0.54354000  0.37029000  0.97753000  1.0
  H  H82  1  0.35446000  0.26218000  0.91820000  1.0
  H  H83  1  0.48469000  0.22699000  0.85379000  1.0
  H  H84  1  0.35328000  0.51070000  0.14858000  1.0
  H  H85  1  0.37909000  0.58964000  0.20546000  1.0
  H  H86  1  0.66543000  0.60362000  0.13290000  1.0
  H  H87  1  0.64049000  0.52447000  0.07461000  1.0
  H  H88  1  0.02157000  0.44427000  0.16153000  1.0
  H  H89  1  0.95243000  0.53137000  0.21479000  1.0
  H  H90  1  0.17176000  0.64897000  0.14188000  1.0
  H  H91  1  0.24168000  0.56319000  0.08967000  1.0
  H  H92  1  0.92674000  0.83311000  0.41013000  1.0
  H  H93  1  0.98924000  0.86551000  0.47873000  1.0
  H  H94  1  0.23054000  0.75313000  0.42645000  1.0
  H  H95  1  0.16765000  0.72174000  0.35759000  1.0
  H  H96  1  0.16536000  0.05832000  0.59539000  1.0
  H  H97  1  0.17700000  0.14657000  0.64751000  1.0
  H  H98  1  0.31827000  0.03470000  0.73065000  1.0
  H  H99  1  0.30802000  0.94513000  0.67774000  1.0
  H  H100  1  0.99524000  0.00919000  0.64881000  1.0
  H  H101  1  0.90969000  0.09104000  0.70040000  1.0
  H  H102  1  0.71403000  0.10397000  0.61240000  1.0
  H  H103  1  0.79974000  0.02176000  0.55957000  1.0
  C  C104  1  0.16659000  0.23833000  0.84056000  1.0
  C  C105  1  0.08754000  0.22163000  0.87956000  1.0
  C  C106  1  0.10334000  0.18172000  0.91511000  1.0
  C  C107  1  0.03158000  0.16095000  0.95055000  1.0
  C  C108  1  0.93851000  0.18061000  0.95222000  1.0
  C  C109  1  0.92492000  0.22321000  0.91680000  1.0
  C  C110  1  0.99743000  0.24266000  0.88121000  1.0
  C  C111  1  0.85376000  0.12031000  0.01773000  1.0
  C  C112  1  0.75655000  0.06131000  0.07208000  1.0
  C  C113  1  0.91283000  0.05163000  0.06271000  1.0
  C  C114  1  0.99507000  0.98703000  0.10622000  1.0
  C  C115  1  0.92111000  0.96907000  0.14516000  1.0
  C  C116  1  0.93582000  0.92523000  0.17677000  1.0
  C  C117  1  0.02342000  0.89824000  0.17233000  1.0
  C  C118  1  0.09807000  0.91733000  0.13577000  1.0
  C  C119  1  0.08446000  0.96070000  0.10369000  1.0
  C  C120  1  0.03682000  0.84807000  0.20469000  1.0
  C  C121  1  0.63747000  0.00308000  0.12312000  1.0
  C  C122  1  0.55321000  0.01066000  0.15841000  1.0
  C  C123  1  0.51566000  0.96303000  0.18749000  1.0
  C  C124  1  0.55889000  0.90529000  0.18189000  1.0
  C  C125  1  0.63983000  0.89604000  0.14616000  1.0
  C  C126  1  0.67901000  0.94363000  0.11719000  1.0
  C  C127  1  0.51542000  0.85508000  0.21327000  1.0
  C  C128  1  0.50354000  0.73763000  0.33846000  1.0
  C  C129  1  0.54328000  0.72376000  0.37946000  1.0
  C  C130  1  0.49335000  0.68369000  0.41423000  1.0
  C  C131  1  0.52770000  0.66547000  0.45213000  1.0
  C  C132  1  0.61590000  0.68778000  0.45731000  1.0
  C  C133  1  0.66352000  0.73057000  0.42252000  1.0
  C  C134  1  0.62848000  0.74769000  0.38440000  1.0
  C  C135  1  0.63252000  0.62860000  0.52487000  1.0
  C  C136  1  0.52889000  0.55798000  0.56449000  1.0
  C  C137  1  0.67226000  0.56653000  0.58006000  1.0
  C  C138  1  0.73404000  0.50542000  0.63381000  1.0
  C  C139  1  0.69807000  0.44694000  0.62497000  1.0
  C  C140  1  0.70477000  0.39789000  0.65390000  1.0
  C  C141  1  0.74693000  0.40458000  0.69244000  1.0
  C  C142  1  0.78447000  0.46143000  0.70118000  1.0
  C  C143  1  0.77938000  0.51050000  0.67219000  1.0
  C  C144  1  0.40532000  0.48943000  0.59946000  1.0
  C  C145  1  0.43473000  0.47022000  0.64103000  1.0
  C  C146  1  0.38713000  0.42485000  0.66959000  1.0
  C  C147  1  0.30846000  0.39735000  0.65917000  1.0
  C  C148  1  0.27639000  0.41704000  0.61961000  1.0
  C  C149  1  0.32343000  0.46197000  0.59053000  1.0
  C  C150  1  0.26005000  0.34674000  0.68909000  1.0
  C  C151  1  0.75659000  0.35192000  0.72280000  1.0
  C  C152  1  0.33344000  0.73835000  0.15954000  1.0
  C  C153  1  0.41246000  0.72166000  0.12050000  1.0
  C  C154  1  0.39664000  0.68178000  0.08496000  1.0
  C  C155  1  0.46837000  0.66101000  0.04950000  1.0
  C  C156  1  0.56144000  0.68066000  0.04781000  1.0
  C  C157  1  0.57505000  0.72325000  0.08322000  1.0
  C  C158  1  0.50257000  0.74268000  0.11883000  1.0
  C  C159  1  0.64618000  0.62035000  0.98228000  1.0
  C  C160  1  0.74338000  0.56135000  0.92793000  1.0
  C  C161  1  0.58712000  0.55166000  0.93732000  1.0
  C  C162  1  0.50488000  0.48707000  0.89383000  1.0
  C  C163  1  0.57883000  0.46910000  0.85488000  1.0
  C  C164  1  0.56411000  0.42526000  0.82327000  1.0
  C  C165  1  0.47652000  0.39828000  0.82773000  1.0
  C  C166  1  0.40189000  0.41738000  0.86430000  1.0
  C  C167  1  0.41550000  0.46075000  0.89637000  1.0
  C  C168  1  0.46313000  0.34810000  0.79539000  1.0
  C  C169  1  0.86247000  0.50309000  0.87690000  1.0
  C  C170  1  0.94673000  0.51066000  0.84160000  1.0
  C  C171  1  0.98430000  0.46302000  0.81254000  1.0
  C  C172  1  0.94108000  0.40530000  0.81815000  1.0
  C  C173  1  0.86012000  0.39606000  0.85387000  1.0
  C  C174  1  0.82094000  0.44365000  0.88284000  1.0
  C  C175  1  0.98464000  0.35507000  0.78682000  1.0
  C  C176  1  0.99752000  0.23799000  0.66138000  1.0
  C  C177  1  0.95794000  0.22429000  0.62032000  1.0
  C  C178  1  0.00764000  0.18404000  0.58563000  1.0
  C  C179  1  0.97232000  0.16496000  0.54822000  1.0
  C  C180  1  0.88391000  0.18685000  0.54339000  1.0
  C  C181  1  0.83655000  0.22978000  0.57795000  1.0
  C  C182  1  0.87243000  0.24776000  0.61567000  1.0
  C  C183  1  0.86644000  0.12794000  0.47587000  1.0
  C  C184  1  0.97181000  0.05890000  0.43483000  1.0
  C  C185  1  0.82729000  0.06620000  0.42011000  1.0
  C  C186  1  0.76611000  0.00526000  0.36608000  1.0
  C  C187  1  0.80164000  0.94675000  0.37508000  1.0
  C  C188  1  0.79514000  0.89770000  0.34610000  1.0
  C  C189  1  0.75348000  0.90448000  0.30739000  1.0
  C  C190  1  0.71644000  0.96142000  0.29849000  1.0
  C  C191  1  0.72146000  0.01049000  0.32749000  1.0
  C  C192  1  0.09508000  0.99015000  0.39997000  1.0
  C  C193  1  0.06562000  0.97058000  0.35856000  1.0
  C  C194  1  0.11299000  0.92483000  0.33030000  1.0
  C  C195  1  0.19136000  0.89723000  0.34098000  1.0
  C  C196  1  0.22319000  0.91710000  0.38054000  1.0
  C  C197  1  0.17648000  0.96254000  0.40924000  1.0
  C  C198  1  0.23989000  0.84656000  0.31115000  1.0
  C  C199  1  0.74368000  0.85183000  0.27706000  1.0
  C  C200  1  0.83349000  0.76160000  0.15949000  1.0
  C  C201  1  0.91250000  0.77834000  0.12047000  1.0
  C  C202  1  0.89666000  0.81823000  0.08493000  1.0
  C  C203  1  0.96838000  0.83902000  0.04948000  1.0
  C  C204  1  0.06147000  0.81938000  0.04779000  1.0
  C  C205  1  0.07510000  0.77677000  0.08320000  1.0
  C  C206  1  0.00263000  0.75732000  0.11880000  1.0
  C  C207  1  0.14617000  0.87969000  0.98228000  1.0
  C  C208  1  0.24338000  0.93867000  0.92792000  1.0
  C  C209  1  0.08711000  0.94838000  0.93730000  1.0
  C  C210  1  0.00486000  0.01298000  0.89378000  1.0
  C  C211  1  0.07883000  0.03095000  0.85486000  1.0
  C  C212  1  0.06411000  0.07480000  0.82324000  1.0
  C  C213  1  0.97651000  0.10178000  0.82768000  1.0
  C  C214  1  0.90187000  0.08268000  0.86423000  1.0
  C  C215  1  0.91548000  0.03931000  0.89631000  1.0
  C  C216  1  0.96316000  0.15194000  0.79530000  1.0
  C  C217  1  0.36249000  0.99691000  0.87690000  1.0
  C  C218  1  0.44675000  0.98933000  0.84160000  1.0
  C  C219  1  0.48431000  0.03696000  0.81253000  1.0
  C  C220  1  0.44108000  0.09470000  0.81815000  1.0
  C  C221  1  0.36014000  0.10394000  0.85388000  1.0
  C  C222  1  0.32096000  0.05635000  0.88285000  1.0
  C  C223  1  0.48455000  0.14492000  0.78679000  1.0
  C  C224  1  0.49639000  0.26241000  0.66156000  1.0
  C  C225  1  0.45665000  0.27625000  0.62056000  1.0
  C  C226  1  0.50659000  0.31633000  0.58579000  1.0
  C  C227  1  0.47225000  0.33454000  0.54788000  1.0
  C  C228  1  0.38406000  0.31223000  0.54269000  1.0
  C  C229  1  0.33643000  0.26944000  0.57748000  1.0
  C  C230  1  0.37146000  0.25232000  0.61560000  1.0
  C  C231  1  0.36748000  0.37140000  0.47511000  1.0
  C  C232  1  0.47114000  0.44201000  0.43549000  1.0
  C  C233  1  0.32777000  0.43349000  0.41992000  1.0
  C  C234  1  0.26596000  0.49460000  0.36617000  1.0
  C  C235  1  0.30192000  0.55309000  0.37501000  1.0
  C  C236  1  0.29522000  0.60213000  0.34608000  1.0
  C  C237  1  0.25306000  0.59544000  0.30754000  1.0
  C  C238  1  0.21551000  0.53859000  0.29881000  1.0
  C  C239  1  0.22061000  0.48952000  0.32779000  1.0
  C  C240  1  0.59473000  0.51056000  0.40054000  1.0
  C  C241  1  0.56535000  0.52980000  0.35897000  1.0
  C  C242  1  0.61295000  0.57517000  0.33043000  1.0
  C  C243  1  0.69162000  0.60268000  0.34087000  1.0
  C  C244  1  0.72366000  0.58296000  0.38044000  1.0
  C  C245  1  0.67661000  0.53800000  0.40949000  1.0
  C  C246  1  0.74000000  0.65331000  0.31096000  1.0
  C  C247  1  0.24349000  0.64809000  0.27715000  1.0
  C  C248  1  0.66666667  0.26169000  0.84036000  1.0
  C  C249  1  0.58769000  0.27835000  0.87944000  1.0
  C  C250  1  0.60349000  0.31824000  0.91500000  1.0
  C  C251  1  0.53175000  0.33900000  0.95046000  1.0
  C  C252  1  0.43868000  0.31936000  0.95216000  1.0
  C  C253  1  0.42508000  0.27675000  0.91676000  1.0
  C  C254  1  0.49756000  0.25732000  0.88115000  1.0
  C  C255  1  0.35391000  0.37967000  0.01768000  1.0
  C  C256  1  0.25664000  0.43865000  0.07205000  1.0
  C  C257  1  0.41291000  0.44835000  0.06268000  1.0
  C  C258  1  0.49508000  0.51295000  0.10622000  1.0
  C  C259  1  0.42111000  0.53092000  0.14516000  1.0
  C  C260  1  0.43580000  0.57477000  0.17677000  1.0
  C  C261  1  0.52338000  0.60176000  0.17232000  1.0
  C  C262  1  0.59803000  0.58266000  0.13576000  1.0
  C  C263  1  0.58445000  0.53928000  0.10368000  1.0
  C  C264  1  0.53676000  0.65195000  0.20466000  1.0
  C  C265  1  0.13753000  0.49691000  0.12308000  1.0
  C  C266  1  0.05328000  0.48935000  0.15837000  1.0
  C  C267  1  0.01575000  0.53697000  0.18746000  1.0
  C  C268  1  0.05900000  0.59470000  0.18187000  1.0
  C  C269  1  0.13992000  0.60393000  0.14613000  1.0
  C  C270  1  0.17908000  0.55634000  0.11714000  1.0
  C  C271  1  0.01554000  0.64492000  0.21325000  1.0
  C  C272  1  0.00350000  0.76225000  0.33849000  1.0
  C  C273  1  0.04322000  0.77611000  0.37950000  1.0
  C  C274  1  0.99319000  0.81615000  0.41428000  1.0
  C  C275  1  0.02753000  0.83441000  0.45218000  1.0
  C  C276  1  0.11585000  0.81225000  0.45731000  1.0
  C  C277  1  0.16352000  0.76944000  0.42254000  1.0
  C  C278  1  0.12845000  0.75224000  0.38444000  1.0
  C  C279  1  0.13248000  0.87160000  0.52479000  1.0
  C  C280  1  0.02881000  0.94233000  0.56429000  1.0
  C  C281  1  0.17197000  0.93360000  0.58009000  1.0
  C  C282  1  0.23379000  0.99464000  0.63390000  1.0
  C  C283  1  0.19793000  0.05318000  0.62507000  1.0
  C  C284  1  0.20477000  0.10221000  0.65400000  1.0
  C  C285  1  0.24700000  0.09547000  0.69251000  1.0
  C  C286  1  0.28448000  0.03858000  0.70122000  1.0
  C  C287  1  0.27923000  0.98952000  0.67225000  1.0
  C  C288  1  0.90472000  0.01056000  0.59936000  1.0
  C  C289  1  0.93428000  0.02992000  0.64085000  1.0
  C  C290  1  0.88671000  0.07535000  0.66936000  1.0
  C  C291  1  0.80785000  0.10269000  0.65899000  1.0
  C  C292  1  0.77542000  0.08266000  0.61963000  1.0
  C  C293  1  0.82242000  0.03766000  0.59061000  1.0
  C  C294  1  0.75971000  0.15346000  0.68883000  1.0
  C  C295  1  0.25667000  0.14811000  0.72290000  1.0
  N  N296  1  0.85968000  0.16274000  0.98198000  1.0
  N  N297  1  0.99211000  0.02632000  0.07088000  1.0
  N  N298  1  0.66812000  0.05346000  0.09798000  1.0
  N  N299  1  0.76567000  0.10512000  0.03854000  1.0
  N  N300  1  0.82765000  0.03023000  0.08300000  1.0
  N  N301  1  0.92861000  0.09811000  0.03109000  1.0
  N  N302  1  0.66271000  0.67178000  0.48996000  1.0
  N  N303  1  0.69787000  0.61167000  0.54789000  1.0
  N  N304  1  0.73185000  0.55692000  0.60881000  1.0
  N  N305  1  0.59162000  0.53518000  0.58691000  1.0
  N  N306  1  0.54515000  0.60701000  0.53531000  1.0
  N  N307  1  0.44438000  0.53151000  0.56717000  1.0
  N  N308  1  0.64028000  0.66278000  0.01803000  1.0
  N  N309  1  0.50785000  0.52635000  0.92917000  1.0
  N  N310  1  0.83183000  0.55349000  0.90203000  1.0
  N  N311  1  0.73427000  0.60517000  0.96146000  1.0
  N  N312  1  0.67230000  0.53027000  0.91701000  1.0
  N  N313  1  0.57133000  0.59813000  0.96895000  1.0
  N  N314  1  0.83600000  0.16982000  0.51126000  1.0
  N  N315  1  0.80051000  0.10989000  0.45340000  1.0
  N  N316  1  0.76807000  0.05666000  0.39131000  1.0
  N  N317  1  0.90905000  0.03598000  0.41236000  1.0
  N  N318  1  0.95493000  0.10790000  0.46416000  1.0
  N  N319  1  0.05641000  0.03300000  0.43187000  1.0
  N  N320  1  0.14029000  0.83726000  0.01802000  1.0
  N  N321  1  0.00783000  0.97369000  0.92913000  1.0
  N  N322  1  0.33183000  0.94651000  0.90202000  1.0
  N  N323  1  0.23427000  0.89486000  0.96146000  1.0
  N  N324  1  0.17229000  0.96975000  0.91699000  1.0
  N  N325  1  0.07133000  0.90192000  0.96893000  1.0
  N  N326  1  0.33728000  0.32823000  0.51002000  1.0
  N  N327  1  0.30214000  0.38835000  0.45209000  1.0
  N  N328  1  0.26818000  0.44310000  0.39117000  1.0
  N  N329  1  0.40842000  0.46483000  0.41308000  1.0
  N  N330  1  0.45487000  0.39296000  0.46466000  1.0
  N  N331  1  0.55567000  0.46845000  0.43281000  1.0
  N  N332  1  0.35986000  0.33725000  0.98194000  1.0
  N  N333  1  0.49216000  0.47367000  0.07086000  1.0
  N  N334  1  0.16818000  0.44651000  0.09794000  1.0
  N  N335  1  0.26580000  0.39486000  0.03850000  1.0
  N  N336  1  0.32772000  0.46972000  0.08300000  1.0
  N  N337  1  0.42873000  0.40190000  0.03103000  1.0
  N  N338  1  0.16274000  0.82840000  0.48990000  1.0
  N  N339  1  0.19763000  0.88839000  0.54797000  1.0
  N  N340  1  0.23144000  0.94315000  0.60892000  1.0
  N  N341  1  0.09141000  0.96507000  0.58681000  1.0
  N  N342  1  0.04520000  0.89337000  0.53505000  1.0
  N  N343  1  0.94420000  0.96871000  0.56694000  1.0
  O  O344  1  0.15423000  0.26125000  0.80112000  1.0
  O  O345  1  0.24849000  0.22879000  0.84483000  1.0
  O  O346  1  0.11738000  0.82568000  0.19935000  1.0
  O  O347  1  0.96678000  0.82891000  0.23573000  1.0
  O  O348  1  0.55247000  0.80094000  0.21002000  1.0
  O  O349  1  0.43893000  0.86379000  0.24255000  1.0
  O  O350  1  0.55110000  0.76452000  0.30057000  1.0
  O  O351  1  0.42052000  0.72281000  0.33995000  1.0
  O  O352  1  0.29402000  0.32755000  0.72321000  1.0
  O  O353  1  0.18804000  0.32424000  0.67939000  1.0
  O  O354  1  0.72719000  0.29828000  0.71395000  1.0
  O  O355  1  0.79791000  0.35800000  0.75627000  1.0
  O  O356  1  0.34583000  0.76128000  0.19898000  1.0
  O  O357  1  0.25154000  0.72880000  0.15529000  1.0
  O  O358  1  0.38261000  0.32566000  0.80079000  1.0
  O  O359  1  0.53315000  0.32898000  0.76431000  1.0
  O  O360  1  0.94757000  0.30094000  0.78998000  1.0
  O  O361  1  0.06126000  0.36377000  0.75765000  1.0
  O  O362  1  0.94974000  0.26469000  0.69933000  1.0
  O  O363  1  0.08048000  0.22314000  0.65998000  1.0
  O  O364  1  0.20606000  0.82735000  0.27699000  1.0
  O  O365  1  0.31192000  0.82410000  0.32087000  1.0
  O  O366  1  0.77280000  0.79812000  0.28598000  1.0
  O  O367  1  0.70251000  0.85794000  0.24354000  1.0
  O  O368  1  0.84591000  0.73869000  0.19893000  1.0
  O  O369  1  0.75158000  0.77112000  0.15523000  1.0
  O  O370  1  0.88260000  0.17433000  0.80060000  1.0
  O  O371  1  0.03322000  0.17110000  0.76428000  1.0
  O  O372  1  0.44749000  0.19907000  0.79003000  1.0
  O  O373  1  0.56104000  0.13623000  0.75752000  1.0
  O  O374  1  0.44886000  0.23549000  0.69945000  1.0
  O  O375  1  0.57938000  0.27729000  0.66009000  1.0
  O  O376  1  0.70603000  0.67243000  0.27682000  1.0
  O  O377  1  0.81197000  0.67586000  0.32067000  1.0
  O  O378  1  0.27283000  0.70173000  0.28603000  1.0
  O  O379  1  0.20232000  0.64199000  0.24363000  1.0
  O  O380  1  0.65420000  0.23870000  0.80096000  1.0
  O  O381  1  0.74860000  0.27133000  0.84453000  1.0
  O  O382  1  0.61730000  0.67435000  0.19929000  1.0
  O  O383  1  0.46672000  0.67110000  0.23571000  1.0
  O  O384  1  0.05255000  0.69907000  0.20999000  1.0
  O  O385  1  0.93908000  0.63620000  0.24256000  1.0
  O  O386  1  0.05110000  0.73537000  0.30060000  1.0
  O  O387  1  0.92048000  0.77707000  0.33997000  1.0
  O  O388  1  0.79402000  0.17272000  0.72281000  1.0
  O  O389  1  0.68760000  0.17598000  0.67925000  1.0
  O  O390  1  0.22737000  0.20178000  0.71404000  1.0
  O  O391  1  0.29785000  0.14196000  0.75642000  1.0
