# generated using pymatgen
data_Zn2H16C30Br4N2O9
_symmetry_space_group_name_H-M   'P 1'
_cell_length_a   9.86503000
_cell_length_b   11.00330000
_cell_length_c   16.06820000
_cell_angle_alpha   91.82370000
_cell_angle_beta   90.94000000
_cell_angle_gamma   95.72580000
_symmetry_Int_Tables_number   1
_chemical_formula_structural   Zn2H16C30Br4N2O9
_chemical_formula_sum   'Zn2 H16 C30 Br4 N2 O9'
_cell_volume   1734.25174180
_cell_formula_units_Z   1
loop_
 _symmetry_equiv_pos_site_id
 _symmetry_equiv_pos_as_xyz
  1  'x, y, z'
loop_
 _atom_site_type_symbol
 _atom_site_label
 _atom_site_symmetry_multiplicity
 _atom_site_fract_x
 _atom_site_fract_y
 _atom_site_fract_z
 _atom_site_occupancy
  Zn  Zn0  1  0.63768000  0.52083000  0.50741000  1.0
  Zn  Zn1  1  0.34919000  0.49234000  0.50886000  1.0
  H  H2  1  0.71826000  0.46954000  0.08462000  1.0
  H  H3  1  0.80225000  0.91749000  0.45922000  1.0
  H  H4  1  0.84634000  0.42801000  0.62135000  1.0
  H  H5  1  0.87437000  0.57604000  0.31736000  1.0
  H  H6  1  0.89998000  0.71933000  0.37318000  1.0
  H  H7  1  0.15610000  0.70037000  0.37917000  1.0
  H  H8  1  0.71664000  0.49510000  0.93099000  1.0
  H  H9  1  0.28103000  0.47423000  0.08412000  1.0
  H  H10  1  0.28042000  0.87131000  0.55069000  1.0
  H  H11  1  0.28161000  0.09756000  0.56314000  1.0
  H  H12  1  0.80470000  0.14638000  0.47687000  1.0
  H  H13  1  0.91013000  0.13148000  0.31757000  1.0
  H  H14  1  0.90918000  0.26926000  0.37947000  1.0
  H  H15  1  0.77369000  0.35833000  0.26556000  1.0
  H  H16  1  0.93320000  0.31670000  0.22894000  1.0
  H  H17  1  0.77954000  0.22169000  0.20373000  1.0
  C  C18  1  0.47735000  0.73843000  0.49211000  1.0
  C  C19  1  0.62297000  0.47609000  0.05064000  1.0
  C  C20  1  0.50247000  0.51543000  0.83345000  1.0
  C  C21  1  0.50069000  0.46324000  0.18229000  1.0
  C  C22  1  0.50359000  0.46190000  0.25807000  1.0
  C  C23  1  0.50961000  0.52830000  0.75855000  1.0
  C  C24  1  0.58428000  0.95351000  0.46652000  1.0
  C  C25  1  0.47702000  0.87403000  0.49468000  1.0
  C  C26  1  0.36716000  0.93000000  0.52860000  1.0
  C  C27  1  0.36793000  0.05710000  0.53596000  1.0
  C  C28  1  0.47848000  0.13632000  0.50941000  1.0
  C  C29  1  0.51126000  0.47301000  0.34785000  1.0
  C  C30  1  0.58468000  0.08008000  0.47335000  1.0
  C  C31  1  0.72271000  0.10542000  0.43372000  1.0
  C  C32  1  0.72114000  0.95880000  0.42626000  1.0
  C  C33  1  0.06779000  0.54220000  0.44802000  1.0
  C  C34  1  0.04949000  0.44544000  0.56895000  1.0
  C  C35  1  0.90955000  0.46123000  0.57028000  1.0
  C  C36  1  0.92953000  0.55745000  0.44864000  1.0
  C  C37  1  0.93071000  0.62611000  0.36923000  1.0
  C  C38  1  0.08953000  0.61509000  0.36975000  1.0
  C  C39  1  0.47971000  0.27174000  0.51808000  1.0
  C  C40  1  0.51387000  0.53459000  0.66907000  1.0
  C  C41  1  0.62200000  0.49024000  0.96535000  1.0
  C  C42  1  0.49933000  0.49979000  0.92025000  1.0
  C  C43  1  0.37661000  0.49262000  0.96509000  1.0
  C  C44  1  0.37626000  0.47847000  0.05059000  1.0
  C  C45  1  0.49990000  0.47112000  0.09462000  1.0
  C  C46  1  0.85244000  0.21082000  0.33043000  1.0
  C  C47  1  0.83351000  0.28115000  0.25234000  1.0
  Br  Br48  1  0.12011000  0.36501000  0.65885000  1.0
  Br  Br49  1  0.15358000  0.53310000  0.27089000  1.0
  Br  Br50  1  0.20839000  0.50274000  0.90799000  1.0
  Br  Br51  1  0.72062000  0.89001000  0.31174000  1.0
  N  N52  1  0.13284000  0.48714000  0.50764000  1.0
  N  N53  1  0.84804000  0.51918000  0.50977000  1.0
  O  O54  1  0.59327000  0.69786000  0.49943000  1.0
  O  O55  1  0.36215000  0.67492000  0.48457000  1.0
  O  O56  1  0.62966000  0.50341000  0.37952000  1.0
  O  O57  1  0.40057000  0.45371000  0.38695000  1.0
  O  O58  1  0.59485000  0.33382000  0.51204000  1.0
  O  O59  1  0.36574000  0.31412000  0.53055000  1.0
  O  O60  1  0.62981000  0.52915000  0.63584000  1.0
  O  O61  1  0.40103000  0.54342000  0.63124000  1.0
  O  O62  1  0.71982000  0.17034000  0.36055000  1.0
