# generated using pymatgen
data_Al2H7C12O12F
_symmetry_space_group_name_H-M   'P 1'
_cell_length_a   6.70631000
_cell_length_b   8.83414000
_cell_length_c   11.12042579
_cell_angle_alpha   72.24752219
_cell_angle_beta   73.00554012
_cell_angle_gamma   75.28720000
_symmetry_Int_Tables_number   1
_chemical_formula_structural   Al2H7C12O12F
_chemical_formula_sum   'Al2 H7 C12 O12 F1'
_cell_volume   590.14209933
_cell_formula_units_Z   1
loop_
 _symmetry_equiv_pos_site_id
 _symmetry_equiv_pos_as_xyz
  1  'x, y, z'
loop_
 _atom_site_type_symbol
 _atom_site_label
 _atom_site_symmetry_multiplicity
 _atom_site_fract_x
 _atom_site_fract_y
 _atom_site_fract_z
 _atom_site_occupancy
  Al  Al0  1  0.50044000  0.50005000  0.49989000  1.0
  Al  Al1  1  0.99935000  0.49885000  0.50272000  1.0
  H  H2  1  0.79000000  0.61901000  0.34353000  1.0
  H  H3  1  0.23354000  0.34527000  0.64831000  1.0
  H  H4  1  0.88082000  0.46956000  0.89575000  1.0
  H  H5  1  0.23555000  0.53107000  0.87046000  1.0
  H  H6  1  0.75136000  0.47597000  0.12974000  1.0
  H  H7  1  0.20622000  0.13134000  0.50816000  1.0
  H  H8  1  0.79090000  0.86685000  0.49481000  1.0
  C  C9  1  0.16092000  0.78639000  0.49147000  1.0
  C  C10  1  0.35601000  0.51203000  0.27164000  1.0
  C  C11  1  0.83740000  0.21099000  0.51308000  1.0
  C  C12  1  0.63992000  0.49042000  0.73013000  1.0
  C  C13  1  0.42315000  0.50932000  0.13190000  1.0
  C  C14  1  0.56697000  0.49694000  0.86922000  1.0
  C  C15  1  0.28142000  0.52553000  0.05555000  1.0
  C  C16  1  0.71237000  0.48360000  0.94199000  1.0
  C  C17  1  0.34978000  0.51826000  0.92678000  1.0
  C  C18  1  0.64045000  0.48844000  0.07142000  1.0
  C  C19  1  0.10191000  0.95621000  0.49998000  1.0
  C  C20  1  0.89620000  0.04115000  0.50454000  1.0
  O  O21  1  0.35249000  0.71789000  0.48597000  1.0
  O  O22  1  0.16138000  0.51262000  0.32806000  1.0
  O  O23  1  0.98628000  0.27702000  0.51765000  1.0
  O  O24  1  0.49949000  0.48906000  0.67470000  1.0
  O  O25  1  0.64644000  0.28040000  0.51632000  1.0
  O  O26  1  0.83677000  0.48615000  0.67758000  1.0
  O  O27  1  0.01141000  0.71944000  0.48944000  1.0
  O  O28  1  0.50043000  0.51315000  0.32444000  1.0
  O  O29  1  0.75696000  0.57572000  0.43699000  1.0
  O  O30  1  0.24514000  0.42206000  0.56426000  1.0
  O  O31  1  0.26495000  0.01737000  0.50308000  1.0
  O  O32  1  0.73309000  0.98050000  0.50094000  1.0
  F  F33  1  0.06812000  0.55166000  0.10506000  1.0
