# generated using pymatgen
data_CuH46C66S2(N2O3)2
_symmetry_space_group_name_H-M   'P 1'
_cell_length_a   9.01522000
_cell_length_b   18.32560000
_cell_length_c   18.32560000
_cell_angle_alpha   97.70900000
_cell_angle_beta   95.41420000
_cell_angle_gamma   95.41400000
_symmetry_Int_Tables_number   1
_chemical_formula_structural   CuH46C66S2(N2O3)2
_chemical_formula_sum   'Cu2 H92 C132 S4 N8 O12'
_cell_volume   2969.18962955
_cell_formula_units_Z   2
loop_
 _symmetry_equiv_pos_site_id
 _symmetry_equiv_pos_as_xyz
  1  'x, y, z'
loop_
 _atom_site_type_symbol
 _atom_site_label
 _atom_site_symmetry_multiplicity
 _atom_site_fract_x
 _atom_site_fract_y
 _atom_site_fract_z
 _atom_site_occupancy
  Cu  Cu0  1  0.75000000  0.26625000  0.73375000  1.0
  Cu  Cu1  1  0.25000000  0.73375000  0.26625000  1.0
  H  H2  1  0.77197000  0.43322000  0.88252000  1.0
  H  H3  1  0.72803000  0.11748000  0.56677000  1.0
  H  H4  1  0.22802000  0.56678000  0.11748000  1.0
  H  H5  1  0.27197000  0.88252000  0.43323000  1.0
  H  H6  1  0.88782000  0.54350000  0.97215000  1.0
  H  H7  1  0.61218000  0.02785000  0.45650000  1.0
  H  H8  1  0.11218000  0.45650000  0.02785000  1.0
  H  H9  1  0.38781000  0.97215000  0.54350000  1.0
  H  H10  1  0.73830000  0.60443000  0.06390000  1.0
  H  H11  1  0.76170000  0.93610000  0.39557000  1.0
  H  H12  1  0.26170000  0.39557000  0.93610000  1.0
  H  H13  1  0.23830000  0.06390000  0.60443000  1.0
  H  H14  1  0.42527000  0.22364000  0.75337000  1.0
  H  H15  1  0.07472000  0.24663000  0.77636000  1.0
  H  H16  1  0.57472000  0.77636000  0.24663000  1.0
  H  H17  1  0.92527000  0.75337000  0.22364000  1.0
  H  H18  1  0.26409000  0.10786000  0.76235000  1.0
  H  H19  1  0.23591000  0.23765000  0.89214000  1.0
  H  H20  1  0.73591000  0.89214000  0.23765000  1.0
  H  H21  1  0.76409000  0.76236000  0.10786000  1.0
  H  H22  1  0.37769000  0.98892000  0.75664000  1.0
  H  H23  1  0.12232000  0.24336000  0.01108000  1.0
  H  H24  1  0.62231000  0.01108000  0.24336000  1.0
  H  H25  1  0.87769000  0.75665000  0.98892000  1.0
  H  H26  1  0.80221000  0.11097000  0.73643000  1.0
  H  H27  1  0.69779000  0.26356000  0.88903000  1.0
  H  H28  1  0.19779000  0.88903000  0.26356000  1.0
  H  H29  1  0.30221000  0.73644000  0.11097000  1.0
  H  H30  1  0.79272000  0.98017000  0.72466000  1.0
  H  H31  1  0.70728000  0.27534000  0.01982000  1.0
  H  H32  1  0.20728000  0.01982000  0.27534000  1.0
  H  H33  1  0.29272000  0.72466000  0.98018000  1.0
  H  H34  1  0.50229000  0.90048000  0.76498000  1.0
  H  H35  1  0.99771000  0.23502000  0.09952000  1.0
  H  H36  1  0.49771000  0.09952000  0.23502000  1.0
  H  H37  1  0.00228000  0.76497000  0.90048000  1.0
  H  H38  1  0.55907000  0.86960000  0.86743000  1.0
  H  H39  1  0.94093000  0.13257000  0.13040000  1.0
  H  H40  1  0.44094000  0.13040000  0.13257000  1.0
  H  H41  1  0.05907000  0.86743000  0.86960000  1.0
  H  H42  1  0.52634000  0.79128000  0.96502000  1.0
  H  H43  1  0.97366000  0.03497000  0.20872000  1.0
  H  H44  1  0.47367000  0.20872000  0.03498000  1.0
  H  H45  1  0.02634000  0.96502000  0.79128000  1.0
  H  H46  1  0.62669000  0.66890000  0.95622000  1.0
  H  H47  1  0.87331000  0.04377000  0.33110000  1.0
  H  H48  1  0.37332000  0.33110000  0.04378000  1.0
  H  H49  1  0.12669000  0.95622000  0.66891000  1.0
  H  H50  1  0.76530000  0.62675000  0.85239000  1.0
  H  H51  1  0.73470000  0.14761000  0.37325000  1.0
  H  H52  1  0.23471000  0.37325000  0.14761000  1.0
  H  H53  1  0.26530000  0.85239000  0.62675000  1.0
  H  H54  1  0.94909000  0.66747000  0.60825000  1.0
  H  H55  1  0.55092000  0.39175000  0.33253000  1.0
  H  H56  1  0.05091000  0.33253000  0.39175000  1.0
  H  H57  1  0.44909000  0.60825000  0.66747000  1.0
  H  H58  1  0.95855000  0.74105000  0.50570000  1.0
  H  H59  1  0.54145000  0.49430000  0.25895000  1.0
  H  H60  1  0.04145000  0.25895000  0.49430000  1.0
  H  H61  1  0.45855000  0.50570000  0.74105000  1.0
  H  H62  1  0.83095000  0.85529000  0.50850000  1.0
  H  H63  1  0.66905000  0.49150000  0.14471000  1.0
  H  H64  1  0.16905000  0.14471000  0.49150000  1.0
  H  H65  1  0.33095000  0.50850000  0.85529000  1.0
  H  H66  1  0.70771000  0.90078000  0.61735000  1.0
  H  H67  1  0.79231000  0.38265000  0.09923000  1.0
  H  H68  1  0.29230000  0.09923000  0.38265000  1.0
  H  H69  1  0.20770000  0.61735000  0.90078000  1.0
  H  H70  1  0.99562000  0.63411000  0.70730000  1.0
  H  H71  1  0.50438000  0.29270000  0.36588000  1.0
  H  H72  1  0.00438000  0.36588000  0.29270000  1.0
  H  H73  1  0.49562000  0.70729000  0.63411000  1.0
  H  H74  1  0.71084000  0.55272000  0.75051000  1.0
  H  H75  1  0.78916000  0.24949000  0.44728000  1.0
  H  H76  1  0.28916000  0.44728000  0.24950000  1.0
  H  H77  1  0.21084000  0.75050000  0.55272000  1.0
  H  H78  1  0.11446000  0.54266000  0.69698000  1.0
  H  H79  1  0.38554000  0.30303000  0.45734000  1.0
  H  H80  1  0.88554000  0.45734000  0.30303000  1.0
  H  H81  1  0.61446000  0.69698000  0.54266000  1.0
  H  H82  1  0.21915000  0.42209000  0.67625000  1.0
  H  H83  1  0.28085000  0.32375000  0.57791000  1.0
  H  H84  1  0.78084000  0.57791000  0.32375000  1.0
  H  H85  1  0.71915000  0.67625000  0.42209000  1.0
  H  H86  1  0.05964000  0.30551000  0.68726000  1.0
  H  H87  1  0.44036000  0.31274000  0.69449000  1.0
  H  H88  1  0.94036000  0.69449000  0.31274000  1.0
  H  H89  1  0.55964000  0.68726000  0.30551000  1.0
  H  H90  1  0.70935000  0.42276000  0.74826000  1.0
  H  H91  1  0.79065000  0.25174000  0.57724000  1.0
  H  H92  1  0.29064000  0.57724000  0.25174000  1.0
  H  H93  1  0.20935000  0.74826000  0.42276000  1.0
  C  C94  1  0.55694000  0.43458000  0.92222000  1.0
  C  C95  1  0.94306000  0.07778000  0.56542000  1.0
  C  C96  1  0.44305000  0.56542000  0.07778000  1.0
  C  C97  1  0.05694000  0.92222000  0.43458000  1.0
  C  C98  1  0.70548000  0.46108000  0.92206000  1.0
  C  C99  1  0.79451000  0.07794000  0.53892000  1.0
  C  C100  1  0.29451000  0.53892000  0.07793000  1.0
  C  C101  1  0.20549000  0.92206000  0.46108000  1.0
  C  C102  1  0.77047000  0.52295000  0.97309000  1.0
  C  C103  1  0.72953000  0.02691000  0.47705000  1.0
  C  C104  1  0.22953000  0.47705000  0.02691000  1.0
  C  C105  1  0.27047000  0.97309000  0.52295000  1.0
  C  C106  1  0.68693000  0.55751000  0.02388000  1.0
  C  C107  1  0.81307000  0.97612000  0.44249000  1.0
  C  C108  1  0.31307000  0.44250000  0.97612000  1.0
  C  C109  1  0.18693000  0.02388000  0.55751000  1.0
  C  C110  1  0.53380000  0.53155000  0.02587000  1.0
  C  C111  1  0.96619000  0.97413000  0.46845000  1.0
  C  C112  1  0.46619000  0.46845000  0.97412000  1.0
  C  C113  1  0.03381000  0.02588000  0.53155000  1.0
  C  C114  1  0.47250000  0.17121000  0.75204000  1.0
  C  C115  1  0.02749000  0.24796000  0.82879000  1.0
  C  C116  1  0.52749000  0.82879000  0.24796000  1.0
  C  C117  1  0.97250000  0.75204000  0.17121000  1.0
  C  C118  1  0.38347000  0.10631000  0.75797000  1.0
  C  C119  1  0.11653000  0.24203000  0.89369000  1.0
  C  C120  1  0.61653000  0.89369000  0.24203000  1.0
  C  C121  1  0.88346000  0.75797000  0.10631000  1.0
  C  C122  1  0.44746000  0.04021000  0.75422000  1.0
  C  C123  1  0.05255000  0.24579000  0.95979000  1.0
  C  C124  1  0.55254000  0.95979000  0.24578000  1.0
  C  C125  1  0.94745000  0.75422000  0.04021000  1.0
  C  C126  1  0.60066000  0.03967000  0.74521000  1.0
  C  C127  1  0.89934000  0.25479000  0.96033000  1.0
  C  C128  1  0.39935000  0.96033000  0.25479000  1.0
  C  C129  1  0.10065000  0.74521000  0.03967000  1.0
  C  C130  1  0.68253000  0.10795000  0.74183000  1.0
  C  C131  1  0.81747000  0.25817000  0.89205000  1.0
  C  C132  1  0.31747000  0.89205000  0.25817000  1.0
  C  C133  1  0.18253000  0.74183000  0.10795000  1.0
  C  C134  1  0.67714000  0.97280000  0.73800000  1.0
  C  C135  1  0.82286000  0.26200000  0.02720000  1.0
  C  C136  1  0.32286000  0.02719000  0.26200000  1.0
  C  C137  1  0.17714000  0.73800000  0.97281000  1.0
  C  C138  1  0.61550000  0.90520000  0.74803000  1.0
  C  C139  1  0.88450000  0.25197000  0.09480000  1.0
  C  C140  1  0.38450000  0.09480000  0.25197000  1.0
  C  C141  1  0.11550000  0.74803000  0.90520000  1.0
  C  C142  1  0.68615000  0.83639000  0.74162000  1.0
  C  C143  1  0.81385000  0.25838000  0.16361000  1.0
  C  C144  1  0.31385000  0.16361000  0.25838000  1.0
  C  C145  1  0.18615000  0.74162000  0.83639000  1.0
  C  C146  1  0.67201000  0.79123000  0.79839000  1.0
  C  C147  1  0.82799000  0.20161000  0.20877000  1.0
  C  C148  1  0.32799000  0.20877000  0.20161000  1.0
  C  C149  1  0.17201000  0.79839000  0.79123000  1.0
  C  C150  1  0.59999000  0.81530000  0.86216000  1.0
  C  C151  1  0.90001000  0.13784000  0.18470000  1.0
  C  C152  1  0.40002000  0.18470000  0.13784000  1.0
  C  C153  1  0.09999000  0.86216000  0.81530000  1.0
  C  C154  1  0.58219000  0.77200000  0.91697000  1.0
  C  C155  1  0.91781000  0.08303000  0.22800000  1.0
  C  C156  1  0.41782000  0.22800000  0.08303000  1.0
  C  C157  1  0.08219000  0.91697000  0.77200000  1.0
  C  C158  1  0.63992000  0.70250000  0.91208000  1.0
  C  C159  1  0.86008000  0.08792000  0.29750000  1.0
  C  C160  1  0.36008000  0.29750000  0.08793000  1.0
  C  C161  1  0.13992000  0.91207000  0.70250000  1.0
  C  C162  1  0.71586000  0.67869000  0.85327000  1.0
  C  C163  1  0.78414000  0.14673000  0.32131000  1.0
  C  C164  1  0.28415000  0.32131000  0.14674000  1.0
  C  C165  1  0.21586000  0.85326000  0.67869000  1.0
  C  C166  1  0.73332000  0.72086000  0.79387000  1.0
  C  C167  1  0.76668000  0.20613000  0.27914000  1.0
  C  C168  1  0.26668000  0.27914000  0.20614000  1.0
  C  C169  1  0.23332000  0.79386000  0.72086000  1.0
  C  C170  1  0.81273000  0.69759000  0.73287000  1.0
  C  C171  1  0.68728000  0.26713000  0.30241000  1.0
  C  C172  1  0.18728000  0.30241000  0.26713000  1.0
  C  C173  1  0.31273000  0.73287000  0.69759000  1.0
  C  C174  1  0.82741000  0.74303000  0.67612000  1.0
  C  C175  1  0.67259000  0.32388000  0.25697000  1.0
  C  C176  1  0.17259000  0.25697000  0.32388000  1.0
  C  C177  1  0.32741000  0.67612000  0.74303000  1.0
  C  C178  1  0.89991000  0.71972000  0.61218000  1.0
  C  C179  1  0.60009000  0.38782000  0.28028000  1.0
  C  C180  1  0.10009000  0.28028000  0.38782000  1.0
  C  C181  1  0.39991000  0.61217000  0.71972000  1.0
  C  C182  1  0.90513000  0.76050000  0.55460000  1.0
  C  C183  1  0.59487000  0.44540000  0.23950000  1.0
  C  C184  1  0.09487000  0.23950000  0.44540000  1.0
  C  C185  1  0.40513000  0.55460000  0.76050000  1.0
  C  C186  1  0.83411000  0.82621000  0.55644000  1.0
  C  C187  1  0.66590000  0.44356000  0.17379000  1.0
  C  C188  1  0.16589000  0.17379000  0.44356000  1.0
  C  C189  1  0.33411000  0.55644000  0.82621000  1.0
  C  C190  1  0.76475000  0.85103000  0.61715000  1.0
  C  C191  1  0.73526000  0.38285000  0.14897000  1.0
  C  C192  1  0.23525000  0.14897000  0.38285000  1.0
  C  C193  1  0.26475000  0.61715000  0.85103000  1.0
  C  C194  1  0.76116000  0.81205000  0.67951000  1.0
  C  C195  1  0.73885000  0.32049000  0.18795000  1.0
  C  C196  1  0.23884000  0.18795000  0.32049000  1.0
  C  C197  1  0.26116000  0.67951000  0.81205000  1.0
  C  C198  1  0.88368000  0.62888000  0.72561000  1.0
  C  C199  1  0.61632000  0.27439000  0.37112000  1.0
  C  C200  1  0.11632000  0.37112000  0.27439000  1.0
  C  C201  1  0.38367000  0.72561000  0.62888000  1.0
  C  C202  1  0.82480000  0.56064000  0.73517000  1.0
  C  C203  1  0.67520000  0.26483000  0.43936000  1.0
  C  C204  1  0.17520000  0.43936000  0.26483000  1.0
  C  C205  1  0.32480000  0.73517000  0.56064000  1.0
  C  C206  1  0.89967000  0.49363000  0.72284000  1.0
  C  C207  1  0.60033000  0.27716000  0.50638000  1.0
  C  C208  1  0.10033000  0.50638000  0.27716000  1.0
  C  C209  1  0.39967000  0.72284000  0.49362000  1.0
  C  C210  1  0.04615000  0.49184000  0.70255000  1.0
  C  C211  1  0.45385000  0.29745000  0.50816000  1.0
  C  C212  1  0.95385000  0.50817000  0.29745000  1.0
  C  C213  1  0.54615000  0.70255000  0.49183000  1.0
  C  C214  1  0.10501000  0.42461000  0.69039000  1.0
  C  C215  1  0.39499000  0.30961000  0.57539000  1.0
  C  C216  1  0.89498000  0.57539000  0.30961000  1.0
  C  C217  1  0.60501000  0.69039000  0.42461000  1.0
  C  C218  1  0.01883000  0.35950000  0.69845000  1.0
  C  C219  1  0.48117000  0.30155000  0.64050000  1.0
  C  C220  1  0.98116000  0.64050000  0.30155000  1.0
  C  C221  1  0.51883000  0.69845000  0.35950000  1.0
  C  C222  1  0.82206000  0.42565000  0.73109000  1.0
  C  C223  1  0.67794000  0.26891000  0.57435000  1.0
  C  C224  1  0.17794000  0.57435000  0.26891000  1.0
  C  C225  1  0.32206000  0.73109000  0.42565000  1.0
  S  S226  1  0.48307000  0.35372000  0.85814000  1.0
  S  S227  1  0.01693000  0.14186000  0.64627000  1.0
  S  S228  1  0.51693000  0.64628000  0.14186000  1.0
  S  S229  1  0.98307000  0.85814000  0.35372000  1.0
  N  N230  1  0.61950000  0.17180000  0.74440000  1.0
  N  N231  1  0.88049000  0.25560000  0.82820000  1.0
  N  N232  1  0.38050000  0.82820000  0.25560000  1.0
  N  N233  1  0.11950000  0.74440000  0.17180000  1.0
  N  N234  1  0.88000000  0.36064000  0.71959000  1.0
  N  N235  1  0.62001000  0.28041000  0.63935000  1.0
  N  N236  1  0.12000000  0.63936000  0.28041000  1.0
  N  N237  1  0.37999000  0.71959000  0.36064000  1.0
  O  O238  1  0.59939000  0.34293000  0.80719000  1.0
  O  O239  1  0.90061000  0.19281000  0.65707000  1.0
  O  O240  1  0.40061000  0.65707000  0.19281000  1.0
  O  O241  1  0.09939000  0.80719000  0.34293000  1.0
  O  O242  1  0.34215000  0.36918000  0.81950000  1.0
  O  O243  1  0.15785000  0.18050000  0.63082000  1.0
  O  O244  1  0.65785000  0.63082000  0.18049000  1.0
  O  O245  1  0.84215000  0.81951000  0.36918000  1.0
  O  O246  1  0.46656000  0.29426000  0.90421000  1.0
  O  O247  1  0.03344000  0.09579000  0.70574000  1.0
  O  O248  1  0.53343000  0.70574000  0.09579000  1.0
  O  O249  1  0.96657000  0.90421000  0.29426000  1.0
