# generated using pymatgen
data_DyH15C11O6
_symmetry_space_group_name_H-M   'P 1'
_cell_length_a   8.18508000
_cell_length_b   10.72540000
_cell_length_c   14.76080000
_cell_angle_alpha   89.99980000
_cell_angle_beta   90.00000000
_cell_angle_gamma   89.99970000
_symmetry_Int_Tables_number   1
_chemical_formula_structural   DyH15C11O6
_chemical_formula_sum   'Dy4 H60 C44 O24'
_cell_volume   1295.82490437
_cell_formula_units_Z   4
loop_
 _symmetry_equiv_pos_site_id
 _symmetry_equiv_pos_as_xyz
  1  'x, y, z'
loop_
 _atom_site_type_symbol
 _atom_site_label
 _atom_site_symmetry_multiplicity
 _atom_site_fract_x
 _atom_site_fract_y
 _atom_site_fract_z
 _atom_site_occupancy
  Dy  Dy0  1  0.92179000  0.19952000  0.99806000  1.0
  Dy  Dy1  1  0.57821000  0.80049000  0.49806000  1.0
  Dy  Dy2  1  0.07821000  0.69951000  0.50194000  1.0
  Dy  Dy3  1  0.42179000  0.30049000  0.00194000  1.0
  H  H4  1  0.72764000  0.17380000  0.69564000  1.0
  H  H5  1  0.77237000  0.82620000  0.19564000  1.0
  H  H6  1  0.27237000  0.67380000  0.80436000  1.0
  H  H7  1  0.22763000  0.32620000  0.30436000  1.0
  H  H8  1  0.81209000  0.46196000  0.82157000  1.0
  H  H9  1  0.68791000  0.53804000  0.32157000  1.0
  H  H10  1  0.18792000  0.96196000  0.67842000  1.0
  H  H11  1  0.31209000  0.03803000  0.17843000  1.0
  H  H12  1  0.64107000  0.51637000  0.76037000  1.0
  H  H13  1  0.85893000  0.48363000  0.26038000  1.0
  H  H14  1  0.35894000  0.01637000  0.73962000  1.0
  H  H15  1  0.14106000  0.98362000  0.23963000  1.0
  H  H16  1  0.84179000  0.56265000  0.72784000  1.0
  H  H17  1  0.65821000  0.43736000  0.22785000  1.0
  H  H18  1  0.15822000  0.06264000  0.77215000  1.0
  H  H19  1  0.34178000  0.93735000  0.27216000  1.0
  H  H20  1  0.56055000  0.01292000  0.10746000  1.0
  H  H21  1  0.93945000  0.98708000  0.60746000  1.0
  H  H22  1  0.43944000  0.51292000  0.39254000  1.0
  H  H23  1  0.06055000  0.48709000  0.89254000  1.0
  H  H24  1  0.44869000  0.38224000  0.55247000  1.0
  H  H25  1  0.05131000  0.61776000  0.05247000  1.0
  H  H26  1  0.55131000  0.88224000  0.94752000  1.0
  H  H27  1  0.94868000  0.11776000  0.44753000  1.0
  H  H28  1  0.47730000  0.47885000  0.64729000  1.0
  H  H29  1  0.02271000  0.52115000  0.14730000  1.0
  H  H30  1  0.52271000  0.97885000  0.85270000  1.0
  H  H31  1  0.97729000  0.02115000  0.35271000  1.0
  H  H32  1  0.40933000  0.29703000  0.73071000  1.0
  H  H33  1  0.09067000  0.70297000  0.23071000  1.0
  H  H34  1  0.59068000  0.79702000  0.76929000  1.0
  H  H35  1  0.90932000  0.20297000  0.26929000  1.0
  H  H36  1  0.46652000  0.19622000  0.64161000  1.0
  H  H37  1  0.03348000  0.80378000  0.14161000  1.0
  H  H38  1  0.53348000  0.69622000  0.85839000  1.0
  H  H39  1  0.96652000  0.30378000  0.35840000  1.0
  H  H40  1  0.00691000  0.30818000  0.75490000  1.0
  H  H41  1  0.49310000  0.69182000  0.25491000  1.0
  H  H42  1  0.99310000  0.80818000  0.74510000  1.0
  H  H43  1  0.50690000  0.19182000  0.24510000  1.0
  H  H44  1  0.04014000  0.40807000  0.65983000  1.0
  H  H45  1  0.45986000  0.59193000  0.15984000  1.0
  H  H46  1  0.95987000  0.90807000  0.84016000  1.0
  H  H47  1  0.54013000  0.09192000  0.34017000  1.0
  H  H48  1  0.98260000  0.24961000  0.64377000  1.0
  H  H49  1  0.51740000  0.75039000  0.14378000  1.0
  H  H50  1  0.01741000  0.74961000  0.85622000  1.0
  H  H51  1  0.48259000  0.25039000  0.35623000  1.0
  H  H52  1  0.68830000  0.32637000  0.45847000  1.0
  H  H53  1  0.81170000  0.67364000  0.95848000  1.0
  H  H54  1  0.31170000  0.82637000  0.04152000  1.0
  H  H55  1  0.18830000  0.17363000  0.54153000  1.0
  H  H56  1  0.72058000  0.21051000  0.54220000  1.0
  H  H57  1  0.77942000  0.78949000  0.04220000  1.0
  H  H58  1  0.27942000  0.71051000  0.95780000  1.0
  H  H59  1  0.22058000  0.28949000  0.45781000  1.0
  H  H60  1  0.88428000  0.31020000  0.50818000  1.0
  H  H61  1  0.61572000  0.68980000  0.00818000  1.0
  H  H62  1  0.11572000  0.81021000  0.99182000  1.0
  H  H63  1  0.38428000  0.18979000  0.49182000  1.0
  C  C64  1  0.67270000  0.24779000  0.82383000  1.0
  C  C65  1  0.82731000  0.75221000  0.32383000  1.0
  C  C66  1  0.32731000  0.74780000  0.67617000  1.0
  C  C67  1  0.17269000  0.25220000  0.17617000  1.0
  C  C68  1  0.67211000  0.25983000  0.72195000  1.0
  C  C69  1  0.82790000  0.74017000  0.22195000  1.0
  C  C70  1  0.32790000  0.75983000  0.77805000  1.0
  C  C71  1  0.17210000  0.24017000  0.27805000  1.0
  C  C72  1  0.76783000  0.48465000  0.75320000  1.0
  C  C73  1  0.73216000  0.51535000  0.25321000  1.0
  C  C74  1  0.23217000  0.98464000  0.74679000  1.0
  C  C75  1  0.26783000  0.01535000  0.24680000  1.0
  C  C76  1  0.66368000  0.06588000  0.07833000  1.0
  C  C77  1  0.83632000  0.93412000  0.57833000  1.0
  C  C78  1  0.33632000  0.56588000  0.42168000  1.0
  C  C79  1  0.16367000  0.43413000  0.92167000  1.0
  C  C80  1  0.78452000  0.37120000  0.68994000  1.0
  C  C81  1  0.71549000  0.62880000  0.18994000  1.0
  C  C82  1  0.21549000  0.87120000  0.81006000  1.0
  C  C83  1  0.28451000  0.12879000  0.31006000  1.0
  C  C84  1  0.52018000  0.39277000  0.61479000  1.0
  C  C85  1  0.97982000  0.60723000  0.11479000  1.0
  C  C86  1  0.47983000  0.89277000  0.88521000  1.0
  C  C87  1  0.02018000  0.10723000  0.38522000  1.0
  C  C88  1  0.50246000  0.28052000  0.67874000  1.0
  C  C89  1  0.99754000  0.71948000  0.17875000  1.0
  C  C90  1  0.49755000  0.78051000  0.82125000  1.0
  C  C91  1  0.00245000  0.21948000  0.32126000  1.0
  C  C92  1  0.96429000  0.33218000  0.68655000  1.0
  C  C93  1  0.53571000  0.66782000  0.18655000  1.0
  C  C94  1  0.03572000  0.83218000  0.81345000  1.0
  C  C95  1  0.46429000  0.16782000  0.31345000  1.0
  C  C96  1  0.70446000  0.40156000  0.59525000  1.0
  C  C97  1  0.79553000  0.59844000  0.09525000  1.0
  C  C98  1  0.29554000  0.90156000  0.90475000  1.0
  C  C99  1  0.20446000  0.09844000  0.40475000  1.0
  C  C100  1  0.75562000  0.52723000  0.55663000  1.0
  C  C101  1  0.74438000  0.47277000  0.05663000  1.0
  C  C102  1  0.24438000  0.02724000  0.94336000  1.0
  C  C103  1  0.25561000  0.97277000  0.44337000  1.0
  C  C104  1  0.75294000  0.30588000  0.52204000  1.0
  C  C105  1  0.74706000  0.69413000  0.02204000  1.0
  C  C106  1  0.24706000  0.80588000  0.97796000  1.0
  C  C107  1  0.25294000  0.19412000  0.47796000  1.0
  O  O108  1  0.64297000  0.18284000  0.06100000  1.0
  O  O109  1  0.85703000  0.81716000  0.56101000  1.0
  O  O110  1  0.35703000  0.68284000  0.43899000  1.0
  O  O111  1  0.14296000  0.31717000  0.93899000  1.0
  O  O112  1  0.79817000  0.01343000  0.06296000  1.0
  O  O113  1  0.70183000  0.98658000  0.56296000  1.0
  O  O114  1  0.20183000  0.51343000  0.43705000  1.0
  O  O115  1  0.29817000  0.48657000  0.93703000  1.0
  O  O116  1  0.79877000  0.19982000  0.86137000  1.0
  O  O117  1  0.70124000  0.80018000  0.36137000  1.0
  O  O118  1  0.20124000  0.69983000  0.63863000  1.0
  O  O119  1  0.29878000  0.30016000  0.13863000  1.0
  O  O120  1  0.90742000  0.55223000  0.55312000  1.0
  O  O121  1  0.59257000  0.44776000  0.05313000  1.0
  O  O122  1  0.09258000  0.05224000  0.94687000  1.0
  O  O123  1  0.40741000  0.94776000  0.44688000  1.0
  O  O124  1  0.55175000  0.28830000  0.86919000  1.0
  O  O125  1  0.94826000  0.71170000  0.36919000  1.0
  O  O126  1  0.44826000  0.78830000  0.63081000  1.0
  O  O127  1  0.05174000  0.21171000  0.13081000  1.0
  O  O128  1  0.64542000  0.59867000  0.52463000  1.0
  O  O129  1  0.85457000  0.40133000  0.02463000  1.0
  O  O130  1  0.35457000  0.09868000  0.97536000  1.0
  O  O131  1  0.14542000  0.90133000  0.47538000  1.0
