# generated using pymatgen
data_CoH8C9O8
_symmetry_space_group_name_H-M   'P 1'
_cell_length_a   7.67135000
_cell_length_b   10.48910000
_cell_length_c   33.28740000
_cell_angle_alpha   90.00010000
_cell_angle_beta   90.00070000
_cell_angle_gamma   79.50700000
_symmetry_Int_Tables_number   1
_chemical_formula_structural   CoH8C9O8
_chemical_formula_sum   'Co8 H64 C72 O64'
_cell_volume   2633.69725722
_cell_formula_units_Z   8
loop_
 _symmetry_equiv_pos_site_id
 _symmetry_equiv_pos_as_xyz
  1  'x, y, z'
loop_
 _atom_site_type_symbol
 _atom_site_label
 _atom_site_symmetry_multiplicity
 _atom_site_fract_x
 _atom_site_fract_y
 _atom_site_fract_z
 _atom_site_occupancy
  Co  Co0  1  0.05760000  0.51982000  0.24868000  1.0
  Co  Co1  1  0.44241000  0.48018000  0.74868000  1.0
  Co  Co2  1  0.94240000  0.48018000  0.75132000  1.0
  Co  Co3  1  0.55760000  0.51982000  0.25132000  1.0
  Co  Co4  1  0.50000000  0.50000000  0.50000000  1.0
  Co  Co5  1  0.99999000  0.50000000  1.00000000  1.0
  Co  Co6  1  0.00001000  0.50000000  0.50000000  1.0
  Co  Co7  1  0.50000000  0.50000000  0.00000000  1.0
  H  H8  1  0.91192000  0.91960000  0.23542000  1.0
  H  H9  1  0.58808000  0.08041000  0.73541000  1.0
  H  H10  1  0.08807000  0.08040000  0.76458000  1.0
  H  H11  1  0.41191000  0.91959000  0.26459000  1.0
  H  H12  1  0.73589000  0.14389000  0.23718000  1.0
  H  H13  1  0.76410000  0.85612000  0.73718000  1.0
  H  H14  1  0.26410000  0.85612000  0.76282000  1.0
  H  H15  1  0.23589000  0.14389000  0.26282000  1.0
  H  H16  1  0.65335000  0.08754000  0.51476000  1.0
  H  H17  1  0.84664000  0.91246000  0.01476000  1.0
  H  H18  1  0.34667000  0.91245000  0.48524000  1.0
  H  H19  1  0.15334000  0.08754000  0.98524000  1.0
  H  H20  1  0.83140000  0.86530000  0.51257000  1.0
  H  H21  1  0.66859000  0.13470000  0.01257000  1.0
  H  H22  1  0.16861000  0.13469000  0.48743000  1.0
  H  H23  1  0.33139000  0.86531000  0.98743000  1.0
  H  H24  1  0.84043000  0.43705000  0.20440000  1.0
  H  H25  1  0.65957000  0.56295000  0.70440000  1.0
  H  H26  1  0.15957000  0.56295000  0.79559000  1.0
  H  H27  1  0.34043000  0.43705000  0.29560000  1.0
  H  H28  1  0.76987000  0.60391000  0.20515000  1.0
  H  H29  1  0.73012000  0.39609000  0.70515000  1.0
  H  H30  1  0.23013000  0.39609000  0.79485000  1.0
  H  H31  1  0.26987000  0.60391000  0.29485000  1.0
  H  H32  1  0.24134000  0.66842000  0.20879000  1.0
  H  H33  1  0.25866000  0.33158000  0.70879000  1.0
  H  H34  1  0.75866000  0.33158000  0.79121000  1.0
  H  H35  1  0.74134000  0.66842000  0.29121000  1.0
  H  H36  1  0.10238000  0.62674000  0.17825000  1.0
  H  H37  1  0.39762000  0.37326000  0.67825000  1.0
  H  H38  1  0.89762000  0.37326000  0.82175000  1.0
  H  H39  1  0.60238000  0.62673000  0.32175000  1.0
  H  H40  1  0.03920000  0.39493000  0.31788000  1.0
  H  H41  1  0.46081000  0.60507000  0.81788000  1.0
  H  H42  1  0.96081000  0.60507000  0.68211000  1.0
  H  H43  1  0.53919000  0.39493000  0.18212000  1.0
  H  H44  1  0.87642000  0.36964000  0.29095000  1.0
  H  H45  1  0.62358000  0.63036000  0.79095000  1.0
  H  H46  1  0.12359000  0.63036000  0.70905000  1.0
  H  H47  1  0.37642000  0.36964000  0.20905000  1.0
  H  H48  1  0.46905000  0.68955000  0.44600000  1.0
  H  H49  1  0.03094000  0.31045000  0.94600000  1.0
  H  H50  1  0.53095000  0.31045000  0.55400000  1.0
  H  H51  1  0.96906000  0.68955000  0.05400000  1.0
  H  H52  1  0.67901000  0.63833000  0.45286000  1.0
  H  H53  1  0.82099000  0.36167000  0.95286000  1.0
  H  H54  1  0.32100000  0.36167000  0.54714000  1.0
  H  H55  1  0.17902000  0.63833000  0.04714000  1.0
  H  H56  1  0.22132000  0.57090000  0.45449000  1.0
  H  H57  1  0.27867000  0.42910000  0.95449000  1.0
  H  H58  1  0.77868000  0.42909000  0.54551000  1.0
  H  H59  1  0.72132000  0.57090000  0.04551000  1.0
  H  H60  1  0.29267000  0.40498000  0.45597000  1.0
  H  H61  1  0.20733000  0.59503000  0.95597000  1.0
  H  H62  1  0.70733000  0.59502000  0.54403000  1.0
  H  H63  1  0.79267000  0.40498000  0.04403000  1.0
  H  H64  1  0.95543000  0.37905000  0.43273000  1.0
  H  H65  1  0.54456000  0.62094000  0.93274000  1.0
  H  H66  1  0.04457000  0.62095000  0.56726000  1.0
  H  H67  1  0.45543000  0.37905000  0.06726000  1.0
  H  H68  1  0.82203000  0.33809000  0.46447000  1.0
  H  H69  1  0.67796000  0.66191000  0.96447000  1.0
  H  H70  1  0.17798000  0.66191000  0.53553000  1.0
  H  H71  1  0.32202000  0.33809000  0.03553000  1.0
  C  C72  1  0.90553000  0.89384000  0.29963000  1.0
  C  C73  1  0.59446000  0.10616000  0.79963000  1.0
  C  C74  1  0.09446000  0.10616000  0.70037000  1.0
  C  C75  1  0.40555000  0.89384000  0.20037000  1.0
  C  C76  1  0.86594000  0.96411000  0.26403000  1.0
  C  C77  1  0.63406000  0.03589000  0.76403000  1.0
  C  C78  1  0.13406000  0.03589000  0.73597000  1.0
  C  C79  1  0.36595000  0.96411000  0.23597000  1.0
  C  C80  1  0.76627000  0.08940000  0.26502000  1.0
  C  C81  1  0.73372000  0.91061000  0.76502000  1.0
  C  C82  1  0.23373000  0.91061000  0.73498000  1.0
  C  C83  1  0.26629000  0.08939000  0.23498000  1.0
  C  C84  1  0.70609000  0.14712000  0.30165000  1.0
  C  C85  1  0.79391000  0.85289000  0.80165000  1.0
  C  C86  1  0.29392000  0.85289000  0.69835000  1.0
  C  C87  1  0.20610000  0.14711000  0.19835000  1.0
  C  C88  1  0.74773000  0.07833000  0.33763000  1.0
  C  C89  1  0.75227000  0.92167000  0.83763000  1.0
  C  C90  1  0.25227000  0.92167000  0.66237000  1.0
  C  C91  1  0.24773000  0.07833000  0.16237000  1.0
  C  C92  1  0.70498000  0.14355000  0.37685000  1.0
  C  C93  1  0.79503000  0.85644000  0.87685000  1.0
  C  C94  1  0.29503000  0.85645000  0.62315000  1.0
  C  C95  1  0.20498000  0.14355000  0.12315000  1.0
  C  C96  1  0.72458000  0.06282000  0.41376000  1.0
  C  C97  1  0.77541000  0.93718000  0.91376000  1.0
  C  C98  1  0.27542000  0.93718000  0.58624000  1.0
  C  C99  1  0.22458000  0.06282000  0.08624000  1.0
  C  C100  1  0.66063000  0.11710000  0.45065000  1.0
  C  C101  1  0.83936000  0.88290000  0.95065000  1.0
  C  C102  1  0.33938000  0.88290000  0.54935000  1.0
  C  C103  1  0.16063000  0.11710000  0.04935000  1.0
  C  C104  1  0.70039000  0.04514000  0.48596000  1.0
  C  C105  1  0.79960000  0.95486000  0.98596000  1.0
  C  C106  1  0.29963000  0.95485000  0.51404000  1.0
  C  C107  1  0.20038000  0.04515000  0.01404000  1.0
  C  C108  1  0.80111000  0.92039000  0.48487000  1.0
  C  C109  1  0.69888000  0.07960000  0.98487000  1.0
  C  C110  1  0.19890000  0.07959000  0.51513000  1.0
  C  C111  1  0.30110000  0.92040000  0.01513000  1.0
  C  C112  1  0.86210000  0.86443000  0.44812000  1.0
  C  C113  1  0.63790000  0.13557000  0.94812000  1.0
  C  C114  1  0.13791000  0.13557000  0.55188000  1.0
  C  C115  1  0.36209000  0.86443000  0.05188000  1.0
  C  C116  1  0.82007000  0.93453000  0.41242000  1.0
  C  C117  1  0.67993000  0.06547000  0.91243000  1.0
  C  C118  1  0.17993000  0.06547000  0.58758000  1.0
  C  C119  1  0.32007000  0.93453000  0.08758000  1.0
  C  C120  1  0.86588000  0.86992000  0.37330000  1.0
  C  C121  1  0.63411000  0.13008000  0.87330000  1.0
  C  C122  1  0.13411000  0.13008000  0.62670000  1.0
  C  C123  1  0.36589000  0.86992000  0.12670000  1.0
  C  C124  1  0.84259000  0.94970000  0.33639000  1.0
  C  C125  1  0.65740000  0.05029000  0.83639000  1.0
  C  C126  1  0.15740000  0.05030000  0.66361000  1.0
  C  C127  1  0.34260000  0.94970000  0.16361000  1.0
  C  C128  1  0.01978000  0.76126000  0.29725000  1.0
  C  C129  1  0.48021000  0.23874000  0.79724000  1.0
  C  C130  1  0.98021000  0.23874000  0.70275000  1.0
  C  C131  1  0.51979000  0.76126000  0.20275000  1.0
  C  C132  1  0.59192000  0.27987000  0.30036000  1.0
  C  C133  1  0.90808000  0.72013000  0.80036000  1.0
  C  C134  1  0.40808000  0.72014000  0.69964000  1.0
  C  C135  1  0.09192000  0.27987000  0.19964000  1.0
  C  C136  1  0.54604000  0.24914000  0.45430000  1.0
  C  C137  1  0.95395000  0.75086000  0.95430000  1.0
  C  C138  1  0.45398000  0.75085000  0.54570000  1.0
  C  C139  1  0.04604000  0.24915000  0.04570000  1.0
  C  C140  1  0.97488000  0.73126000  0.44903000  1.0
  C  C141  1  0.52510000  0.26874000  0.94903000  1.0
  C  C142  1  0.02511000  0.26873000  0.55096000  1.0
  C  C143  1  0.47488000  0.73126000  0.05097000  1.0
  O  O144  1  0.66812000  0.26329000  0.37923000  1.0
  O  O145  1  0.83189000  0.73672000  0.87923000  1.0
  O  O146  1  0.33189000  0.73671000  0.62077000  1.0
  O  O147  1  0.16812000  0.26329000  0.12077000  1.0
  O  O148  1  0.90983000  0.75039000  0.37144000  1.0
  O  O149  1  0.59017000  0.24962000  0.87145000  1.0
  O  O150  1  0.09018000  0.24961000  0.62856000  1.0
  O  O151  1  0.40984000  0.75038000  0.12856000  1.0
  O  O152  1  0.94190000  0.67128000  0.28304000  1.0
  O  O153  1  0.55810000  0.32871000  0.78303000  1.0
  O  O154  1  0.05809000  0.32871000  0.71696000  1.0
  O  O155  1  0.44192000  0.67129000  0.21696000  1.0
  O  O156  1  0.18118000  0.74731000  0.30564000  1.0
  O  O157  1  0.31883000  0.25269000  0.80564000  1.0
  O  O158  1  0.81881000  0.25269000  0.69436000  1.0
  O  O159  1  0.68119000  0.74730000  0.19436000  1.0
  O  O160  1  0.67126000  0.37183000  0.28817000  1.0
  O  O161  1  0.82873000  0.62816000  0.78817000  1.0
  O  O162  1  0.32874000  0.62817000  0.71183000  1.0
  O  O163  1  0.17127000  0.37184000  0.21183000  1.0
  O  O164  1  0.42923000  0.29308000  0.30742000  1.0
  O  O165  1  0.07077000  0.70692000  0.80742000  1.0
  O  O166  1  0.57077000  0.70693000  0.69258000  1.0
  O  O167  1  0.92923000  0.29308000  0.19258000  1.0
  O  O168  1  0.38655000  0.26556000  0.44385000  1.0
  O  O169  1  0.11343000  0.73444000  0.94385000  1.0
  O  O170  1  0.61347000  0.73443000  0.55615000  1.0
  O  O171  1  0.88655000  0.26557000  0.05615000  1.0
  O  O172  1  0.62171000  0.33403000  0.47220000  1.0
  O  O173  1  0.87829000  0.66597000  0.97221000  1.0
  O  O174  1  0.37830000  0.66597000  0.52780000  1.0
  O  O175  1  0.12170000  0.33403000  0.02780000  1.0
  O  O176  1  0.13928000  0.71760000  0.44378000  1.0
  O  O177  1  0.36070000  0.28240000  0.94378000  1.0
  O  O178  1  0.86072000  0.28240000  0.55621000  1.0
  O  O179  1  0.63928000  0.71760000  0.05622000  1.0
  O  O180  1  0.89213000  0.63931000  0.45956000  1.0
  O  O181  1  0.60787000  0.36069000  0.95956000  1.0
  O  O182  1  0.10787000  0.36069000  0.54044000  1.0
  O  O183  1  0.39213000  0.63931000  0.04044000  1.0
  O  O184  1  0.80562000  0.51949000  0.22122000  1.0
  O  O185  1  0.69438000  0.48051000  0.72121000  1.0
  O  O186  1  0.19437000  0.48051000  0.77878000  1.0
  O  O187  1  0.30563000  0.51949000  0.27879000  1.0
  O  O188  1  0.11485000  0.65374000  0.20590000  1.0
  O  O189  1  0.38516000  0.34625000  0.70589000  1.0
  O  O190  1  0.88516000  0.34625000  0.79410000  1.0
  O  O191  1  0.61484000  0.65375000  0.29411000  1.0
  O  O192  1  0.00514000  0.38072000  0.29035000  1.0
  O  O193  1  0.49487000  0.61928000  0.79035000  1.0
  O  O194  1  0.99488000  0.61928000  0.70964000  1.0
  O  O195  1  0.50514000  0.38072000  0.20965000  1.0
  O  O196  1  0.55869000  0.61312000  0.45148000  1.0
  O  O197  1  0.94130000  0.38688000  0.95148000  1.0
  O  O198  1  0.44131000  0.38687000  0.54852000  1.0
  O  O199  1  0.05869000  0.61313000  0.04852000  1.0
  O  O200  1  0.25396000  0.48971000  0.47183000  1.0
  O  O201  1  0.24603000  0.51029000  0.97183000  1.0
  O  O202  1  0.74604000  0.51028000  0.52817000  1.0
  O  O203  1  0.75396000  0.48972000  0.02817000  1.0
  O  O204  1  0.94741000  0.35466000  0.46078000  1.0
  O  O205  1  0.55258000  0.64534000  0.96078000  1.0
  O  O206  1  0.05260000  0.64534000  0.53922000  1.0
  O  O207  1  0.44741000  0.35466000  0.03922000  1.0
