# generated using pymatgen
data_CdH12C12SN4O5
_symmetry_space_group_name_H-M   'P 1'
_cell_length_a   7.61692000
_cell_length_b   10.66940000
_cell_length_c   10.87160000
_cell_angle_alpha   104.69400000
_cell_angle_beta   101.71800000
_cell_angle_gamma   108.00600000
_symmetry_Int_Tables_number   1
_chemical_formula_structural   CdH12C12SN4O5
_chemical_formula_sum   'Cd2 H24 C24 S2 N8 O10'
_cell_volume   773.77191437
_cell_formula_units_Z   2
loop_
 _symmetry_equiv_pos_site_id
 _symmetry_equiv_pos_as_xyz
  1  'x, y, z'
loop_
 _atom_site_type_symbol
 _atom_site_label
 _atom_site_symmetry_multiplicity
 _atom_site_fract_x
 _atom_site_fract_y
 _atom_site_fract_z
 _atom_site_occupancy
  Cd  Cd0  1  0.21185000  0.13204000  0.24380000  1.0
  Cd  Cd1  1  0.78815000  0.86796000  0.75620000  1.0
  H  H2  1  0.65231000  0.11609000  0.21052000  1.0
  H  H3  1  0.34770000  0.88391000  0.78948000  1.0
  H  H4  1  0.53791000  0.46701000  0.39944000  1.0
  H  H5  1  0.46208000  0.53299000  0.60056000  1.0
  H  H6  1  0.92026000  0.55696000  0.39594000  1.0
  H  H7  1  0.07973000  0.44304000  0.60406000  1.0
  H  H8  1  0.97238000  0.16098000  0.67881000  1.0
  H  H9  1  0.02762000  0.83902000  0.32118000  1.0
  H  H10  1  0.96154000  0.33515000  0.27124000  1.0
  H  H11  1  0.03846000  0.66485000  0.72876000  1.0
  H  H12  1  0.83169000  0.04736000  0.06129000  1.0
  H  H13  1  0.16831000  0.95264000  0.93872000  1.0
  H  H14  1  0.84775000  0.91077000  0.07856000  1.0
  H  H15  1  0.15225000  0.08923000  0.92144000  1.0
  H  H16  1  0.33664000  0.46495000  0.91926000  1.0
  H  H17  1  0.66336000  0.53505000  0.08074000  1.0
  H  H18  1  0.37817000  0.72832000  0.95082000  1.0
  H  H19  1  0.62183000  0.27169000  0.04919000  1.0
  H  H20  1  0.88003000  0.12286000  0.43020000  1.0
  H  H21  1  0.11997000  0.87714000  0.56980000  1.0
  H  H22  1  0.48732000  0.24610000  0.56511000  1.0
  H  H23  1  0.51268000  0.75390000  0.43489000  1.0
  H  H24  1  0.34244000  0.24214000  0.78108000  1.0
  H  H25  1  0.65756000  0.75786000  0.21892000  1.0
  C  C26  1  0.19913000  0.34515000  0.10529000  1.0
  C  C27  1  0.80087000  0.65485000  0.89471000  1.0
  C  C28  1  0.67168000  0.22255000  0.26431000  1.0
  C  C29  1  0.32832000  0.77745000  0.73569000  1.0
  C  C30  1  0.61919000  0.40697000  0.36202000  1.0
  C  C31  1  0.38081000  0.59303000  0.63798000  1.0
  C  C32  1  0.80806000  0.45305000  0.36020000  1.0
  C  C33  1  0.19194000  0.54695000  0.63980000  1.0
  C  C34  1  0.22908000  0.48393000  0.09060000  1.0
  C  C35  1  0.77092000  0.51607000  0.90940000  1.0
  C  C36  1  0.30005000  0.53063000  0.99573000  1.0
  C  C37  1  0.69994000  0.46937000  0.00427000  1.0
  C  C38  1  0.31943000  0.66959000  0.01113000  1.0
  C  C39  1  0.68058000  0.33041000  0.98888000  1.0
  C  C40  1  0.25951000  0.72751000  0.11612000  1.0
  C  C41  1  0.74049000  0.27249000  0.88388000  1.0
  C  C42  1  0.25162000  0.86766000  0.15728000  1.0
  C  C43  1  0.74838000  0.13234000  0.84272000  1.0
  C  C44  1  0.02729000  0.15910000  0.49475000  1.0
  C  C45  1  0.97271000  0.84091000  0.50525000  1.0
  C  C46  1  0.33993000  0.22145000  0.56902000  1.0
  C  C47  1  0.66007000  0.77855000  0.43098000  1.0
  C  C48  1  0.27100000  0.22024000  0.67666000  1.0
  C  C49  1  0.72900000  0.77977000  0.32334000  1.0
  S  S50  1  0.18514000  0.61152000  0.19786000  1.0
  S  S51  1  0.81486000  0.38848000  0.80214000  1.0
  N  N52  1  0.18642000  0.18363000  0.45614000  1.0
  N  N53  1  0.81358000  0.81637000  0.54386000  1.0
  N  N54  1  0.07358000  0.18122000  0.62735000  1.0
  N  N55  1  0.92642000  0.81878000  0.37265000  1.0
  N  N56  1  0.53579000  0.26289000  0.30201000  1.0
  N  N57  1  0.46421000  0.73710000  0.69799000  1.0
  N  N58  1  0.83874000  0.33529000  0.29910000  1.0
  N  N59  1  0.16126000  0.66471000  0.70090000  1.0
  O  O60  1  0.88289000  0.01129000  0.13062000  1.0
  O  O61  1  0.11711000  0.98870000  0.86938000  1.0
  O  O62  1  0.23057000  0.25735000  0.01973000  1.0
  O  O63  1  0.76944000  0.74265000  0.98028000  1.0
  O  O64  1  0.14960000  0.32491000  0.20771000  1.0
  O  O65  1  0.85040000  0.67509000  0.79229000  1.0
  O  O66  1  0.28876000  0.94513000  0.08647000  1.0
  O  O67  1  0.71125000  0.05487000  0.91354000  1.0
  O  O68  1  0.20886000  0.90843000  0.26476000  1.0
  O  O69  1  0.79114000  0.09157000  0.73525000  1.0
