# generated using pymatgen
data_ZnH9C13NO5
_symmetry_space_group_name_H-M   'P 1'
_cell_length_a   7.75596000
_cell_length_b   8.22070000
_cell_length_c   9.73755000
_cell_angle_alpha   73.08700000
_cell_angle_beta   75.92460000
_cell_angle_gamma   72.19750000
_symmetry_Int_Tables_number   1
_chemical_formula_structural   ZnH9C13NO5
_chemical_formula_sum   'Zn2 H18 C26 N2 O10'
_cell_volume   557.39581480
_cell_formula_units_Z   2
loop_
 _symmetry_equiv_pos_site_id
 _symmetry_equiv_pos_as_xyz
  1  'x, y, z'
loop_
 _atom_site_type_symbol
 _atom_site_label
 _atom_site_symmetry_multiplicity
 _atom_site_fract_x
 _atom_site_fract_y
 _atom_site_fract_z
 _atom_site_occupancy
  Zn  Zn0  1  0.51989000  0.12912000  0.09878000  1.0
  Zn  Zn1  1  0.48011000  0.87088000  0.90122000  1.0
  H  H2  1  0.84182000  0.09020000  0.91398000  1.0
  H  H3  1  0.15818000  0.90980000  0.08602000  1.0
  H  H4  1  0.85194000  0.15904000  0.04520000  1.0
  H  H5  1  0.14806000  0.84096000  0.95479000  1.0
  H  H6  1  0.86751000  0.41520000  0.08697000  1.0
  H  H7  1  0.13249000  0.58480000  0.91303000  1.0
  H  H8  1  0.14468000  0.21395000  0.45539000  1.0
  H  H9  1  0.85532000  0.78604000  0.54461000  1.0
  H  H10  1  0.81711000  0.75161000  0.36415000  1.0
  H  H11  1  0.18289000  0.24838000  0.63586000  1.0
  H  H12  1  0.35771000  0.49894000  0.13055000  1.0
  H  H13  1  0.64229000  0.50106000  0.86944000  1.0
  H  H14  1  0.34303000  0.67123000  0.30226000  1.0
  H  H15  1  0.65697000  0.32878000  0.69773000  1.0
  H  H16  1  0.65266000  0.19348000  0.56139000  1.0
  H  H17  1  0.34733000  0.80652000  0.43861000  1.0
  H  H18  1  0.65821000  0.04444000  0.37391000  1.0
  H  H19  1  0.34179000  0.95557000  0.62609000  1.0
  C  C20  1  0.70301000  0.74367000  0.13395000  1.0
  C  C21  1  0.29700000  0.25633000  0.86605000  1.0
  C  C22  1  0.83226000  0.59690000  0.21864000  1.0
  C  C23  1  0.16775000  0.40309000  0.78136000  1.0
  C  C24  1  0.90199000  0.43417000  0.18205000  1.0
  C  C25  1  0.09802000  0.56582000  0.81796000  1.0
  C  C26  1  0.01654000  0.29789000  0.26795000  1.0
  C  C27  1  0.98347000  0.70211000  0.73205000  1.0
  C  C28  1  0.10376000  0.12499000  0.22472000  1.0
  C  C29  1  0.89624000  0.87501000  0.77528000  1.0
  C  C30  1  0.05456000  0.32416000  0.39220000  1.0
  C  C31  1  0.94544000  0.67583000  0.60780000  1.0
  C  C32  1  0.98218000  0.48595000  0.43315000  1.0
  C  C33  1  0.01782000  0.51405000  0.56685000  1.0
  C  C34  1  0.87447000  0.62218000  0.34133000  1.0
  C  C35  1  0.12553000  0.37782000  0.65867000  1.0
  C  C36  1  0.42327000  0.43671000  0.22643000  1.0
  C  C37  1  0.57672000  0.56329000  0.77357000  1.0
  C  C38  1  0.41519000  0.53252000  0.32481000  1.0
  C  C39  1  0.58480000  0.46749000  0.67519000  1.0
  C  C40  1  0.50057000  0.45033000  0.44770000  1.0
  C  C41  1  0.49942000  0.54968000  0.55230000  1.0
  C  C42  1  0.58759000  0.26992000  0.46714000  1.0
  C  C43  1  0.41240000  0.73009000  0.53286000  1.0
  C  C44  1  0.59021000  0.18356000  0.36363000  1.0
  C  C45  1  0.40979000  0.81645000  0.63637000  1.0
  N  N46  1  0.51092000  0.26509000  0.24449000  1.0
  N  N47  1  0.48908000  0.73491000  0.75550000  1.0
  O  O48  1  0.64353000  0.88475000  0.17832000  1.0
  O  O49  1  0.35648000  0.11525000  0.82168000  1.0
  O  O50  1  0.65740000  0.71572000  0.02697000  1.0
  O  O51  1  0.34260000  0.28428000  0.97303000  1.0
  O  O52  1  0.25945000  0.03777000  0.25904000  1.0
  O  O53  1  0.74055000  0.96223000  0.74096000  1.0
  O  O54  1  0.01825000  0.07621000  0.15320000  1.0
  O  O55  1  0.98175000  0.92379000  0.84680000  1.0
  O  O56  1  0.76979000  0.17972000  0.97361000  1.0
  O  O57  1  0.23020000  0.82029000  0.02638000  1.0
