# generated using pymatgen
data_Al6H71C95N5O28
_symmetry_space_group_name_H-M   'P 1'
_cell_length_a   12.80310000
_cell_length_b   12.86290000
_cell_length_c   27.70840000
_cell_angle_alpha   88.71070000
_cell_angle_beta   89.23830000
_cell_angle_gamma   60.35350000
_symmetry_Int_Tables_number   1
_chemical_formula_structural   Al6H71C95N5O28
_chemical_formula_sum   'Al6 H71 C95 N5 O28'
_cell_volume   3964.79562012
_cell_formula_units_Z   1
loop_
 _symmetry_equiv_pos_site_id
 _symmetry_equiv_pos_as_xyz
  1  'x, y, z'
loop_
 _atom_site_type_symbol
 _atom_site_label
 _atom_site_symmetry_multiplicity
 _atom_site_fract_x
 _atom_site_fract_y
 _atom_site_fract_z
 _atom_site_occupancy
  Al  Al0  1  0.58018000  0.81900000  0.50195000  1.0
  Al  Al1  1  0.33738000  0.07287000  0.50054000  1.0
  Al  Al2  1  0.57052000  0.07349000  0.49979000  1.0
  Al  Al3  1  0.10025000  0.83583000  0.01512000  1.0
  Al  Al4  1  0.08915000  0.59278000  0.01429000  1.0
  Al  Al5  1  0.33190000  0.57568000  0.01553000  1.0
  H  H6  1  0.12633000  0.42872000  0.78161000  1.0
  H  H7  1  0.24714000  0.20187000  0.73879000  1.0
  H  H8  1  0.44263000  0.13322000  0.80322000  1.0
  H  H9  1  0.55182000  0.21775000  0.73443000  1.0
  H  H10  1  0.43493000  0.44159000  0.77623000  1.0
  H  H11  1  0.87316000  0.98878000  0.78569000  1.0
  H  H12  1  0.99700000  0.80935000  0.71537000  1.0
  H  H13  1  0.65203000  0.04103000  0.74226000  1.0
  H  H14  1  0.63946000  0.87186000  0.80556000  1.0
  H  H15  1  0.76240000  0.69251000  0.73506000  1.0
  H  H16  1  0.98384000  0.63884000  0.77830000  1.0
  H  H17  1  0.54489000  0.77383000  0.78777000  1.0
  H  H18  1  0.40243000  0.99238000  0.73722000  1.0
  H  H19  1  0.12955000  0.92286000  0.73615000  1.0
  H  H20  1  0.19777000  0.24598000  0.38011000  1.0
  H  H21  1  0.47366000  0.28467000  0.12540000  1.0
  H  H22  1  0.17406000  0.28340000  0.29130000  1.0
  H  H23  1  0.12299000  0.44626000  0.23571000  1.0
  H  H24  1  0.09242000  0.49779000  0.14803000  1.0
  H  H25  1  0.47665000  0.34292000  0.28930000  1.0
  H  H26  1  0.50009000  0.30443000  0.37781000  1.0
  H  H27  1  0.78057000  0.70236000  0.22026000  1.0
  H  H28  1  0.83591000  0.67936000  0.13313000  1.0
  H  H29  1  0.82461000  0.98739000  0.28250000  1.0
  H  H30  1  0.99012000  0.87648000  0.24101000  1.0
  H  H31  1  0.03309000  0.86466000  0.15304000  1.0
  H  H32  1  0.78407000  0.70201000  0.39123000  1.0
  H  H33  1  0.50730000  0.69951000  0.38469000  1.0
  H  H34  1  0.16915000  0.96346000  0.21790000  1.0
  H  H35  1  0.16400000  0.91874000  0.13176000  1.0
  H  H36  1  0.49635000  0.66050000  0.29790000  1.0
  H  H37  1  0.53590000  0.67606000  0.22500000  1.0
  H  H38  1  0.21779000  0.02769000  0.27716000  1.0
  H  H39  1  0.22257000  0.06086000  0.36468000  1.0
  H  H40  1  0.65085000  0.55780000  0.76245000  1.0
  H  H41  1  0.54577000  0.51535000  0.78224000  1.0
  H  H42  1  0.63872000  0.44464000  0.73164000  1.0
  H  H43  1  0.43858000  0.59199000  0.69898000  1.0
  H  H44  1  0.53931000  0.64434000  0.68561000  1.0
  H  H45  1  0.11419000  0.11917000  0.78513000  1.0
  H  H46  1  0.13860000  0.17958000  0.86260000  1.0
  H  H47  1  0.27715000  0.13762000  0.83212000  1.0
  H  H48  1  0.26424000  0.03594000  0.87331000  1.0
  H  H49  1  0.33020000  0.61074000  0.80285000  1.0
  H  H50  1  0.13190000  0.66422000  0.82534000  1.0
  H  H51  1  0.07966000  0.80706000  0.79713000  1.0
  H  H52  1  0.16460000  0.77081000  0.85119000  1.0
  H  H53  1  0.23240000  0.60514000  0.72654000  1.0
  H  H54  1  0.11558000  0.64850000  0.65354000  1.0
  H  H55  1  0.05588000  0.58026000  0.69382000  1.0
  H  H56  1  0.16226000  0.49462000  0.64852000  1.0
  H  H57  1  0.58887000  0.17202000  0.18561000  1.0
  H  H58  1  0.64029000  0.01807000  0.23609000  1.0
  H  H59  1  0.48599000  0.05840000  0.23137000  1.0
  H  H60  1  0.53706000  0.10770000  0.28087000  1.0
  H  H61  1  0.84818000  0.12848000  0.31729000  1.0
  H  H62  1  0.69682000  0.17940000  0.30041000  1.0
  H  H63  1  0.72951000  0.25259000  0.34647000  1.0
  H  H64  1  0.65592000  0.12752000  0.38545000  1.0
  H  H65  1  0.80483000  0.07438000  0.40080000  1.0
  H  H66  1  0.92433000  0.58734000  0.27439000  1.0
  H  H67  1  0.92274000  0.43520000  0.31857000  1.0
  H  H68  1  0.80443000  0.53804000  0.35589000  1.0
  H  H69  1  0.95447000  0.50532000  0.36690000  1.0
  H  H70  1  0.56358000  0.45982000  0.18901000  1.0
  H  H71  1  0.49015000  0.46978000  0.13368000  1.0
  H  H72  1  0.64980000  0.39740000  0.13574000  1.0
  H  H73  1  0.56592000  0.60162000  0.09817000  1.0
  H  H74  1  0.63881000  0.59284000  0.15322000  1.0
  H  H75  1  0.69680000  0.62211000  0.53134000  1.0
  H  H76  1  0.01054000  0.03355000  0.98567000  1.0
  C  C77  1  0.36825000  0.90364000  0.56997000  1.0
  C  C78  1  0.38643000  0.20713000  0.56838000  1.0
  C  C79  1  0.70482000  0.90346000  0.57010000  1.0
  C  C80  1  0.37895000  0.90589000  0.43085000  1.0
  C  C81  1  0.38115000  0.22040000  0.43443000  1.0
  C  C82  1  0.70747000  0.90256000  0.43240000  1.0
  C  C83  1  0.28387000  0.43041000  0.73273000  1.0
  C  C84  1  0.22072000  0.38228000  0.77044000  1.0
  C  C85  1  0.30394000  0.39881000  0.89890000  1.0
  C  C86  1  0.36677000  0.25390000  0.61612000  1.0
  C  C87  1  0.39145000  0.38962000  0.76792000  1.0
  C  C88  1  0.32880000  0.34572000  0.80651000  1.0
  C  C89  1  0.45736000  0.26375000  0.74520000  1.0
  C  C90  1  0.35020000  0.29936000  0.70887000  1.0
  C  C91  1  0.39669000  0.21731000  0.78256000  1.0
  C  C92  1  0.28799000  0.25610000  0.74771000  1.0
  C  C93  1  0.31727000  0.37146000  0.85642000  1.0
  C  C94  1  0.35985000  0.27550000  0.65909000  1.0
  C  C95  1  0.91807000  0.82317000  0.73607000  1.0
  C  C96  1  0.84871000  0.92308000  0.77391000  1.0
  C  C97  1  0.89839000  0.79563000  0.90112000  1.0
  C  C98  1  0.75108000  0.88287000  0.61849000  1.0
  C  C99  1  0.90997000  0.72839000  0.76975000  1.0
  C  C100  1  0.84172000  0.82794000  0.80901000  1.0
  C  C101  1  0.78734000  0.75789000  0.74680000  1.0
  C  C102  1  0.79486000  0.85291000  0.71175000  1.0
  C  C103  1  0.71846000  0.85760000  0.78478000  1.0
  C  C104  1  0.72632000  0.95205000  0.75090000  1.0
  C  C105  1  0.86885000  0.81198000  0.85880000  1.0
  C  C106  1  0.77208000  0.86817000  0.66163000  1.0
  C  C107  1  0.41218000  0.74084000  0.74046000  1.0
  C  C108  1  0.45252000  0.80756000  0.77582000  1.0
  C  C109  1  0.34894000  0.77796000  0.90341000  1.0
  C  C110  1  0.33576000  0.88950000  0.61856000  1.0
  C  C111  1  0.30223000  0.76691000  0.77413000  1.0
  C  C112  1  0.34737000  0.83251000  0.81169000  1.0
  C  C113  1  0.22232000  0.88896000  0.74786000  1.0
  C  C114  1  0.32953000  0.86456000  0.71284000  1.0
  C  C115  1  0.26186000  0.95448000  0.78381000  1.0
  C  C116  1  0.37328000  0.92897000  0.74896000  1.0
  C  C117  1  0.35273000  0.80636000  0.86129000  1.0
  C  C118  1  0.32718000  0.88038000  0.66216000  1.0
  C  C119  1  0.35228000  0.26944000  0.38440000  1.0
  C  C120  1  0.25741000  0.26879000  0.35990000  1.0
  C  C121  1  0.24457000  0.29002000  0.31030000  1.0
  C  C122  1  0.32541000  0.31319000  0.28366000  1.0
  C  C123  1  0.41519000  0.32189000  0.30916000  1.0
  C  C124  1  0.42862000  0.30024000  0.35866000  1.0
  C  C125  1  0.41449000  0.28087000  0.19857000  1.0
  C  C126  1  0.39671000  0.31903000  0.14990000  1.0
  C  C127  1  0.18167000  0.43783000  0.16230000  1.0
  C  C128  1  0.19948000  0.40711000  0.21102000  1.0
  C  C129  1  0.31408000  0.33161000  0.23064000  1.0
  C  C130  1  0.28238000  0.39608000  0.13172000  1.0
  C  C131  1  0.76372000  0.87600000  0.38363000  1.0
  C  C132  1  0.77737000  0.95993000  0.35412000  1.0
  C  C133  1  0.81807000  0.92386000  0.30721000  1.0
  C  C134  1  0.84618000  0.81256000  0.28847000  1.0
  C  C135  1  0.83858000  0.72707000  0.31954000  1.0
  C  C136  1  0.79572000  0.76236000  0.36648000  1.0
  C  C137  1  0.83908000  0.73494000  0.20598000  1.0
  C  C138  1  0.86800000  0.72374000  0.15701000  1.0
  C  C139  1  0.97837000  0.82903000  0.16835000  1.0
  C  C140  1  0.95314000  0.83633000  0.21729000  1.0
  C  C141  1  0.88108000  0.79153000  0.23717000  1.0
  C  C142  1  0.93674000  0.77211000  0.13773000  1.0
  C  C143  1  0.36495000  0.88215000  0.37986000  1.0
  C  C144  1  0.44298000  0.76962000  0.36065000  1.0
  C  C145  1  0.43762000  0.74946000  0.31196000  1.0
  C  C146  1  0.35687000  0.84144000  0.28069000  1.0
  C  C147  1  0.27933000  0.95394000  0.30057000  1.0
  C  C148  1  0.28215000  0.97363000  0.34950000  1.0
  C  C149  1  0.24830000  0.89019000  0.20137000  1.0
  C  C150  1  0.24402000  0.86452000  0.15343000  1.0
  C  C151  1  0.44866000  0.69699000  0.15738000  1.0
  C  C152  1  0.45165000  0.72737000  0.20533000  1.0
  C  C153  1  0.35245000  0.81978000  0.22887000  1.0
  C  C154  1  0.34075000  0.76570000  0.13135000  1.0
  C  C155  1  0.95503000  0.76641000  0.94771000  1.0
  C  C156  1  0.27981000  0.44913000  0.94637000  1.0
  C  C157  1  0.30965000  0.75096000  0.94820000  1.0
  C  C158  1  0.97447000  0.75962000  0.08636000  1.0
  C  C159  1  0.26495000  0.44153000  0.08113000  1.0
  C  C160  1  0.31549000  0.73727000  0.08256000  1.0
  C  C161  1  0.49354000  0.62557000  0.71573000  1.0
  C  C162  1  0.58708000  0.53065000  0.74976000  1.0
  C  C163  1  0.21661000  0.10514000  0.84544000  1.0
  C  C164  1  0.15449000  0.73450000  0.81708000  1.0
  C  C165  1  0.13767000  0.56669000  0.67437000  1.0
  C  C166  1  0.54805000  0.09004000  0.24206000  1.0
  C  C167  1  0.74696000  0.08349000  0.37011000  1.0
  C  C168  1  0.75610000  0.16472000  0.33126000  1.0
  C  C169  1  0.88945000  0.51877000  0.33827000  1.0
  C  C170  1  0.56065000  0.59222000  0.13739000  1.0
  C  C171  1  0.56650000  0.47253000  0.14973000  1.0
  N  N172  1  0.17551000  0.05596000  0.80798000  1.0
  N  N173  1  0.26258000  0.68512000  0.78640000  1.0
  N  N174  1  0.23925000  0.53667000  0.70583000  1.0
  N  N175  1  0.52951000  0.19509000  0.21342000  1.0
  N  N176  1  0.87098000  0.61345000  0.30409000  1.0
  O  O177  1  0.68476000  0.82486000  0.55301000  1.0
  O  O178  1  0.47348000  0.82925000  0.55680000  1.0
  O  O179  1  0.28981000  0.99369000  0.54463000  1.0
  O  O180  1  0.31048000  0.17901000  0.55241000  1.0
  O  O181  1  0.48126000  0.19181000  0.54620000  1.0
  O  O182  1  0.68330000  0.00275000  0.54931000  1.0
  O  O183  1  0.67819000  0.82939000  0.45039000  1.0
  O  O184  1  0.46891000  0.82663000  0.45367000  1.0
  O  O185  1  0.30112000  0.00851000  0.44792000  1.0
  O  O186  1  0.30439000  0.20118000  0.45725000  1.0
  O  O187  1  0.48557000  0.19110000  0.45080000  1.0
  O  O188  1  0.68795000  0.99969000  0.45329000  1.0
  O  O189  1  0.49522000  0.99046000  0.50139000  1.0
  O  O190  1  0.20230000  0.82448000  0.95998000  1.0
  O  O191  1  0.98445000  0.83752000  0.96547000  1.0
  O  O192  1  0.97579000  0.66470000  0.96631000  1.0
  O  O193  1  0.17897000  0.47524000  0.96575000  1.0
  O  O194  1  0.35984000  0.46884000  0.96459000  1.0
  O  O195  1  0.38229000  0.65418000  0.97149000  1.0
  O  O196  1  0.22464000  0.81730000  0.06041000  1.0
  O  O197  1  0.00986000  0.82969000  0.07029000  1.0
  O  O198  1  0.97353000  0.67562000  0.06198000  1.0
  O  O199  1  0.16256000  0.47385000  0.06188000  1.0
  O  O200  1  0.34910000  0.45243000  0.06038000  1.0
  O  O201  1  0.38298000  0.63009000  0.06662000  1.0
  O  O202  1  0.17460000  0.66558000  0.01433000  1.0
  O  O203  1  0.65657000  0.66174000  0.50167000  1.0
  O  O204  1  0.02700000  0.99257000  0.01664000  1.0
