# generated using pymatgen
data_Zn4H20(C8O5)5
_symmetry_space_group_name_H-M   'P 1'
_cell_length_a   23.78616444
_cell_length_b   23.78640000
_cell_length_c   23.78480000
_cell_angle_alpha   66.51870000
_cell_angle_beta   72.49259261
_cell_angle_gamma   107.50325922
_symmetry_Int_Tables_number   1
_chemical_formula_structural   Zn4H20(C8O5)5
_chemical_formula_sum   'Zn8 H40 C80 O50'
_cell_volume   10320.68171303
_cell_formula_units_Z   2
loop_
 _symmetry_equiv_pos_site_id
 _symmetry_equiv_pos_as_xyz
  1  'x, y, z'
loop_
 _atom_site_type_symbol
 _atom_site_label
 _atom_site_symmetry_multiplicity
 _atom_site_fract_x
 _atom_site_fract_y
 _atom_site_fract_z
 _atom_site_occupancy
  Zn  Zn0  1  0.05766000  0.09976000  0.45789000  1.0
  Zn  Zn1  1  0.05766000  0.95789000  0.48444000  1.0
  Zn  Zn2  1  0.94233000  0.95788000  0.59978000  1.0
  Zn  Zn3  1  0.94235000  0.98446000  0.45788000  1.0
  Zn  Zn4  1  0.94234000  0.40024000  0.04211000  1.0
  Zn  Zn5  1  0.05767000  0.54212000  0.90022000  1.0
  Zn  Zn6  1  0.94234000  0.54211000  0.01555000  1.0
  Zn  Zn7  1  0.05765000  0.51555000  0.04212000  1.0
  H  H8  1  0.92296000  0.27061000  0.96481000  1.0
  H  H9  1  0.07703000  0.46481000  0.77058000  1.0
  H  H10  1  0.92296000  0.03519000  0.72942000  1.0
  H  H11  1  0.07698000  0.22940000  0.53518000  1.0
  H  H12  1  0.07705000  0.61227000  0.15233000  1.0
  H  H13  1  0.92297000  0.65239000  0.11221000  1.0
  H  H14  1  0.07699000  0.84758000  0.38782000  1.0
  H  H15  1  0.92297000  0.88778000  0.34763000  1.0
  H  H16  1  0.73540000  0.27060000  0.15240000  1.0
  H  H17  1  0.73540000  0.46481000  0.11221000  1.0
  H  H18  1  0.26460000  0.03519000  0.38780000  1.0
  H  H19  1  0.26460000  0.22938000  0.34767000  1.0
  H  H20  1  0.26461000  0.65243000  0.77059000  1.0
  H  H21  1  0.26459000  0.61220000  0.96483000  1.0
  H  H22  1  0.73541000  0.88780000  0.53517000  1.0
  H  H23  1  0.73539000  0.84764000  0.72940000  1.0
  H  H24  1  0.91944000  0.08211000  0.33733000  1.0
  H  H25  1  0.08056000  0.41789000  0.16267000  1.0
  H  H26  1  0.91944000  0.25677000  0.16267000  1.0
  H  H27  1  0.08057000  0.24323000  0.33733000  1.0
  H  H28  1  0.91944000  0.83733000  0.74324000  1.0
  H  H29  1  0.08057000  0.66268000  0.75675000  1.0
  H  H30  1  0.91944000  0.66266000  0.91791000  1.0
  H  H31  1  0.08056000  0.83734000  0.58209000  1.0
  H  H32  1  0.08024000  0.37981000  0.67757000  1.0
  H  H33  1  0.91975000  0.17760000  0.87981000  1.0
  H  H34  1  0.08018000  0.32242000  0.62016000  1.0
  H  H35  1  0.91978000  0.12019000  0.82243000  1.0
  H  H36  1  0.91976000  0.74218000  0.20042000  1.0
  H  H37  1  0.08025000  0.70047000  0.24214000  1.0
  H  H38  1  0.91978000  0.79959000  0.25780000  1.0
  H  H39  1  0.08018000  0.75776000  0.29963000  1.0
  H  H40  1  0.55739000  0.37981000  0.20040000  1.0
  H  H41  1  0.55740000  0.17760000  0.24222000  1.0
  H  H42  1  0.44261000  0.32239000  0.25787000  1.0
  H  H43  1  0.44261000  0.12019000  0.29958000  1.0
  H  H44  1  0.44259000  0.70038000  0.87984000  1.0
  H  H45  1  0.44261000  0.74224000  0.67758000  1.0
  H  H46  1  0.55738000  0.75784000  0.82240000  1.0
  H  H47  1  0.55741000  0.79959000  0.62017000  1.0
  C  C48  1  0.18252000  0.09125000  0.40875000  1.0
  C  C49  1  1.00000000  0.86036000  0.63964000  1.0
  C  C50  1  0.99998000  0.09125000  0.59127000  1.0
  C  C51  1  0.81748000  0.90875000  0.59124000  1.0
  C  C52  1  0.00001000  0.13964000  0.36035000  1.0
  C  C53  1  0.99999000  0.90873000  0.40875000  1.0
  C  C54  1  1.00000000  0.40875000  0.90873000  1.0
  C  C55  1  0.00001000  0.63964000  0.86035000  1.0
  C  C56  1  0.81748000  0.40874000  0.09127000  1.0
  C  C57  1  0.00000000  0.59128000  0.09124000  1.0
  C  C58  1  0.00000000  0.36036000  0.13964000  1.0
  C  C59  1  0.18252000  0.59127000  0.90875000  1.0
  C  C60  1  0.00000000  0.19575000  0.30425000  1.0
  C  C61  1  0.00000000  0.30425000  0.19575000  1.0
  C  C62  1  0.95608000  0.17918000  0.27690000  1.0
  C  C63  1  0.04393000  0.32083000  0.22309000  1.0
  C  C64  1  0.95608000  0.23298000  0.22309000  1.0
  C  C65  1  0.04393000  0.26703000  0.27690000  1.0
  C  C66  1  1.00000000  0.80425000  0.69575000  1.0
  C  C67  1  1.00000000  0.69575000  0.80425000  1.0
  C  C68  1  0.95607000  0.77689000  0.76704000  1.0
  C  C69  1  0.04393000  0.72310000  0.73296000  1.0
  C  C70  1  0.95608000  0.72310000  0.82083000  1.0
  C  C71  1  0.04393000  0.77691000  0.67916000  1.0
  C  C72  1  1.00000000  0.37123000  0.87120000  1.0
  C  C73  1  0.95646000  0.29920000  0.90885000  1.0
  C  C74  1  0.95644000  0.26429000  0.87393000  1.0
  C  C75  1  0.99999000  0.30089000  0.80087000  1.0
  C  C76  1  0.04355000  0.37394000  0.76427000  1.0
  C  C77  1  0.04353000  0.40886000  0.79918000  1.0
  C  C78  1  0.99998000  0.26548000  0.76547000  1.0
  C  C79  1  0.99998000  0.23453000  0.73452000  1.0
  C  C80  1  0.99997000  0.19912000  0.69912000  1.0
  C  C81  1  0.95644000  0.12608000  0.73572000  1.0
  C  C82  1  0.95645000  0.09114000  0.70082000  1.0
  C  C83  1  0.99997000  0.12878000  0.62879000  1.0
  C  C84  1  0.04349000  0.20080000  0.59114000  1.0
  C  C85  1  0.04351000  0.23572000  0.62606000  1.0
  C  C86  1  0.00001000  0.62882000  0.12876000  1.0
  C  C87  1  0.04355000  0.63472000  0.15724000  1.0
  C  C88  1  0.04356000  0.66965000  0.19214000  1.0
  C  C89  1  0.00001000  0.69915000  0.19909000  1.0
  C  C90  1  0.95645000  0.69218000  0.16961000  1.0
  C  C91  1  0.95647000  0.65730000  0.13466000  1.0
  C  C92  1  0.00000000  0.73454000  0.23451000  1.0
  C  C93  1  0.99999000  0.76547000  0.26548000  1.0
  C  C94  1  0.99998000  0.80086000  0.30090000  1.0
  C  C95  1  0.04352000  0.80780000  0.33041000  1.0
  C  C96  1  0.04350000  0.84269000  0.36536000  1.0
  C  C97  1  0.99998000  0.87119000  0.37123000  1.0
  C  C98  1  0.95645000  0.86530000  0.34274000  1.0
  C  C99  1  0.95644000  0.83037000  0.30784000  1.0
  C  C100  1  0.74243000  0.37122000  0.12879000  1.0
  C  C101  1  0.70805000  0.29920000  0.15729000  1.0
  C  C102  1  0.63821000  0.26429000  0.19219000  1.0
  C  C103  1  0.60176000  0.30088000  0.19913000  1.0
  C  C104  1  0.63821000  0.37393000  0.16961000  1.0
  C  C105  1  0.70805000  0.40887000  0.13467000  1.0
  C  C106  1  0.53095000  0.26548000  0.23454000  1.0
  C  C107  1  0.46905000  0.23451000  0.26551000  1.0
  C  C108  1  0.39824000  0.19910000  0.30092000  1.0
  C  C109  1  0.36179000  0.12606000  0.33041000  1.0
  C  C110  1  0.29196000  0.09114000  0.36535000  1.0
  C  C111  1  0.25758000  0.12878000  0.37124000  1.0
  C  C112  1  0.29195000  0.20079000  0.34277000  1.0
  C  C113  1  0.36179000  0.23570000  0.30788000  1.0
  C  C114  1  0.25757000  0.62880000  0.87123000  1.0
  C  C115  1  0.29196000  0.65731000  0.79919000  1.0
  C  C116  1  0.36179000  0.69220000  0.76429000  1.0
  C  C117  1  0.39824000  0.69914000  0.80089000  1.0
  C  C118  1  0.36178000  0.66961000  0.87395000  1.0
  C  C119  1  0.29195000  0.63468000  0.90887000  1.0
  C  C120  1  0.46905000  0.73454000  0.76548000  1.0
  C  C121  1  0.53095000  0.76550000  0.73451000  1.0
  C  C122  1  0.60176000  0.80090000  0.69910000  1.0
  C  C123  1  0.63822000  0.83041000  0.62605000  1.0
  C  C124  1  0.70805000  0.86534000  0.59112000  1.0
  C  C125  1  0.74243000  0.87124000  0.62877000  1.0
  C  C126  1  0.70804000  0.84274000  0.70080000  1.0
  C  C127  1  0.63821000  0.80786000  0.73570000  1.0
  O  O128  1  0.00000000  0.00000000  0.50000000  1.0
  O  O129  1  0.15336000  0.12782000  0.41254000  1.0
  O  O130  1  0.04024000  0.88420000  0.57556000  1.0
  O  O131  1  0.95963000  0.02552000  0.62784000  1.0
  O  O132  1  0.15336000  0.02553000  0.43411000  1.0
  O  O133  1  0.04034000  0.12781000  0.52554000  1.0
  O  O134  1  0.95975000  0.88419000  0.65605000  1.0
  O  O135  1  0.84664000  0.91254000  0.62781000  1.0
  O  O136  1  0.95977000  0.07557000  0.38418000  1.0
  O  O137  1  0.84665000  0.93413000  0.52551000  1.0
  O  O138  1  0.04025000  0.15605000  0.38419000  1.0
  O  O139  1  0.04035000  0.91253000  0.43411000  1.0
  O  O140  1  0.95965000  0.93412000  0.41252000  1.0
  O  O141  1  1.00000000  0.50000000  0.00000000  1.0
  O  O142  1  0.95964000  0.37219000  0.97446000  1.0
  O  O143  1  0.04025000  0.61581000  0.84395000  1.0
  O  O144  1  0.84664000  0.47447000  0.06590000  1.0
  O  O145  1  0.04037000  0.47448000  0.87216000  1.0
  O  O146  1  0.84664000  0.37218000  0.08748000  1.0
  O  O147  1  0.95976000  0.61580000  0.92444000  1.0
  O  O148  1  0.95964000  0.58748000  0.06588000  1.0
  O  O149  1  0.04024000  0.42445000  0.11581000  1.0
  O  O150  1  0.04035000  0.56590000  0.08746000  1.0
  O  O151  1  0.95975000  0.34395000  0.11581000  1.0
  O  O152  1  0.15336000  0.58747000  0.87219000  1.0
  O  O153  1  0.15335000  0.56588000  0.97449000  1.0
  O  O154  1  0.91294000  0.11301000  0.29994000  1.0
  O  O155  1  0.08706000  0.38699000  0.20007000  1.0
  O  O156  1  0.91294000  0.21287000  0.20007000  1.0
  O  O157  1  0.08706000  0.28712000  0.29993000  1.0
  O  O158  1  0.91294000  0.79993000  0.78714000  1.0
  O  O159  1  0.08706000  0.70007000  0.71286000  1.0
  O  O160  1  0.91294000  0.70006000  0.88701000  1.0
  O  O161  1  0.08706000  0.79994000  0.61299000  1.0
  O  O162  1  0.08632000  0.41152000  0.69421000  1.0
  O  O163  1  0.91367000  0.19425000  0.91152000  1.0
  O  O164  1  0.08627000  0.30578000  0.58845000  1.0
  O  O165  1  0.91368000  0.08848000  0.80579000  1.0
  O  O166  1  0.91368000  0.71946000  0.17479000  1.0
  O  O167  1  0.08634000  0.67485000  0.21940000  1.0
  O  O168  1  0.91368000  0.82520000  0.28055000  1.0
  O  O169  1  0.08627000  0.78050000  0.32525000  1.0
  O  O170  1  0.60575000  0.41153000  0.17478000  1.0
  O  O171  1  0.60575000  0.19424000  0.21948000  1.0
  O  O172  1  0.39425000  0.30574000  0.28062000  1.0
  O  O173  1  0.39426000  0.08848000  0.32521000  1.0
  O  O174  1  0.39424000  0.67477000  0.91155000  1.0
  O  O175  1  0.39426000  0.71951000  0.69422000  1.0
  O  O176  1  0.60574000  0.78058000  0.80575000  1.0
  O  O177  1  0.60576000  0.82523000  0.58846000  1.0
