# generated using pymatgen
data_Al2H5C12NO12
_symmetry_space_group_name_H-M   'P 1'
_cell_length_a   6.68939000
_cell_length_b   14.78530000
_cell_length_c   16.75920000
_cell_angle_alpha   93.62180000
_cell_angle_beta   89.99920000
_cell_angle_gamma   89.99970000
_symmetry_Int_Tables_number   1
_chemical_formula_structural   Al2H5C12NO12
_chemical_formula_sum   'Al4 H10 C24 N2 O24'
_cell_volume   1654.25206726
_cell_formula_units_Z   2
loop_
 _symmetry_equiv_pos_site_id
 _symmetry_equiv_pos_as_xyz
  1  'x, y, z'
loop_
 _atom_site_type_symbol
 _atom_site_label
 _atom_site_symmetry_multiplicity
 _atom_site_fract_x
 _atom_site_fract_y
 _atom_site_fract_z
 _atom_site_occupancy
  Al  Al0  1  0.88623000  0.49908000  0.49964000  1.0
  Al  Al1  1  0.38624000  0.50093000  0.50035000  1.0
  Al  Al2  1  0.37122000  0.99997000  0.00056000  1.0
  Al  Al3  1  0.87121000  0.00007000  0.99943000  1.0
  H  H4  1  0.42508000  0.18166000  0.19727000  1.0
  H  H5  1  0.92499000  0.81851000  0.80255000  1.0
  H  H6  1  0.96387000  0.18837000  0.20921000  1.0
  H  H7  1  0.46376000  0.81163000  0.79081000  1.0
  H  H8  1  0.98945000  0.31475000  0.28926000  1.0
  H  H9  1  0.48954000  0.68511000  0.71088000  1.0
  H  H10  1  0.63391000  0.38063000  0.48401000  1.0
  H  H11  1  0.13388000  0.61942000  0.51566000  1.0
  H  H12  1  0.62060000  0.11502000  0.98236000  1.0
  H  H13  1  0.12058000  0.88500000  0.01760000  1.0
  C  C14  1  0.63657000  0.60693000  0.39644000  1.0
  C  C15  1  0.13652000  0.39312000  0.60356000  1.0
  C  C16  1  0.63811000  0.61089000  0.61186000  1.0
  C  C17  1  0.13822000  0.38913000  0.38811000  1.0
  C  C18  1  0.28117000  0.20420000  0.22222000  1.0
  C  C19  1  0.78108000  0.79592000  0.77766000  1.0
  C  C20  1  0.11319000  0.17102000  0.18706000  1.0
  C  C21  1  0.61315000  0.82901000  0.81290000  1.0
  C  C22  1  0.28564000  0.26871000  0.29121000  1.0
  C  C23  1  0.78547000  0.73145000  0.70864000  1.0
  C  C24  1  0.13365000  0.32146000  0.31940000  1.0
  C  C25  1  0.63358000  0.67855000  0.68059000  1.0
  C  C26  1  0.12451000  0.16959000  0.83399000  1.0
  C  C27  1  0.62445000  0.83049000  0.16606000  1.0
  C  C28  1  0.12843000  0.22219000  0.78054000  1.0
  C  C29  1  0.62831000  0.77789000  0.21950000  1.0
  C  C30  1  0.13217000  0.28017000  0.72150000  1.0
  C  C31  1  0.63209000  0.71988000  0.27852000  1.0
  C  C32  1  0.13586000  0.33260000  0.66795000  1.0
  C  C33  1  0.63581000  0.66745000  0.33207000  1.0
  C  C34  1  0.62015000  0.89140000  0.88559000  1.0
  C  C35  1  0.12015000  0.10862000  0.11439000  1.0
  C  C36  1  0.62240000  0.89252000  0.10320000  1.0
  C  C37  1  0.12245000  0.10755000  0.89682000  1.0
  N  N38  1  0.48782000  0.27488000  0.32877000  1.0
  N  N39  1  0.98745000  0.72549000  0.67088000  1.0
  O  O40  1  0.46717000  0.58605000  0.58512000  1.0
  O  O41  1  0.96732000  0.41386000  0.41496000  1.0
  O  O42  1  0.80702000  0.58284000  0.42112000  1.0
  O  O43  1  0.30695000  0.41707000  0.57875000  1.0
  O  O44  1  0.80687000  0.58297000  0.58562000  1.0
  O  O45  1  0.30702000  0.41717000  0.41423000  1.0
  O  O46  1  0.96587000  0.41524000  0.57773000  1.0
  O  O47  1  0.46592000  0.58491000  0.42238000  1.0
  O  O48  1  0.63546000  0.44564000  0.49655000  1.0
  O  O49  1  0.13545000  0.55436000  0.50341000  1.0
  O  O50  1  0.79202000  0.91694000  0.07768000  1.0
  O  O51  1  0.29209000  0.08308000  0.92228000  1.0
  O  O52  1  0.45013000  0.91484000  0.91462000  1.0
  O  O53  1  0.95010000  0.08514000  0.08541000  1.0
  O  O54  1  0.45175000  0.91677000  0.07856000  1.0
  O  O55  1  0.95179000  0.08332000  0.92147000  1.0
  O  O56  1  0.29077000  0.08498000  0.08630000  1.0
  O  O57  1  0.79081000  0.91508000  0.91365000  1.0
  O  O58  1  0.62116000  0.05472000  0.00197000  1.0
  O  O59  1  0.12116000  0.94531000  0.99799000  1.0
  O  O60  1  0.62231000  0.30239000  0.28565000  1.0
  O  O61  1  0.50885000  0.24855000  0.39658000  1.0
  O  O62  1  0.12234000  0.69805000  0.71384000  1.0
  O  O63  1  0.00788000  0.75191000  0.60308000  1.0
