# generated using pymatgen
data_CuH16C16S2Br
_symmetry_space_group_name_H-M   'P 1'
_cell_length_a   11.44750000
_cell_length_b   11.94660000
_cell_length_c   12.05840000
_cell_angle_alpha   109.56100000
_cell_angle_beta   91.40890000
_cell_angle_gamma   93.16680000
_symmetry_Int_Tables_number   1
_chemical_formula_structural   CuH16C16S2Br
_chemical_formula_sum   'Cu4 H64 C64 S8 Br4'
_cell_volume   1549.91429298
_cell_formula_units_Z   4
loop_
 _symmetry_equiv_pos_site_id
 _symmetry_equiv_pos_as_xyz
  1  'x, y, z'
loop_
 _atom_site_type_symbol
 _atom_site_label
 _atom_site_symmetry_multiplicity
 _atom_site_fract_x
 _atom_site_fract_y
 _atom_site_fract_z
 _atom_site_occupancy
  Cu  Cu0  1  0.57733000  0.98434000  0.91582000  1.0
  Cu  Cu1  1  0.42267000  0.01567000  0.08418000  1.0
  Cu  Cu2  1  0.92838000  0.43231000  0.89921000  1.0
  Cu  Cu3  1  0.07162000  0.56770000  0.10079000  1.0
  H  H4  1  0.00437000  0.88996000  0.03919000  1.0
  H  H5  1  0.99563000  0.11004000  0.96081000  1.0
  H  H6  1  0.79554000  0.96507000  0.08450000  1.0
  H  H7  1  0.20446000  0.03494000  0.91550000  1.0
  H  H8  1  0.80435000  0.85256000  0.94826000  1.0
  H  H9  1  0.19565000  0.14744000  0.05174000  1.0
  H  H10  1  0.85739000  0.17721000  0.79585000  1.0
  H  H11  1  0.14261000  0.82279000  0.20415000  1.0
  H  H12  1  0.89873000  0.12050000  0.58355000  1.0
  H  H13  1  0.10127000  0.87950000  0.41645000  1.0
  H  H14  1  0.88481000  0.90533000  0.45677000  1.0
  H  H15  1  0.11519000  0.09468000  0.54323000  1.0
  H  H16  1  0.83175000  0.74979000  0.54473000  1.0
  H  H17  1  0.16825000  0.25021000  0.45527000  1.0
  H  H18  1  0.78530000  0.80721000  0.75540000  1.0
  H  H19  1  0.21470000  0.19279000  0.24460000  1.0
  H  H20  1  0.47964000  0.08157000  0.70396000  1.0
  H  H21  1  0.52036000  0.91844000  0.29604000  1.0
  H  H22  1  0.62876000  0.04845000  0.69501000  1.0
  H  H23  1  0.37124000  0.95155000  0.30499000  1.0
  H  H24  1  0.58371000  0.89932000  0.48412000  1.0
  H  H25  1  0.41629000  0.10069000  0.51588000  1.0
  H  H26  1  0.39253000  0.74685000  0.82198000  1.0
  H  H27  1  0.60747000  0.25315000  0.17802000  1.0
  H  H28  1  0.17982000  0.70175000  0.83504000  1.0
  H  H29  1  0.82018000  0.29825000  0.16496000  1.0
  H  H30  1  0.03284000  0.79245000  0.74144000  1.0
  H  H31  1  0.96716000  0.20755000  0.25855000  1.0
  H  H32  1  0.09933000  0.92536000  0.63196000  1.0
  H  H33  1  0.90067000  0.07464000  0.36804000  1.0
  H  H34  1  0.31069000  0.97078000  0.61734000  1.0
  H  H35  1  0.68931000  0.02921000  0.38266000  1.0
  H  H36  1  0.90963000  0.39251000  0.47224000  1.0
  H  H37  1  0.09036000  0.60749000  0.52776000  1.0
  H  H38  1  0.87296000  0.52430000  0.68526000  1.0
  H  H39  1  0.12704000  0.47570000  0.31474000  1.0
  H  H40  1  0.02292000  0.57367000  0.70653000  1.0
  H  H41  1  0.97708000  0.42632000  0.29347000  1.0
  H  H42  1  0.19306000  0.49847000  0.64831000  1.0
  H  H43  1  0.80694000  0.50153000  0.35169000  1.0
  H  H44  1  0.40209000  0.46080000  0.66537000  1.0
  H  H45  1  0.59791000  0.53920000  0.33464000  1.0
  H  H46  1  0.46007000  0.29558000  0.73147000  1.0
  H  H47  1  0.53993000  0.70442000  0.26852000  1.0
  H  H48  1  0.30624000  0.16891000  0.78609000  1.0
  H  H49  1  0.69376000  0.83109000  0.21392000  1.0
  H  H50  1  0.09734000  0.20657000  0.77176000  1.0
  H  H51  1  0.90266000  0.79343000  0.22823000  1.0
  H  H52  1  0.69691000  0.43498000  0.08043000  1.0
  H  H53  1  0.30309000  0.56502000  0.91957000  1.0
  H  H54  1  0.70007000  0.56293000  0.03713000  1.0
  H  H55  1  0.29993000  0.43708000  0.96287000  1.0
  H  H56  1  0.49566000  0.36576000  0.98289000  1.0
  H  H57  1  0.50434000  0.63424000  0.01712000  1.0
  H  H58  1  0.69298000  0.26446000  0.63443000  1.0
  H  H59  1  0.30702000  0.73554000  0.36557000  1.0
  H  H60  1  0.64555000  0.34089000  0.47231000  1.0
  H  H61  1  0.35445000  0.65911000  0.52769000  1.0
  H  H62  1  0.60828000  0.55631000  0.51842000  1.0
  H  H63  1  0.39172000  0.44369000  0.48159000  1.0
  H  H64  1  0.61796000  0.69139000  0.72625000  1.0
  H  H65  1  0.38204000  0.30861000  0.27375000  1.0
  H  H66  1  0.67246000  0.61818000  0.88742000  1.0
  H  H67  1  0.32754000  0.38182000  0.11258000  1.0
  C  C68  1  0.96570000  0.95835000  0.01096000  1.0
  C  C69  1  0.03430000  0.04165000  0.98904000  1.0
  C  C70  1  0.83549000  0.94500000  0.99839000  1.0
  C  C71  1  0.16452000  0.05500000  0.00161000  1.0
  C  C72  1  0.81654000  0.99621000  0.78818000  1.0
  C  C73  1  0.18346000  0.00379000  0.21182000  1.0
  C  C74  1  0.85052000  0.08384000  0.73973000  1.0
  C  C75  1  0.14948000  0.91616000  0.26027000  1.0
  C  C76  1  0.87431000  0.05117000  0.62045000  1.0
  C  C77  1  0.12569000  0.94883000  0.37955000  1.0
  C  C78  1  0.86717000  0.93125000  0.54999000  1.0
  C  C79  1  0.13283000  0.06875000  0.45001000  1.0
  C  C80  1  0.83696000  0.84359000  0.59937000  1.0
  C  C81  1  0.16304000  0.15641000  0.40063000  1.0
  C  C82  1  0.81108000  0.87571000  0.71796000  1.0
  C  C83  1  0.18892000  0.12429000  0.28205000  1.0
  C  C84  1  0.53933000  0.01257000  0.66146000  1.0
  C  C85  1  0.46067000  0.98743000  0.33854000  1.0
  C  C86  1  0.53170000  0.97370000  0.53043000  1.0
  C  C87  1  0.46830000  0.02630000  0.46957000  1.0
  C  C88  1  0.36557000  0.86174000  0.71887000  1.0
  C  C89  1  0.63443000  0.13826000  0.28113000  1.0
  C  C90  1  0.32809000  0.78345000  0.77777000  1.0
  C  C91  1  0.67191000  0.21655000  0.22223000  1.0
  C  C92  1  0.20877000  0.75845000  0.78504000  1.0
  C  C93  1  0.79123000  0.24155000  0.21496000  1.0
  C  C94  1  0.12599000  0.80949000  0.73293000  1.0
  C  C95  1  0.87401000  0.19051000  0.26707000  1.0
  C  C96  1  0.16361000  0.88515000  0.67250000  1.0
  C  C97  1  0.83640000  0.11485000  0.32750000  1.0
  C  C98  1  0.28304000  0.91167000  0.66488000  1.0
  C  C99  1  0.71696000  0.08833000  0.33512000  1.0
  C  C100  1  0.96639000  0.46921000  0.52597000  1.0
  C  C101  1  0.03361000  0.53079000  0.47403000  1.0
  C  C102  1  0.96110000  0.49961000  0.65610000  1.0
  C  C103  1  0.03890000  0.50039000  0.34390000  1.0
  C  C104  1  0.13109000  0.35409000  0.70790000  1.0
  C  C105  1  0.86891000  0.64591000  0.29210000  1.0
  C  C106  1  0.21700000  0.42569000  0.67765000  1.0
  C  C107  1  0.78300000  0.57431000  0.32235000  1.0
  C  C108  1  0.33495000  0.40330000  0.68589000  1.0
  C  C109  1  0.66505000  0.59670000  0.31411000  1.0
  C  C110  1  0.36776000  0.31023000  0.72294000  1.0
  C  C111  1  0.63223000  0.68977000  0.27706000  1.0
  C  C112  1  0.28169000  0.23918000  0.75295000  1.0
  C  C113  1  0.71832000  0.76081000  0.24704000  1.0
  C  C114  1  0.16394000  0.26040000  0.74545000  1.0
  C  C115  1  0.83606000  0.73960000  0.25455000  1.0
  C  C116  1  0.66401000  0.47048000  0.01333000  1.0
  C  C117  1  0.33599000  0.52952000  0.98667000  1.0
  C  C118  1  0.53411000  0.45592000  0.99868000  1.0
  C  C119  1  0.46589000  0.54408000  0.00132000  1.0
  C  C120  1  0.68676000  0.43624000  0.77152000  1.0
  C  C121  1  0.31324000  0.56376000  0.22848000  1.0
  C  C122  1  0.67800000  0.35844000  0.65421000  1.0
  C  C123  1  0.32199000  0.64155000  0.34579000  1.0
  C  C124  1  0.65091000  0.40175000  0.56315000  1.0
  C  C125  1  0.34909000  0.59825000  0.43685000  1.0
  C  C126  1  0.63012000  0.52184000  0.58872000  1.0
  C  C127  1  0.36988000  0.47815000  0.41128000  1.0
  C  C128  1  0.63617000  0.59817000  0.70571000  1.0
  C  C129  1  0.36383000  0.40183000  0.29429000  1.0
  C  C130  1  0.66551000  0.55657000  0.79721000  1.0
  C  C131  1  0.33449000  0.44343000  0.20279000  1.0
  S  S132  1  0.76918000  0.04599000  0.93527000  1.0
  S  S133  1  0.23082000  0.95402000  0.06473000  1.0
  S  S134  1  0.51912000  0.89157000  0.72093000  1.0
  S  S135  1  0.48088000  0.10843000  0.27907000  1.0
  S  S136  1  0.97904000  0.37299000  0.70601000  1.0
  S  S137  1  0.02096000  0.62701000  0.29400000  1.0
  S  S138  1  0.73211000  0.37737000  0.88100000  1.0
  S  S139  1  0.26789000  0.62263000  0.11900000  1.0
  Br  Br140  1  0.54712000  0.84366000  0.02289000  1.0
  Br  Br141  1  0.45288000  0.15634000  0.97711000  1.0
  Br  Br142  1  0.03639000  0.34753000  0.02513000  1.0
  Br  Br143  1  0.96361000  0.65247000  0.97487000  1.0
