# generated using pymatgen
data_CoH12(C7N2)2
_symmetry_space_group_name_H-M   'P 1'
_cell_length_a   6.95509000
_cell_length_b   8.15662000
_cell_length_c   13.01433822
_cell_angle_alpha   71.74316309
_cell_angle_beta   88.17388447
_cell_angle_gamma   89.87750000
_symmetry_Int_Tables_number   1
_chemical_formula_structural   CoH12(C7N2)2
_chemical_formula_sum   'Co2 H24 C28 N8'
_cell_volume   700.75881375
_cell_formula_units_Z   2
loop_
 _symmetry_equiv_pos_site_id
 _symmetry_equiv_pos_as_xyz
  1  'x, y, z'
loop_
 _atom_site_type_symbol
 _atom_site_label
 _atom_site_symmetry_multiplicity
 _atom_site_fract_x
 _atom_site_fract_y
 _atom_site_fract_z
 _atom_site_occupancy
  Co  Co0  1  0.74995000  0.53888000  0.00001000  1.0
  Co  Co1  1  0.25004000  0.46111000  0.00000000  1.0
  H  H2  1  0.77018000  0.88283000  0.79459000  1.0
  H  H3  1  0.72834000  0.67687000  0.20558000  1.0
  H  H4  1  0.22983000  0.11716000  0.20541000  1.0
  H  H5  1  0.27165000  0.32313000  0.79442000  1.0
  H  H6  1  0.20016000  0.69362000  0.76568000  1.0
  H  H7  1  0.29961000  0.45912000  0.23449000  1.0
  H  H8  1  0.79984000  0.30638000  0.23433000  1.0
  H  H9  1  0.70039000  0.54090000  0.76551000  1.0
  H  H10  1  0.18103000  0.07165000  0.69410000  1.0
  H  H11  1  0.31753000  0.76560000  0.30561000  1.0
  H  H12  1  0.81897000  0.92836000  0.30589000  1.0
  H  H13  1  0.68248000  0.23441000  0.69439000  1.0
  H  H14  1  0.06248000  0.14733000  0.56888000  1.0
  H  H15  1  0.43684000  0.71568000  0.43061000  1.0
  H  H16  1  0.93753000  0.85267000  0.43111000  1.0
  H  H17  1  0.56317000  0.28433000  0.56939000  1.0
  H  H18  1  0.05826000  0.92500000  0.64378000  1.0
  H  H19  1  0.44134000  0.56868000  0.35537000  1.0
  H  H20  1  0.94173000  0.07501000  0.35621000  1.0
  H  H21  1  0.55866000  0.43132000  0.64463000  1.0
  H  H22  1  0.22675000  0.16724000  0.40538000  1.0
  H  H23  1  0.27379000  0.57162000  0.59427000  1.0
  H  H24  1  0.77325000  0.83274000  0.59462000  1.0
  H  H25  1  0.72621000  0.42840000  0.40573000  1.0
  C  C26  1  0.62976000  0.82039000  0.80578000  1.0
  C  C27  1  0.86911000  0.62573000  0.19439000  1.0
  C  C28  1  0.37024000  0.17961000  0.19422000  1.0
  C  C29  1  0.13089000  0.37427000  0.80562000  1.0
  C  C30  1  0.33894000  0.72382000  0.79112000  1.0
  C  C31  1  0.16065000  0.51481000  0.20895000  1.0
  C  C32  1  0.66106000  0.27619000  0.20887000  1.0
  C  C33  1  0.83935000  0.48520000  0.79105000  1.0
  C  C34  1  0.48355000  0.83633000  0.73108000  1.0
  C  C35  1  0.01563000  0.56750000  0.26902000  1.0
  C  C36  1  0.51645000  0.16366000  0.26892000  1.0
  C  C37  1  0.98436000  0.43251000  0.73098000  1.0
  C  C38  1  0.48855000  0.92483000  0.61377000  1.0
  C  C39  1  0.01089000  0.53882000  0.38621000  1.0
  C  C40  1  0.51145000  0.07515000  0.38624000  1.0
  C  C41  1  0.98910000  0.46119000  0.61379000  1.0
  C  C42  1  0.32977000  0.01735000  0.55976000  1.0
  C  C43  1  0.17005000  0.57662000  0.44006000  1.0
  C  C44  1  0.67023000  0.98264000  0.44024000  1.0
  C  C45  1  0.82996000  0.42339000  0.55994000  1.0
  C  C46  1  0.14895000  0.04214000  0.61958000  1.0
  C  C47  1  0.35034000  0.66135000  0.37997000  1.0
  C  C48  1  0.85105000  0.95785000  0.38042000  1.0
  C  C49  1  0.64966000  0.33865000  0.62003000  1.0
  C  C50  1  0.34615000  0.09055000  0.44733000  1.0
  C  C51  1  0.15424000  0.53717000  0.55246000  1.0
  C  C52  1  0.65385000  0.90944000  0.55266000  1.0
  C  C53  1  0.84575000  0.46285000  0.44754000  1.0
  N  N54  1  0.57711000  0.70344000  0.90219000  1.0
  N  N55  1  0.92196000  0.60470000  0.09811000  1.0
  N  N56  1  0.42289000  0.29656000  0.09782000  1.0
  N  N57  1  0.07803000  0.39530000  0.90189000  1.0
  N  N58  1  0.39762000  0.64295000  0.89219000  1.0
  N  N59  1  0.10195000  0.53439000  0.10804000  1.0
  N  N60  1  0.60238000  0.35704000  0.10782000  1.0
  N  N61  1  0.89805000  0.46562000  0.89196000  1.0
