# generated using pymatgen
data_GdH16C9S3O8
_symmetry_space_group_name_H-M   'P 1'
_cell_length_a   9.16050000
_cell_length_b   9.93340000
_cell_length_c   10.84620000
_cell_angle_alpha   73.42260000
_cell_angle_beta   70.42300000
_cell_angle_gamma   82.80210000
_symmetry_Int_Tables_number   1
_chemical_formula_structural   GdH16C9S3O8
_chemical_formula_sum   'Gd2 H32 C18 S6 O16'
_cell_volume   890.76249328
_cell_formula_units_Z   2
loop_
 _symmetry_equiv_pos_site_id
 _symmetry_equiv_pos_as_xyz
  1  'x, y, z'
loop_
 _atom_site_type_symbol
 _atom_site_label
 _atom_site_symmetry_multiplicity
 _atom_site_fract_x
 _atom_site_fract_y
 _atom_site_fract_z
 _atom_site_occupancy
  Gd  Gd0  1  0.72228000  0.51650000  0.02113000  1.0
  Gd  Gd1  1  0.27773000  0.48350000  0.97887000  1.0
  H  H2  1  0.23699000  0.78362000  0.67336000  1.0
  H  H3  1  0.07827000  0.90777000  0.70123000  1.0
  H  H4  1  0.04159000  0.55720000  0.62896000  1.0
  H  H5  1  0.06307000  0.61107000  0.45395000  1.0
  H  H6  1  0.33218000  0.60018000  0.57015000  1.0
  H  H7  1  0.35141000  0.62787000  0.39761000  1.0
  H  H8  1  0.29486000  0.25284000  0.38214000  1.0
  H  H9  1  0.19867000  0.41555000  0.34648000  1.0
  H  H10  1  0.85820000  0.07017000  0.08775000  1.0
  H  H11  1  0.88481000  0.88652000  0.10008000  1.0
  H  H12  1  0.96835000  0.19573000  0.74122000  1.0
  H  H13  1  0.77394000  0.20002000  0.74398000  1.0
  H  H14  1  0.47500000  0.74751000  0.01838000  1.0
  H  H15  1  0.92104000  0.62542000  0.14976000  1.0
  H  H16  1  0.74717000  0.65298000  0.23076000  1.0
  H  H17  1  0.62698000  0.82150000  0.00449000  1.0
  H  H18  1  0.76303000  0.21640000  0.32663000  1.0
  H  H19  1  0.92173000  0.09224000  0.29876000  1.0
  H  H20  1  0.95842000  0.44280000  0.37106000  1.0
  H  H21  1  0.93693000  0.38893000  0.54605000  1.0
  H  H22  1  0.66783000  0.39982000  0.42985000  1.0
  H  H23  1  0.64859000  0.37212000  0.60240000  1.0
  H  H24  1  0.70513000  0.74717000  0.61786000  1.0
  H  H25  1  0.80135000  0.58445000  0.65352000  1.0
  H  H26  1  0.14181000  0.92983000  0.91226000  1.0
  H  H27  1  0.11520000  0.11348000  0.89992000  1.0
  H  H28  1  0.03164000  0.80426000  0.25879000  1.0
  H  H29  1  0.22606000  0.79996000  0.25602000  1.0
  H  H30  1  0.52499000  0.25250000  0.98162000  1.0
  H  H31  1  0.07894000  0.37459000  0.85024000  1.0
  H  H32  1  0.25281000  0.34703000  0.76925000  1.0
  H  H33  1  0.37301000  0.17850000  0.99551000  1.0
  C  C34  1  0.02161000  0.69734000  0.81468000  1.0
  C  C35  1  0.11292000  0.80198000  0.68606000  1.0
  C  C36  1  0.11033000  0.62264000  0.53097000  1.0
  C  C37  1  0.28078000  0.57622000  0.50107000  1.0
  C  C38  1  0.30355000  0.36583000  0.36950000  1.0
  C  C39  1  0.44384000  0.41965000  0.24855000  1.0
  C  C40  1  0.91276000  0.99149000  0.03124000  1.0
  C  C41  1  0.84842000  0.18083000  0.80910000  1.0
  C  C42  1  0.80717000  0.29010000  0.88940000  1.0
  C  C43  1  0.97839000  0.30267000  0.18531000  1.0
  C  C44  1  0.88708000  0.19802000  0.31394000  1.0
  C  C45  1  0.88965000  0.37735000  0.46903000  1.0
  C  C46  1  0.71921000  0.42378000  0.49893000  1.0
  C  C47  1  0.69645000  0.63417000  0.63049000  1.0
  C  C48  1  0.55616000  0.58034000  0.75148000  1.0
  C  C49  1  0.08723000  0.00851000  0.96876000  1.0
  C  C50  1  0.15157000  0.81916000  0.19090000  1.0
  C  C51  1  0.19283000  0.70989000  0.11059000  1.0
  S  S52  1  0.81864000  0.00023000  0.90645000  1.0
  S  S53  1  0.31016000  0.38708000  0.52704000  1.0
  S  S54  1  0.07223000  0.80614000  0.53286000  1.0
  S  S55  1  0.18136000  0.99976000  0.09354000  1.0
  S  S56  1  0.68983000  0.61292000  0.47296000  1.0
  S  S57  1  0.92777000  0.19386000  0.46713000  1.0
  O  O58  1  0.89115000  0.39789000  0.84421000  1.0
  O  O59  1  0.69130000  0.27758000  0.99686000  1.0
  O  O60  1  0.57345000  0.43215000  0.26123000  1.0
  O  O61  1  0.87765000  0.68608000  0.83935000  1.0
  O  O62  1  0.81578000  0.64953000  0.14055000  1.0
  O  O63  1  0.09665000  0.62759000  0.89344000  1.0
  O  O64  1  0.57197000  0.73315000  0.04428000  1.0
  O  O65  1  0.42807000  0.45243000  0.13027000  1.0
  O  O66  1  0.10883000  0.60210000  0.15579000  1.0
  O  O67  1  0.30869000  0.72241000  0.00315000  1.0
  O  O68  1  0.42656000  0.56784000  0.73878000  1.0
  O  O69  1  0.12237000  0.31392000  0.16064000  1.0
  O  O70  1  0.18421000  0.35049000  0.85944000  1.0
  O  O71  1  0.90337000  0.37241000  0.10656000  1.0
  O  O72  1  0.42803000  0.26686000  0.95572000  1.0
  O  O73  1  0.57193000  0.54759000  0.86972000  1.0
