# generated using pymatgen
data_AlH6C11SN2O5F
_symmetry_space_group_name_H-M   'P 1'
_cell_length_a   6.68322000
_cell_length_b   12.76280010
_cell_length_c   16.85630000
_cell_angle_alpha   92.04491617
_cell_angle_beta   96.16230000
_cell_angle_gamma   104.64387831
_symmetry_Int_Tables_number   1
_chemical_formula_structural   AlH6C11SN2O5F
_chemical_formula_sum   'Al2 H12 C22 S2 N4 O10 F2'
_cell_volume   1380.08940500
_cell_formula_units_Z   2
loop_
 _symmetry_equiv_pos_site_id
 _symmetry_equiv_pos_as_xyz
  1  'x, y, z'
loop_
 _atom_site_type_symbol
 _atom_site_label
 _atom_site_symmetry_multiplicity
 _atom_site_fract_x
 _atom_site_fract_y
 _atom_site_fract_z
 _atom_site_occupancy
  Al  Al0  1  0.00015000  0.49566000  0.49968000  1.0
  Al  Al1  1  0.49947000  0.49272000  0.50055000  1.0
  H  H2  1  0.17055000  0.36695000  0.44866000  1.0
  H  H3  1  0.82316000  0.62575000  0.54235000  1.0
  H  H4  1  0.58634000  0.44098000  0.73270000  1.0
  H  H5  1  0.65437000  0.44071000  0.88232000  1.0
  H  H6  1  0.09713000  0.54483000  0.90268000  1.0
  H  H7  1  0.93486000  0.54864000  0.10005000  1.0
  H  H8  1  0.27693000  0.44202000  0.11514000  1.0
  H  H9  1  0.35320000  0.43962000  0.26432000  1.0
  H  H10  1  0.94802000  0.54125000  0.68817000  1.0
  H  H11  1  0.88926000  0.56889000  0.78402000  1.0
  H  H12  1  0.08895000  0.54535000  0.31342000  1.0
  H  H13  1  0.17245000  0.56985000  0.21912000  1.0
  C  C14  1  0.65574000  0.29965000  0.50714000  1.0
  C  C15  1  0.71206000  0.49179000  0.35473000  1.0
  C  C16  1  0.34791000  0.68954000  0.49312000  1.0
  C  C17  1  0.28581000  0.49704000  0.64522000  1.0
  C  C18  1  0.30882000  0.49553000  0.73303000  1.0
  C  C19  1  0.48301000  0.46579000  0.77110000  1.0
  C  C20  1  0.52211000  0.46573000  0.85318000  1.0
  C  C21  1  0.38053000  0.49661000  0.89995000  1.0
  C  C22  1  0.20409000  0.52337000  0.86422000  1.0
  C  C23  1  0.16296000  0.52423000  0.78016000  1.0
  C  C24  1  0.80883000  0.52653000  0.13739000  1.0
  C  C25  1  0.60464000  0.49883000  0.10039000  1.0
  C  C26  1  0.43522000  0.46720000  0.14558000  1.0
  C  C27  1  0.47869000  0.46582000  0.22739000  1.0
  C  C28  1  0.68400000  0.49577000  0.26713000  1.0
  C  C29  1  0.85515000  0.52693000  0.22132000  1.0
  C  C30  1  0.29534000  0.88062000  0.51474000  1.0
  C  C31  1  0.71210000  0.10880000  0.48552000  1.0
  C  C32  1  0.40800000  0.80833000  0.49427000  1.0
  C  C33  1  0.59898000  0.18086000  0.50602000  1.0
  C  C34  1  0.60343000  0.99903000  0.48853000  1.0
  C  C35  1  0.40443000  0.99026000  0.51186000  1.0
  S  S36  1  0.65408000  0.87500000  0.47126000  1.0
  S  S37  1  0.35324000  0.11403000  0.52922000  1.0
  N  N38  1  0.40207000  0.49963000  0.98450000  1.0
  N  N39  1  0.58361000  0.50134000  0.01616000  1.0
  N  N40  1  0.99294000  0.55523000  0.74797000  1.0
  N  N41  1  0.05722000  0.55819000  0.25478000  1.0
  O  O42  1  0.84342000  0.34708000  0.49894000  1.0
  O  O43  1  0.55004000  0.47625000  0.39136000  1.0
  O  O44  1  0.49225000  0.64175000  0.48640000  1.0
  O  O45  1  0.10415000  0.49330000  0.60934000  1.0
  O  O46  1  0.15806000  0.64410000  0.49926000  1.0
  O  O47  1  0.44807000  0.50374000  0.60986000  1.0
  O  O48  1  0.50949000  0.34536000  0.51579000  1.0
  O  O49  1  0.89777000  0.50285000  0.38987000  1.0
  O  O50  1  0.21542000  0.44361000  0.46542000  1.0
  O  O51  1  0.78418000  0.54711000  0.53453000  1.0
  F  F52  1  0.10251000  0.85162000  0.53703000  1.0
  F  F53  1  0.90475000  0.13832000  0.46313000  1.0
