# generated using pymatgen
data_ZnH16C14(NO3)2
_symmetry_space_group_name_H-M   'P 1'
_cell_length_a   8.63095000
_cell_length_b   9.16467000
_cell_length_c   9.49503000
_cell_angle_alpha   107.00400000
_cell_angle_beta   90.00000000
_cell_angle_gamma   89.99990000
_symmetry_Int_Tables_number   1
_chemical_formula_structural   ZnH16C14(NO3)2
_chemical_formula_sum   'Zn2 H32 C28 N4 O12'
_cell_volume   718.22218930
_cell_formula_units_Z   2
loop_
 _symmetry_equiv_pos_site_id
 _symmetry_equiv_pos_as_xyz
  1  'x, y, z'
loop_
 _atom_site_type_symbol
 _atom_site_label
 _atom_site_symmetry_multiplicity
 _atom_site_fract_x
 _atom_site_fract_y
 _atom_site_fract_z
 _atom_site_occupancy
  Zn  Zn0  1  0.50000000  0.50000000  0.00000000  1.0
  Zn  Zn1  1  0.00000000  0.00000000  0.50000000  1.0
  H  H2  1  0.34888000  0.68373000  0.20334000  1.0
  H  H3  1  0.84888000  0.81627000  0.29666000  1.0
  H  H4  1  0.65112000  0.31627000  0.79666000  1.0
  H  H5  1  0.15112000  0.18373000  0.70334000  1.0
  H  H6  1  0.51949000  0.69817000  0.28583000  1.0
  H  H7  1  0.01949000  0.80183000  0.21417000  1.0
  H  H8  1  0.48051000  0.30183000  0.71417000  1.0
  H  H9  1  0.98051000  0.19817000  0.78583000  1.0
  H  H10  1  0.52671000  0.37620000  0.26586000  1.0
  H  H11  1  0.02671000  0.12380000  0.23414000  1.0
  H  H12  1  0.47329000  0.62381000  0.73414000  1.0
  H  H13  1  0.97329000  0.87619000  0.76586000  1.0
  H  H14  1  0.32359000  0.20407000  0.85664000  1.0
  H  H15  1  0.82360000  0.29593000  0.64336000  1.0
  H  H16  1  0.67641000  0.79593000  0.14336000  1.0
  H  H17  1  0.17640000  0.70407000  0.35664000  1.0
  H  H18  1  0.53737000  0.04231000  0.37049000  1.0
  H  H19  1  0.03737000  0.45769000  0.12951000  1.0
  H  H20  1  0.46263000  0.95769000  0.62951000  1.0
  H  H21  1  0.96263000  0.54231000  0.87049000  1.0
  H  H22  1  0.53413000  0.24300000  0.44403000  1.0
  H  H23  1  0.03413000  0.25700000  0.05597000  1.0
  H  H24  1  0.46587000  0.75700000  0.55597000  1.0
  H  H25  1  0.96587000  0.74300000  0.94403000  1.0
  H  H26  1  0.23090000  0.97173000  0.91668000  1.0
  H  H27  1  0.73090000  0.52827000  0.58332000  1.0
  H  H28  1  0.76911000  0.02827000  0.08332000  1.0
  H  H29  1  0.26910000  0.47173000  0.41668000  1.0
  H  H30  1  0.29607000  0.93969000  0.16348000  1.0
  H  H31  1  0.79607000  0.56031000  0.33652000  1.0
  H  H32  1  0.70393000  0.06031000  0.83652000  1.0
  H  H33  1  0.20393000  0.43969000  0.66348000  1.0
  C  C34  1  0.32773000  0.12624000  0.48214000  1.0
  C  C35  1  0.82773000  0.37376000  0.01786000  1.0
  C  C36  1  0.67227000  0.87376000  0.51786000  1.0
  C  C37  1  0.17227000  0.62624000  0.98214000  1.0
  C  C38  1  0.46417000  0.14425000  0.38494000  1.0
  C  C39  1  0.96417000  0.35575000  0.11506000  1.0
  C  C40  1  0.53583000  0.85575000  0.61506000  1.0
  C  C41  1  0.03583000  0.64425000  0.88494000  1.0
  C  C42  1  0.41808000  0.15549000  0.23558000  1.0
  C  C43  1  0.91808000  0.34451000  0.26442000  1.0
  C  C44  1  0.58192000  0.84451000  0.76442000  1.0
  C  C45  1  0.08192000  0.65549000  0.73558000  1.0
  C  C46  1  0.46176000  0.28264000  0.19209000  1.0
  C  C47  1  0.96176000  0.21736000  0.30791000  1.0
  C  C48  1  0.53824000  0.71736000  0.80791000  1.0
  C  C49  1  0.03824000  0.78264000  0.69209000  1.0
  C  C50  1  0.34742000  0.18774000  0.96336000  1.0
  C  C51  1  0.84742000  0.31226000  0.53664000  1.0
  C  C52  1  0.65258000  0.81226000  0.03664000  1.0
  C  C53  1  0.15258000  0.68774000  0.46336000  1.0
  C  C54  1  0.29687000  0.05796000  0.99781000  1.0
  C  C55  1  0.79687000  0.44204000  0.50219000  1.0
  C  C56  1  0.70313000  0.94204000  0.00219000  1.0
  C  C57  1  0.20313000  0.55796000  0.49781000  1.0
  C  C58  1  0.33362000  0.04058000  0.13458000  1.0
  C  C59  1  0.83362000  0.45942000  0.36542000  1.0
  C  C60  1  0.66638000  0.95942000  0.86542000  1.0
  C  C61  1  0.16638000  0.54058000  0.63458000  1.0
  N  N62  1  0.42835000  0.29845000  0.05880000  1.0
  N  N63  1  0.92835000  0.20155000  0.44120000  1.0
  N  N64  1  0.57165000  0.70155000  0.94120000  1.0
  N  N65  1  0.07165000  0.79845000  0.55880000  1.0
  O  O66  1  0.22589000  0.02817000  0.42275000  1.0
  O  O67  1  0.72589000  0.47182000  0.07724000  1.0
  O  O68  1  0.77411000  0.97183000  0.57725000  1.0
  O  O69  1  0.27411000  0.52818000  0.92276000  1.0
  O  O70  1  0.44235000  0.62841000  0.22134000  1.0
  O  O71  1  0.94235000  0.87159000  0.27866000  1.0
  O  O72  1  0.55764000  0.37159000  0.77866000  1.0
  O  O73  1  0.05765000  0.12841000  0.72134000  1.0
  O  O74  1  0.32689000  0.20834000  0.61655000  1.0
  O  O75  1  0.82689000  0.29166000  0.88345000  1.0
  O  O76  1  0.67311000  0.79166000  0.38345000  1.0
  O  O77  1  0.17311000  0.70834000  0.11655000  1.0
