# generated using pymatgen
data_LaH6C7NO6
_symmetry_space_group_name_H-M   'P 1'
_cell_length_a   5.04865000
_cell_length_b   7.98268000
_cell_length_c   21.62990000
_cell_angle_alpha   89.99990000
_cell_angle_beta   90.65560000
_cell_angle_gamma   90.00000000
_symmetry_Int_Tables_number   1
_chemical_formula_structural   LaH6C7NO6
_chemical_formula_sum   'La4 H24 C28 N4 O24'
_cell_volume   871.66591613
_cell_formula_units_Z   4
loop_
 _symmetry_equiv_pos_site_id
 _symmetry_equiv_pos_as_xyz
  1  'x, y, z'
loop_
 _atom_site_type_symbol
 _atom_site_label
 _atom_site_symmetry_multiplicity
 _atom_site_fract_x
 _atom_site_fract_y
 _atom_site_fract_z
 _atom_site_occupancy
  La  La0  1  0.99923000  0.67897000  0.21531000  1.0
  La  La1  1  0.00077000  0.17897000  0.28469000  1.0
  La  La2  1  0.00077000  0.32104000  0.78469000  1.0
  La  La3  1  0.99923000  0.82103000  0.71531000  1.0
  H  H4  1  0.87934000  0.54755000  0.46247000  1.0
  H  H5  1  0.12065000  0.04755000  0.03753000  1.0
  H  H6  1  0.12066000  0.45245000  0.53753000  1.0
  H  H7  1  0.87934000  0.95245000  0.96247000  1.0
  H  H8  1  0.59146000  0.61031000  0.37188000  1.0
  H  H9  1  0.40854000  0.11031000  0.12812000  1.0
  H  H10  1  0.40854000  0.38969000  0.62812000  1.0
  H  H11  1  0.59145000  0.88969000  0.87188000  1.0
  H  H12  1  0.12246000  0.92153000  0.49134000  1.0
  H  H13  1  0.87753000  0.42153000  0.00866000  1.0
  H  H14  1  0.87753000  0.07847000  0.50866000  1.0
  H  H15  1  0.12247000  0.57847000  0.99134000  1.0
  H  H16  1  0.42289000  0.83732000  0.57917000  1.0
  H  H17  1  0.57710000  0.33731000  0.92083000  1.0
  H  H18  1  0.57710000  0.16269000  0.42083000  1.0
  H  H19  1  0.42290000  0.66269000  0.07917000  1.0
  H  H20  1  0.84618000  0.85006000  0.08594000  1.0
  H  H21  1  0.15381000  0.35006000  0.41406000  1.0
  H  H22  1  0.15382000  0.14994000  0.91406000  1.0
  H  H23  1  0.84618000  0.64994000  0.58594000  1.0
  H  H24  1  0.92445000  0.98892000  0.13800000  1.0
  H  H25  1  0.07555000  0.48891000  0.36200000  1.0
  H  H26  1  0.07555000  0.01108000  0.86200000  1.0
  H  H27  1  0.92445000  0.51109000  0.63800000  1.0
  C  C28  1  0.71009000  0.63078000  0.46754000  1.0
  C  C29  1  0.28991000  0.13078000  0.03245000  1.0
  C  C30  1  0.28991000  0.36923000  0.53245000  1.0
  C  C31  1  0.71008000  0.86922000  0.96755000  1.0
  C  C32  1  0.54833000  0.66538000  0.41668000  1.0
  C  C33  1  0.45168000  0.16538000  0.08332000  1.0
  C  C34  1  0.45168000  0.33462000  0.58332000  1.0
  C  C35  1  0.54832000  0.83462000  0.91668000  1.0
  C  C36  1  0.33333333  0.77319000  0.42465000  1.0
  C  C37  1  0.66666667  0.27319000  0.07535000  1.0
  C  C38  1  0.66666667  0.22681000  0.57535000  1.0
  C  C39  1  0.33333333  0.72680000  0.92465000  1.0
  C  C40  1  0.28787000  0.83771000  0.48359000  1.0
  C  C41  1  0.71214000  0.33770000  0.01641000  1.0
  C  C42  1  0.71214000  0.16230000  0.51641000  1.0
  C  C43  1  0.28786000  0.66230000  0.98359000  1.0
  C  C44  1  0.45511000  0.79252000  0.53224000  1.0
  C  C45  1  0.54489000  0.29252000  0.96776000  1.0
  C  C46  1  0.54489000  0.20748000  0.46776000  1.0
  C  C47  1  0.45511000  0.70748000  0.03224000  1.0
  C  C48  1  0.15723000  0.81979000  0.37077000  1.0
  C  C49  1  0.84277000  0.31979000  0.12923000  1.0
  C  C50  1  0.84277000  0.18021000  0.62923000  1.0
  C  C51  1  0.15723000  0.68021000  0.87077000  1.0
  C  C52  1  0.50374000  0.37787000  0.27201000  1.0
  C  C53  1  0.49626000  0.87788000  0.22799000  1.0
  C  C54  1  0.49626000  0.62212000  0.72799000  1.0
  C  C55  1  0.50374000  0.12212000  0.77201000  1.0
  N  N56  1  0.66555000  0.69230000  0.52425000  1.0
  N  N57  1  0.33445000  0.19230000  0.97575000  1.0
  N  N58  1  0.33445000  0.30771000  0.47575000  1.0
  N  N59  1  0.66555000  0.80770000  0.02425000  1.0
  O  O60  1  0.10935000  0.70484000  0.33117000  1.0
  O  O61  1  0.89065000  0.20484000  0.16883000  1.0
  O  O62  1  0.89066000  0.29516000  0.66883000  1.0
  O  O63  1  0.10935000  0.79515000  0.83117000  1.0
  O  O64  1  0.07243000  0.96915000  0.36868000  1.0
  O  O65  1  0.92757000  0.46915000  0.13132000  1.0
  O  O66  1  0.92757000  0.03085000  0.63132000  1.0
  O  O67  1  0.07243000  0.53085000  0.86868000  1.0
  O  O68  1  0.28073000  0.42822000  0.24873000  1.0
  O  O69  1  0.71928000  0.92823000  0.25127000  1.0
  O  O70  1  0.71927000  0.57177000  0.75127000  1.0
  O  O71  1  0.28073000  0.07177000  0.74873000  1.0
  O  O72  1  0.72637000  0.45501000  0.26435000  1.0
  O  O73  1  0.27364000  0.95502000  0.23564000  1.0
  O  O74  1  0.27363000  0.54498000  0.73564000  1.0
  O  O75  1  0.72637000  0.04499000  0.76435000  1.0
  O  O76  1  0.50660000  0.23828000  0.30323000  1.0
  O  O77  1  0.49341000  0.73828000  0.19677000  1.0
  O  O78  1  0.49341000  0.76172000  0.69677000  1.0
  O  O79  1  0.50660000  0.26172000  0.80323000  1.0
  O  O80  1  0.96414000  0.87393000  0.12375000  1.0
  O  O81  1  0.03586000  0.37393000  0.37625000  1.0
  O  O82  1  0.03586000  0.12607000  0.87625000  1.0
  O  O83  1  0.96414000  0.62607000  0.62375000  1.0
