# generated using pymatgen
data_ZnH12C17(NO2)2
_symmetry_space_group_name_H-M   'P 1'
_cell_length_a   13.88960000
_cell_length_b   14.15420000
_cell_length_c   15.24570000
_cell_angle_alpha   87.14120000
_cell_angle_beta   88.92590000
_cell_angle_gamma   85.74990000
_symmetry_Int_Tables_number   1
_chemical_formula_structural   ZnH12C17(NO2)2
_chemical_formula_sum   'Zn2 H24 C34 N4 O8'
_cell_volume   2984.94339944
_cell_formula_units_Z   2
loop_
 _symmetry_equiv_pos_site_id
 _symmetry_equiv_pos_as_xyz
  1  'x, y, z'
loop_
 _atom_site_type_symbol
 _atom_site_label
 _atom_site_symmetry_multiplicity
 _atom_site_fract_x
 _atom_site_fract_y
 _atom_site_fract_z
 _atom_site_occupancy
  Zn  Zn0  1  0.51288000  0.60343000  0.49558000  1.0
  Zn  Zn1  1  0.49175000  0.39515000  0.51106000  1.0
  H  H2  1  0.97906000  0.61004000  0.51293000  1.0
  H  H3  1  0.02645000  0.39764000  0.48103000  1.0
  H  H4  1  0.43496000  0.64882000  0.93967000  1.0
  H  H5  1  0.44720000  0.35467000  0.06790000  1.0
  H  H6  1  0.44327000  0.65314000  0.77617000  1.0
  H  H7  1  0.45408000  0.34789000  0.23144000  1.0
  H  H8  1  0.54877000  0.36046000  0.78363000  1.0
  H  H9  1  0.53193000  0.63550000  0.22489000  1.0
  H  H10  1  0.54516000  0.35587000  0.94712000  1.0
  H  H11  1  0.52937000  0.64257000  0.06123000  1.0
  H  H12  1  0.35393000  0.05581000  0.56675000  1.0
  H  H13  1  0.58383000  0.94856000  0.37100000  1.0
  H  H14  1  0.61273000  0.24957000  0.45851000  1.0
  H  H15  1  0.45292000  0.74181000  0.60350000  1.0
  H  H16  1  0.62957000  0.07778000  0.43424000  1.0
  H  H17  1  0.42367000  0.91548000  0.61479000  1.0
  H  H18  1  0.28241000  0.18601000  0.61713000  1.0
  H  H19  1  0.31457000  0.28439000  0.72936000  1.0
  H  H20  1  0.28143000  0.36943000  0.64159000  1.0
  H  H21  1  0.40465000  0.33772000  0.66357000  1.0
  H  H22  1  0.64588000  0.81856000  0.31169000  1.0
  H  H23  1  0.76904000  0.70594000  0.35405000  1.0
  H  H24  1  0.67956000  0.63264000  0.31672000  1.0
  H  H25  1  0.69008000  0.65003000  0.43022000  1.0
  C  C26  1  0.49987000  0.50827000  0.67174000  1.0
  C  C27  1  0.50014000  0.48647000  0.33595000  1.0
  C  C28  1  0.52071000  0.42078000  0.90998000  1.0
  C  C29  1  0.51134000  0.57810000  0.09820000  1.0
  C  C30  1  0.48958000  0.50191000  0.95548000  1.0
  C  C31  1  0.48882000  0.49884000  0.05247000  1.0
  C  C32  1  0.41284000  0.09635000  0.54088000  1.0
  C  C33  1  0.55260000  0.90521000  0.42378000  1.0
  C  C34  1  0.40965000  0.19459000  0.55616000  1.0
  C  C35  1  0.57064000  0.80532000  0.42349000  1.0
  C  C36  1  0.55651000  0.20395000  0.48112000  1.0
  C  C37  1  0.48050000  0.79055000  0.55313000  1.0
  C  C38  1  0.56489000  0.10832000  0.46656000  1.0
  C  C39  1  0.46302000  0.88724000  0.55835000  1.0
  C  C40  1  0.49090000  0.05163000  0.49788000  1.0
  C  C41  1  0.50037000  0.94750000  0.49154000  1.0
  C  C42  1  0.31731000  0.54250000  0.49929000  1.0
  C  C43  1  0.68861000  0.46382000  0.50589000  1.0
  C  C44  1  0.79299000  0.45538000  0.50075000  1.0
  C  C45  1  0.21276000  0.55153000  0.49843000  1.0
  C  C46  1  0.98119000  0.46264000  0.49220000  1.0
  C  C47  1  0.02443000  0.54497000  0.50213000  1.0
  C  C48  1  0.12497000  0.54976000  0.49958000  1.0
  C  C49  1  0.88065000  0.45789000  0.49601000  1.0
  C  C50  1  0.46145000  0.58566000  0.90586000  1.0
  C  C51  1  0.46766000  0.41601000  0.10184000  1.0
  C  C52  1  0.46509000  0.58828000  0.81447000  1.0
  C  C53  1  0.47067000  0.41191000  0.19311000  1.0
  C  C54  1  0.49625000  0.50700000  0.76995000  1.0
  C  C55  1  0.49474000  0.49080000  0.23784000  1.0
  C  C56  1  0.52363000  0.42305000  0.81876000  1.0
  C  C57  1  0.51410000  0.57426000  0.18945000  1.0
  C  C58  1  0.33300000  0.31050000  0.66239000  1.0
  C  C59  1  0.69491000  0.68463000  0.36468000  1.0
  N  N60  1  0.48121000  0.24824000  0.52479000  1.0
  N  N61  1  0.53270000  0.74843000  0.48768000  1.0
  N  N62  1  0.33337000  0.23244000  0.60352000  1.0
  N  N63  1  0.62731000  0.76854000  0.35749000  1.0
  O  O64  1  0.48511000  0.58783000  0.62965000  1.0
  O  O65  1  0.48053000  0.40953000  0.37697000  1.0
  O  O66  1  0.51715000  0.42823000  0.63734000  1.0
  O  O67  1  0.52503000  0.56096000  0.37081000  1.0
  O  O68  1  0.36236000  0.61616000  0.48181000  1.0
  O  O69  1  0.64352000  0.39138000  0.49158000  1.0
  O  O70  1  0.35327000  0.45864000  0.51856000  1.0
  O  O71  1  0.65178000  0.54598000  0.52393000  1.0
