# generated using pymatgen
data_Sm2H11C11NO16
_symmetry_space_group_name_H-M   'P 1'
_cell_length_a   7.75154000
_cell_length_b   10.98720000
_cell_length_c   12.72790000
_cell_angle_alpha   94.20320000
_cell_angle_beta   103.91400000
_cell_angle_gamma   108.28300000
_symmetry_Int_Tables_number   1
_chemical_formula_structural   Sm2H11C11NO16
_chemical_formula_sum   'Sm4 H22 C22 N2 O32'
_cell_volume   985.98811954
_cell_formula_units_Z   2
loop_
 _symmetry_equiv_pos_site_id
 _symmetry_equiv_pos_as_xyz
  1  'x, y, z'
loop_
 _atom_site_type_symbol
 _atom_site_label
 _atom_site_symmetry_multiplicity
 _atom_site_fract_x
 _atom_site_fract_y
 _atom_site_fract_z
 _atom_site_occupancy
  Sm  Sm0  1  0.72845000  0.32199000  0.10197000  1.0
  Sm  Sm1  1  0.27155000  0.67801000  0.89802000  1.0
  Sm  Sm2  1  0.18012000  0.96404000  0.30697000  1.0
  Sm  Sm3  1  0.81988000  0.03595000  0.69303000  1.0
  H  H4  1  0.40321000  0.07175000  0.95743000  1.0
  H  H5  1  0.59678000  0.92827000  0.04256000  1.0
  H  H6  1  0.33134000  0.18543000  0.93977000  1.0
  H  H7  1  0.66867000  0.81458000  0.06023000  1.0
  H  H8  1  0.10587000  0.40392000  0.05945000  1.0
  H  H9  1  0.89413000  0.59609000  0.94055000  1.0
  H  H10  1  0.98565000  0.37372000  0.93903000  1.0
  H  H11  1  0.01435000  0.62629000  0.06097000  1.0
  H  H12  1  0.25275000  0.92888000  0.07519000  1.0
  H  H13  1  0.74723000  0.07113000  0.92481000  1.0
  H  H14  1  0.42179000  0.03435000  0.16880000  1.0
  H  H15  1  0.57821000  0.96565000  0.83118000  1.0
  H  H16  1  0.44634000  0.82906000  0.29182000  1.0
  H  H17  1  0.55365000  0.17093000  0.70817000  1.0
  H  H18  1  0.54468000  0.90551000  0.41106000  1.0
  H  H19  1  0.45532000  0.09449000  0.58894000  1.0
  H  H20  1  0.61624000  0.33842000  0.52051000  1.0
  H  H21  1  0.38379000  0.66158000  0.47948000  1.0
  H  H22  1  0.78554000  0.58133000  0.58688000  1.0
  H  H23  1  0.21445000  0.41864000  0.41312000  1.0
  H  H24  1  0.93482000  0.71593000  0.46009000  1.0
  H  H25  1  0.06517000  0.28406000  0.53993000  1.0
  C  C26  1  0.67644000  0.35113000  0.36442000  1.0
  C  C27  1  0.32356000  0.64886000  0.63558000  1.0
  C  C28  1  0.68290000  0.40291000  0.46954000  1.0
  C  C29  1  0.31712000  0.59708000  0.53046000  1.0
  C  C30  1  0.77594000  0.53616000  0.50545000  1.0
  C  C31  1  0.22407000  0.46382000  0.49455000  1.0
  C  C32  1  0.86022000  0.61189000  0.43576000  1.0
  C  C33  1  0.13978000  0.38810000  0.56424000  1.0
  C  C34  1  0.84945000  0.55157000  0.33263000  1.0
  C  C35  1  0.15056000  0.44841000  0.66738000  1.0
  C  C36  1  0.57245000  0.21087000  0.31475000  1.0
  C  C37  1  0.42758000  0.78912000  0.68524000  1.0
  C  C38  1  0.93793000  0.62201000  0.25123000  1.0
  C  C39  1  0.06205000  0.37796000  0.74879000  1.0
  C  C40  1  0.55562000  0.51267000  0.95602000  1.0
  C  C41  1  0.44438000  0.48734000  0.04398000  1.0
  C  C42  1  0.09968000  0.02095000  0.54178000  1.0
  C  C43  1  0.90033000  0.97905000  0.45823000  1.0
  C  C44  1  0.90363000  0.08185000  0.14306000  1.0
  C  C45  1  0.09637000  0.91816000  0.85694000  1.0
  C  C46  1  0.03056000  0.19835000  0.23546000  1.0
  C  C47  1  0.96945000  0.80166000  0.76454000  1.0
  N  N48  1  0.75842000  0.42416000  0.29825000  1.0
  N  N49  1  0.24158000  0.57583000  0.70175000  1.0
  O  O50  1  0.57269000  0.17929000  0.21554000  1.0
  O  O51  1  0.42729000  0.82070000  0.78444000  1.0
  O  O52  1  0.48932000  0.13373000  0.36965000  1.0
  O  O53  1  0.51069000  0.86628000  0.63035000  1.0
  O  O54  1  0.92716000  0.55282000  0.16349000  1.0
  O  O55  1  0.07281000  0.44715000  0.83653000  1.0
  O  O56  1  0.01556000  0.74380000  0.27306000  1.0
  O  O57  1  0.98443000  0.25619000  0.72696000  1.0
  O  O58  1  0.66448000  0.44808000  0.95147000  1.0
  O  O59  1  0.33554000  0.55194000  0.04852000  1.0
  O  O60  1  0.53090000  0.59656000  0.89682000  1.0
  O  O61  1  0.46910000  0.40346000  0.10319000  1.0
  O  O62  1  0.76653000  0.09826000  0.07338000  1.0
  O  O63  1  0.23348000  0.90176000  0.92662000  1.0
  O  O64  1  0.94131000  0.97816000  0.14475000  1.0
  O  O65  1  0.05867000  0.02184000  0.85525000  1.0
  O  O66  1  0.00139000  0.30473000  0.23135000  1.0
  O  O67  1  0.99862000  0.69528000  0.76865000  1.0
  O  O68  1  0.15320000  0.17605000  0.30949000  1.0
  O  O69  1  0.84681000  0.82395000  0.69050000  1.0
  O  O70  1  0.23376000  0.01327000  0.50264000  1.0
  O  O71  1  0.76625000  0.98674000  0.49737000  1.0
  O  O72  1  0.11481000  0.05902000  0.63999000  1.0
  O  O73  1  0.88518000  0.94100000  0.36002000  1.0
  O  O74  1  0.44892000  0.16752000  0.96497000  1.0
  O  O75  1  0.55109000  0.83250000  0.03505000  1.0
  O  O76  1  0.98183000  0.34726000  0.01194000  1.0
  O  O77  1  0.01817000  0.65274000  0.98805000  1.0
  O  O78  1  0.31206000  0.95006000  0.15489000  1.0
  O  O79  1  0.68794000  0.04994000  0.84510000  1.0
  O  O80  1  0.41867000  0.85228000  0.35984000  1.0
  O  O81  1  0.58133000  0.14771000  0.64016000  1.0
