# generated using pymatgen
data_CuH4C6N5O
_symmetry_space_group_name_H-M   'P 1'
_cell_length_a   9.46437700
_cell_length_b   9.52189000
_cell_length_c   10.20963956
_cell_angle_alpha   81.91781827
_cell_angle_beta   62.39187744
_cell_angle_gamma   60.20323173
_symmetry_Int_Tables_number   1
_chemical_formula_structural   CuH4C6N5O
_chemical_formula_sum   'Cu4 H16 C24 N20 O4'
_cell_volume   702.69825560
_cell_formula_units_Z   4
loop_
 _symmetry_equiv_pos_site_id
 _symmetry_equiv_pos_as_xyz
  1  'x, y, z'
loop_
 _atom_site_type_symbol
 _atom_site_label
 _atom_site_symmetry_multiplicity
 _atom_site_fract_x
 _atom_site_fract_y
 _atom_site_fract_z
 _atom_site_occupancy
  Cu  Cu0  1  0.58708000  0.96379000  0.80579000  1.0
  Cu  Cu1  1  0.85670000  0.53619000  0.69423000  1.0
  Cu  Cu2  1  0.41292000  0.03621000  0.19421000  1.0
  Cu  Cu3  1  0.14329000  0.46381000  0.30578000  1.0
  H  H4  1  0.07053000  0.18567000  0.02259000  1.0
  H  H5  1  0.77877000  0.31427000  0.47735000  1.0
  H  H6  1  0.92947000  0.81433000  0.97741000  1.0
  H  H7  1  0.22123000  0.68573000  0.52265000  1.0
  H  H8  1  0.90003000  0.12768000  0.28270000  1.0
  H  H9  1  0.81028000  0.37233000  0.21727000  1.0
  H  H10  1  0.09997000  0.87231000  0.71730000  1.0
  H  H11  1  0.18973000  0.62766000  0.78273000  1.0
  H  H12  1  0.26611000  0.61639000  0.12863000  1.0
  H  H13  1  0.51157000  0.88360000  0.37137000  1.0
  H  H14  1  0.73389000  0.38361000  0.87137000  1.0
  H  H15  1  0.48842000  0.11640000  0.62864000  1.0
  H  H16  1  0.41591000  0.69238000  0.87484000  1.0
  H  H17  1  0.48356000  0.80752000  0.62518000  1.0
  H  H18  1  0.58409000  0.30762000  0.12516000  1.0
  H  H19  1  0.51644000  0.19248000  0.37482000  1.0
  C  C20  1  0.10537000  0.06372000  0.05561000  1.0
  C  C21  1  0.72477000  0.43623000  0.44434000  1.0
  C  C22  1  0.89463000  0.93628000  0.94439000  1.0
  C  C23  1  0.27523000  0.56377000  0.55566000  1.0
  C  C24  1  0.01524000  0.02881000  0.19577000  1.0
  C  C25  1  0.73985000  0.47119000  0.30418000  1.0
  C  C26  1  0.98475000  0.97120000  0.80423000  1.0
  C  C27  1  0.26015000  0.52881000  0.69582000  1.0
  C  C28  1  0.06788000  0.86684000  0.22698000  1.0
  C  C29  1  0.66192000  0.63318000  0.27301000  1.0
  C  C30  1  0.93212000  0.13316000  0.77302000  1.0
  C  C31  1  0.33809000  0.36681000  0.72699000  1.0
  C  C32  1  0.21640000  0.74406000  0.11060000  1.0
  C  C33  1  0.57147000  0.75593000  0.38937000  1.0
  C  C34  1  0.78360000  0.25594000  0.88940000  1.0
  C  C35  1  0.42854000  0.24407000  0.61063000  1.0
  C  C36  1  0.30242000  0.78209000  0.97088000  1.0
  C  C37  1  0.55578000  0.71785000  0.52911000  1.0
  C  C38  1  0.69758000  0.21791000  0.02912000  1.0
  C  C39  1  0.44422000  0.28215000  0.47089000  1.0
  C  C40  1  0.96796000  0.83204000  0.37381000  1.0
  C  C41  1  0.67388000  0.66806000  0.12621000  1.0
  C  C42  1  0.03203000  0.16797000  0.62619000  1.0
  C  C43  1  0.32612000  0.33194000  0.87379000  1.0
  N  N44  1  0.24755000  0.94080000  0.94359000  1.0
  N  N45  1  0.63218000  0.55910000  0.55637000  1.0
  N  N46  1  0.75245000  0.05920000  0.05641000  1.0
  N  N47  1  0.36782000  0.44090000  0.44363000  1.0
  N  N48  1  0.98118000  0.68488000  0.41160000  1.0
  N  N49  1  0.57768000  0.81517000  0.08843000  1.0
  N  N50  1  0.01881000  0.31512000  0.58840000  1.0
  N  N51  1  0.42232000  0.18483000  0.91157000  1.0
  N  N52  1  0.86476000  0.71039000  0.55759000  1.0
  N  N53  1  0.63267000  0.78963000  0.94245000  1.0
  N  N54  1  0.13524000  0.28961000  0.44241000  1.0
  N  N55  1  0.36732000  0.21037000  0.05756000  1.0
  N  N56  1  0.78270000  0.86837000  0.60458000  1.0
  N  N57  1  0.75561000  0.63166000  0.89547000  1.0
  N  N58  1  0.21729000  0.13163000  0.39543000  1.0
  N  N59  1  0.24439000  0.36834000  0.10453000  1.0
  N  N60  1  0.84477000  0.94645000  0.49255000  1.0
  N  N61  1  0.78380000  0.55363000  0.00749000  1.0
  N  N62  1  0.15522000  0.05355000  0.50746000  1.0
  N  N63  1  0.21620000  0.44638000  0.99251000  1.0
  O  O64  1  0.33370000  0.97539000  0.81118000  1.0
  O  O65  1  0.62051000  0.52445000  0.68878000  1.0
  O  O66  1  0.66631000  0.02460000  0.18882000  1.0
  O  O67  1  0.37950000  0.47555000  0.31121000  1.0
