# generated using pymatgen
data_CdH19C31N9O4
_symmetry_space_group_name_H-M   'P 1'
_cell_length_a   12.16120000
_cell_length_b   16.24130000
_cell_length_c   22.08560000
_cell_angle_alpha   90.00020000
_cell_angle_beta   90.00000000
_cell_angle_gamma   106.59200000
_symmetry_Int_Tables_number   1
_chemical_formula_structural   CdH19C31N9O4
_chemical_formula_sum   'Cd4 H76 C124 N36 O16'
_cell_volume   4180.57686419
_cell_formula_units_Z   4
loop_
 _symmetry_equiv_pos_site_id
 _symmetry_equiv_pos_as_xyz
  1  'x, y, z'
loop_
 _atom_site_type_symbol
 _atom_site_label
 _atom_site_symmetry_multiplicity
 _atom_site_fract_x
 _atom_site_fract_y
 _atom_site_fract_z
 _atom_site_occupancy
  Cd  Cd0  1  0.91479000  0.63239000  0.13986000  1.0
  Cd  Cd1  1  0.08521000  0.86761000  0.13986000  1.0
  Cd  Cd2  1  0.08521000  0.36761000  0.86014000  1.0
  Cd  Cd3  1  0.91479000  0.13239000  0.86014000  1.0
  H  H4  1  0.07620000  0.57955000  0.82503000  1.0
  H  H5  1  0.92380000  0.92045000  0.82503000  1.0
  H  H6  1  0.92380000  0.42045000  0.17497000  1.0
  H  H7  1  0.07620000  0.07955000  0.17497000  1.0
  H  H8  1  0.99563000  0.51866000  0.45227000  1.0
  H  H9  1  0.00437000  0.98134000  0.45227000  1.0
  H  H10  1  0.00437000  0.48134000  0.54773000  1.0
  H  H11  1  0.99563000  0.01866000  0.54773000  1.0
  H  H12  1  0.48955000  0.57704000  0.14487000  1.0
  H  H13  1  0.51045000  0.92296000  0.14487000  1.0
  H  H14  1  0.51045000  0.42296000  0.85513000  1.0
  H  H15  1  0.48955000  0.07704000  0.85513000  1.0
  H  H16  1  0.27562000  0.54889000  0.14509000  1.0
  H  H17  1  0.72438000  0.95111000  0.14509000  1.0
  H  H18  1  0.72438000  0.45111000  0.85491000  1.0
  H  H19  1  0.27562000  0.04889000  0.85491000  1.0
  H  H20  1  0.31785000  0.82154000  0.14471000  1.0
  H  H21  1  0.68215000  0.67846000  0.14472000  1.0
  H  H22  1  0.68215000  0.17846000  0.85528000  1.0
  H  H23  1  0.31785000  0.32154000  0.85528000  1.0
  H  H24  1  0.73863000  0.31272000  0.15736000  1.0
  H  H25  1  0.26137000  0.18728000  0.15736000  1.0
  H  H26  1  0.26137000  0.68728000  0.84264000  1.0
  H  H27  1  0.73863000  0.81272000  0.84264000  1.0
  H  H28  1  0.51383000  0.47396000  0.16123000  1.0
  H  H29  1  0.48617000  0.02604000  0.16123000  1.0
  H  H30  1  0.48617000  0.52603000  0.83877000  1.0
  H  H31  1  0.51383000  0.97396000  0.83877000  1.0
  H  H32  1  0.34233000  0.34568000  0.16562000  1.0
  H  H33  1  0.65767000  0.15432000  0.16562000  1.0
  H  H34  1  0.65767000  0.65432000  0.83438000  1.0
  H  H35  1  0.34233000  0.84568000  0.83438000  1.0
  H  H36  1  0.74919000  0.73358000  0.73844000  1.0
  H  H37  1  0.25080000  0.76642000  0.73844000  1.0
  H  H38  1  0.25081000  0.26642000  0.26156000  1.0
  H  H39  1  0.74919000  0.23358000  0.26156000  1.0
  H  H40  1  0.66998000  0.77308000  0.64109000  1.0
  H  H41  1  0.33002000  0.72692000  0.64109000  1.0
  H  H42  1  0.33002000  0.22692000  0.35891000  1.0
  H  H43  1  0.66998000  0.27308000  0.35891000  1.0
  H  H44  1  0.73868000  0.72567000  0.54258000  1.0
  H  H45  1  0.26131000  0.77433000  0.54258000  1.0
  H  H46  1  0.26131000  0.27433000  0.45742000  1.0
  H  H47  1  0.73869000  0.22567000  0.45742000  1.0
  H  H48  1  0.77886000  0.68291000  0.02686000  1.0
  H  H49  1  0.22114000  0.81709000  0.02686000  1.0
  H  H50  1  0.22114000  0.31709000  0.97314000  1.0
  H  H51  1  0.77886000  0.18291000  0.97314000  1.0
  H  H52  1  0.78329000  0.68453000  0.91350000  1.0
  H  H53  1  0.21672000  0.81548000  0.91350000  1.0
  H  H54  1  0.21672000  0.31547000  0.08650000  1.0
  H  H55  1  0.78329000  0.18452000  0.08650000  1.0
  H  H56  1  0.07378000  0.58089000  0.92364000  1.0
  H  H57  1  0.92622000  0.91911000  0.92364000  1.0
  H  H58  1  0.92622000  0.41911000  0.07636000  1.0
  H  H59  1  0.07378000  0.08089000  0.07636000  1.0
  H  H60  1  0.05761000  0.58529000  0.03598000  1.0
  H  H61  1  0.94239000  0.91471000  0.03598000  1.0
  H  H62  1  0.94240000  0.41471000  0.96402000  1.0
  H  H63  1  0.05761000  0.08529000  0.96402000  1.0
  H  H64  1  0.81782000  0.72244000  0.25335000  1.0
  H  H65  1  0.18218000  0.77756000  0.25336000  1.0
  H  H66  1  0.18218000  0.27756000  0.74664000  1.0
  H  H67  1  0.81783000  0.22244000  0.74664000  1.0
  H  H68  1  0.81259000  0.71586000  0.36742000  1.0
  H  H69  1  0.18741000  0.78414000  0.36742000  1.0
  H  H70  1  0.18741000  0.28414000  0.63258000  1.0
  H  H71  1  0.81259000  0.21586000  0.63258000  1.0
  H  H72  1  0.01133000  0.53290000  0.35508000  1.0
  H  H73  1  0.98867000  0.96710000  0.35508000  1.0
  H  H74  1  0.98867000  0.46710000  0.64492000  1.0
  H  H75  1  0.01134000  0.03290000  0.64492000  1.0
  H  H76  1  0.01155000  0.55052000  0.24434000  1.0
  H  H77  1  0.98845000  0.94948000  0.24434000  1.0
  H  H78  1  0.98845000  0.44948000  0.75566000  1.0
  H  H79  1  0.01155000  0.05052000  0.75566000  1.0
  C  C80  1  0.15709000  0.66561000  0.14272000  1.0
  C  C81  1  0.84291000  0.83439000  0.14272000  1.0
  C  C82  1  0.84291000  0.33439000  0.85727000  1.0
  C  C83  1  0.15709000  0.16561000  0.85728000  1.0
  C  C84  1  0.45047000  0.62955000  0.14533000  1.0
  C  C85  1  0.54953000  0.87045000  0.14533000  1.0
  C  C86  1  0.54953000  0.37045000  0.85467000  1.0
  C  C87  1  0.45047000  0.12955000  0.85467000  1.0
  C  C88  1  0.33326000  0.61404000  0.14514000  1.0
  C  C89  1  0.66674000  0.88595000  0.14514000  1.0
  C  C90  1  0.66674000  0.38596000  0.85486000  1.0
  C  C91  1  0.33326000  0.11405000  0.85486000  1.0
  C  C92  1  0.28442000  0.68384000  0.14464000  1.0
  C  C93  1  0.71558000  0.81616000  0.14464000  1.0
  C  C94  1  0.71558000  0.31616000  0.85536000  1.0
  C  C95  1  0.28442000  0.18384000  0.85536000  1.0
  C  C96  1  0.35462000  0.76773000  0.14496000  1.0
  C  C97  1  0.64538000  0.73226000  0.14496000  1.0
  C  C98  1  0.64538000  0.23227000  0.85504000  1.0
  C  C99  1  0.35462000  0.26774000  0.85504000  1.0
  C  C100  1  0.47543000  0.78516000  0.14544000  1.0
  C  C101  1  0.52457000  0.71484000  0.14545000  1.0
  C  C102  1  0.52457000  0.21484000  0.85456000  1.0
  C  C103  1  0.47543000  0.28516000  0.85455000  1.0
  C  C104  1  0.73440000  0.47985000  0.15003000  1.0
  C  C105  1  0.26560000  0.02015000  0.15003000  1.0
  C  C106  1  0.26560000  0.52015000  0.84997000  1.0
  C  C107  1  0.73440000  0.97985000  0.84997000  1.0
  C  C108  1  0.55704000  0.24533000  0.16134000  1.0
  C  C109  1  0.44296000  0.25467000  0.16134000  1.0
  C  C110  1  0.44296000  0.75467000  0.83866000  1.0
  C  C111  1  0.55704000  0.74533000  0.83866000  1.0
  C  C112  1  0.65206000  0.31984000  0.15892000  1.0
  C  C113  1  0.34794000  0.18016000  0.15892000  1.0
  C  C114  1  0.34794000  0.68016000  0.84108000  1.0
  C  C115  1  0.65206000  0.81984000  0.84108000  1.0
  C  C116  1  0.63580000  0.40080000  0.15715000  1.0
  C  C117  1  0.36420000  0.09920000  0.15715000  1.0
  C  C118  1  0.36420000  0.59920000  0.84285000  1.0
  C  C119  1  0.63580000  0.90080000  0.84285000  1.0
  C  C120  1  0.52310000  0.40943000  0.16057000  1.0
  C  C121  1  0.47690000  0.09057000  0.16057000  1.0
  C  C122  1  0.47690000  0.59057000  0.83943000  1.0
  C  C123  1  0.52310000  0.90943000  0.83943000  1.0
  C  C124  1  0.42886000  0.33854000  0.16265000  1.0
  C  C125  1  0.57114000  0.16146000  0.16265000  1.0
  C  C126  1  0.57114000  0.66146000  0.83735000  1.0
  C  C127  1  0.42886000  0.83854000  0.83735000  1.0
  C  C128  1  0.85438000  0.66609000  0.69241000  1.0
  C  C129  1  0.14562000  0.83391000  0.69241000  1.0
  C  C130  1  0.14562000  0.33391000  0.30759000  1.0
  C  C131  1  0.85438000  0.16609000  0.30759000  1.0
  C  C132  1  0.77474000  0.71394000  0.69481000  1.0
  C  C133  1  0.22526000  0.78606000  0.69481000  1.0
  C  C134  1  0.22526000  0.28606000  0.30519000  1.0
  C  C135  1  0.77474000  0.21394000  0.30519000  1.0
  C  C136  1  0.73171000  0.73578000  0.64071000  1.0
  C  C137  1  0.26829000  0.76422000  0.64071000  1.0
  C  C138  1  0.26829000  0.26422000  0.35929000  1.0
  C  C139  1  0.73171000  0.23578000  0.35929000  1.0
  C  C140  1  0.76902000  0.70991000  0.58624000  1.0
  C  C141  1  0.23097000  0.79009000  0.58624000  1.0
  C  C142  1  0.23097000  0.29009000  0.41376000  1.0
  C  C143  1  0.76903000  0.20991000  0.41376000  1.0
  C  C144  1  0.84757000  0.66113000  0.58839000  1.0
  C  C145  1  0.15243000  0.83886000  0.58839000  1.0
  C  C146  1  0.15243000  0.33886000  0.41161000  1.0
  C  C147  1  0.84757000  0.16113000  0.41161000  1.0
  C  C148  1  0.90393000  0.64517000  0.74904000  1.0
  C  C149  1  0.09607000  0.85483000  0.74904000  1.0
  C  C150  1  0.09607000  0.35483000  0.25096000  1.0
  C  C151  1  0.90393000  0.14517000  0.25096000  1.0
  C  C152  1  0.93449000  0.63334000  0.84297000  1.0
  C  C153  1  0.06551000  0.86666000  0.84297000  1.0
  C  C154  1  0.06551000  0.36666000  0.15703000  1.0
  C  C155  1  0.93449000  0.13334000  0.15703000  1.0
  C  C156  1  0.84273000  0.66108000  0.00191000  1.0
  C  C157  1  0.15727000  0.83892000  0.00191000  1.0
  C  C158  1  0.15727000  0.33892000  0.99809000  1.0
  C  C159  1  0.84273000  0.16108000  0.99809000  1.0
  C  C160  1  0.84544000  0.66188000  0.93906000  1.0
  C  C161  1  0.15456000  0.83812000  0.93906000  1.0
  C  C162  1  0.15456000  0.33812000  0.06094000  1.0
  C  C163  1  0.84544000  0.16188000  0.06094000  1.0
  C  C164  1  0.92931000  0.63320000  0.90883000  1.0
  C  C165  1  0.07069000  0.86680000  0.90883000  1.0
  C  C166  1  0.07069000  0.36680000  0.09117000  1.0
  C  C167  1  0.92931000  0.13320000  0.09117000  1.0
  C  C168  1  0.00726000  0.60471000  0.94424000  1.0
  C  C169  1  0.99274000  0.89529000  0.94424000  1.0
  C  C170  1  0.99274000  0.39529000  0.05576000  1.0
  C  C171  1  0.00726000  0.10471000  0.05576000  1.0
  C  C172  1  0.99871000  0.60661000  0.00681000  1.0
  C  C173  1  0.00129000  0.89339000  0.00681000  1.0
  C  C174  1  0.00129000  0.39339000  0.99319000  1.0
  C  C175  1  0.99871000  0.10661000  0.99319000  1.0
  C  C176  1  0.88565000  0.63145000  0.53120000  1.0
  C  C177  1  0.11435000  0.86855000  0.53120000  1.0
  C  C178  1  0.11435000  0.36855000  0.46880000  1.0
  C  C179  1  0.88565000  0.13145000  0.46880000  1.0
  C  C180  1  0.91029000  0.61831000  0.43665000  1.0
  C  C181  1  0.08971000  0.88169000  0.43665000  1.0
  C  C182  1  0.08971000  0.38169000  0.56335000  1.0
  C  C183  1  0.91029000  0.11831000  0.56335000  1.0
  C  C184  1  0.85996000  0.68212000  0.27840000  1.0
  C  C185  1  0.14004000  0.81788000  0.27840000  1.0
  C  C186  1  0.14005000  0.31788000  0.72160000  1.0
  C  C187  1  0.85996000  0.18212000  0.72160000  1.0
  C  C188  1  0.85706000  0.67838000  0.34124000  1.0
  C  C189  1  0.14294000  0.82162000  0.34123000  1.0
  C  C190  1  0.14294000  0.32163000  0.65877000  1.0
  C  C191  1  0.85706000  0.17838000  0.65877000  1.0
  C  C192  1  0.91215000  0.62473000  0.37090000  1.0
  C  C193  1  0.08784000  0.87527000  0.37090000  1.0
  C  C194  1  0.08784000  0.37527000  0.62910000  1.0
  C  C195  1  0.91215000  0.12473000  0.62910000  1.0
  C  C196  1  0.96832000  0.57718000  0.33563000  1.0
  C  C197  1  0.03168000  0.92282000  0.33563000  1.0
  C  C198  1  0.03168000  0.42282000  0.66437000  1.0
  C  C199  1  0.96832000  0.07718000  0.66437000  1.0
  C  C200  1  0.96810000  0.58577000  0.27315000  1.0
  C  C201  1  0.03190000  0.91423000  0.27316000  1.0
  C  C202  1  0.03190000  0.41423000  0.72684000  1.0
  C  C203  1  0.96810000  0.08577000  0.72684000  1.0
  N  N204  1  0.88964000  0.63916000  0.64023000  1.0
  N  N205  1  0.11036000  0.86084000  0.64023000  1.0
  N  N206  1  0.11036000  0.36084000  0.35977000  1.0
  N  N207  1  0.88964000  0.13916000  0.35977000  1.0
  N  N208  1  0.99387000  0.61225000  0.75065000  1.0
  N  N209  1  0.00613000  0.88775000  0.75066000  1.0
  N  N210  1  0.00613000  0.38775000  0.24934000  1.0
  N  N211  1  0.99387000  0.11225000  0.24934000  1.0
  N  N212  1  0.01171000  0.60587000  0.81018000  1.0
  N  N213  1  0.98829000  0.89413000  0.81018000  1.0
  N  N214  1  0.98829000  0.39413000  0.18982000  1.0
  N  N215  1  0.01171000  0.10587000  0.18982000  1.0
  N  N216  1  0.86497000  0.65925000  0.80504000  1.0
  N  N217  1  0.13503000  0.84075000  0.80504000  1.0
  N  N218  1  0.13503000  0.34075000  0.19496000  1.0
  N  N219  1  0.86497000  0.15925000  0.19496000  1.0
  N  N220  1  0.91806000  0.63411000  0.03551000  1.0
  N  N221  1  0.08194000  0.86589000  0.03551000  1.0
  N  N222  1  0.08194000  0.36589000  0.96449000  1.0
  N  N223  1  0.91806000  0.13411000  0.96449000  1.0
  N  N224  1  0.94203000  0.57117000  0.52754000  1.0
  N  N225  1  0.05797000  0.92883000  0.52754000  1.0
  N  N226  1  0.05797000  0.42882000  0.47246000  1.0
  N  N227  1  0.94203000  0.07117000  0.47246000  1.0
  N  N228  1  0.95683000  0.56429000  0.46734000  1.0
  N  N229  1  0.04317000  0.93571000  0.46734000  1.0
  N  N230  1  0.04317000  0.43571000  0.53266000  1.0
  N  N231  1  0.95683000  0.06429000  0.53266000  1.0
  N  N232  1  0.86453000  0.66170000  0.47603000  1.0
  N  N233  1  0.13547000  0.83830000  0.47603000  1.0
  N  N234  1  0.13547000  0.33830000  0.52397000  1.0
  N  N235  1  0.86453000  0.16170000  0.52397000  1.0
  N  N236  1  0.91495000  0.63706000  0.24489000  1.0
  N  N237  1  0.08505000  0.86294000  0.24489000  1.0
  N  N238  1  0.08505000  0.36295000  0.75511000  1.0
  N  N239  1  0.91495000  0.13705000  0.75511000  1.0
  O  O240  1  0.09451000  0.58824000  0.14281000  1.0
  O  O241  1  0.90549000  0.91176000  0.14281000  1.0
  O  O242  1  0.90549000  0.41176000  0.85719000  1.0
  O  O243  1  0.09451000  0.08824000  0.85719000  1.0
  O  O244  1  0.11246000  0.72857000  0.14048000  1.0
  O  O245  1  0.88754000  0.77143000  0.14048000  1.0
  O  O246  1  0.88754000  0.27143000  0.85952000  1.0
  O  O247  1  0.11246000  0.22857000  0.85952000  1.0
  O  O248  1  0.83707000  0.47325000  0.14759000  1.0
  O  O249  1  0.16293000  0.02675000  0.14759000  1.0
  O  O250  1  0.16293000  0.52675000  0.85241000  1.0
  O  O251  1  0.83707000  0.97325000  0.85242000  1.0
  O  O252  1  0.71408000  0.55214000  0.14540000  1.0
  O  O253  1  0.28592000  0.94786000  0.14540000  1.0
  O  O254  1  0.28592000  0.44786000  0.85460000  1.0
  O  O255  1  0.71408000  0.05214000  0.85460000  1.0
