# generated using pymatgen
data_Cu3H21(C5N2)4
_symmetry_space_group_name_H-M   'P 1'
_cell_length_a   11.36160000
_cell_length_b   11.36510000
_cell_length_c   13.20250000
_cell_angle_alpha   71.22250000
_cell_angle_beta   64.80130000
_cell_angle_gamma   71.09580000
_symmetry_Int_Tables_number   1
_chemical_formula_structural   Cu3H21(C5N2)4
_chemical_formula_sum   'Cu6 H42 C40 N16'
_cell_volume   1425.25366984
_cell_formula_units_Z   2
loop_
 _symmetry_equiv_pos_site_id
 _symmetry_equiv_pos_as_xyz
  1  'x, y, z'
loop_
 _atom_site_type_symbol
 _atom_site_label
 _atom_site_symmetry_multiplicity
 _atom_site_fract_x
 _atom_site_fract_y
 _atom_site_fract_z
 _atom_site_occupancy
  Cu  Cu0  1  0.76514000  0.38545000  0.90841000  1.0
  Cu  Cu1  1  0.23486000  0.61456000  0.09160000  1.0
  Cu  Cu2  1  0.86749000  0.53252000  0.49494000  1.0
  Cu  Cu3  1  0.13251000  0.46748000  0.50506000  1.0
  Cu  Cu4  1  0.94770000  0.30914000  0.20323000  1.0
  Cu  Cu5  1  0.05230000  0.69086000  0.79677000  1.0
  H  H6  1  0.96047000  0.84212000  0.04506000  1.0
  H  H7  1  0.03953000  0.15788000  0.95494000  1.0
  H  H8  1  0.86826000  0.99303000  0.07914000  1.0
  H  H9  1  0.13174000  0.00697000  0.92085000  1.0
  H  H10  1  0.78415000  0.87339000  0.10480000  1.0
  H  H11  1  0.21585000  0.12661000  0.89521000  1.0
  H  H12  1  0.85834000  0.64989000  0.26630000  1.0
  H  H13  1  0.14165000  0.35012000  0.73370000  1.0
  H  H14  1  0.59568000  0.41913000  0.78283000  1.0
  H  H15  1  0.40432000  0.58087000  0.21717000  1.0
  H  H16  1  0.84147000  0.78676000  0.57644000  1.0
  H  H17  1  0.15852000  0.21324000  0.42356000  1.0
  H  H18  1  0.91302000  0.92152000  0.49162000  1.0
  H  H19  1  0.08698000  0.07848000  0.50839000  1.0
  H  H20  1  0.01434000  0.76448000  0.49906000  1.0
  H  H21  1  0.98565000  0.23552000  0.50094000  1.0
  H  H22  1  0.87881000  0.09668000  0.19800000  1.0
  H  H23  1  0.12119000  0.90332000  0.80200000  1.0
  H  H24  1  0.88357000  0.07581000  0.33353000  1.0
  H  H25  1  0.11643000  0.92419000  0.66647000  1.0
  H  H26  1  0.15316000  0.83744000  0.19874000  1.0
  H  H27  1  0.84684000  0.16255000  0.80127000  1.0
  H  H28  1  0.38919000  0.86364000  0.10629000  1.0
  H  H29  1  0.61081000  0.13636000  0.89371000  1.0
  H  H30  1  0.43357000  0.08153000  0.06156000  1.0
  H  H31  1  0.56643000  0.91847000  0.93843000  1.0
  H  H32  1  0.21864000  0.32513000  0.18816000  1.0
  H  H33  1  0.78136000  0.67487000  0.81184000  1.0
  H  H34  1  0.16056000  0.36819000  0.07559000  1.0
  H  H35  1  0.83944000  0.63180000  0.92441000  1.0
  H  H36  1  0.34583000  0.48729000  0.76236000  1.0
  H  H37  1  0.65417000  0.51272000  0.23764000  1.0
  H  H38  1  0.22580000  0.40982000  0.87777000  1.0
  H  H39  1  0.77420000  0.59019000  0.12223000  1.0
  H  H40  1  0.36434000  0.32076000  0.78255000  1.0
  H  H41  1  0.63566000  0.67924000  0.21744000  1.0
  H  H42  1  0.50425000  0.17640000  0.19470000  1.0
  H  H43  1  0.49575000  0.82359000  0.80530000  1.0
  H  H44  1  0.41783000  0.32974000  0.22285000  1.0
  H  H45  1  0.58217000  0.67025000  0.77715000  1.0
  H  H46  1  0.59505000  0.29684000  0.15157000  1.0
  H  H47  1  0.40496000  0.70315000  0.84843000  1.0
  C  C48  1  0.87267000  0.89031000  0.10741000  1.0
  C  C49  1  0.12733000  0.10969000  0.89259000  1.0
  C  C50  1  0.87892000  0.84339000  0.22449000  1.0
  C  C51  1  0.12108000  0.15661000  0.77551000  1.0
  C  C52  1  0.89956000  0.90257000  0.29165000  1.0
  C  C53  1  0.10044000  0.09743000  0.70835000  1.0
  C  C54  1  0.89622000  0.81182000  0.39509000  1.0
  C  C55  1  0.10378000  0.18818000  0.60491000  1.0
  C  C56  1  0.91704000  0.82236000  0.49560000  1.0
  C  C57  1  0.08296000  0.17764000  0.50440000  1.0
  C  C58  1  0.92738000  0.03175000  0.25843000  1.0
  C  C59  1  0.07262000  0.96825000  0.74157000  1.0
  C  C60  1  0.07336000  0.03624000  0.20414000  1.0
  C  C61  1  0.92664000  0.96376000  0.79586000  1.0
  C  C62  1  0.17627000  0.93010000  0.17858000  1.0
  C  C63  1  0.82373000  0.06990000  0.82143000  1.0
  C  C64  1  0.30749000  0.94536000  0.12702000  1.0
  C  C65  1  0.69252000  0.05464000  0.87297000  1.0
  C  C66  1  0.33250000  0.06575000  0.10195000  1.0
  C  C67  1  0.66749000  0.93425000  0.89805000  1.0
  C  C68  1  0.22540000  0.16842000  0.12895000  1.0
  C  C69  1  0.77461000  0.83158000  0.87105000  1.0
  C  C70  1  0.24072000  0.30270000  0.10568000  1.0
  C  C71  1  0.75928000  0.69729000  0.89431000  1.0
  C  C72  1  0.33276000  0.39866000  0.82736000  1.0
  C  C73  1  0.66724000  0.60134000  0.17264000  1.0
  C  C74  1  0.40823000  0.37260000  0.90350000  1.0
  C  C75  1  0.59177000  0.62740000  0.09650000  1.0
  C  C76  1  0.37211000  0.33025000  0.02244000  1.0
  C  C77  1  0.62790000  0.66975000  0.97756000  1.0
  C  C78  1  0.48518000  0.32066000  0.04681000  1.0
  C  C79  1  0.51482000  0.67933000  0.95319000  1.0
  C  C80  1  0.50172000  0.27886000  0.15999000  1.0
  C  C81  1  0.49828000  0.72114000  0.84001000  1.0
  C  C82  1  0.83251000  0.48252000  0.64880000  1.0
  C  C83  1  0.16749000  0.51748000  0.35120000  1.0
  C  C84  1  0.89405000  0.39337000  0.31837000  1.0
  C  C85  1  0.10595000  0.60663000  0.68164000  1.0
  C  C86  1  0.84497000  0.35525000  0.01080000  1.0
  C  C87  1  0.15503000  0.64475000  0.98920000  1.0
  N  N88  1  0.87402000  0.70424000  0.39162000  1.0
  N  N89  1  0.12598000  0.29576000  0.60838000  1.0
  N  N90  1  0.86371000  0.72549000  0.28838000  1.0
  N  N91  1  0.13629000  0.27451000  0.71162000  1.0
  N  N92  1  0.09847000  0.15280000  0.17951000  1.0
  N  N93  1  0.90153000  0.84720000  0.82049000  1.0
  N  N94  1  0.53527000  0.38664000  0.86401000  1.0
  N  N95  1  0.46474000  0.61336000  0.13598000  1.0
  N  N96  1  0.58404000  0.35604000  0.94908000  1.0
  N  N97  1  0.41597000  0.64396000  0.05092000  1.0
  N  N98  1  0.80461000  0.44924000  0.74912000  1.0
  N  N99  1  0.19539000  0.55077000  0.25089000  1.0
  N  N100  1  0.86682000  0.44857000  0.38993000  1.0
  N  N101  1  0.13319000  0.55143000  0.61008000  1.0
  N  N102  1  0.89005000  0.33980000  0.08089000  1.0
  N  N103  1  0.10995000  0.66020000  0.91911000  1.0
