# generated using pymatgen
data_HgH8C9(NCl)2
_symmetry_space_group_name_H-M   'P 1'
_cell_length_a   3.89918000
_cell_length_b   10.60480000
_cell_length_c   25.93640000
_cell_angle_alpha   90.00040000
_cell_angle_beta   90.00000000
_cell_angle_gamma   98.48680000
_symmetry_Int_Tables_number   1
_chemical_formula_structural   HgH8C9(NCl)2
_chemical_formula_sum   'Hg4 H32 C36 N8 Cl8'
_cell_volume   1060.72709122
_cell_formula_units_Z   4
loop_
 _symmetry_equiv_pos_site_id
 _symmetry_equiv_pos_as_xyz
  1  'x, y, z'
loop_
 _atom_site_type_symbol
 _atom_site_label
 _atom_site_symmetry_multiplicity
 _atom_site_fract_x
 _atom_site_fract_y
 _atom_site_fract_z
 _atom_site_occupancy
  Hg  Hg0  1  0.36996000  0.57883000  0.42703000  1.0
  Hg  Hg1  1  0.13004000  0.92117000  0.92703000  1.0
  Hg  Hg2  1  0.63008000  0.42117000  0.57297000  1.0
  Hg  Hg3  1  0.86995000  0.07883000  0.07297000  1.0
  H  H4  1  0.96008000  0.71059000  0.23423000  1.0
  H  H5  1  0.53989000  0.78940000  0.73424000  1.0
  H  H6  1  0.03990000  0.28940000  0.76576000  1.0
  H  H7  1  0.46008000  0.21059000  0.26577000  1.0
  H  H8  1  0.18648000  0.87042000  0.23019000  1.0
  H  H9  1  0.31347000  0.62956000  0.73019000  1.0
  H  H10  1  0.81350000  0.12957000  0.76981000  1.0
  H  H11  1  0.68648000  0.37043000  0.26981000  1.0
  H  H12  1  0.76474000  0.83419000  0.20501000  1.0
  H  H13  1  0.73524000  0.66580000  0.70501000  1.0
  H  H14  1  0.23526000  0.16580000  0.79499000  1.0
  H  H15  1  0.26473000  0.33420000  0.29499000  1.0
  H  H16  1  0.63229000  0.64482000  0.31014000  1.0
  H  H17  1  0.86770000  0.85518000  0.81014000  1.0
  H  H18  1  0.36772000  0.35518000  0.68986000  1.0
  H  H19  1  0.13227000  0.14482000  0.18986000  1.0
  H  H20  1  0.22178000  0.84603000  0.45137000  1.0
  H  H21  1  0.27820000  0.65399000  0.95137000  1.0
  H  H22  1  0.77825000  0.15397000  0.54863000  1.0
  H  H23  1  0.72179000  0.34602000  0.04863000  1.0
  H  H24  1  0.23579000  0.07403000  0.47625000  1.0
  H  H25  1  0.26421000  0.42598000  0.97626000  1.0
  H  H26  1  0.76425000  0.92597000  0.52375000  1.0
  H  H27  1  0.73578000  0.57403000  0.02375000  1.0
  H  H28  1  0.53464000  0.24662000  0.42093000  1.0
  H  H29  1  0.96540000  0.25340000  0.92093000  1.0
  H  H30  1  0.46537000  0.75339000  0.57907000  1.0
  H  H31  1  0.03465000  0.74661000  0.07907000  1.0
  H  H32  1  0.81313000  0.19498000  0.33889000  1.0
  H  H33  1  0.68688000  0.30501000  0.83889000  1.0
  H  H34  1  0.18685000  0.80502000  0.66111000  1.0
  H  H35  1  0.31315000  0.69498000  0.16111000  1.0
  C  C36  1  0.78928000  0.84392000  0.28764000  1.0
  C  C37  1  0.71071000  0.65608000  0.78764000  1.0
  C  C38  1  0.21070000  0.15608000  0.71236000  1.0
  C  C39  1  0.28928000  0.34392000  0.21236000  1.0
  C  C40  1  0.93399000  0.81193000  0.23669000  1.0
  C  C41  1  0.56600000  0.68806000  0.73670000  1.0
  C  C42  1  0.06599000  0.18806000  0.76331000  1.0
  C  C43  1  0.43398000  0.31194000  0.26331000  1.0
  C  C44  1  0.63641000  0.74451000  0.32104000  1.0
  C  C45  1  0.86357000  0.75548000  0.82105000  1.0
  C  C46  1  0.36359000  0.25548000  0.67895000  1.0
  C  C47  1  0.13640000  0.24452000  0.17895000  1.0
  C  C48  1  0.50400000  0.89198000  0.38033000  1.0
  C  C49  1  0.99600000  0.60802000  0.88033000  1.0
  C  C50  1  0.49600000  0.10802000  0.61967000  1.0
  C  C51  1  0.00400000  0.39198000  0.11967000  1.0
  C  C52  1  0.34961000  0.92287000  0.42708000  1.0
  C  C53  1  0.15040000  0.57712000  0.92709000  1.0
  C  C54  1  0.65041000  0.07712000  0.57292000  1.0
  C  C55  1  0.84961000  0.42288000  0.07292000  1.0
  C  C56  1  0.35792000  0.04901000  0.44066000  1.0
  C  C57  1  0.14209000  0.45101000  0.94066000  1.0
  C  C58  1  0.64210000  0.95099000  0.55934000  1.0
  C  C59  1  0.85793000  0.54901000  0.05934000  1.0
  C  C60  1  0.52623000  0.14781000  0.40895000  1.0
  C  C61  1  0.97380000  0.35220000  0.90896000  1.0
  C  C62  1  0.47378000  0.85219000  0.59104000  1.0
  C  C63  1  0.02624000  0.64781000  0.09105000  1.0
  C  C64  1  0.67900000  0.11998000  0.36328000  1.0
  C  C65  1  0.82101000  0.38003000  0.86328000  1.0
  C  C66  1  0.32099000  0.88003000  0.63672000  1.0
  C  C67  1  0.17902000  0.61998000  0.13672000  1.0
  C  C68  1  0.66576000  0.99179000  0.34719000  1.0
  C  C69  1  0.83423000  0.50821000  0.84719000  1.0
  C  C70  1  0.33423000  0.00821000  0.65281000  1.0
  C  C71  1  0.16578000  0.49179000  0.15281000  1.0
  N  N72  1  0.80714000  0.96545000  0.30108000  1.0
  N  N73  1  0.69284000  0.53454000  0.80109000  1.0
  N  N74  1  0.19284000  0.03455000  0.69891000  1.0
  N  N75  1  0.30715000  0.46545000  0.19891000  1.0
  N  N76  1  0.50075000  0.76782000  0.36610000  1.0
  N  N77  1  0.99922000  0.73218000  0.86609000  1.0
  N  N78  1  0.49925000  0.23218000  0.63391000  1.0
  N  N79  1  0.00076000  0.26782000  0.13391000  1.0
  Cl  Cl80  1  0.78847000  0.65702000  0.49230000  1.0
  Cl  Cl81  1  0.71154000  0.84298000  0.99230000  1.0
  Cl  Cl82  1  0.21156000  0.34298000  0.50770000  1.0
  Cl  Cl83  1  0.28846000  0.15702000  0.00770000  1.0
  Cl  Cl84  1  0.93269000  0.46391000  0.37258000  1.0
  Cl  Cl85  1  0.56732000  0.03608000  0.87258000  1.0
  Cl  Cl86  1  0.06734000  0.53608000  0.62742000  1.0
  Cl  Cl87  1  0.43268000  0.96392000  0.12742000  1.0
