# generated using pymatgen
data_AlH8C15NClO6
_symmetry_space_group_name_H-M   'P 1'
_cell_length_a   6.65636000
_cell_length_b   16.95510000
_cell_length_c   17.74000106
_cell_angle_alpha   90.05619997
_cell_angle_beta   100.72037343
_cell_angle_gamma   97.45250000
_symmetry_Int_Tables_number   1
_chemical_formula_structural   AlH8C15NClO6
_chemical_formula_sum   'Al2 H16 C30 N2 Cl2 O12'
_cell_volume   1949.91441483
_cell_formula_units_Z   2
loop_
 _symmetry_equiv_pos_site_id
 _symmetry_equiv_pos_as_xyz
  1  'x, y, z'
loop_
 _atom_site_type_symbol
 _atom_site_label
 _atom_site_symmetry_multiplicity
 _atom_site_fract_x
 _atom_site_fract_y
 _atom_site_fract_z
 _atom_site_occupancy
  Al  Al0  1  0.00723000  0.50060000  0.49875000  1.0
  Al  Al1  1  0.50823000  0.50091000  0.50100000  1.0
  H  H2  1  0.82367000  0.55572000  0.58746000  1.0
  H  H3  1  0.19950000  0.44584000  0.41220000  1.0
  H  H4  1  0.35349000  0.26233000  0.47634000  1.0
  H  H5  1  0.28858000  0.11390000  0.47696000  1.0
  H  H6  1  0.94473000  0.10640000  0.53440000  1.0
  H  H7  1  0.06647000  0.89425000  0.46630000  1.0
  H  H8  1  0.72323000  0.88837000  0.52394000  1.0
  H  H9  1  0.66103000  0.73988000  0.52402000  1.0
  H  H10  1  0.07372000  0.53197000  0.72721000  1.0
  H  H11  1  0.13180000  0.53577000  0.87024000  1.0
  H  H12  1  0.64304000  0.43454000  0.73536000  1.0
  H  H13  1  0.36368000  0.57097000  0.27284000  1.0
  H  H14  1  0.90478000  0.45952000  0.26386000  1.0
  H  H15  1  0.81328000  0.45348000  0.12075000  1.0
  H  H16  1  0.04591000  0.31746000  0.53003000  1.0
  H  H17  1  0.96905000  0.68309000  0.46833000  1.0
  C  C18  1  0.32798000  0.48928000  0.63754000  1.0
  C  C19  1  0.30037000  0.64568000  0.49919000  1.0
  C  C20  1  0.68225000  0.51178000  0.36229000  1.0
  C  C21  1  0.71475000  0.35567000  0.50063000  1.0
  C  C22  1  0.68384000  0.26842000  0.50307000  1.0
  C  C23  1  0.48142000  0.22742000  0.48799000  1.0
  C  C24  1  0.44441000  0.14554000  0.48875000  1.0
  C  C25  1  0.61410000  0.10214000  0.50548000  1.0
  C  C26  1  0.81609000  0.14102000  0.52126000  1.0
  C  C27  1  0.85353000  0.22426000  0.52009000  1.0
  C  C28  1  0.19592000  0.86005000  0.47945000  1.0
  C  C29  1  0.39740000  0.89934000  0.49549000  1.0
  C  C30  1  0.56786000  0.85632000  0.51207000  1.0
  C  C31  1  0.53225000  0.77439000  0.51248000  1.0
  C  C32  1  0.33033000  0.73295000  0.49702000  1.0
  C  C33  1  0.15979000  0.77674000  0.47992000  1.0
  C  C34  1  0.35701000  0.48505000  0.72266000  1.0
  C  C35  1  0.21058000  0.51164000  0.76081000  1.0
  C  C36  1  0.24248000  0.51362000  0.84021000  1.0
  C  C37  1  0.41966000  0.48731000  0.88431000  1.0
  C  C38  1  0.56032000  0.45656000  0.84466000  1.0
  C  C39  1  0.53132000  0.45664000  0.76495000  1.0
  C  C40  1  0.45581000  0.49365000  0.96503000  1.0
  C  C41  1  0.48874000  0.50241000  0.03473000  1.0
  C  C42  1  0.53820000  0.50902000  0.11544000  1.0
  C  C43  1  0.41428000  0.54385000  0.15966000  1.0
  C  C44  1  0.46203000  0.54540000  0.23941000  1.0
  C  C45  1  0.63797000  0.51421000  0.27698000  1.0
  C  C46  1  0.76718000  0.48263000  0.23411000  1.0
  C  C47  1  0.71670000  0.47934000  0.15472000  1.0
  N  N48  1  0.59718000  0.01820000  0.50770000  1.0
  N  N49  1  0.41357000  0.98331000  0.49340000  1.0
  Cl  Cl50  1  0.77269000  0.41955000  0.89624000  1.0
  Cl  Cl51  1  0.19968000  0.58387000  0.11409000  1.0
  O  O52  1  0.15208000  0.50431000  0.60255000  1.0
  O  O53  1  0.45682000  0.60861000  0.51436000  1.0
  O  O54  1  0.53642000  0.52263000  0.39701000  1.0
  O  O55  1  0.90359000  0.39060000  0.51105000  1.0
  O  O56  1  0.86107000  0.49706000  0.39468000  1.0
  O  O57  1  0.55849000  0.39299000  0.48760000  1.0
  O  O58  1  0.47968000  0.47956000  0.60547000  1.0
  O  O59  1  0.11159000  0.61044000  0.48639000  1.0
  O  O60  1  0.78782000  0.53519000  0.53504000  1.0
  O  O61  1  0.22918000  0.46617000  0.46468000  1.0
  O  O62  1  0.05146000  0.25899000  0.53546000  1.0
  O  O63  1  0.96236000  0.74161000  0.46390000  1.0
