# generated using pymatgen
data_ZnH7C8N5Cl2
_symmetry_space_group_name_H-M   'P 1'
_cell_length_a   9.01650000
_cell_length_b   10.21730000
_cell_length_c   12.88270000
_cell_angle_alpha   90.00000000
_cell_angle_beta   106.28300000
_cell_angle_gamma   90.00000000
_symmetry_Int_Tables_number   1
_chemical_formula_structural   ZnH7C8N5Cl2
_chemical_formula_sum   'Zn4 H28 C32 N20 Cl8'
_cell_volume   1139.20485154
_cell_formula_units_Z   4
loop_
 _symmetry_equiv_pos_site_id
 _symmetry_equiv_pos_as_xyz
  1  'x, y, z'
loop_
 _atom_site_type_symbol
 _atom_site_label
 _atom_site_symmetry_multiplicity
 _atom_site_fract_x
 _atom_site_fract_y
 _atom_site_fract_z
 _atom_site_occupancy
  Zn  Zn0  1  0.07910000  0.05590000  0.31437000  1.0
  Zn  Zn1  1  0.42090000  0.55590000  0.18563000  1.0
  Zn  Zn2  1  0.92090000  0.94410000  0.68563000  1.0
  Zn  Zn3  1  0.57910000  0.44410000  0.81437000  1.0
  H  H4  1  0.87276000  0.86494000  0.43827000  1.0
  H  H5  1  0.62724000  0.36494000  0.06173000  1.0
  H  H6  1  0.12724000  0.13506000  0.56173000  1.0
  H  H7  1  0.37276000  0.63506000  0.93827000  1.0
  H  H8  1  0.98948000  0.57165000  0.24103000  1.0
  H  H9  1  0.51052000  0.07165000  0.25897000  1.0
  H  H10  1  0.01052000  0.42835000  0.75897000  1.0
  H  H11  1  0.48948000  0.92835000  0.74103000  1.0
  H  H12  1  0.69297000  0.61500000  0.65744000  1.0
  H  H13  1  0.80703000  0.11500000  0.84256000  1.0
  H  H14  1  0.30703000  0.38500000  0.34256000  1.0
  H  H15  1  0.19297000  0.88500000  0.15744000  1.0
  H  H16  1  0.54938000  0.23002000  0.66195000  1.0
  H  H17  1  0.95062000  0.73002000  0.83805000  1.0
  H  H18  1  0.45062000  0.76998000  0.33805000  1.0
  H  H19  1  0.04938000  0.26998000  0.16195000  1.0
  H  H20  1  0.62402000  0.17509000  0.49448000  1.0
  H  H21  1  0.87597000  0.67509000  0.00552000  1.0
  H  H22  1  0.37597000  0.82491000  0.50552000  1.0
  H  H23  1  0.12403000  0.32491000  0.99448000  1.0
  H  H24  1  0.74160000  0.35214000  0.40603000  1.0
  H  H25  1  0.75840000  0.85214000  0.09397000  1.0
  H  H26  1  0.25840000  0.64786000  0.59397000  1.0
  H  H27  1  0.24160000  0.14786000  0.90603000  1.0
  H  H28  1  0.79586000  0.70147000  0.51716000  1.0
  H  H29  1  0.70414000  0.20147000  0.98284000  1.0
  H  H30  1  0.20414000  0.29853000  0.48284000  1.0
  H  H31  1  0.29586000  0.79853000  0.01716000  1.0
  C  C32  1  0.92157000  0.81610000  0.38032000  1.0
  C  C33  1  0.57843000  0.31610000  0.11968000  1.0
  C  C34  1  0.07843000  0.18390000  0.61968000  1.0
  C  C35  1  0.42157000  0.68390000  0.88032000  1.0
  C  C36  1  0.98208000  0.66644000  0.27712000  1.0
  C  C37  1  0.51792000  0.16644000  0.22289000  1.0
  C  C38  1  0.01792000  0.33356000  0.72288000  1.0
  C  C39  1  0.48208000  0.83356000  0.77711000  1.0
  C  C40  1  0.72719000  0.49694000  0.52520000  1.0
  C  C41  1  0.77281000  0.99694000  0.97480000  1.0
  C  C42  1  0.27281000  0.50306000  0.47480000  1.0
  C  C43  1  0.22719000  0.00306000  0.02520000  1.0
  C  C44  1  0.68250000  0.51870000  0.61941000  1.0
  C  C45  1  0.81750000  0.01870000  0.88059000  1.0
  C  C46  1  0.31750000  0.48130000  0.38059000  1.0
  C  C47  1  0.18250000  0.98131000  0.11941000  1.0
  C  C48  1  0.60129000  0.30292000  0.62105000  1.0
  C  C49  1  0.89871000  0.80292000  0.87895000  1.0
  C  C50  1  0.39871000  0.69708000  0.37895000  1.0
  C  C51  1  0.10129000  0.19708000  0.12105000  1.0
  C  C52  1  0.64214000  0.27386000  0.52716000  1.0
  C  C53  1  0.85785000  0.77386000  0.97284000  1.0
  C  C54  1  0.35785000  0.72614000  0.47284000  1.0
  C  C55  1  0.14215000  0.22614000  0.02716000  1.0
  C  C56  1  0.70632000  0.37149000  0.47869000  1.0
  C  C57  1  0.79368000  0.87149000  0.02131000  1.0
  C  C58  1  0.29368000  0.62851000  0.52131000  1.0
  C  C59  1  0.20632000  0.12851000  0.97869000  1.0
  C  C60  1  0.79400000  0.60491000  0.47947000  1.0
  C  C61  1  0.70600000  0.10491000  0.02053000  1.0
  C  C62  1  0.20600000  0.39509000  0.52053000  1.0
  C  C63  1  0.29400000  0.89509000  0.97947000  1.0
  N  N64  1  0.91175000  0.68491000  0.35778000  1.0
  N  N65  1  0.58825000  0.18491000  0.14222000  1.0
  N  N66  1  0.08825000  0.31509000  0.64222000  1.0
  N  N67  1  0.41175000  0.81509000  0.85778000  1.0
  N  N68  1  0.99591000  0.87186000  0.31702000  1.0
  N  N69  1  0.50409000  0.37186000  0.18298000  1.0
  N  N70  1  0.00409000  0.12814000  0.68298000  1.0
  N  N71  1  0.49591000  0.62814000  0.81702000  1.0
  N  N72  1  0.03565000  0.77783000  0.25194000  1.0
  N  N73  1  0.46435000  0.27783000  0.24806000  1.0
  N  N74  1  0.96435000  0.22217000  0.74806000  1.0
  N  N75  1  0.53565000  0.72217000  0.75194000  1.0
  N  N76  1  0.84769000  0.58163000  0.39844000  1.0
  N  N77  1  0.65231000  0.08163000  0.10156000  1.0
  N  N78  1  0.15231000  0.41837000  0.60156000  1.0
  N  N79  1  0.34769000  0.91837000  0.89844000  1.0
  N  N80  1  0.62161000  0.42291000  0.66655000  1.0
  N  N81  1  0.87839000  0.92292000  0.83345000  1.0
  N  N82  1  0.37839000  0.57708000  0.33345000  1.0
  N  N83  1  0.12161000  0.07709000  0.16655000  1.0
  Cl  Cl84  1  0.92375000  0.22159000  0.32857000  1.0
  Cl  Cl85  1  0.57625000  0.72159000  0.17143000  1.0
  Cl  Cl86  1  0.07625000  0.77841000  0.67143000  1.0
  Cl  Cl87  1  0.42375000  0.27841000  0.82857000  1.0
  Cl  Cl88  1  0.30309000  0.07033000  0.44665000  1.0
  Cl  Cl89  1  0.19691000  0.57033000  0.05335000  1.0
  Cl  Cl90  1  0.69691000  0.92967000  0.55335000  1.0
  Cl  Cl91  1  0.80309000  0.42967000  0.94665000  1.0
