# generated using pymatgen
data_Cu3H21(C5N2)4
_symmetry_space_group_name_H-M   'P 1'
_cell_length_a   11.32590000
_cell_length_b   11.35930000
_cell_length_c   12.19120000
_cell_angle_alpha   67.81290000
_cell_angle_beta   87.73420000
_cell_angle_gamma   69.75210000
_symmetry_Int_Tables_number   1
_chemical_formula_structural   Cu3H21(C5N2)4
_chemical_formula_sum   'Cu6 H42 C40 N16'
_cell_volume   1355.04614748
_cell_formula_units_Z   2
loop_
 _symmetry_equiv_pos_site_id
 _symmetry_equiv_pos_as_xyz
  1  'x, y, z'
loop_
 _atom_site_type_symbol
 _atom_site_label
 _atom_site_symmetry_multiplicity
 _atom_site_fract_x
 _atom_site_fract_y
 _atom_site_fract_z
 _atom_site_occupancy
  Cu  Cu0  1  0.68563000  0.36691000  0.72474000  1.0
  Cu  Cu1  1  0.31437000  0.63308000  0.27526000  1.0
  Cu  Cu2  1  0.62962000  0.81244000  0.41663000  1.0
  Cu  Cu3  1  0.37038000  0.18756000  0.58338000  1.0
  Cu  Cu4  1  0.45662000  0.12303000  0.01064000  1.0
  Cu  Cu5  1  0.54338000  0.87697000  0.98936000  1.0
  H  H6  1  0.08493000  0.60188000  0.66439000  1.0
  H  H7  1  0.91507000  0.39812000  0.33560000  1.0
  H  H8  1  0.02404000  0.51075000  0.60617000  1.0
  H  H9  1  0.97596000  0.48925000  0.39383000  1.0
  H  H10  1  0.18285000  0.50180000  0.58974000  1.0
  H  H11  1  0.81715000  0.49820000  0.41026000  1.0
  H  H12  1  0.33993000  0.36857000  0.80519000  1.0
  H  H13  1  0.66007000  0.63143000  0.19481000  1.0
  H  H14  1  0.59787000  0.09899000  0.27627000  1.0
  H  H15  1  0.40212000  0.90101000  0.72373000  1.0
  H  H16  1  0.24326000  0.02930000  0.09682000  1.0
  H  H17  1  0.75674000  0.97071000  0.90318000  1.0
  H  H18  1  0.14993000  0.00733000  0.99820000  1.0
  H  H19  1  0.85007000  0.99267000  0.00180000  1.0
  H  H20  1  0.07503000  0.11202000  0.07669000  1.0
  H  H21  1  0.92497000  0.88798000  0.92331000  1.0
  H  H22  1  0.89975000  0.40748000  0.74311000  1.0
  H  H23  1  0.10025000  0.59252000  0.25689000  1.0
  H  H24  1  0.91160000  0.27414000  0.87996000  1.0
  H  H25  1  0.08840000  0.72587000  0.12004000  1.0
  H  H26  1  0.15951000  0.11137000  0.74500000  1.0
  H  H27  1  0.84049000  0.88863000  0.25500000  1.0
  H  H28  1  0.13547000  0.96759000  0.63961000  1.0
  H  H29  1  0.86453000  0.03241000  0.36040000  1.0
  H  H30  1  0.91715000  0.99694000  0.57131000  1.0
  H  H31  1  0.08285000  0.00306000  0.42869000  1.0
  H  H32  1  0.64674000  0.14089000  0.68420000  1.0
  H  H33  1  0.35326000  0.85911000  0.31580000  1.0
  H  H34  1  0.64052000  0.28841000  0.56337000  1.0
  H  H35  1  0.35948000  0.71159000  0.43663000  1.0
  H  H36  1  0.71163000  0.32835000  0.27508000  1.0
  H  H37  1  0.28836000  0.67165000  0.72491000  1.0
  H  H38  1  0.59373000  0.39271000  0.35987000  1.0
  H  H39  1  0.40626000  0.60729000  0.64013000  1.0
  H  H40  1  0.54941000  0.36244000  0.23867000  1.0
  H  H41  1  0.45059000  0.63756000  0.76133000  1.0
  H  H42  1  0.69367000  0.77896000  0.66151000  1.0
  H  H43  1  0.30633000  0.22104000  0.33850000  1.0
  H  H44  1  0.65869000  0.89552000  0.73447000  1.0
  H  H45  1  0.34131000  0.10448000  0.26553000  1.0
  H  H46  1  0.81372000  0.83047000  0.69712000  1.0
  H  H47  1  0.18628000  0.16953000  0.30288000  1.0
  C  C48  1  0.10876000  0.50622000  0.65066000  1.0
  C  C49  1  0.89124000  0.49379000  0.34934000  1.0
  C  C50  1  0.14986000  0.38512000  0.76537000  1.0
  C  C51  1  0.85013000  0.61488000  0.23463000  1.0
  C  C52  1  0.08826000  0.29757000  0.83134000  1.0
  C  C53  1  0.91173000  0.70243000  0.16866000  1.0
  C  C54  1  0.17389000  0.20077000  0.93273000  1.0
  C  C55  1  0.82611000  0.79923000  0.06727000  1.0
  C  C56  1  0.15937000  0.08152000  0.03145000  1.0
  C  C57  1  0.84063000  0.91848000  0.96855000  1.0
  C  C58  1  0.96057000  0.30256000  0.79928000  1.0
  C  C59  1  0.03943000  0.69744000  0.20072000  1.0
  C  C60  1  0.95803000  0.21246000  0.73503000  1.0
  C  C61  1  0.04197000  0.78754000  0.26497000  1.0
  C  C62  1  0.06638000  0.11982000  0.71521000  1.0
  C  C63  1  0.93362000  0.88018000  0.28480000  1.0
  C  C64  1  0.05242000  0.04074000  0.65622000  1.0
  C  C65  1  0.94758000  0.95926000  0.34379000  1.0
  C  C66  1  0.93147000  0.05673000  0.61793000  1.0
  C  C67  1  0.06853000  0.94327000  0.38207000  1.0
  C  C68  1  0.82677000  0.15208000  0.63918000  1.0
  C  C69  1  0.17323000  0.84791000  0.36082000  1.0
  C  C70  1  0.69169000  0.17733000  0.60235000  1.0
  C  C71  1  0.30831000  0.82267000  0.39765000  1.0
  C  C72  1  0.62262000  0.32344000  0.31285000  1.0
  C  C73  1  0.37738000  0.67656000  0.68715000  1.0
  C  C74  1  0.63895000  0.18236000  0.39584000  1.0
  C  C75  1  0.36105000  0.81764000  0.60416000  1.0
  C  C76  1  0.67235000  0.11601000  0.51898000  1.0
  C  C77  1  0.32765000  0.88399000  0.48102000  1.0
  C  C78  1  0.67891000  0.98053000  0.54827000  1.0
  C  C79  1  0.32109000  0.01947000  0.45173000  1.0
  C  C80  1  0.71278000  0.86511000  0.66666667  1.0
  C  C81  1  0.28722000  0.13489000  0.33333333  1.0
  C  C82  1  0.52441000  0.98680000  0.15591000  1.0
  C  C83  1  0.47560000  0.01320000  0.84410000  1.0
  C  C84  1  0.59263000  0.30351000  0.84453000  1.0
  C  C85  1  0.40737000  0.69649000  0.15547000  1.0
  C  C86  1  0.65869000  0.64186000  0.52880000  1.0
  C  C87  1  0.34131000  0.35814000  0.47120000  1.0
  N  N88  1  0.28071000  0.22812000  0.92911000  1.0
  N  N89  1  0.71929000  0.77188000  0.07090000  1.0
  N  N90  1  0.26352000  0.34018000  0.82833000  1.0
  N  N91  1  0.73648000  0.65983000  0.17167000  1.0
  N  N92  1  0.84101000  0.22769000  0.69718000  1.0
  N  N93  1  0.15899000  0.77231000  0.30282000  1.0
  N  N94  1  0.62616000  0.08842000  0.35890000  1.0
  N  N95  1  0.37384000  0.91158000  0.64110000  1.0
  N  N96  1  0.65004000  0.96540000  0.44948000  1.0
  N  N97  1  0.34996000  0.03459000  0.55052000  1.0
  N  N98  1  0.56985000  0.91041000  0.25373000  1.0
  N  N99  1  0.43015000  0.08960000  0.74627000  1.0
  N  N100  1  0.53345000  0.25128000  0.91532000  1.0
  N  N101  1  0.46655000  0.74872000  0.08468000  1.0
  N  N102  1  0.67082000  0.53515000  0.60456000  1.0
  N  N103  1  0.32918000  0.46485000  0.39544000  1.0
