# generated using pymatgen
data_CdH14C16(N2O3)2
_symmetry_space_group_name_H-M   'P 1'
_cell_length_a   9.03241403
_cell_length_b   9.03551000
_cell_length_c   12.84735963
_cell_angle_alpha   99.00940029
_cell_angle_beta   101.81697068
_cell_angle_gamma   119.08098835
_symmetry_Int_Tables_number   1
_chemical_formula_structural   CdH14C16(N2O3)2
_chemical_formula_sum   'Cd2 H28 C32 N8 O12'
_cell_volume   855.75350764
_cell_formula_units_Z   2
loop_
 _symmetry_equiv_pos_site_id
 _symmetry_equiv_pos_as_xyz
  1  'x, y, z'
loop_
 _atom_site_type_symbol
 _atom_site_label
 _atom_site_symmetry_multiplicity
 _atom_site_fract_x
 _atom_site_fract_y
 _atom_site_fract_z
 _atom_site_occupancy
  Cd  Cd0  1  0.50000000  0.50000000  1.00000000  1.0
  Cd  Cd1  1  0.00000000  0.50000000  0.50000000  1.0
  H  H2  1  0.37242000  0.92831000  0.07086000  1.0
  H  H3  1  0.35766000  0.30117000  0.42949000  1.0
  H  H4  1  0.62758000  0.07169000  0.92914000  1.0
  H  H5  1  0.64233000  0.69882000  0.57050000  1.0
  H  H6  1  0.40370000  0.77958000  0.21427000  1.0
  H  H7  1  0.06556000  0.18927000  0.28590000  1.0
  H  H8  1  0.59630000  0.22042000  0.78573000  1.0
  H  H9  1  0.93443000  0.81073000  0.71410000  1.0
  H  H10  1  0.74638000  0.74218000  0.84595000  1.0
  H  H11  1  0.39600000  0.89988000  0.65410000  1.0
  H  H12  1  0.25362000  0.25782000  0.15404000  1.0
  H  H13  1  0.60400000  0.10012000  0.34590000  1.0
  H  H14  1  0.83736000  0.50085000  0.16344000  1.0
  H  H15  1  0.83710000  0.67376000  0.33645000  1.0
  H  H16  1  0.16264000  0.49915000  0.83656000  1.0
  H  H17  1  0.16290000  0.32624000  0.66355000  1.0
  H  H18  1  0.08974000  0.90348000  0.89451000  1.0
  H  H19  1  0.50889000  0.19468000  0.60553000  1.0
  H  H20  1  0.91027000  0.09652000  0.10549000  1.0
  H  H21  1  0.49111000  0.80532000  0.39447000  1.0
  H  H22  1  0.59398000  0.83551000  0.03367000  1.0
  H  H23  1  0.30203000  0.56047000  0.46631000  1.0
  H  H24  1  0.40601000  0.16448000  0.96633000  1.0
  H  H25  1  0.69798000  0.43954000  0.53370000  1.0
  H  H26  1  0.38823000  0.74160000  0.96561000  1.0
  H  H27  1  0.27618000  0.42273000  0.53432000  1.0
  H  H28  1  0.61177000  0.25840000  0.03439000  1.0
  H  H29  1  0.72382000  0.57727000  0.46568000  1.0
  C  C30  1  0.92981000  0.65615000  0.05092000  1.0
  C  C31  1  0.10515000  0.87845000  0.44903000  1.0
  C  C32  1  0.07019000  0.34385000  0.94908000  1.0
  C  C33  1  0.89485000  0.12155000  0.55097000  1.0
  C  C34  1  0.14273000  0.56286000  0.29389000  1.0
  C  C35  1  0.76901000  0.84865000  0.20612000  1.0
  C  C36  1  0.85727000  0.43714000  0.70611000  1.0
  C  C37  1  0.23098000  0.15134000  0.79388000  1.0
  C  C38  1  0.12199000  0.63268000  0.19694000  1.0
  C  C39  1  0.93581000  0.92486000  0.30308000  1.0
  C  C40  1  0.87801000  0.36732000  0.80306000  1.0
  C  C41  1  0.06419000  0.07514000  0.69692000  1.0
  C  C42  1  0.08112000  0.77587000  0.02497000  1.0
  C  C43  1  0.25088000  0.05564000  0.47506000  1.0
  C  C44  1  0.91888000  0.22413000  0.97503000  1.0
  C  C45  1  0.74912000  0.94436000  0.52494000  1.0
  C  C46  1  0.25491000  0.82756000  0.08565000  1.0
  C  C47  1  0.24203000  0.16887000  0.41449000  1.0
  C  C48  1  0.74509000  0.17244000  0.91435000  1.0
  C  C49  1  0.75797000  0.83113000  0.58551000  1.0
  C  C50  1  0.27188000  0.75065000  0.16956000  1.0
  C  C51  1  0.08124000  0.10209000  0.33054000  1.0
  C  C52  1  0.72811000  0.24934000  0.83043000  1.0
  C  C53  1  0.91876000  0.89792000  0.66946000  1.0
  C  C54  1  0.83323000  0.73099000  0.91210000  1.0
  C  C55  1  0.31874000  0.92060000  0.58790000  1.0
  C  C56  1  0.16677000  0.26901000  0.08789000  1.0
  C  C57  1  0.68126000  0.07940000  0.41210000  1.0
  C  C58  1  0.94974000  0.58593000  0.13799000  1.0
  C  C59  1  0.94785000  0.81147000  0.36196000  1.0
  C  C60  1  0.05025000  0.41406000  0.86200000  1.0
  C  C61  1  0.05216000  0.18854000  0.63804000  1.0
  N  N62  1  0.77699000  0.63227000  0.97883000  1.0
  N  N63  1  0.15329000  0.79773000  0.52110000  1.0
  N  N64  1  0.22300000  0.36773000  0.02116000  1.0
  N  N65  1  0.84672000  0.20228000  0.47890000  1.0
  N  N66  1  0.01408000  0.81953000  0.93640000  1.0
  N  N67  1  0.38308000  0.07710000  0.56363000  1.0
  N  N68  1  0.98593000  0.18048000  0.06360000  1.0
  N  N69  1  0.61692000  0.92290000  0.43637000  1.0
  O  O70  1  0.00190000  0.46167000  0.31474000  1.0
  O  O71  1  0.64715000  0.68689000  0.18519000  1.0
  O  O72  1  0.99810000  0.53833000  0.68526000  1.0
  O  O73  1  0.35285000  0.31311000  0.81481000  1.0
  O  O74  1  0.30141000  0.61075000  0.35223000  1.0
  O  O75  1  0.75833000  0.94898000  0.14791000  1.0
  O  O76  1  0.69860000  0.38926000  0.64778000  1.0
  O  O77  1  0.24167000  0.05102000  0.85210000  1.0
  O  O78  1  0.49826000  0.75223000  0.95863000  1.0
  O  O79  1  0.29367000  0.53964000  0.54131000  1.0
  O  O80  1  0.50174000  0.24777000  0.04137000  1.0
  O  O81  1  0.70633000  0.46036000  0.45869000  1.0
