# generated using pymatgen
data_H27Pb2C18NO8
_symmetry_space_group_name_H-M   'P 1'
_cell_length_a   12.12130000
_cell_length_b   19.22050000
_cell_length_c   19.22060000
_cell_angle_alpha   89.99810000
_cell_angle_beta   89.99760000
_cell_angle_gamma   89.99890000
_symmetry_Int_Tables_number   1
_chemical_formula_structural   H27Pb2C18NO8
_chemical_formula_sum   'H216 Pb16 C144 N8 O64'
_cell_volume   4477.96630387
_cell_formula_units_Z   8
loop_
 _symmetry_equiv_pos_site_id
 _symmetry_equiv_pos_as_xyz
  1  'x, y, z'
loop_
 _atom_site_type_symbol
 _atom_site_label
 _atom_site_symmetry_multiplicity
 _atom_site_fract_x
 _atom_site_fract_y
 _atom_site_fract_z
 _atom_site_occupancy
  H  H0  1  0.42283000  0.00040000  0.38570000  1.0
  H  H1  1  0.57721000  0.61433000  0.00042000  1.0
  H  H2  1  0.07719000  0.50041000  0.11430000  1.0
  H  H3  1  0.42281000  0.99958000  0.61430000  1.0
  H  H4  1  0.92281000  0.88572000  0.50042000  1.0
  H  H5  1  0.57717000  0.38567000  0.99960000  1.0
  H  H6  1  0.07722000  0.49957000  0.88568000  1.0
  H  H7  1  0.92281000  0.11431000  0.49958000  1.0
  H  H8  1  0.58526000  0.05358000  0.32485000  1.0
  H  H9  1  0.41477000  0.67517000  0.05359000  1.0
  H  H10  1  0.91474000  0.55357000  0.17514000  1.0
  H  H11  1  0.58522000  0.94641000  0.67517000  1.0
  H  H12  1  0.08522000  0.82484000  0.55359000  1.0
  H  H13  1  0.41476000  0.32483000  0.94640000  1.0
  H  H14  1  0.91480000  0.44641000  0.82483000  1.0
  H  H15  1  0.08521000  0.17518000  0.44640000  1.0
  H  H16  1  0.57953000  0.07206000  0.41512000  1.0
  H  H17  1  0.42047000  0.58490000  0.07206000  1.0
  H  H18  1  0.92048000  0.57206000  0.08488000  1.0
  H  H19  1  0.57955000  0.92794000  0.58491000  1.0
  H  H20  1  0.07953000  0.91511000  0.57206000  1.0
  H  H21  1  0.42047000  0.41511000  0.92794000  1.0
  H  H22  1  0.92049000  0.42793000  0.91510000  1.0
  H  H23  1  0.07954000  0.08491000  0.42794000  1.0
  H  H24  1  0.62818000  0.17855000  0.34847000  1.0
  H  H25  1  0.37181000  0.65154000  0.17856000  1.0
  H  H26  1  0.87181000  0.67855000  0.15154000  1.0
  H  H27  1  0.62816000  0.82144000  0.65154000  1.0
  H  H28  1  0.12816000  0.84845000  0.67855000  1.0
  H  H29  1  0.37186000  0.34847000  0.82142000  1.0
  H  H30  1  0.87185000  0.32144000  0.84846000  1.0
  H  H31  1  0.12816000  0.15154000  0.32143000  1.0
  H  H32  1  0.50535000  0.17141000  0.29864000  1.0
  H  H33  1  0.49465000  0.70136000  0.17143000  1.0
  H  H34  1  0.99465000  0.67140000  0.20136000  1.0
  H  H35  1  0.50531000  0.82857000  0.70136000  1.0
  H  H36  1  0.00531000  0.79864000  0.67141000  1.0
  H  H37  1  0.49472000  0.29866000  0.82857000  1.0
  H  H38  1  0.99470000  0.32857000  0.79865000  1.0
  H  H39  1  0.00530000  0.20135000  0.32856000  1.0
  H  H40  1  0.51533000  0.18964000  0.45694000  1.0
  H  H41  1  0.48466000  0.54306000  0.18961000  1.0
  H  H42  1  0.98465000  0.68964000  0.04307000  1.0
  H  H43  1  0.51534000  0.81037000  0.54306000  1.0
  H  H44  1  0.01535000  0.95694000  0.68965000  1.0
  H  H45  1  0.48468000  0.45696000  0.81038000  1.0
  H  H46  1  0.98468000  0.31039000  0.95695000  1.0
  H  H47  1  0.01533000  0.04305000  0.31039000  1.0
  H  H48  1  0.31790000  0.18828000  0.35735000  1.0
  H  H49  1  0.68208000  0.64266000  0.18829000  1.0
  H  H50  1  0.18208000  0.68828000  0.14266000  1.0
  H  H51  1  0.31790000  0.81172000  0.64266000  1.0
  H  H52  1  0.81791000  0.85736000  0.68830000  1.0
  H  H53  1  0.68212000  0.35737000  0.81173000  1.0
  H  H54  1  0.18212000  0.31170000  0.85735000  1.0
  H  H55  1  0.81789000  0.14264000  0.31172000  1.0
  H  H56  1  0.31115000  0.20341000  0.44819000  1.0
  H  H57  1  0.68884000  0.55181000  0.20342000  1.0
  H  H58  1  0.18884000  0.70343000  0.05182000  1.0
  H  H59  1  0.31116000  0.79657000  0.55181000  1.0
  H  H60  1  0.81116000  0.94820000  0.70344000  1.0
  H  H61  1  0.68889000  0.44821000  0.79661000  1.0
  H  H62  1  0.18887000  0.29656000  0.94819000  1.0
  H  H63  1  0.81113000  0.05180000  0.29660000  1.0
  H  H64  1  0.38257000  0.08582000  0.47313000  1.0
  H  H65  1  0.61745000  0.52688000  0.08584000  1.0
  H  H66  1  0.11743000  0.58585000  0.02686000  1.0
  H  H67  1  0.38259000  0.91415000  0.52686000  1.0
  H  H68  1  0.88259000  0.97315000  0.58586000  1.0
  H  H69  1  0.61745000  0.47313000  0.91420000  1.0
  H  H70  1  0.11743000  0.41414000  0.97313000  1.0
  H  H71  1  0.88257000  0.02686000  0.41417000  1.0
  H  H72  1  0.26489000  0.07962000  0.41889000  1.0
  H  H73  1  0.73512000  0.58113000  0.07963000  1.0
  H  H74  1  0.23511000  0.57964000  0.08112000  1.0
  H  H75  1  0.26489000  0.92037000  0.58110000  1.0
  H  H76  1  0.76489000  0.91891000  0.57965000  1.0
  H  H77  1  0.73511000  0.41887000  0.92040000  1.0
  H  H78  1  0.23513000  0.42035000  0.91890000  1.0
  H  H79  1  0.76488000  0.08111000  0.42038000  1.0
  H  H80  1  0.24660000  0.27119000  0.06375000  1.0
  H  H81  1  0.75339000  0.93626000  0.27118000  1.0
  H  H82  1  0.25343000  0.77119000  0.43624000  1.0
  H  H83  1  0.24659000  0.72880000  0.93625000  1.0
  H  H84  1  0.74658000  0.56376000  0.77120000  1.0
  H  H85  1  0.75341000  0.06374000  0.72881000  1.0
  H  H86  1  0.25340000  0.22882000  0.56374000  1.0
  H  H87  1  0.74657000  0.43624000  0.22883000  1.0
  H  H88  1  0.26752000  0.28620000  0.22139000  1.0
  H  H89  1  0.73245000  0.77861000  0.28619000  1.0
  H  H90  1  0.23250000  0.78620000  0.27859000  1.0
  H  H91  1  0.26751000  0.71381000  0.77860000  1.0
  H  H92  1  0.76751000  0.72141000  0.78621000  1.0
  H  H93  1  0.73246000  0.22139000  0.71381000  1.0
  H  H94  1  0.23246000  0.21382000  0.72140000  1.0
  H  H95  1  0.76752000  0.27860000  0.21381000  1.0
  H  H96  1  0.14227000  0.27098000  0.17587000  1.0
  H  H97  1  0.85770000  0.82412000  0.27095000  1.0
  H  H98  1  0.35774000  0.77097000  0.32410000  1.0
  H  H99  1  0.14226000  0.72903000  0.82412000  1.0
  H  H100  1  0.64226000  0.67590000  0.77096000  1.0
  H  H101  1  0.85772000  0.17587000  0.72905000  1.0
  H  H102  1  0.35772000  0.22905000  0.67588000  1.0
  H  H103  1  0.64227000  0.32411000  0.22906000  1.0
  H  H104  1  0.16350000  0.39765000  0.19907000  1.0
  H  H105  1  0.83649000  0.80091000  0.39762000  1.0
  H  H106  1  0.33650000  0.89764000  0.30090000  1.0
  H  H107  1  0.16352000  0.60236000  0.80092000  1.0
  H  H108  1  0.66347000  0.69908000  0.89765000  1.0
  H  H109  1  0.83649000  0.19909000  0.60237000  1.0
  H  H110  1  0.33650000  0.10237000  0.69908000  1.0
  H  H111  1  0.66348000  0.30093000  0.10238000  1.0
  H  H112  1  0.16644000  0.37984000  0.10882000  1.0
  H  H113  1  0.83355000  0.89116000  0.37982000  1.0
  H  H114  1  0.33356000  0.87984000  0.39115000  1.0
  H  H115  1  0.16646000  0.62017000  0.89117000  1.0
  H  H116  1  0.66641000  0.60883000  0.87983000  1.0
  H  H117  1  0.83356000  0.10884000  0.62017000  1.0
  H  H118  1  0.33357000  0.12019000  0.60883000  1.0
  H  H119  1  0.66642000  0.39117000  0.12020000  1.0
  H  H120  1  0.31073000  0.46361000  0.13475000  1.0
  H  H121  1  0.68927000  0.86522000  0.46360000  1.0
  H  H122  1  0.18926000  0.96361000  0.36520000  1.0
  H  H123  1  0.31075000  0.53640000  0.86522000  1.0
  H  H124  1  0.81070000  0.63478000  0.96361000  1.0
  H  H125  1  0.68927000  0.13478000  0.53640000  1.0
  H  H126  1  0.18928000  0.03640000  0.63477000  1.0
  H  H127  1  0.81069000  0.36523000  0.03640000  1.0
  H  H128  1  0.35710000  0.38139000  0.04486000  1.0
  H  H129  1  0.64291000  0.95512000  0.38140000  1.0
  H  H130  1  0.14291000  0.88140000  0.45511000  1.0
  H  H131  1  0.35713000  0.61860000  0.95511000  1.0
  H  H132  1  0.85710000  0.54488000  0.88140000  1.0
  H  H133  1  0.64291000  0.04489000  0.61861000  1.0
  H  H134  1  0.14289000  0.11862000  0.54488000  1.0
  H  H135  1  0.85708000  0.45512000  0.11860000  1.0
  H  H136  1  0.47795000  0.39649000  0.09436000  1.0
  H  H137  1  0.52205000  0.90563000  0.39650000  1.0
  H  H138  1  0.02205000  0.89648000  0.40560000  1.0
  H  H139  1  0.47798000  0.60352000  0.90559000  1.0
  H  H140  1  0.97793000  0.59441000  0.89649000  1.0
  H  H141  1  0.52206000  0.09438000  0.60351000  1.0
  H  H142  1  0.02205000  0.10353000  0.59440000  1.0
  H  H143  1  0.97792000  0.40561000  0.10351000  1.0
  H  H144  1  0.44980000  0.28461000  0.15795000  1.0
  H  H145  1  0.55020000  0.84204000  0.28462000  1.0
  H  H146  1  0.05023000  0.78460000  0.34203000  1.0
  H  H147  1  0.44977000  0.71540000  0.84202000  1.0
  H  H148  1  0.94976000  0.65800000  0.78462000  1.0
  H  H149  1  0.55021000  0.15797000  0.71539000  1.0
  H  H150  1  0.05022000  0.21541000  0.65798000  1.0
  H  H151  1  0.94978000  0.34203000  0.21539000  1.0
  H  H152  1  0.45511000  0.27025000  0.06704000  1.0
  H  H153  1  0.54487000  0.93295000  0.27027000  1.0
  H  H154  1  0.04491000  0.77025000  0.43294000  1.0
  H  H155  1  0.45512000  0.72975000  0.93292000  1.0
  H  H156  1  0.95511000  0.56709000  0.77026000  1.0
  H  H157  1  0.54488000  0.06705000  0.72974000  1.0
  H  H158  1  0.04487000  0.22976000  0.56707000  1.0
  H  H159  1  0.95511000  0.43294000  0.22974000  1.0
  H  H160  1  0.60615000  0.20347000  0.15611000  1.0
  H  H161  1  0.39389000  0.84390000  0.20346000  1.0
  H  H162  1  0.89390000  0.70346000  0.34388000  1.0
  H  H163  1  0.60613000  0.79654000  0.84390000  1.0
  H  H164  1  0.10613000  0.65606000  0.70348000  1.0
  H  H165  1  0.39388000  0.15606000  0.79651000  1.0
  H  H166  1  0.89387000  0.29653000  0.65609000  1.0
  H  H167  1  0.10613000  0.34390000  0.29654000  1.0
  H  H168  1  0.72971000  0.15444000  0.16558000  1.0
  H  H169  1  0.27032000  0.83440000  0.15445000  1.0
  H  H170  1  0.77032000  0.65445000  0.33440000  1.0
  H  H171  1  0.72969000  0.84556000  0.83442000  1.0
  H  H172  1  0.22969000  0.66556000  0.65446000  1.0
  H  H173  1  0.27031000  0.16555000  0.84553000  1.0
  H  H174  1  0.77030000  0.34554000  0.66557000  1.0
  H  H175  1  0.22969000  0.33441000  0.34555000  1.0
  H  H176  1  0.60390000  0.12478000  0.20508000  1.0
  H  H177  1  0.39615000  0.79492000  0.12477000  1.0
  H  H178  1  0.89614000  0.62477000  0.29491000  1.0
  H  H179  1  0.60390000  0.87523000  0.79492000  1.0
  H  H180  1  0.10387000  0.70506000  0.62481000  1.0
  H  H181  1  0.39612000  0.20506000  0.87519000  1.0
  H  H182  1  0.89611000  0.37521000  0.70507000  1.0
  H  H183  1  0.10388000  0.29492000  0.37523000  1.0
  H  H184  1  0.61509000  0.00993000  0.05552000  1.0
  H  H185  1  0.38491000  0.94448000  0.00992000  1.0
  H  H186  1  0.88495000  0.50992000  0.44447000  1.0
  H  H187  1  0.61509000  0.99009000  0.94447000  1.0
  H  H188  1  0.11506000  0.55552000  0.50992000  1.0
  H  H189  1  0.38495000  0.05551000  0.99008000  1.0
  H  H190  1  0.88495000  0.49007000  0.55551000  1.0
  H  H191  1  0.11508000  0.44449000  0.49007000  1.0
  H  H192  1  0.60432000  0.01486000  0.14822000  1.0
  H  H193  1  0.39568000  0.85179000  0.01486000  1.0
  H  H194  1  0.89571000  0.51486000  0.35177000  1.0
  H  H195  1  0.60432000  0.98515000  0.85177000  1.0
  H  H196  1  0.10430000  0.64821000  0.51487000  1.0
  H  H197  1  0.39571000  0.14821000  0.98512000  1.0
  H  H198  1  0.89571000  0.48513000  0.64821000  1.0
  H  H199  1  0.10432000  0.35180000  0.48514000  1.0
  H  H200  1  0.73177000  0.03356000  0.10638000  1.0
  H  H201  1  0.26823000  0.89361000  0.03355000  1.0
  H  H202  1  0.76826000  0.53355000  0.39359000  1.0
  H  H203  1  0.73177000  0.96644000  0.89360000  1.0
  H  H204  1  0.23175000  0.60638000  0.53355000  1.0
  H  H205  1  0.26826000  0.10638000  0.96645000  1.0
  H  H206  1  0.76826000  0.46646000  0.60639000  1.0
  H  H207  1  0.23177000  0.39362000  0.46644000  1.0
  H  H208  1  0.52922000  0.11790000  0.08863000  1.0
  H  H209  1  0.47078000  0.91139000  0.11788000  1.0
  H  H210  1  0.97080000  0.61789000  0.41137000  1.0
  H  H211  1  0.52919000  0.88213000  0.91137000  1.0
  H  H212  1  0.02920000  0.58861000  0.61790000  1.0
  H  H213  1  0.47081000  0.08861000  0.88210000  1.0
  H  H214  1  0.97079000  0.38210000  0.58860000  1.0
  H  H215  1  0.02921000  0.41138000  0.38211000  1.0
  Pb  Pb216  1  0.27914000  0.02400000  0.16323000  1.0
  Pb  Pb217  1  0.72083000  0.83679000  0.02400000  1.0
  Pb  Pb218  1  0.22094000  0.52400000  0.33675000  1.0
  Pb  Pb219  1  0.27914000  0.97599000  0.83677000  1.0
  Pb  Pb220  1  0.77916000  0.66324000  0.52400000  1.0
  Pb  Pb221  1  0.72084000  0.16322000  0.97600000  1.0
  Pb  Pb222  1  0.22091000  0.47598000  0.66324000  1.0
  Pb  Pb223  1  0.77916000  0.33677000  0.47601000  1.0
  Pb  Pb224  1  0.00917000  0.15277000  0.07766000  1.0
  Pb  Pb225  1  0.99082000  0.92236000  0.15275000  1.0
  Pb  Pb226  1  0.49083000  0.65275000  0.42236000  1.0
  Pb  Pb227  1  0.00917000  0.84722000  0.92236000  1.0
  Pb  Pb228  1  0.50920000  0.57765000  0.65276000  1.0
  Pb  Pb229  1  0.99081000  0.07762000  0.84725000  1.0
  Pb  Pb230  1  0.49083000  0.34725000  0.57766000  1.0
  Pb  Pb231  1  0.50920000  0.42233000  0.34722000  1.0
  C  C232  1  0.36905000  0.05050000  0.29596000  1.0
  C  C233  1  0.63094000  0.70407000  0.05054000  1.0
  C  C234  1  0.13095000  0.55051000  0.20404000  1.0
  C  C235  1  0.36904000  0.94948000  0.70404000  1.0
  C  C236  1  0.86904000  0.79598000  0.55051000  1.0
  C  C237  1  0.63095000  0.29595000  0.94949000  1.0
  C  C238  1  0.13099000  0.44947000  0.79595000  1.0
  C  C239  1  0.86902000  0.20404000  0.44948000  1.0
  C  C240  1  0.42026000  0.05512000  0.36830000  1.0
  C  C241  1  0.57975000  0.63172000  0.05514000  1.0
  C  C242  1  0.07976000  0.55513000  0.13170000  1.0
  C  C243  1  0.42024000  0.94486000  0.63170000  1.0
  C  C244  1  0.92024000  0.86831000  0.55514000  1.0
  C  C245  1  0.57976000  0.36829000  0.94487000  1.0
  C  C246  1  0.07978000  0.44485000  0.86830000  1.0
  C  C247  1  0.92023000  0.13170000  0.44486000  1.0
  C  C248  1  0.53923000  0.08238000  0.36472000  1.0
  C  C249  1  0.46076000  0.63529000  0.08238000  1.0
  C  C250  1  0.96075000  0.58237000  0.13528000  1.0
  C  C251  1  0.53923000  0.91762000  0.63529000  1.0
  C  C252  1  0.03923000  0.86472000  0.58238000  1.0
  C  C253  1  0.46077000  0.36471000  0.91762000  1.0
  C  C254  1  0.96079000  0.41761000  0.86471000  1.0
  C  C255  1  0.03922000  0.13529000  0.41761000  1.0
  C  C256  1  0.54242000  0.16023000  0.34972000  1.0
  C  C257  1  0.45757000  0.65028000  0.16024000  1.0
  C  C258  1  0.95757000  0.66023000  0.15028000  1.0
  C  C259  1  0.54241000  0.83975000  0.65029000  1.0
  C  C260  1  0.04241000  0.84971000  0.66024000  1.0
  C  C261  1  0.45761000  0.34973000  0.83975000  1.0
  C  C262  1  0.95761000  0.33975000  0.84972000  1.0
  C  C263  1  0.04240000  0.15028000  0.33975000  1.0
  C  C264  1  0.47809000  0.20008000  0.40582000  1.0
  C  C265  1  0.52189000  0.59418000  0.20008000  1.0
  C  C266  1  0.02189000  0.70008000  0.09419000  1.0
  C  C267  1  0.47809000  0.79992000  0.59419000  1.0
  C  C268  1  0.97809000  0.90581000  0.70009000  1.0
  C  C269  1  0.52195000  0.40584000  0.79992000  1.0
  C  C270  1  0.02192000  0.29991000  0.90583000  1.0
  C  C271  1  0.97808000  0.09417000  0.29992000  1.0
  C  C272  1  0.35718000  0.17553000  0.40738000  1.0
  C  C273  1  0.64281000  0.59262000  0.17555000  1.0
  C  C274  1  0.14281000  0.67555000  0.09262000  1.0
  C  C275  1  0.35718000  0.82445000  0.59262000  1.0
  C  C276  1  0.85718000  0.90738000  0.67556000  1.0
  C  C277  1  0.64285000  0.40740000  0.82447000  1.0
  C  C278  1  0.14284000  0.32444000  0.90738000  1.0
  C  C279  1  0.85716000  0.09261000  0.32446000  1.0
  C  C280  1  0.35113000  0.09707000  0.42045000  1.0
  C  C281  1  0.64888000  0.57957000  0.09708000  1.0
  C  C282  1  0.14887000  0.59709000  0.07956000  1.0
  C  C283  1  0.35114000  0.90291000  0.57956000  1.0
  C  C284  1  0.85114000  0.92045000  0.59710000  1.0
  C  C285  1  0.64889000  0.42045000  0.90294000  1.0
  C  C286  1  0.14889000  0.40290000  0.92045000  1.0
  C  C287  1  0.85113000  0.07956000  0.40293000  1.0
  C  C288  1  0.48633000  0.27759000  0.39372000  1.0
  C  C289  1  0.51362000  0.60624000  0.27759000  1.0
  C  C290  1  0.01362000  0.77760000  0.10628000  1.0
  C  C291  1  0.48638000  0.72240000  0.60626000  1.0
  C  C292  1  0.98636000  0.89372000  0.77760000  1.0
  C  C293  1  0.51368000  0.39378000  0.72241000  1.0
  C  C294  1  0.01364000  0.22240000  0.89376000  1.0
  C  C295  1  0.98635000  0.10624000  0.22241000  1.0
  C  C296  1  0.29160000  0.26076000  0.11273000  1.0
  C  C297  1  0.70839000  0.88725000  0.26074000  1.0
  C  C298  1  0.20842000  0.76075000  0.38724000  1.0
  C  C299  1  0.29159000  0.73926000  0.88724000  1.0
  C  C300  1  0.79159000  0.61277000  0.76075000  1.0
  C  C301  1  0.70839000  0.11274000  0.73926000  1.0
  C  C302  1  0.20840000  0.23926000  0.61274000  1.0
  C  C303  1  0.79159000  0.38724000  0.23927000  1.0
  C  C304  1  0.22419000  0.29489000  0.17169000  1.0
  C  C305  1  0.77580000  0.82830000  0.29487000  1.0
  C  C306  1  0.27584000  0.79488000  0.32828000  1.0
  C  C307  1  0.22418000  0.70513000  0.82829000  1.0
  C  C308  1  0.72416000  0.67172000  0.79489000  1.0
  C  C309  1  0.77580000  0.17170000  0.70513000  1.0
  C  C310  1  0.27581000  0.20513000  0.67170000  1.0
  C  C311  1  0.72417000  0.32828000  0.20513000  1.0
  C  C312  1  0.21226000  0.37292000  0.15787000  1.0
  C  C313  1  0.78773000  0.84212000  0.37290000  1.0
  C  C314  1  0.28774000  0.87292000  0.34210000  1.0
  C  C315  1  0.21227000  0.62709000  0.84212000  1.0
  C  C316  1  0.71223000  0.65788000  0.87292000  1.0
  C  C317  1  0.78774000  0.15788000  0.62709000  1.0
  C  C318  1  0.28774000  0.12710000  0.65788000  1.0
  C  C319  1  0.71224000  0.34213000  0.12709000  1.0
  C  C320  1  0.32471000  0.40907000  0.15082000  1.0
  C  C321  1  0.67529000  0.84916000  0.40907000  1.0
  C  C322  1  0.17530000  0.90907000  0.34914000  1.0
  C  C323  1  0.32472000  0.59093000  0.84916000  1.0
  C  C324  1  0.82467000  0.65084000  0.90908000  1.0
  C  C325  1  0.67529000  0.15084000  0.59094000  1.0
  C  C326  1  0.17529000  0.09094000  0.65084000  1.0
  C  C327  1  0.82467000  0.34916000  0.09094000  1.0
  C  C328  1  0.38320000  0.41597000  0.22058000  1.0
  C  C329  1  0.61680000  0.77939000  0.41597000  1.0
  C  C330  1  0.11680000  0.91597000  0.27938000  1.0
  C  C331  1  0.38321000  0.58403000  0.77939000  1.0
  C  C332  1  0.88315000  0.72061000  0.91598000  1.0
  C  C333  1  0.61682000  0.22061000  0.58404000  1.0
  C  C334  1  0.11681000  0.08403000  0.72061000  1.0
  C  C335  1  0.88316000  0.27940000  0.08403000  1.0
  C  C336  1  0.39578000  0.37258000  0.09593000  1.0
  C  C337  1  0.60422000  0.90405000  0.37258000  1.0
  C  C338  1  0.10423000  0.87258000  0.40404000  1.0
  C  C339  1  0.39580000  0.62743000  0.90405000  1.0
  C  C340  1  0.89577000  0.59595000  0.87258000  1.0
  C  C341  1  0.60422000  0.09595000  0.62742000  1.0
  C  C342  1  0.10421000  0.12743000  0.59595000  1.0
  C  C343  1  0.89576000  0.40406000  0.12742000  1.0
  C  C344  1  0.40592000  0.29409000  0.10866000  1.0
  C  C345  1  0.59406000  0.89133000  0.29410000  1.0
  C  C346  1  0.09409000  0.79409000  0.39131000  1.0
  C  C347  1  0.40593000  0.70590000  0.89131000  1.0
  C  C348  1  0.90592000  0.60870000  0.79411000  1.0
  C  C349  1  0.59406000  0.10868000  0.70590000  1.0
  C  C350  1  0.09407000  0.20592000  0.60869000  1.0
  C  C351  1  0.90591000  0.39132000  0.20589000  1.0
  C  C352  1  0.29182000  0.18209000  0.12016000  1.0
  C  C353  1  0.70818000  0.87985000  0.18209000  1.0
  C  C354  1  0.20819000  0.68208000  0.37984000  1.0
  C  C355  1  0.29182000  0.81791000  0.87985000  1.0
  C  C356  1  0.79183000  0.62016000  0.68210000  1.0
  C  C357  1  0.70817000  0.12015000  0.81791000  1.0
  C  C358  1  0.20818000  0.31792000  0.62016000  1.0
  C  C359  1  0.79183000  0.37984000  0.31792000  1.0
  C  C360  1  0.63995000  0.15080000  0.15929000  1.0
  C  C361  1  0.36008000  0.84071000  0.15080000  1.0
  C  C362  1  0.86008000  0.65080000  0.34070000  1.0
  C  C363  1  0.63994000  0.84921000  0.84072000  1.0
  C  C364  1  0.13993000  0.65926000  0.65082000  1.0
  C  C365  1  0.36007000  0.15926000  0.84918000  1.0
  C  C366  1  0.86005000  0.34919000  0.65927000  1.0
  C  C367  1  0.13994000  0.34072000  0.34920000  1.0
  C  C368  1  0.64163000  0.03916000  0.10179000  1.0
  C  C369  1  0.35837000  0.89822000  0.03915000  1.0
  C  C370  1  0.85840000  0.53915000  0.39820000  1.0
  C  C371  1  0.64162000  0.96086000  0.89821000  1.0
  C  C372  1  0.14161000  0.60178000  0.53916000  1.0
  C  C373  1  0.35839000  0.10178000  0.96085000  1.0
  C  C374  1  0.85840000  0.46085000  0.60178000  1.0
  C  C375  1  0.14163000  0.39822000  0.46085000  1.0
  N  N376  1  0.61284000  0.11287000  0.09495000  1.0
  N  N377  1  0.38716000  0.90506000  0.11286000  1.0
  N  N378  1  0.88718000  0.61287000  0.40504000  1.0
  N  N379  1  0.61282000  0.88714000  0.90505000  1.0
  N  N380  1  0.11283000  0.59493000  0.61287000  1.0
  N  N381  1  0.38718000  0.09492000  0.88712000  1.0
  N  N382  1  0.88716000  0.38712000  0.59493000  1.0
  N  N383  1  0.11284000  0.40506000  0.38713000  1.0
  O  O384  1  0.37832000  0.14808000  0.13405000  1.0
  O  O385  1  0.62169000  0.86596000  0.14807000  1.0
  O  O386  1  0.12169000  0.64808000  0.36596000  1.0
  O  O387  1  0.37830000  0.85193000  0.86594000  1.0
  O  O388  1  0.87832000  0.63409000  0.64810000  1.0
  O  O389  1  0.62168000  0.13410000  0.85191000  1.0
  O  O390  1  0.12166000  0.35193000  0.63400000  1.0
  O  O391  1  0.87836000  0.36600000  0.35193000  1.0
  O  O392  1  0.19838000  0.15032000  0.11224000  1.0
  O  O393  1  0.80161000  0.88777000  0.15031000  1.0
  O  O394  1  0.30164000  0.65032000  0.38777000  1.0
  O  O395  1  0.19840000  0.84969000  0.88780000  1.0
  O  O396  1  0.69841000  0.61221000  0.65032000  1.0
  O  O397  1  0.80159000  0.11218000  0.84970000  1.0
  O  O398  1  0.30164000  0.34968000  0.61228000  1.0
  O  O399  1  0.69838000  0.38770000  0.34970000  1.0
  O  O400  1  0.42802000  0.02476000  0.24655000  1.0
  O  O401  1  0.57197000  0.75347000  0.02477000  1.0
  O  O402  1  0.07199000  0.52476000  0.25346000  1.0
  O  O403  1  0.42800000  0.97522000  0.75345000  1.0
  O  O404  1  0.92801000  0.74657000  0.52476000  1.0
  O  O405  1  0.57197000  0.24655000  0.97525000  1.0
  O  O406  1  0.07202000  0.47521000  0.74654000  1.0
  O  O407  1  0.92800000  0.25345000  0.47523000  1.0
  O  O408  1  0.26916000  0.06839000  0.28572000  1.0
  O  O409  1  0.73081000  0.71432000  0.06845000  1.0
  O  O410  1  0.23085000  0.56839000  0.21428000  1.0
  O  O411  1  0.26915000  0.93160000  0.71428000  1.0
  O  O412  1  0.76915000  0.78574000  0.56839000  1.0
  O  O413  1  0.73083000  0.28570000  0.93159000  1.0
  O  O414  1  0.23088000  0.43157000  0.78571000  1.0
  O  O415  1  0.76914000  0.21429000  0.43160000  1.0
  O  O416  1  0.48838000  0.41291000  0.22315000  1.0
  O  O417  1  0.51162000  0.77682000  0.41291000  1.0
  O  O418  1  0.01162000  0.91292000  0.27682000  1.0
  O  O419  1  0.48839000  0.58711000  0.77682000  1.0
  O  O420  1  0.98833000  0.72317000  0.91293000  1.0
  O  O421  1  0.51164000  0.22320000  0.58712000  1.0
  O  O422  1  0.01162000  0.08709000  0.72318000  1.0
  O  O423  1  0.98835000  0.27683000  0.08710000  1.0
  O  O424  1  0.32570000  0.42557000  0.27584000  1.0
  O  O425  1  0.67431000  0.72414000  0.42559000  1.0
  O  O426  1  0.17432000  0.92557000  0.22413000  1.0
  O  O427  1  0.32570000  0.57439000  0.72415000  1.0
  O  O428  1  0.82563000  0.77585000  0.92559000  1.0
  O  O429  1  0.67433000  0.27586000  0.57441000  1.0
  O  O430  1  0.17432000  0.07441000  0.77585000  1.0
  O  O431  1  0.82565000  0.22416000  0.07440000  1.0
  O  O432  1  0.52021000  0.31745000  0.44281000  1.0
  O  O433  1  0.47958000  0.55717000  0.31743000  1.0
  O  O434  1  0.97966000  0.81745000  0.05719000  1.0
  O  O435  1  0.52043000  0.68256000  0.55719000  1.0
  O  O436  1  0.02034000  0.94279000  0.81745000  1.0
  O  O437  1  0.47953000  0.44282000  0.68258000  1.0
  O  O438  1  0.97962000  0.18256000  0.94284000  1.0
  O  O439  1  0.02047000  0.05718000  0.18258000  1.0
  O  O440  1  0.45987000  0.30179000  0.33402000  1.0
  O  O441  1  0.54020000  0.66591000  0.30182000  1.0
  O  O442  1  0.04011000  0.80181000  0.16595000  1.0
  O  O443  1  0.45980000  0.69818000  0.66593000  1.0
  O  O444  1  0.95981000  0.83404000  0.80182000  1.0
  O  O445  1  0.54038000  0.33413000  0.69817000  1.0
  O  O446  1  0.04019000  0.19817000  0.83409000  1.0
  O  O447  1  0.95967000  0.16588000  0.19818000  1.0
