# generated using pymatgen
data_CuH6C9SN3
_symmetry_space_group_name_H-M   'P 1'
_cell_length_a   13.00230000
_cell_length_b   13.54300000
_cell_length_c   13.54300000
_cell_angle_alpha   70.70460000
_cell_angle_beta   85.37370000
_cell_angle_gamma   85.37370000
_symmetry_Int_Tables_number   1
_chemical_formula_structural   CuH6C9SN3
_chemical_formula_sum   'Cu8 H48 C72 S8 N24'
_cell_volume   2239.79634271
_cell_formula_units_Z   8
loop_
 _symmetry_equiv_pos_site_id
 _symmetry_equiv_pos_as_xyz
  1  'x, y, z'
loop_
 _atom_site_type_symbol
 _atom_site_label
 _atom_site_symmetry_multiplicity
 _atom_site_fract_x
 _atom_site_fract_y
 _atom_site_fract_z
 _atom_site_occupancy
  Cu  Cu0  1  0.15326000  0.54582000  0.44876000  1.0
  Cu  Cu1  1  0.34674000  0.55125000  0.45417000  1.0
  Cu  Cu2  1  0.84674000  0.45417000  0.55125000  1.0
  Cu  Cu3  1  0.65326000  0.44876000  0.54582000  1.0
  Cu  Cu4  1  0.21262000  0.73424000  0.43801000  1.0
  Cu  Cu5  1  0.28738000  0.56199000  0.26576000  1.0
  Cu  Cu6  1  0.78738000  0.26575000  0.56199000  1.0
  Cu  Cu7  1  0.71263000  0.43801000  0.73424000  1.0
  H  H8  1  0.12054000  0.04598000  0.12625000  1.0
  H  H9  1  0.37946000  0.87376000  0.95402000  1.0
  H  H10  1  0.87946000  0.95402000  0.87376000  1.0
  H  H11  1  0.62054000  0.12625000  0.04598000  1.0
  H  H12  1  0.13708000  0.95141000  0.31604000  1.0
  H  H13  1  0.36292000  0.68396000  0.04859000  1.0
  H  H14  1  0.86292000  0.04859000  0.68397000  1.0
  H  H15  1  0.63708000  0.31604000  0.95140000  1.0
  H  H16  1  0.12169000  0.10866000  0.96379000  1.0
  H  H17  1  0.37830000  0.03621000  0.89134000  1.0
  H  H18  1  0.87830000  0.89134000  0.03621000  1.0
  H  H19  1  0.62170000  0.96379000  0.10867000  1.0
  H  H20  1  0.13634000  0.17197000  0.77007000  1.0
  H  H21  1  0.36365000  0.22994000  0.82803000  1.0
  H  H22  1  0.86365000  0.82803000  0.22994000  1.0
  H  H23  1  0.63635000  0.77007000  0.17197000  1.0
  H  H24  1  0.14869000  0.87043000  0.75640000  1.0
  H  H25  1  0.35131000  0.24360000  0.12958000  1.0
  H  H26  1  0.85131000  0.12957000  0.24361000  1.0
  H  H27  1  0.64869000  0.75640000  0.87043000  1.0
  H  H28  1  0.13300000  0.79289000  0.95254000  1.0
  H  H29  1  0.36700000  0.04745000  0.20712000  1.0
  H  H30  1  0.86700000  0.20711000  0.04746000  1.0
  H  H31  1  0.63300000  0.95255000  0.79289000  1.0
  H  H32  1  0.03645000  0.17406000  0.58292000  1.0
  H  H33  1  0.46355000  0.41710000  0.82593000  1.0
  H  H34  1  0.96355000  0.82593000  0.41709000  1.0
  H  H35  1  0.53645000  0.58291000  0.17406000  1.0
  H  H36  1  0.03208000  0.36200000  0.56931000  1.0
  H  H37  1  0.46791000  0.43070000  0.63799000  1.0
  H  H38  1  0.96791000  0.63799000  0.43070000  1.0
  H  H39  1  0.53208000  0.56930000  0.36200000  1.0
  H  H40  1  0.34185000  0.09563000  0.39993000  1.0
  H  H41  1  0.15815000  0.60007000  0.90436000  1.0
  H  H42  1  0.65815000  0.90436000  0.60006000  1.0
  H  H43  1  0.84185000  0.39992000  0.09563000  1.0
  H  H44  1  0.35631000  0.91020000  0.39430000  1.0
  H  H45  1  0.14369000  0.60570000  0.08979000  1.0
  H  H46  1  0.64369000  0.08979000  0.60570000  1.0
  H  H47  1  0.85631000  0.39430000  0.91020000  1.0
  H  H48  1  0.08161000  0.84018000  0.57162000  1.0
  H  H49  1  0.41839000  0.42838000  0.15982000  1.0
  H  H50  1  0.91839000  0.15982000  0.42839000  1.0
  H  H51  1  0.58162000  0.57162000  0.84017000  1.0
  H  H52  1  0.05525000  0.02003000  0.58374000  1.0
  H  H53  1  0.44475000  0.41626000  0.97996000  1.0
  H  H54  1  0.94475000  0.97996000  0.41626000  1.0
  H  H55  1  0.55525000  0.58374000  0.02003000  1.0
  C  C56  1  0.12310000  0.74885000  0.23634000  1.0
  C  C57  1  0.37690000  0.76366000  0.25114000  1.0
  C  C58  1  0.87690000  0.25114000  0.76366000  1.0
  C  C59  1  0.62310000  0.23634000  0.74885000  1.0
  C  C60  1  0.12152000  0.89908000  0.09076000  1.0
  C  C61  1  0.37848000  0.90923000  0.10092000  1.0
  C  C62  1  0.87848000  0.10092000  0.90924000  1.0
  C  C63  1  0.62152000  0.09077000  0.89908000  1.0
  C  C64  1  0.12287000  0.96087000  0.15577000  1.0
  C  C65  1  0.37712000  0.84423000  0.03912000  1.0
  C  C66  1  0.87712000  0.03912000  0.84424000  1.0
  C  C67  1  0.62288000  0.15577000  0.96087000  1.0
  C  C68  1  0.13131000  0.90828000  0.26171000  1.0
  C  C69  1  0.36869000  0.73829000  0.09172000  1.0
  C  C70  1  0.86869000  0.09172000  0.73829000  1.0
  C  C71  1  0.63131000  0.26172000  0.90827000  1.0
  C  C72  1  0.12646000  0.94382000  0.97514000  1.0
  C  C73  1  0.37354000  0.02485000  0.05618000  1.0
  C  C74  1  0.87353000  0.05618000  0.02485000  1.0
  C  C75  1  0.62647000  0.97515000  0.94383000  1.0
  C  C76  1  0.12755000  0.05195000  0.92204000  1.0
  C  C77  1  0.37244000  0.07795000  0.94806000  1.0
  C  C78  1  0.87244000  0.94806000  0.07796000  1.0
  C  C79  1  0.62756000  0.92205000  0.05195000  1.0
  C  C80  1  0.13598000  0.08788000  0.81281000  1.0
  C  C81  1  0.36402000  0.18720000  0.91212000  1.0
  C  C82  1  0.86401000  0.91212000  0.18720000  1.0
  C  C83  1  0.63599000  0.81281000  0.08789000  1.0
  C  C84  1  0.14212000  0.92095000  0.80539000  1.0
  C  C85  1  0.35788000  0.19460000  0.07905000  1.0
  C  C86  1  0.85788000  0.07905000  0.19461000  1.0
  C  C87  1  0.64213000  0.80540000  0.92096000  1.0
  C  C88  1  0.13340000  0.87731000  0.91399000  1.0
  C  C89  1  0.36660000  0.08601000  0.12269000  1.0
  C  C90  1  0.86660000  0.12269000  0.08601000  1.0
  C  C91  1  0.63340000  0.91399000  0.87732000  1.0
  C  C92  1  0.25720000  0.34397000  0.44462000  1.0
  C  C93  1  0.24280000  0.55539000  0.65602000  1.0
  C  C94  1  0.74280000  0.65602000  0.55539000  1.0
  C  C95  1  0.75720000  0.44462000  0.34398000  1.0
  C  C96  1  0.18590000  0.18274000  0.49344000  1.0
  C  C97  1  0.31410000  0.50656000  0.81725000  1.0
  C  C98  1  0.81411000  0.81725000  0.50656000  1.0
  C  C99  1  0.68590000  0.49344000  0.18274000  1.0
  C  C100  1  0.09985000  0.22149000  0.54177000  1.0
  C  C101  1  0.40016000  0.45824000  0.77850000  1.0
  C  C102  1  0.90016000  0.77850000  0.45824000  1.0
  C  C103  1  0.59985000  0.54176000  0.22149000  1.0
  C  C104  1  0.09731000  0.32610000  0.53471000  1.0
  C  C105  1  0.40269000  0.46530000  0.67389000  1.0
  C  C106  1  0.90269000  0.67389000  0.46530000  1.0
  C  C107  1  0.59731000  0.53471000  0.32610000  1.0
  C  C108  1  0.19646000  0.07417000  0.49073000  1.0
  C  C109  1  0.30353000  0.50927000  0.92583000  1.0
  C  C110  1  0.80353000  0.92583000  0.50927000  1.0
  C  C111  1  0.69647000  0.49073000  0.07417000  1.0
  C  C112  1  0.28270000  0.04068000  0.43817000  1.0
  C  C113  1  0.21729000  0.56183000  0.95932000  1.0
  C  C114  1  0.71729000  0.95932000  0.56183000  1.0
  C  C115  1  0.78271000  0.43816000  0.04067000  1.0
  C  C116  1  0.29126000  0.93863000  0.43577000  1.0
  C  C117  1  0.20873000  0.56422000  0.06137000  1.0
  C  C118  1  0.70873000  0.06137000  0.56423000  1.0
  C  C119  1  0.79127000  0.43577000  0.93863000  1.0
  C  C120  1  0.13733000  0.89954000  0.53397000  1.0
  C  C121  1  0.36267000  0.46603000  0.10046000  1.0
  C  C122  1  0.86267000  0.10045000  0.46603000  1.0
  C  C123  1  0.63733000  0.53397000  0.89953000  1.0
  C  C124  1  0.12280000  0.00032000  0.53977000  1.0
  C  C125  1  0.37719000  0.46023000  0.99968000  1.0
  C  C126  1  0.87719000  0.99968000  0.46023000  1.0
  C  C127  1  0.62281000  0.53977000  0.00032000  1.0
  S  S128  1  0.11316000  0.61309000  0.28340000  1.0
  S  S129  1  0.38684000  0.71660000  0.38691000  1.0
  S  S130  1  0.88685000  0.38691000  0.71660000  1.0
  S  S131  1  0.61316000  0.28341000  0.61309000  1.0
  S  S132  1  0.36275000  0.41896000  0.38698000  1.0
  S  S133  1  0.13725000  0.61303000  0.58104000  1.0
  S  S134  1  0.63725000  0.58104000  0.61303000  1.0
  S  S135  1  0.86275000  0.38698000  0.41896000  1.0
  N  N136  1  0.13624000  0.80296000  0.30358000  1.0
  N  N137  1  0.36376000  0.69642000  0.19703000  1.0
  N  N138  1  0.86376000  0.19704000  0.69642000  1.0
  N  N139  1  0.63624000  0.30358000  0.80296000  1.0
  N  N140  1  0.11839000  0.79441000  0.13225000  1.0
  N  N141  1  0.38161000  0.86775000  0.20558000  1.0
  N  N142  1  0.88161000  0.20559000  0.86775000  1.0
  N  N143  1  0.61839000  0.13226000  0.79441000  1.0
  N  N144  1  0.14353000  0.02455000  0.75433000  1.0
  N  N145  1  0.35648000  0.24568000  0.97545000  1.0
  N  N146  1  0.85647000  0.97545000  0.24568000  1.0
  N  N147  1  0.64353000  0.75433000  0.02455000  1.0
  N  N148  1  0.21964000  0.86827000  0.48220000  1.0
  N  N149  1  0.28036000  0.51780000  0.13173000  1.0
  N  N150  1  0.78036000  0.13173000  0.51780000  1.0
  N  N151  1  0.71964000  0.48220000  0.86827000  1.0
  N  N152  1  0.26392000  0.24425000  0.44646000  1.0
  N  N153  1  0.23608000  0.55354000  0.75575000  1.0
  N  N154  1  0.73608000  0.75575000  0.55354000  1.0
  N  N155  1  0.76392000  0.44646000  0.24425000  1.0
  N  N156  1  0.17312000  0.38933000  0.48465000  1.0
  N  N157  1  0.32688000  0.51536000  0.61067000  1.0
  N  N158  1  0.82688000  0.61067000  0.51537000  1.0
  N  N159  1  0.67312000  0.48464000  0.38933000  1.0
