# generated using pymatgen
data_Tb2Cu3P6H24C30(NO3)6
_symmetry_space_group_name_H-M   'P 1'
_cell_length_a   10.17120000
_cell_length_b   11.33550000
_cell_length_c   11.33560000
_cell_angle_alpha   111.45900000
_cell_angle_beta   107.39500000
_cell_angle_gamma   107.40500000
_symmetry_Int_Tables_number   1
_chemical_formula_structural   Tb2Cu3P6H24C30(NO3)6
_chemical_formula_sum   'Tb2 Cu3 P6 H24 C30 N6 O18'
_cell_volume   1030.65187557
_cell_formula_units_Z   1
loop_
 _symmetry_equiv_pos_site_id
 _symmetry_equiv_pos_as_xyz
  1  'x, y, z'
loop_
 _atom_site_type_symbol
 _atom_site_label
 _atom_site_symmetry_multiplicity
 _atom_site_fract_x
 _atom_site_fract_y
 _atom_site_fract_z
 _atom_site_occupancy
  Tb  Tb0  1  0.00000000  0.00000000  0.00000000  1.0
  Tb  Tb1  1  0.50000000  0.00000000  0.00000000  1.0
  Cu  Cu2  1  0.00000000  0.00000000  0.50000000  1.0
  Cu  Cu3  1  0.00000000  0.50000000  0.00000000  1.0
  Cu  Cu4  1  0.49999000  0.50000000  0.50000000  1.0
  P  P5  1  0.17273000  0.01476000  0.76708000  1.0
  P  P6  1  0.15796000  0.75225000  0.98517000  1.0
  P  P7  1  0.40557000  0.23290000  0.24767000  1.0
  P  P8  1  0.82727000  0.98524000  0.23292000  1.0
  P  P9  1  0.84204000  0.24775000  0.01483000  1.0
  P  P10  1  0.59443000  0.76710000  0.75233000  1.0
  H  H11  1  0.33571000  0.31491000  0.02417000  1.0
  H  H12  1  0.02082000  0.70925000  0.68509000  1.0
  H  H13  1  0.31147000  0.97584000  0.29072000  1.0
  H  H14  1  0.66429000  0.68509000  0.97583000  1.0
  H  H15  1  0.97918000  0.29075000  0.31490000  1.0
  H  H16  1  0.68853000  0.02416000  0.70928000  1.0
  H  H17  1  0.37397000  0.54835000  0.02968000  1.0
  H  H18  1  0.82567000  0.48139000  0.45165000  1.0
  H  H19  1  0.34432000  0.97029000  0.51865000  1.0
  H  H20  1  0.62603000  0.45165000  0.97031000  1.0
  H  H21  1  0.17433000  0.51861000  0.54835000  1.0
  H  H22  1  0.65568000  0.02971000  0.48135000  1.0
  H  H23  1  0.26073000  0.54558000  0.80069000  1.0
  H  H24  1  0.71503000  0.25509000  0.45431000  1.0
  H  H25  1  0.46008000  0.19932000  0.74488000  1.0
  H  H26  1  0.73927000  0.45442000  0.19931000  1.0
  H  H27  1  0.28497000  0.74491000  0.54569000  1.0
  H  H28  1  0.53992000  0.80068000  0.25512000  1.0
  H  H29  1  0.08842000  0.30507000  0.57258000  1.0
  H  H30  1  0.78325000  0.26742000  0.69486000  1.0
  H  H31  1  0.51581000  0.42742000  0.73247000  1.0
  H  H32  1  0.91157000  0.69493000  0.42742000  1.0
  H  H33  1  0.21675000  0.73258000  0.30515000  1.0
  H  H34  1  0.48418000  0.57258000  0.26752000  1.0
  C  C35  1  0.19713000  0.19153000  0.79599000  1.0
  C  C36  1  0.00561000  0.60439000  0.80842000  1.0
  C  C37  1  0.40105000  0.20401000  0.39552000  1.0
  C  C38  1  0.80287000  0.80847000  0.20401000  1.0
  C  C39  1  0.99439000  0.39562000  0.19158000  1.0
  C  C40  1  0.59895000  0.79598000  0.60447000  1.0
  C  C41  1  0.28530000  0.31866000  0.92701000  1.0
  C  C42  1  0.96664000  0.60830000  0.68130000  1.0
  C  C43  1  0.35820000  0.07299000  0.39164000  1.0
  C  C44  1  0.71470000  0.68134000  0.07299000  1.0
  C  C45  1  0.03336000  0.39170000  0.31870000  1.0
  C  C46  1  0.64180000  0.92701000  0.60836000  1.0
  C  C47  1  0.30656000  0.44711000  0.92956000  1.0
  C  C48  1  0.85940000  0.48245000  0.55286000  1.0
  C  C49  1  0.37703000  0.07042000  0.51754000  1.0
  C  C50  1  0.69344000  0.55289000  0.07044000  1.0
  C  C51  1  0.14060000  0.51755000  0.44714000  1.0
  C  C52  1  0.62297000  0.92958000  0.48246000  1.0
  C  C53  1  0.24095000  0.44613000  0.80174000  1.0
  C  C54  1  0.79465000  0.35557000  0.55379000  1.0
  C  C55  1  0.43927000  0.19826000  0.64438000  1.0
  C  C56  1  0.75905000  0.55387000  0.19826000  1.0
  C  C57  1  0.20534000  0.64443000  0.44621000  1.0
  C  C58  1  0.56073000  0.80174000  0.35562000  1.0
  C  C59  1  0.14850000  0.31545000  0.67574000  1.0
  C  C60  1  0.83293000  0.36023000  0.68446000  1.0
  C  C61  1  0.47272000  0.32424000  0.63967000  1.0
  C  C62  1  0.85149000  0.68455000  0.32425000  1.0
  C  C63  1  0.16707000  0.63978000  0.31554000  1.0
  C  C64  1  0.52728000  0.67576000  0.36033000  1.0
  N  N65  1  0.12723000  0.19176000  0.67422000  1.0
  N  N66  1  0.93541000  0.48237000  0.80815000  1.0
  N  N67  1  0.45295000  0.32579000  0.51753000  1.0
  N  N68  1  0.87276000  0.80824000  0.32578000  1.0
  N  N69  1  0.06458000  0.51764000  0.19185000  1.0
  N  N70  1  0.54704000  0.67421000  0.48246000  1.0
  O  O71  1  0.10936000  0.92727000  0.60316000  1.0
  O  O72  1  0.18209000  0.67583000  0.07269000  1.0
  O  O73  1  0.50612000  0.39684000  0.32404000  1.0
  O  O74  1  0.89064000  0.07274000  0.39685000  1.0
  O  O75  1  0.81791000  0.32418000  0.92732000  1.0
  O  O76  1  0.49387000  0.60316000  0.67595000  1.0
  O  O77  1  0.05466000  0.95839000  0.81464000  1.0
  O  O78  1  0.09623000  0.85615000  0.04152000  1.0
  O  O79  1  0.23998000  0.18534000  0.14378000  1.0
  O  O80  1  0.94533000  0.04161000  0.18536000  1.0
  O  O81  1  0.90377000  0.14385000  0.95847000  1.0
  O  O82  1  0.76002000  0.81465000  0.85622000  1.0
  O  O83  1  0.33346000  0.03328000  0.84764000  1.0
  O  O84  1  0.30018000  0.81432000  0.96666000  1.0
  O  O85  1  0.48573000  0.15228000  0.18567000  1.0
  O  O86  1  0.66654000  0.96672000  0.15236000  1.0
  O  O87  1  0.69982000  0.18568000  0.03335000  1.0
  O  O88  1  0.51427000  0.84772000  0.81433000  1.0
