# generated using pymatgen
data_Cu2H14WC14(SN)4
_symmetry_space_group_name_H-M   'P 1'
_cell_length_a   11.10430000
_cell_length_b   13.65650000
_cell_length_c   17.92870000
_cell_angle_alpha   72.73590000
_cell_angle_beta   71.97630000
_cell_angle_gamma   66.03260000
_symmetry_Int_Tables_number   1
_chemical_formula_structural   Cu2H14WC14(SN)4
_chemical_formula_sum   'Cu8 H56 W4 C56 S16 N16'
_cell_volume   2316.22973433
_cell_formula_units_Z   4
loop_
 _symmetry_equiv_pos_site_id
 _symmetry_equiv_pos_as_xyz
  1  'x, y, z'
loop_
 _atom_site_type_symbol
 _atom_site_label
 _atom_site_symmetry_multiplicity
 _atom_site_fract_x
 _atom_site_fract_y
 _atom_site_fract_z
 _atom_site_occupancy
  Cu  Cu0  1  0.40677000  0.73559000  0.60615000  1.0
  Cu  Cu1  1  0.60334000  0.74417000  0.73853000  1.0
  Cu  Cu2  1  0.74831000  0.76471000  0.89386000  1.0
  Cu  Cu3  1  0.08598000  0.75584000  0.76154000  1.0
  Cu  Cu4  1  0.59323000  0.26441000  0.39384000  1.0
  Cu  Cu5  1  0.39666000  0.25583000  0.26147000  1.0
  Cu  Cu6  1  0.25169000  0.23530000  0.10615000  1.0
  Cu  Cu7  1  0.91403000  0.24416000  0.23846000  1.0
  H  H8  1  0.95930000  0.77067000  0.97811000  1.0
  H  H9  1  0.74991000  0.55025000  0.03982000  1.0
  H  H10  1  0.91120000  0.49144000  0.14892000  1.0
  H  H11  1  0.11767000  0.55239000  0.13568000  1.0
  H  H12  1  0.11958000  0.67841000  0.06995000  1.0
  H  H13  1  0.01289000  0.54669000  0.27507000  1.0
  H  H14  1  0.93940000  0.85704000  0.11095000  1.0
  H  H15  1  0.48313000  0.76671000  0.03487000  1.0
  H  H16  1  0.56121000  0.01803000  0.84539000  1.0
  H  H17  1  0.30143000  0.10056000  0.93679000  1.0
  H  H18  1  0.25388000  0.85906000  0.10544000  1.0
  H  H19  1  0.21868000  0.99902000  0.10162000  1.0
  H  H20  1  0.21653000  0.86357000  0.94561000  1.0
  H  H21  1  0.98387000  0.08586000  0.10882000  1.0
  H  H22  1  0.70779000  0.72939000  0.52180000  1.0
  H  H23  1  0.33988000  0.95026000  0.46027000  1.0
  H  H24  1  0.55155000  0.00882000  0.35109000  1.0
  H  H25  1  0.80579000  0.94753000  0.36427000  1.0
  H  H26  1  0.86769000  0.82152000  0.43009000  1.0
  H  H27  1  0.83498000  0.95318000  0.22497000  1.0
  H  H28  1  0.90676000  0.64282000  0.38907000  1.0
  H  H29  1  0.28497000  0.73339000  0.46495000  1.0
  H  H30  1  0.42513000  0.48218000  0.65440000  1.0
  H  H31  1  0.33922000  0.39947000  0.56306000  1.0
  H  H32  1  0.21872000  0.64077000  0.39436000  1.0
  H  H33  1  0.31951000  0.50079000  0.39834000  1.0
  H  H34  1  0.02593000  0.63671000  0.55404000  1.0
  H  H35  1  0.17832000  0.41367000  0.39139000  1.0
  H  H36  1  0.04070000  0.22934000  0.02188000  1.0
  H  H37  1  0.25009000  0.44975000  0.96018000  1.0
  H  H38  1  0.08880000  0.50857000  0.85108000  1.0
  H  H39  1  0.88233000  0.44761000  0.86432000  1.0
  H  H40  1  0.88043000  0.32160000  0.93005000  1.0
  H  H41  1  0.98711000  0.45331000  0.72492000  1.0
  H  H42  1  0.06061000  0.14296000  0.88905000  1.0
  H  H43  1  0.51687000  0.23329000  0.96513000  1.0
  H  H44  1  0.43880000  0.98197000  0.15461000  1.0
  H  H45  1  0.69858000  0.89945000  0.06321000  1.0
  H  H46  1  0.74612000  0.14095000  0.89456000  1.0
  H  H47  1  0.78132000  0.00098000  0.89839000  1.0
  H  H48  1  0.78347000  0.13643000  0.05439000  1.0
  H  H49  1  0.01613000  0.91415000  0.89119000  1.0
  H  H50  1  0.29221000  0.27061000  0.47820000  1.0
  H  H51  1  0.66011000  0.04974000  0.53972000  1.0
  H  H52  1  0.44845000  0.99118000  0.64891000  1.0
  H  H53  1  0.19420000  0.05247000  0.63573000  1.0
  H  H54  1  0.13231000  0.17848000  0.56991000  1.0
  H  H55  1  0.16502000  0.04682000  0.77503000  1.0
  H  H56  1  0.09324000  0.35718000  0.61093000  1.0
  H  H57  1  0.71503000  0.26660000  0.53506000  1.0
  H  H58  1  0.57487000  0.51781000  0.34561000  1.0
  H  H59  1  0.66078000  0.60052000  0.43695000  1.0
  H  H60  1  0.78129000  0.35923000  0.60564000  1.0
  H  H61  1  0.68048000  0.49920000  0.60167000  1.0
  H  H62  1  0.97407000  0.36329000  0.44597000  1.0
  H  H63  1  0.82168000  0.58633000  0.60862000  1.0
  W  W64  1  0.85469000  0.74231000  0.73988000  1.0
  W  W65  1  0.33683000  0.75770000  0.76011000  1.0
  W  W66  1  0.14532000  0.25770000  0.26011000  1.0
  W  W67  1  0.66316000  0.24231000  0.23990000  1.0
  C  C68  1  0.92002000  0.70520000  0.00962000  1.0
  C  C69  1  0.81504000  0.58921000  0.04361000  1.0
  C  C70  1  0.89466000  0.55844000  0.09791000  1.0
  C  C71  1  0.05423000  0.63692000  0.11560000  1.0
  C  C72  1  0.98453000  0.69530000  0.18522000  1.0
  C  C73  1  0.97365000  0.63588000  0.26397000  1.0
  C  C74  1  0.93231000  0.80966000  0.17197000  1.0
  C  C75  1  0.47155000  0.84556000  0.99490000  1.0
  C  C76  1  0.50685000  0.97846000  0.89894000  1.0
  C  C77  1  0.37852000  0.02010000  0.94286000  1.0
  C  C78  1  0.23541000  0.94005000  0.06570000  1.0
  C  C79  1  0.11390000  0.97125000  0.03120000  1.0
  C  C80  1  0.12165000  0.92281000  0.97030000  1.0
  C  C81  1  0.99154000  0.04843000  0.06068000  1.0
  C  C82  1  0.63461000  0.79494000  0.49033000  1.0
  C  C83  1  0.44773000  0.91118000  0.45643000  1.0
  C  C84  1  0.55092000  0.94182000  0.40210000  1.0
  C  C85  1  0.80662000  0.86303000  0.38439000  1.0
  C  C86  1  0.86491000  0.80457000  0.31481000  1.0
  C  C87  1  0.87371000  0.86398000  0.23606000  1.0
  C  C88  1  0.91362000  0.69021000  0.32806000  1.0
  C  C89  1  0.31226000  0.65454000  0.50491000  1.0
  C  C90  1  0.38463000  0.52170000  0.60087000  1.0
  C  C91  1  0.34183000  0.47999000  0.55699000  1.0
  C  C92  1  0.24135000  0.55983000  0.43419000  1.0
  C  C93  1  0.11645000  0.52867000  0.46872000  1.0
  C  C94  1  0.01488000  0.57732000  0.52950000  1.0
  C  C95  1  0.10058000  0.45133000  0.43944000  1.0
  C  C96  1  0.07998000  0.29480000  0.99038000  1.0
  C  C97  1  0.18496000  0.41080000  0.95639000  1.0
  C  C98  1  0.10534000  0.44157000  0.90209000  1.0
  C  C99  1  0.94577000  0.36309000  0.88440000  1.0
  C  C100  1  0.01548000  0.30470000  0.81478000  1.0
  C  C101  1  0.02635000  0.36411000  0.73603000  1.0
  C  C102  1  0.06770000  0.19034000  0.82802000  1.0
  C  C103  1  0.52845000  0.15444000  0.00511000  1.0
  C  C104  1  0.49315000  0.02154000  0.10106000  1.0
  C  C105  1  0.62149000  0.97990000  0.05714000  1.0
  C  C106  1  0.76459000  0.05996000  0.93430000  1.0
  C  C107  1  0.88610000  0.02875000  0.96880000  1.0
  C  C108  1  0.87836000  0.07719000  0.02971000  1.0
  C  C109  1  0.00846000  0.95157000  0.93933000  1.0
  C  C110  1  0.36538000  0.20506000  0.50967000  1.0
  C  C111  1  0.55226000  0.08882000  0.54356000  1.0
  C  C112  1  0.44908000  0.05818000  0.59790000  1.0
  C  C113  1  0.19338000  0.13697000  0.61561000  1.0
  C  C114  1  0.13508000  0.19543000  0.68518000  1.0
  C  C115  1  0.12629000  0.13602000  0.76394000  1.0
  C  C116  1  0.08638000  0.30979000  0.67194000  1.0
  C  C117  1  0.68773000  0.34545000  0.49509000  1.0
  C  C118  1  0.61537000  0.47829000  0.39913000  1.0
  C  C119  1  0.65817000  0.52000000  0.44302000  1.0
  C  C120  1  0.75865000  0.44017000  0.56581000  1.0
  C  C121  1  0.88355000  0.47132000  0.53128000  1.0
  C  C122  1  0.98511000  0.42268000  0.47050000  1.0
  C  C123  1  0.89941000  0.54867000  0.56056000  1.0
  S  S124  1  0.39938000  0.86653000  0.79760000  1.0
  S  S125  1  0.73531000  0.64470000  0.83363000  1.0
  S  S126  1  0.52717000  0.63379000  0.70342000  1.0
  S  S127  1  0.21150000  0.67678000  0.86050000  1.0
  S  S128  1  0.06348000  0.63353000  0.70238000  1.0
  S  S129  1  0.21352000  0.85535000  0.66640000  1.0
  S  S130  1  0.86440000  0.86631000  0.79655000  1.0
  S  S131  1  0.74876000  0.82319000  0.63950000  1.0
  S  S132  1  0.60062000  0.13347000  0.20239000  1.0
  S  S133  1  0.26469000  0.35530000  0.16637000  1.0
  S  S134  1  0.47284000  0.36622000  0.29657000  1.0
  S  S135  1  0.78852000  0.32322000  0.13949000  1.0
  S  S136  1  0.93652000  0.36648000  0.29762000  1.0
  S  S137  1  0.78648000  0.14466000  0.33359000  1.0
  S  S138  1  0.13560000  0.13370000  0.20345000  1.0
  S  S139  1  0.25124000  0.17682000  0.36049000  1.0
  N  N140  1  0.83170000  0.68099000  0.98880000  1.0
  N  N141  1  0.96051000  0.63285000  0.07530000  1.0
  N  N142  1  0.56392000  0.86977000  0.93221000  1.0
  N  N143  1  0.35781000  0.93472000  0.00358000  1.0
  N  N144  1  0.50127000  0.81933000  0.51121000  1.0
  N  N145  1  0.66852000  0.86724000  0.42463000  1.0
  N  N146  1  0.36622000  0.63041000  0.56757000  1.0
  N  N147  1  0.29637000  0.56531000  0.49627000  1.0
  N  N148  1  0.16829000  0.31902000  0.01120000  1.0
  N  N149  1  0.03949000  0.36716000  0.92469000  1.0
  N  N150  1  0.43608000  0.13023000  0.06779000  1.0
  N  N151  1  0.64219000  0.06528000  0.99642000  1.0
  N  N152  1  0.49872000  0.18067000  0.48879000  1.0
  N  N153  1  0.33148000  0.13276000  0.57536000  1.0
  N  N154  1  0.63377000  0.36959000  0.43243000  1.0
  N  N155  1  0.70363000  0.43468000  0.50374000  1.0
