# generated using pymatgen
data_Ag2GeH14(C3O4)4
_symmetry_space_group_name_H-M   'P 1'
_cell_length_a   6.24818000
_cell_length_b   8.04326000
_cell_length_c   9.36316000
_cell_angle_alpha   72.99900000
_cell_angle_beta   77.88100000
_cell_angle_gamma   85.38690000
_symmetry_Int_Tables_number   1
_chemical_formula_structural   Ag2GeH14(C3O4)4
_chemical_formula_sum   'Ag2 Ge1 H14 C12 O16'
_cell_volume   439.86933290
_cell_formula_units_Z   1
loop_
 _symmetry_equiv_pos_site_id
 _symmetry_equiv_pos_as_xyz
  1  'x, y, z'
loop_
 _atom_site_type_symbol
 _atom_site_label
 _atom_site_symmetry_multiplicity
 _atom_site_fract_x
 _atom_site_fract_y
 _atom_site_fract_z
 _atom_site_occupancy
  Ag  Ag0  1  0.71381000  0.08999000  0.46856000  1.0
  Ag  Ag1  1  0.28621000  0.91002000  0.53143000  1.0
  Ge  Ge2  1  0.50000000  0.50000000  0.49999000  1.0
  H  H3  1  0.73407000  0.79944000  0.97070000  1.0
  H  H4  1  0.26593000  0.20056000  0.02930000  1.0
  H  H5  1  0.88184000  0.16047000  0.16221000  1.0
  H  H6  1  0.11819000  0.83952000  0.83778000  1.0
  H  H7  1  0.63057000  0.12997000  0.18083000  1.0
  H  H8  1  0.36945000  0.87004000  0.81918000  1.0
  H  H9  1  0.79882000  0.54621000  0.83600000  1.0
  H  H10  1  0.20118000  0.45379000  0.16400000  1.0
  H  H11  1  0.01282000  0.52184000  0.68745000  1.0
  H  H12  1  0.98718000  0.47816000  0.31256000  1.0
  H  H13  1  0.01088000  0.19349000  0.72125000  1.0
  H  H14  1  0.98912000  0.80651000  0.27876000  1.0
  H  H15  1  0.89610000  0.22544000  0.89876000  1.0
  H  H16  1  0.10389000  0.77456000  0.10125000  1.0
  C  C17  1  0.72855000  0.36690000  0.71727000  1.0
  C  C18  1  0.27144000  0.63310000  0.28273000  1.0
  C  C19  1  0.48677000  0.37053000  0.80016000  1.0
  C  C20  1  0.51322000  0.62947000  0.19984000  1.0
  C  C21  1  0.83416000  0.53294000  0.71943000  1.0
  C  C22  1  0.16583000  0.46705000  0.28058000  1.0
  C  C23  1  0.76288000  0.70090000  0.61667000  1.0
  C  C24  1  0.23713000  0.29912000  0.38333000  1.0
  C  C25  1  0.85354000  0.20734000  0.79646000  1.0
  C  C26  1  0.14645000  0.79266000  0.20354000  1.0
  C  C27  1  0.73019000  0.04038000  0.84375000  1.0
  C  C28  1  0.26981000  0.95962000  0.15626000  1.0
  O  O29  1  0.73479000  0.36614000  0.56367000  1.0
  O  O30  1  0.26520000  0.63386000  0.43634000  1.0
  O  O31  1  0.34747000  0.42628000  0.70972000  1.0
  O  O32  1  0.65253000  0.57372000  0.29027000  1.0
  O  O33  1  0.43677000  0.33258000  0.94145000  1.0
  O  O34  1  0.56321000  0.66743000  0.05854000  1.0
  O  O35  1  0.61512000  0.70410000  0.53549000  1.0
  O  O36  1  0.38489000  0.29590000  0.46451000  1.0
  O  O37  1  0.84647000  0.83942000  0.61205000  1.0
  O  O38  1  0.15352000  0.16056000  0.38796000  1.0
  O  O39  1  0.54731000  0.03162000  0.81668000  1.0
  O  O40  1  0.45269000  0.96838000  0.18331000  1.0
  O  O41  1  0.83678000  0.90469000  0.92086000  1.0
  O  O42  1  0.16322000  0.09531000  0.07915000  1.0
  O  O43  1  0.73551000  0.19687000  0.20698000  1.0
  O  O44  1  0.26452000  0.80313000  0.79301000  1.0
