# generated using pymatgen
data_ZnH3C10S2N3O10
_symmetry_space_group_name_H-M   'P 1'
_cell_length_a   8.93227000
_cell_length_b   9.90448000
_cell_length_c   10.87440000
_cell_angle_alpha   74.45910000
_cell_angle_beta   88.94730000
_cell_angle_gamma   78.69300000
_symmetry_Int_Tables_number   1
_chemical_formula_structural   ZnH3C10S2N3O10
_chemical_formula_sum   'Zn2 H6 C20 S4 N6 O20'
_cell_volume   908.29505741
_cell_formula_units_Z   2
loop_
 _symmetry_equiv_pos_site_id
 _symmetry_equiv_pos_as_xyz
  1  'x, y, z'
loop_
 _atom_site_type_symbol
 _atom_site_label
 _atom_site_symmetry_multiplicity
 _atom_site_fract_x
 _atom_site_fract_y
 _atom_site_fract_z
 _atom_site_occupancy
  Zn  Zn0  1  0.46902000  0.66666667  0.45791000  1.0
  Zn  Zn1  1  0.53609000  0.33676000  0.54109000  1.0
  H  H2  1  0.39649000  0.30472000  0.94595000  1.0
  H  H3  1  0.60131000  0.69299000  0.05608000  1.0
  H  H4  1  0.81931000  0.36841000  0.80398000  1.0
  H  H5  1  0.17293000  0.62809000  0.19425000  1.0
  H  H6  1  0.23203000  0.69024000  0.63483000  1.0
  H  H7  1  0.82908000  0.30567000  0.36599000  1.0
  C  C8  1  0.51808000  0.51294000  0.26294000  1.0
  C  C9  1  0.48291000  0.48239000  0.73972000  1.0
  C  C10  1  0.78235000  0.50875000  0.53064000  1.0
  C  C11  1  0.21913000  0.50278000  0.47162000  1.0
  C  C12  1  0.95186000  0.49339000  0.54990000  1.0
  C  C13  1  0.04951000  0.51605000  0.45520000  1.0
  C  C14  1  0.44648000  0.39554000  0.09748000  1.0
  C  C15  1  0.55007000  0.60305000  0.90424000  1.0
  C  C16  1  0.44059000  0.38976000  0.97037000  1.0
  C  C17  1  0.55644000  0.60846000  0.03146000  1.0
  C  C18  1  0.49121000  0.49298000  0.87388000  1.0
  C  C19  1  0.50596000  0.50529000  0.12804000  1.0
  C  C20  1  0.44786000  0.05237000  0.60137000  1.0
  C  C21  1  0.55287000  0.95500000  0.40195000  1.0
  C  C22  1  0.38869000  0.94401000  0.56802000  1.0
  C  C23  1  0.61325000  0.06260000  0.43589000  1.0
  C  C24  1  0.38730000  0.29058000  0.19180000  1.0
  C  C25  1  0.60920000  0.70755000  0.80945000  1.0
  C  C26  1  0.40462000  0.09182000  0.71588000  1.0
  C  C27  1  0.59335000  0.91791000  0.28597000  1.0
  S  S28  1  0.02154000  0.41702000  0.71316000  1.0
  S  S29  1  0.97563000  0.57899000  0.29286000  1.0
  S  S30  1  0.21963000  0.89799000  0.65397000  1.0
  S  S31  1  0.78481000  0.10494000  0.35114000  1.0
  N  N32  1  0.44468000  0.89245000  0.47116000  1.0
  N  N33  1  0.55683000  0.11413000  0.53253000  1.0
  N  N34  1  0.33425000  0.20378000  0.26391000  1.0
  N  N35  1  0.66093000  0.79375000  0.73545000  1.0
  N  N36  1  0.38219000  0.11575000  0.81468000  1.0
  N  N37  1  0.61209000  0.89716000  0.18559000  1.0
  O  O38  1  0.50188000  0.63648000  0.28020000  1.0
  O  O39  1  0.52142000  0.35877000  0.72360000  1.0
  O  O40  1  0.54336000  0.39374000  0.34816000  1.0
  O  O41  1  0.43836000  0.59917000  0.65258000  1.0
  O  O42  1  0.70139000  0.63269000  0.49090000  1.0
  O  O43  1  0.29916000  0.38110000  0.52276000  1.0
  O  O44  1  0.74150000  0.38928000  0.55970000  1.0
  O  O45  1  0.26097000  0.62142000  0.42905000  1.0
  O  O46  1  0.06497000  0.26521000  0.73684000  1.0
  O  O47  1  0.12257000  0.50247000  0.74064000  1.0
  O  O48  1  0.86861000  0.45168000  0.78882000  1.0
  O  O49  1  0.87959000  0.48269000  0.27700000  1.0
  O  O50  1  0.92179000  0.73030000  0.25760000  1.0
  O  O51  1  0.12606000  0.54310000  0.21543000  1.0
  O  O52  1  0.26550000  0.83386000  0.78587000  1.0
  O  O53  1  0.10881000  0.02768000  0.61267000  1.0
  O  O54  1  0.17211000  0.78713000  0.59169000  1.0
  O  O55  1  0.88657000  0.96888000  0.38862000  1.0
  O  O56  1  0.74293000  0.17717000  0.21978000  1.0
  O  O57  1  0.84066000  0.20581000  0.42096000  1.0
