# generated using pymatgen
data_CuH12C18N(Cl2O3)2
_symmetry_space_group_name_H-M   'P 1'
_cell_length_a   9.86255000
_cell_length_b   10.86770000
_cell_length_c   10.95540000
_cell_angle_alpha   63.92080000
_cell_angle_beta   79.15530000
_cell_angle_gamma   72.22340000
_symmetry_Int_Tables_number   1
_chemical_formula_structural   CuH12C18N(Cl2O3)2
_chemical_formula_sum   'Cu2 H24 C36 N2 Cl8 O12'
_cell_volume   1002.32779874
_cell_formula_units_Z   2
loop_
 _symmetry_equiv_pos_site_id
 _symmetry_equiv_pos_as_xyz
  1  'x, y, z'
loop_
 _atom_site_type_symbol
 _atom_site_label
 _atom_site_symmetry_multiplicity
 _atom_site_fract_x
 _atom_site_fract_y
 _atom_site_fract_z
 _atom_site_occupancy
  Cu  Cu0  1  0.36297000  0.51230000  0.48718000  1.0
  Cu  Cu1  1  0.63709000  0.48769000  0.51283000  1.0
  H  H2  1  0.04825000  0.77882000  0.72934000  1.0
  H  H3  1  0.95175000  0.22118000  0.27066000  1.0
  H  H4  1  0.67508000  0.75141000  0.59992000  1.0
  H  H5  1  0.32491000  0.24859000  0.40008000  1.0
  H  H6  1  0.58195000  0.65372000  0.83862000  1.0
  H  H7  1  0.41804000  0.34628000  0.16138000  1.0
  H  H8  1  0.56244000  0.50764000  0.07310000  1.0
  H  H9  1  0.43757000  0.49235000  0.92690000  1.0
  H  H10  1  0.49848000  0.69186000  0.03899000  1.0
  H  H11  1  0.50151000  0.30813000  0.96102000  1.0
  H  H12  1  0.16822000  0.80066000  0.97933000  1.0
  H  H13  1  0.83176000  0.19935000  0.02065000  1.0
  H  H14  1  0.31267000  0.11384000  0.02442000  1.0
  H  H15  1  0.68732000  0.88616000  0.97558000  1.0
  H  H16  1  0.45782000  0.15207000  0.80842000  1.0
  H  H17  1  0.54219000  0.84793000  0.19158000  1.0
  H  H18  1  0.65903000  0.04517000  0.53794000  1.0
  H  H19  1  0.34098000  0.95483000  0.46207000  1.0
  H  H20  1  0.65679000  0.02802000  0.70783000  1.0
  H  H21  1  0.34321000  0.97198000  0.29217000  1.0
  H  H22  1  0.12885000  0.60109000  0.28266000  1.0
  H  H23  1  0.87116000  0.39891000  0.71735000  1.0
  H  H24  1  0.87518000  0.58315000  0.29574000  1.0
  H  H25  1  0.12483000  0.41686000  0.70426000  1.0
  C  C26  1  0.76078000  0.66038000  0.92162000  1.0
  C  C27  1  0.23922000  0.33962000  0.07838000  1.0
  C  C28  1  0.89358000  0.69484000  0.88794000  1.0
  C  C29  1  0.10641000  0.30516000  0.11207000  1.0
  C  C30  1  0.94627000  0.75151000  0.75335000  1.0
  C  C31  1  0.05373000  0.24849000  0.24665000  1.0
  C  C32  1  0.86581000  0.77276000  0.65036000  1.0
  C  C33  1  0.13419000  0.22724000  0.34964000  1.0
  C  C34  1  0.73601000  0.73627000  0.68083000  1.0
  C  C35  1  0.26398000  0.26373000  0.31917000  1.0
  C  C36  1  0.68402000  0.68055000  0.81647000  1.0
  C  C37  1  0.31598000  0.31945000  0.18354000  1.0
  C  C38  1  0.57697000  0.59299000  0.09422000  1.0
  C  C39  1  0.42303000  0.40701000  0.90579000  1.0
  C  C40  1  0.54630000  0.55411000  0.24691000  1.0
  C  C41  1  0.45371000  0.44589000  0.75309000  1.0
  C  C42  1  0.39774000  0.99819000  0.76911000  1.0
  C  C43  1  0.60226000  0.00181000  0.23089000  1.0
  C  C44  1  0.31442000  0.89894000  0.82063000  1.0
  C  C45  1  0.68557000  0.10106000  0.17936000  1.0
  C  C46  1  0.23209000  0.87714000  0.94274000  1.0
  C  C47  1  0.76789000  0.12288000  0.05725000  1.0
  C  C48  1  0.23188000  0.95468000  0.01588000  1.0
  C  C49  1  0.76811000  0.04534000  0.98410000  1.0
  C  C50  1  0.31342000  0.05313000  0.96750000  1.0
  C  C51  1  0.68658000  0.94687000  0.03249000  1.0
  C  C52  1  0.39563000  0.07409000  0.84514000  1.0
  C  C53  1  0.60437000  0.92591000  0.15486000  1.0
  C  C54  1  0.59304000  0.07343000  0.61871000  1.0
  C  C55  1  0.40696000  0.92657000  0.38129000  1.0
  C  C56  1  0.55571000  0.23527000  0.56647000  1.0
  C  C57  1  0.44429000  0.76473000  0.43353000  1.0
  C  C58  1  0.07067000  0.55581000  0.37994000  1.0
  C  C59  1  0.92934000  0.44420000  0.62007000  1.0
  C  C60  1  0.93132000  0.54641000  0.38702000  1.0
  C  C61  1  0.06869000  0.45359000  0.61298000  1.0
  N  N62  1  0.13948000  0.50968000  0.49262000  1.0
  N  N63  1  0.86052000  0.49032000  0.50738000  1.0
  Cl  Cl64  1  0.92818000  0.84835000  0.48181000  1.0
  Cl  Cl65  1  0.07181000  0.15165000  0.51819000  1.0
  Cl  Cl66  1  0.99104000  0.66408000  0.01841000  1.0
  Cl  Cl67  1  0.00896000  0.33593000  0.98159000  1.0
  Cl  Cl68  1  0.31575000  0.79828000  0.73394000  1.0
  Cl  Cl69  1  0.68425000  0.20173000  0.26605000  1.0
  Cl  Cl70  1  0.13003000  0.92625000  0.16827000  1.0
  Cl  Cl71  1  0.86996000  0.07376000  0.83171000  1.0
  O  O72  1  0.42835000  0.30258000  0.53697000  1.0
  O  O73  1  0.57165000  0.69742000  0.46303000  1.0
  O  O74  1  0.66058000  0.28269000  0.56020000  1.0
  O  O75  1  0.33942000  0.71730000  0.43980000  1.0
  O  O76  1  0.41765000  0.55122000  0.28874000  1.0
  O  O77  1  0.58235000  0.44876000  0.71129000  1.0
  O  O78  1  0.64949000  0.53025000  0.31412000  1.0
  O  O79  1  0.35051000  0.46975000  0.68587000  1.0
  O  O80  1  0.47509000  0.01300000  0.64877000  1.0
  O  O81  1  0.52492000  0.98698000  0.35123000  1.0
  O  O82  1  0.71871000  0.60838000  0.05676000  1.0
  O  O83  1  0.28128000  0.39163000  0.94325000  1.0
