# generated using pymatgen
data_DyH6(C2O3)3
_symmetry_space_group_name_H-M   'P 1'
_cell_length_a   8.24023000
_cell_length_b   8.52739000
_cell_length_c   8.90677000
_cell_angle_alpha   93.57220000
_cell_angle_beta   116.84700000
_cell_angle_gamma   112.17300000
_symmetry_Int_Tables_number   1
_chemical_formula_structural   DyH6(C2O3)3
_chemical_formula_sum   'Dy2 H12 C12 O18'
_cell_volume   496.16504591
_cell_formula_units_Z   2
loop_
 _symmetry_equiv_pos_site_id
 _symmetry_equiv_pos_as_xyz
  1  'x, y, z'
loop_
 _atom_site_type_symbol
 _atom_site_label
 _atom_site_symmetry_multiplicity
 _atom_site_fract_x
 _atom_site_fract_y
 _atom_site_fract_z
 _atom_site_occupancy
  Dy  Dy0  1  0.08979000  0.51924000  0.77253000  1.0
  Dy  Dy1  1  0.91021000  0.48076000  0.22746000  1.0
  H  H2  1  0.16316000  0.22762000  0.90449000  1.0
  H  H3  1  0.83684000  0.77238000  0.09550000  1.0
  H  H4  1  0.35778000  0.40075000  0.06243000  1.0
  H  H5  1  0.64222000  0.59925000  0.93756000  1.0
  H  H6  1  0.20392000  0.80042000  0.61367000  1.0
  H  H7  1  0.79607000  0.19958000  0.38632000  1.0
  H  H8  1  0.97488000  0.82308000  0.79597000  1.0
  H  H9  1  0.02512000  0.17692000  0.20402000  1.0
  H  H10  1  0.90643000  0.69349000  0.90315000  1.0
  H  H11  1  0.09358000  0.30651000  0.09684000  1.0
  H  H12  1  0.30758000  0.90475000  0.81283000  1.0
  H  H13  1  0.69242000  0.09524000  0.18717000  1.0
  C  C14  1  0.34344000  0.71865000  0.19035000  1.0
  C  C15  1  0.65656000  0.28136000  0.80966000  1.0
  C  C16  1  0.33314000  0.50514000  0.61243000  1.0
  C  C17  1  0.66686000  0.49486000  0.38757000  1.0
  C  C18  1  0.89440000  0.06261000  0.62255000  1.0
  C  C19  1  0.10561000  0.93739000  0.37747000  1.0
  C  C20  1  0.53395000  0.83120000  0.35134000  1.0
  C  C21  1  0.46605000  0.16880000  0.64866000  1.0
  C  C22  1  0.45391000  0.50201000  0.53667000  1.0
  C  C23  1  0.54611000  0.49800000  0.46333000  1.0
  C  C24  1  0.69954000  0.92739000  0.48102000  1.0
  C  C25  1  0.30047000  0.07261000  0.51898000  1.0
  O  O26  1  0.39799000  0.51661000  0.77403000  1.0
  O  O27  1  0.60201000  0.48338000  0.22598000  1.0
  O  O28  1  0.20865000  0.34878000  0.97315000  1.0
  O  O29  1  0.79135000  0.65121000  0.02685000  1.0
  O  O30  1  0.35562000  0.70869000  0.05326000  1.0
  O  O31  1  0.64437000  0.29132000  0.94674000  1.0
  O  O32  1  0.27095000  0.79474000  0.73761000  1.0
  O  O33  1  0.72904000  0.20526000  0.26238000  1.0
  O  O34  1  0.93887000  0.21727000  0.60033000  1.0
  O  O35  1  0.06114000  0.78273000  0.39968000  1.0
  O  O36  1  0.97452000  0.71577000  0.83318000  1.0
  O  O37  1  0.02547000  0.28422000  0.16682000  1.0
  O  O38  1  0.18288000  0.64031000  0.19650000  1.0
  O  O39  1  0.81711000  0.35969000  0.80350000  1.0
  O  O40  1  0.00596000  0.02593000  0.75371000  1.0
  O  O41  1  0.99404000  0.97407000  0.24631000  1.0
  O  O42  1  0.15778000  0.49555000  0.51298000  1.0
  O  O43  1  0.84222000  0.50444000  0.48701000  1.0
