# generated using pymatgen
data_Cd2H32C41(NO3)4
_symmetry_space_group_name_H-M   'P 1'
_cell_length_a   14.04740000
_cell_length_b   20.42380000
_cell_length_c   20.42380000
_cell_angle_alpha   62.74510000
_cell_angle_beta   72.18110000
_cell_angle_gamma   72.18080000
_symmetry_Int_Tables_number   1
_chemical_formula_structural   Cd2H32C41(NO3)4
_chemical_formula_sum   'Cd8 H128 C164 N16 O48'
_cell_volume   4862.99709057
_cell_formula_units_Z   4
loop_
 _symmetry_equiv_pos_site_id
 _symmetry_equiv_pos_as_xyz
  1  'x, y, z'
loop_
 _atom_site_type_symbol
 _atom_site_label
 _atom_site_symmetry_multiplicity
 _atom_site_fract_x
 _atom_site_fract_y
 _atom_site_fract_z
 _atom_site_occupancy
  Cd  Cd0  1  0.01907000  0.91589000  0.29372000  1.0
  Cd  Cd1  1  0.48093000  0.70628000  0.08411000  1.0
  Cd  Cd2  1  0.98091000  0.08412000  0.70627000  1.0
  Cd  Cd3  1  0.51907000  0.29372000  0.91588000  1.0
  Cd  Cd4  1  0.81205000  0.78887000  0.41110000  1.0
  Cd  Cd5  1  0.68796000  0.58889000  0.21113000  1.0
  Cd  Cd6  1  0.18796000  0.21113000  0.58890000  1.0
  Cd  Cd7  1  0.31206000  0.41111000  0.78887000  1.0
  H  H8  1  0.28910000  0.57170000  0.79341000  1.0
  H  H9  1  0.21090000  0.20659000  0.42830000  1.0
  H  H10  1  0.71089000  0.42830000  0.20659000  1.0
  H  H11  1  0.78910000  0.79341000  0.57170000  1.0
  H  H12  1  0.19677000  0.64605000  0.87094000  1.0
  H  H13  1  0.30322000  0.12906000  0.35395000  1.0
  H  H14  1  0.80322000  0.35395000  0.12906000  1.0
  H  H15  1  0.69677000  0.87094000  0.64605000  1.0
  H  H16  1  0.07535000  0.44944000  0.03705000  1.0
  H  H17  1  0.42465000  0.96295000  0.55055000  1.0
  H  H18  1  0.92465000  0.55056000  0.96295000  1.0
  H  H19  1  0.57535000  0.03705000  0.44944000  1.0
  H  H20  1  0.17105000  0.38438000  0.95167000  1.0
  H  H21  1  0.32895000  0.04833000  0.61561000  1.0
  H  H22  1  0.82895000  0.61562000  0.04833000  1.0
  H  H23  1  0.67106000  0.95168000  0.38438000  1.0
  H  H24  1  0.04659000  0.69185000  0.00556000  1.0
  H  H25  1  0.45341000  0.99444000  0.30815000  1.0
  H  H26  1  0.95341000  0.30815000  0.99444000  1.0
  H  H27  1  0.54659000  0.00556000  0.69185000  1.0
  H  H28  1  0.17632000  0.65461000  0.97409000  1.0
  H  H29  1  0.32368000  0.02591000  0.34539000  1.0
  H  H30  1  0.82368000  0.34539000  0.02591000  1.0
  H  H31  1  0.67632000  0.97409000  0.65461000  1.0
  H  H32  1  0.22479000  0.51334000  0.16641000  1.0
  H  H33  1  0.27521000  0.83359000  0.48666000  1.0
  H  H34  1  0.77521000  0.48666000  0.83358000  1.0
  H  H35  1  0.72480000  0.16641000  0.51334000  1.0
  H  H36  1  0.16642000  0.49362000  0.11247000  1.0
  H  H37  1  0.33358000  0.88753000  0.50638000  1.0
  H  H38  1  0.83358000  0.50639000  0.88753000  1.0
  H  H39  1  0.66642000  0.11247000  0.49361000  1.0
  H  H40  1  0.42593000  0.56336000  0.93189000  1.0
  H  H41  1  0.07407000  0.06811000  0.43664000  1.0
  H  H42  1  0.57407000  0.43664000  0.06811000  1.0
  H  H43  1  0.92593000  0.93189000  0.56335000  1.0
  H  H44  1  0.51954000  0.46410000  0.88297000  1.0
  H  H45  1  0.98046000  0.11703000  0.53591000  1.0
  H  H46  1  0.48046000  0.53590000  0.11703000  1.0
  H  H47  1  0.01954000  0.88297000  0.46410000  1.0
  H  H48  1  0.37857000  0.30186000  0.06742000  1.0
  H  H49  1  0.12143000  0.93258000  0.69814000  1.0
  H  H50  1  0.62143000  0.69813000  0.93258000  1.0
  H  H51  1  0.87857000  0.06742000  0.30186000  1.0
  H  H52  1  0.28104000  0.39282000  0.12593000  1.0
  H  H53  1  0.21896000  0.87407000  0.60718000  1.0
  H  H54  1  0.71896000  0.60718000  0.87407000  1.0
  H  H55  1  0.78104000  0.12593000  0.39282000  1.0
  H  H56  1  0.19626000  0.64372000  0.15343000  1.0
  H  H57  1  0.30374000  0.84657000  0.35628000  1.0
  H  H58  1  0.80375000  0.35628000  0.84657000  1.0
  H  H59  1  0.69626000  0.15344000  0.64372000  1.0
  H  H60  1  0.24795000  0.67629000  0.05589000  1.0
  H  H61  1  0.25205000  0.94411000  0.32371000  1.0
  H  H62  1  0.75206000  0.32371000  0.94411000  1.0
  H  H63  1  0.74795000  0.05589000  0.67629000  1.0
  H  H64  1  0.98513000  0.86618000  0.06351000  1.0
  H  H65  1  0.51487000  0.93649000  0.13382000  1.0
  H  H66  1  0.01488000  0.13382000  0.93649000  1.0
  H  H67  1  0.48513000  0.06351000  0.86618000  1.0
  H  H68  1  0.95240000  0.93645000  0.14390000  1.0
  H  H69  1  0.54760000  0.85610000  0.06355000  1.0
  H  H70  1  0.04760000  0.06355000  0.85611000  1.0
  H  H71  1  0.45240000  0.14390000  0.93646000  1.0
  H  H72  1  0.16017000  0.77577000  0.27206000  1.0
  H  H73  1  0.33984000  0.72794000  0.22422000  1.0
  H  H74  1  0.83983000  0.22423000  0.72794000  1.0
  H  H75  1  0.66016000  0.27206000  0.77577000  1.0
  H  H76  1  0.21020000  0.70269000  0.19432000  1.0
  H  H77  1  0.28981000  0.80568000  0.29731000  1.0
  H  H78  1  0.78981000  0.29731000  0.80568000  1.0
  H  H79  1  0.71019000  0.19432000  0.70269000  1.0
  H  H80  1  0.96992000  0.64789000  0.13780000  1.0
  H  H81  1  0.53008000  0.86220000  0.35212000  1.0
  H  H82  1  0.03008000  0.35212000  0.86220000  1.0
  H  H83  1  0.46992000  0.13780000  0.64788000  1.0
  H  H84  1  0.00122000  0.55095000  0.15849000  1.0
  H  H85  1  0.49877000  0.84151000  0.44906000  1.0
  H  H86  1  0.99878000  0.44906000  0.84151000  1.0
  H  H87  1  0.50123000  0.15849000  0.55094000  1.0
  H  H88  1  0.87875000  0.69433000  0.19639000  1.0
  H  H89  1  0.62124000  0.80361000  0.30567000  1.0
  H  H90  1  0.12124000  0.30567000  0.80362000  1.0
  H  H91  1  0.37876000  0.19639000  0.69433000  1.0
  H  H92  1  0.80599000  0.77171000  0.27020000  1.0
  H  H93  1  0.69401000  0.72980000  0.22829000  1.0
  H  H94  1  0.19400000  0.22829000  0.72981000  1.0
  H  H95  1  0.30599000  0.27020000  0.77170000  1.0
  H  H96  1  0.99488000  0.63905000  0.42352000  1.0
  H  H97  1  0.50512000  0.57648000  0.36095000  1.0
  H  H98  1  0.00512000  0.36095000  0.57648000  1.0
  H  H99  1  0.49488000  0.42352000  0.63905000  1.0
  H  H100  1  0.08363000  0.55758000  0.35283000  1.0
  H  H101  1  0.41637000  0.64716000  0.44243000  1.0
  H  H102  1  0.91637000  0.44243000  0.64716000  1.0
  H  H103  1  0.58362000  0.35283000  0.55758000  1.0
  H  H104  1  0.25469000  0.74309000  0.45377000  1.0
  H  H105  1  0.24531000  0.54623000  0.25691000  1.0
  H  H106  1  0.74531000  0.25691000  0.54623000  1.0
  H  H107  1  0.75469000  0.45377000  0.74309000  1.0
  H  H108  1  0.31678000  0.63845000  0.56807000  1.0
  H  H109  1  0.18322000  0.43192000  0.36155000  1.0
  H  H110  1  0.68322000  0.36155000  0.43192000  1.0
  H  H111  1  0.81678000  0.56807000  0.63845000  1.0
  H  H112  1  0.03032000  0.56738000  0.64641000  1.0
  H  H113  1  0.46968000  0.35359000  0.43262000  1.0
  H  H114  1  0.96968000  0.43262000  0.35359000  1.0
  H  H115  1  0.53032000  0.64641000  0.56738000  1.0
  H  H116  1  0.96447000  0.67463000  0.53536000  1.0
  H  H117  1  0.53553000  0.46464000  0.32537000  1.0
  H  H118  1  0.03553000  0.32537000  0.46464000  1.0
  H  H119  1  0.46446000  0.53537000  0.67463000  1.0
  H  H120  1  0.59056000  0.94514000  0.23344000  1.0
  H  H121  1  0.90943000  0.76656000  0.05486000  1.0
  H  H122  1  0.40944000  0.05486000  0.76656000  1.0
  H  H123  1  0.09057000  0.23344000  0.94514000  1.0
  H  H124  1  0.51473000  0.06157000  0.13320000  1.0
  H  H125  1  0.98526000  0.86680000  0.93843000  1.0
  H  H126  1  0.48526000  0.93843000  0.86680000  1.0
  H  H127  1  0.01474000  0.13320000  0.06157000  1.0
  H  H128  1  0.77838000  0.15465000  0.07790000  1.0
  H  H129  1  0.72163000  0.92210000  0.84535000  1.0
  H  H130  1  0.22162000  0.84535000  0.92210000  1.0
  H  H131  1  0.27838000  0.07790000  0.15464000  1.0
  H  H132  1  0.85054000  0.04207000  0.18254000  1.0
  H  H133  1  0.64946000  0.81746000  0.95793000  1.0
  H  H134  1  0.14946000  0.95793000  0.81747000  1.0
  H  H135  1  0.35055000  0.18253000  0.04207000  1.0
  C  C136  1  0.24114000  0.54668000  0.84819000  1.0
  C  C137  1  0.25885000  0.15181000  0.45332000  1.0
  C  C138  1  0.75885000  0.45332000  0.15181000  1.0
  C  C139  1  0.74115000  0.84819000  0.54668000  1.0
  C  C140  1  0.18936000  0.58796000  0.89167000  1.0
  C  C141  1  0.31064000  0.10833000  0.41204000  1.0
  C  C142  1  0.81064000  0.41204000  0.10833000  1.0
  C  C143  1  0.68936000  0.89167000  0.58796000  1.0
  C  C144  1  0.12822000  0.55275000  0.96122000  1.0
  C  C145  1  0.37178000  0.03878000  0.44725000  1.0
  C  C146  1  0.87178000  0.44725000  0.03878000  1.0
  C  C147  1  0.62822000  0.96122000  0.55275000  1.0
  C  C148  1  0.12181000  0.47821000  0.98324000  1.0
  C  C149  1  0.37819000  0.01676000  0.52179000  1.0
  C  C150  1  0.87819000  0.52179000  0.01676000  1.0
  C  C151  1  0.62181000  0.98324000  0.47821000  1.0
  C  C152  1  0.17549000  0.44214000  0.93586000  1.0
  C  C153  1  0.32451000  0.06414000  0.55786000  1.0
  C  C154  1  0.82451000  0.55786000  0.06414000  1.0
  C  C155  1  0.67549000  0.93586000  0.44214000  1.0
  C  C156  1  0.10648000  0.64103000  0.01583000  1.0
  C  C157  1  0.39352000  0.98417000  0.35897000  1.0
  C  C158  1  0.89352000  0.35897000  0.98417000  1.0
  C  C159  1  0.60648000  0.01583000  0.64103000  1.0
  C  C160  1  0.12894000  0.61025000  0.09501000  1.0
  C  C161  1  0.37107000  0.90498000  0.38975000  1.0
  C  C162  1  0.87107000  0.38975000  0.90498000  1.0
  C  C163  1  0.62894000  0.09501000  0.61025000  1.0
  C  C164  1  0.20340000  0.53432000  0.11172000  1.0
  C  C165  1  0.29660000  0.88828000  0.46568000  1.0
  C  C166  1  0.79660000  0.46568000  0.88828000  1.0
  C  C167  1  0.70340000  0.11172000  0.53432000  1.0
  C  C168  1  0.34408000  0.48664000  0.03166000  1.0
  C  C169  1  0.15591000  0.96834000  0.51336000  1.0
  C  C170  1  0.65591000  0.51336000  0.96834000  1.0
  C  C171  1  0.84409000  0.03166000  0.48664000  1.0
  C  C172  1  0.41403000  0.50577000  0.96317000  1.0
  C  C173  1  0.08597000  0.03683000  0.49423000  1.0
  C  C174  1  0.58597000  0.49422000  0.03683000  1.0
  C  C175  1  0.91404000  0.96317000  0.50577000  1.0
  C  C176  1  0.46533000  0.45083000  0.93622000  1.0
  C  C177  1  0.03466000  0.06378000  0.54917000  1.0
  C  C178  1  0.53466000  0.54917000  0.06378000  1.0
  C  C179  1  0.96534000  0.93622000  0.45083000  1.0
  C  C180  1  0.38673000  0.36055000  0.03933000  1.0
  C  C181  1  0.11327000  0.96067000  0.63945000  1.0
  C  C182  1  0.61327000  0.63945000  0.96067000  1.0
  C  C183  1  0.88673000  0.03933000  0.36055000  1.0
  C  C184  1  0.33206000  0.41168000  0.07158000  1.0
  C  C185  1  0.16793000  0.92842000  0.58832000  1.0
  C  C186  1  0.66793000  0.58832000  0.92842000  1.0
  C  C187  1  0.83207000  0.07158000  0.41168000  1.0
  C  C188  1  0.17741000  0.66631000  0.09800000  1.0
  C  C189  1  0.32259000  0.90200000  0.33369000  1.0
  C  C190  1  0.82260000  0.33369000  0.90199000  1.0
  C  C191  1  0.67741000  0.09801000  0.66631000  1.0
  C  C192  1  0.09701000  0.77654000  0.12431000  1.0
  C  C193  1  0.40299000  0.87570000  0.22346000  1.0
  C  C194  1  0.90300000  0.22346000  0.87569000  1.0
  C  C195  1  0.59701000  0.12431000  0.77654000  1.0
  C  C196  1  0.02601000  0.84483000  0.10905000  1.0
  C  C197  1  0.47399000  0.89095000  0.15517000  1.0
  C  C198  1  0.97400000  0.15517000  0.89095000  1.0
  C  C199  1  0.52601000  0.10905000  0.84483000  1.0
  C  C200  1  0.00735000  0.88353000  0.15388000  1.0
  C  C201  1  0.49266000  0.84612000  0.11647000  1.0
  C  C202  1  0.99265000  0.11647000  0.84612000  1.0
  C  C203  1  0.50735000  0.15388000  0.88353000  1.0
  C  C204  1  0.12390000  0.79425000  0.22472000  1.0
  C  C205  1  0.37611000  0.77528000  0.20575000  1.0
  C  C206  1  0.87611000  0.20575000  0.77528000  1.0
  C  C207  1  0.62389000  0.22472000  0.79426000  1.0
  C  C208  1  0.14986000  0.75244000  0.18200000  1.0
  C  C209  1  0.35014000  0.81801000  0.24756000  1.0
  C  C210  1  0.85015000  0.24756000  0.81800000  1.0
  C  C211  1  0.64986000  0.18200000  0.75244000  1.0
  C  C212  1  0.02942000  0.59764000  0.15407000  1.0
  C  C213  1  0.47058000  0.84593000  0.40236000  1.0
  C  C214  1  0.97058000  0.40236000  0.84592000  1.0
  C  C215  1  0.52942000  0.15407000  0.59764000  1.0
  C  C216  1  0.99239000  0.62108000  0.26630000  1.0
  C  C217  1  0.50760000  0.73369000  0.37892000  1.0
  C  C218  1  0.00760000  0.37892000  0.73370000  1.0
  C  C219  1  0.49239000  0.26630000  0.62108000  1.0
  C  C220  1  0.91073000  0.68077000  0.24437000  1.0
  C  C221  1  0.58926000  0.75563000  0.31923000  1.0
  C  C222  1  0.08926000  0.31923000  0.75563000  1.0
  C  C223  1  0.41073000  0.24437000  0.68077000  1.0
  C  C224  1  0.86777000  0.72353000  0.28666000  1.0
  C  C225  1  0.63223000  0.71334000  0.27647000  1.0
  C  C226  1  0.13222000  0.27647000  0.71335000  1.0
  C  C227  1  0.36777000  0.28666000  0.72353000  1.0
  C  C228  1  0.97300000  0.65004000  0.37201000  1.0
  C  C229  1  0.52700000  0.62799000  0.34997000  1.0
  C  C230  1  0.02700000  0.34997000  0.62799000  1.0
  C  C231  1  0.47300000  0.37201000  0.65003000  1.0
  C  C232  1  0.02197000  0.60458000  0.33292000  1.0
  C  C233  1  0.47802000  0.66708000  0.39542000  1.0
  C  C234  1  0.97803000  0.39542000  0.66708000  1.0
  C  C235  1  0.52197000  0.33292000  0.60458000  1.0
  C  C236  1  0.07081000  0.77972000  0.41964000  1.0
  C  C237  1  0.42918000  0.58036000  0.22029000  1.0
  C  C238  1  0.92919000  0.22028000  0.58036000  1.0
  C  C239  1  0.57081000  0.41965000  0.77972000  1.0
  C  C240  1  0.10623000  0.71544000  0.48734000  1.0
  C  C241  1  0.39377000  0.51266000  0.28457000  1.0
  C  C242  1  0.89377000  0.28456000  0.51266000  1.0
  C  C243  1  0.60623000  0.48734000  0.71544000  1.0
  C  C244  1  0.20548000  0.70501000  0.49675000  1.0
  C  C245  1  0.29452000  0.50326000  0.29499000  1.0
  C  C246  1  0.79452000  0.29499000  0.50326000  1.0
  C  C247  1  0.70548000  0.49675000  0.70501000  1.0
  C  C248  1  0.24025000  0.64689000  0.55960000  1.0
  C  C249  1  0.25975000  0.44041000  0.35311000  1.0
  C  C250  1  0.75975000  0.35310000  0.44040000  1.0
  C  C251  1  0.74025000  0.55960000  0.64689000  1.0
  C  C252  1  0.17703000  0.59702000  0.61353000  1.0
  C  C253  1  0.32297000  0.38647000  0.40298000  1.0
  C  C254  1  0.82297000  0.40297000  0.38647000  1.0
  C  C255  1  0.67703000  0.61353000  0.59702000  1.0
  C  C256  1  0.07805000  0.60712000  0.60413000  1.0
  C  C257  1  0.42195000  0.39587000  0.39288000  1.0
  C  C258  1  0.92196000  0.39288000  0.39587000  1.0
  C  C259  1  0.57805000  0.60413000  0.60712000  1.0
  C  C260  1  0.04205000  0.66642000  0.54190000  1.0
  C  C261  1  0.45795000  0.45810000  0.33358000  1.0
  C  C262  1  0.95795000  0.33358000  0.45810000  1.0
  C  C263  1  0.54205000  0.54190000  0.66642000  1.0
  C  C264  1  0.21721000  0.53236000  0.67948000  1.0
  C  C265  1  0.28279000  0.32052000  0.46764000  1.0
  C  C266  1  0.78279000  0.46764000  0.32052000  1.0
  C  C267  1  0.71721000  0.67947000  0.53237000  1.0
  C  C268  1  0.76450000  0.91890000  0.27842000  1.0
  C  C269  1  0.73551000  0.72158000  0.08109000  1.0
  C  C270  1  0.23551000  0.08109000  0.72158000  1.0
  C  C271  1  0.26450000  0.27842000  0.91891000  1.0
  C  C272  1  0.72419000  0.98673000  0.21501000  1.0
  C  C273  1  0.77581000  0.78499000  0.01327000  1.0
  C  C274  1  0.27581000  0.01327000  0.78499000  1.0
  C  C275  1  0.22420000  0.21501000  0.98673000  1.0
  C  C276  1  0.63027000  0.99195000  0.20023000  1.0
  C  C277  1  0.86973000  0.79977000  0.00804000  1.0
  C  C278  1  0.36973000  0.00804000  0.79977000  1.0
  C  C279  1  0.13028000  0.20023000  0.99195000  1.0
  C  C280  1  0.58862000  0.05598000  0.14427000  1.0
  C  C281  1  0.91138000  0.85573000  0.94402000  1.0
  C  C282  1  0.41138000  0.94402000  0.85573000  1.0
  C  C283  1  0.08863000  0.14427000  0.05598000  1.0
  C  C284  1  0.64200000  0.11490000  0.10028000  1.0
  C  C285  1  0.85799000  0.89972000  0.88510000  1.0
  C  C286  1  0.35799000  0.88510000  0.89973000  1.0
  C  C287  1  0.14201000  0.10028000  0.11490000  1.0
  C  C288  1  0.73705000  0.10892000  0.11366000  1.0
  C  C289  1  0.76295000  0.88634000  0.89108000  1.0
  C  C290  1  0.26295000  0.89108000  0.88635000  1.0
  C  C291  1  0.23705000  0.11365000  0.10892000  1.0
  C  C292  1  0.77742000  0.04588000  0.17145000  1.0
  C  C293  1  0.72258000  0.82855000  0.95412000  1.0
  C  C294  1  0.22258000  0.95412000  0.82856000  1.0
  C  C295  1  0.27743000  0.17144000  0.04588000  1.0
  C  C296  1  0.59804000  0.18268000  0.03829000  1.0
  C  C297  1  0.90195000  0.96171000  0.81732000  1.0
  C  C298  1  0.40196000  0.81732000  0.96172000  1.0
  C  C299  1  0.09804000  0.03829000  0.18268000  1.0
  N  N300  1  0.23500000  0.47509000  0.86938000  1.0
  N  N301  1  0.26500000  0.13062000  0.52491000  1.0
  N  N302  1  0.76500000  0.52491000  0.13062000  1.0
  N  N303  1  0.73500000  0.86938000  0.47509000  1.0
  N  N304  1  0.45129000  0.37935000  0.97267000  1.0
  N  N305  1  0.04871000  0.02733000  0.62065000  1.0
  N  N306  1  0.54870000  0.62065000  0.02733000  1.0
  N  N307  1  0.95130000  0.97267000  0.37935000  1.0
  N  N308  1  0.05391000  0.85826000  0.21223000  1.0
  N  N309  1  0.44610000  0.78776000  0.14174000  1.0
  N  N310  1  0.94609000  0.14174000  0.78777000  1.0
  N  N311  1  0.55390000  0.21223000  0.85826000  1.0
  N  N312  1  0.89775000  0.70994000  0.34896000  1.0
  N  N313  1  0.60225000  0.65104000  0.29006000  1.0
  N  N314  1  0.10225000  0.29006000  0.65105000  1.0
  N  N315  1  0.39775000  0.34896000  0.70994000  1.0
  O  O316  1  0.07089000  0.58543000  0.00934000  1.0
  O  O317  1  0.42911000  0.99065000  0.41458000  1.0
  O  O318  1  0.92911000  0.41457000  0.99066000  1.0
  O  O319  1  0.57090000  0.00935000  0.58542000  1.0
  O  O320  1  0.29334000  0.54385000  0.05306000  1.0
  O  O321  1  0.20666000  0.94694000  0.45615000  1.0
  O  O322  1  0.70666000  0.45615000  0.94693000  1.0
  O  O323  1  0.79334000  0.05306000  0.54385000  1.0
  O  O324  1  0.10652000  0.73755000  0.08323000  1.0
  O  O325  1  0.39348000  0.91678000  0.26244000  1.0
  O  O326  1  0.89350000  0.26245000  0.91677000  1.0
  O  O327  1  0.60652000  0.08323000  0.73755000  1.0
  O  O328  1  0.04764000  0.57829000  0.22730000  1.0
  O  O329  1  0.45236000  0.77269000  0.42171000  1.0
  O  O330  1  0.95236000  0.42171000  0.77269000  1.0
  O  O331  1  0.54764000  0.22730000  0.57829000  1.0
  O  O332  1  0.97775000  0.79620000  0.41399000  1.0
  O  O333  1  0.52224000  0.58601000  0.20380000  1.0
  O  O334  1  0.02224000  0.20379000  0.58601000  1.0
  O  O335  1  0.47775000  0.41399000  0.79621000  1.0
  O  O336  1  0.13562000  0.81887000  0.36968000  1.0
  O  O337  1  0.36438000  0.63032000  0.18113000  1.0
  O  O338  1  0.86438000  0.18112000  0.63033000  1.0
  O  O339  1  0.63562000  0.36968000  0.81887000  1.0
  O  O340  1  0.16364000  0.48327000  0.72427000  1.0
  O  O341  1  0.33636000  0.27573000  0.51673000  1.0
  O  O342  1  0.83636000  0.51673000  0.27573000  1.0
  O  O343  1  0.66364000  0.72426000  0.48328000  1.0
  O  O344  1  0.30639000  0.52945000  0.68661000  1.0
  O  O345  1  0.19361000  0.31340000  0.47054000  1.0
  O  O346  1  0.69361000  0.47055000  0.31339000  1.0
  O  O347  1  0.80639000  0.68660000  0.52945000  1.0
  O  O348  1  0.71486000  0.86532000  0.31360000  1.0
  O  O349  1  0.78514000  0.68639000  0.13468000  1.0
  O  O350  1  0.28514000  0.13468000  0.68638000  1.0
  O  O351  1  0.21486000  0.31361000  0.86533000  1.0
  O  O352  1  0.84318000  0.91687000  0.29831000  1.0
  O  O353  1  0.65683000  0.70169000  0.08312000  1.0
  O  O354  1  0.15683000  0.08311000  0.70169000  1.0
  O  O355  1  0.34318000  0.29831000  0.91688000  1.0
  O  O356  1  0.50456000  0.19083000  0.03658000  1.0
  O  O357  1  0.99543000  0.96342000  0.80918000  1.0
  O  O358  1  0.49544000  0.80917000  0.96342000  1.0
  O  O359  1  0.00456000  0.03659000  0.19082000  1.0
  O  O360  1  0.65504000  0.22820000  0.98944000  1.0
  O  O361  1  0.84495000  0.01056000  0.77180000  1.0
  O  O362  1  0.34495000  0.77181000  0.01057000  1.0
  O  O363  1  0.15504000  0.98944000  0.22820000  1.0
