# generated using pymatgen
data_ErH8C3N9O5
_symmetry_space_group_name_H-M   'P 1'
_cell_length_a   6.32343000
_cell_length_b   6.58964358
_cell_length_c   7.38986777
_cell_angle_alpha   70.57801873
_cell_angle_beta   81.68455121
_cell_angle_gamma   63.64725394
_symmetry_Int_Tables_number   1
_chemical_formula_structural   ErH8C3N9O5
_chemical_formula_sum   'Er1 H8 C3 N9 O5'
_cell_volume   260.22559548
_cell_formula_units_Z   1
loop_
 _symmetry_equiv_pos_site_id
 _symmetry_equiv_pos_as_xyz
  1  'x, y, z'
loop_
 _atom_site_type_symbol
 _atom_site_label
 _atom_site_symmetry_multiplicity
 _atom_site_fract_x
 _atom_site_fract_y
 _atom_site_fract_z
 _atom_site_occupancy
  Er  Er0  1  0.99444000  0.55639000  0.92776000  1.0
  H  H1  1  0.12832000  0.25365000  0.35217000  1.0
  H  H2  1  0.84970000  0.38850000  0.34860000  1.0
  H  H3  1  0.51902000  0.65330000  0.14049000  1.0
  H  H4  1  0.48735000  0.31219000  0.90483000  1.0
  H  H5  1  0.51008000  0.79729000  0.90876000  1.0
  H  H6  1  0.46462000  0.19159000  0.13835000  1.0
  H  H7  1  0.97647000  0.81496000  0.21956000  1.0
  H  H8  1  0.21001000  0.99262000  0.04897000  1.0
  C  C9  1  0.77117000  0.87212000  0.45282000  1.0
  C  C10  1  0.19780000  0.65560000  0.44892000  1.0
  C  C11  1  0.06404000  0.04396000  0.95242000  1.0
  N  N12  1  0.73498000  0.81813000  0.64315000  1.0
  N  N13  1  0.24086000  0.56472000  0.63873000  1.0
  N  N14  1  0.49692000  0.93444000  0.66174000  1.0
  N  N15  1  0.48020000  0.44208000  0.65358000  1.0
  N  N16  1  0.39982000  0.04964000  0.49208000  1.0
  N  N17  1  0.57184000  0.45964000  0.48281000  1.0
  N  N18  1  0.56735000  0.01584000  0.35578000  1.0
  N  N19  1  0.39926000  0.59306000  0.34895000  1.0
  N  N20  1  0.98247000  0.79470000  0.36218000  1.0
  O  O21  1  0.01118000  0.87859000  0.95048000  1.0
  O  O22  1  0.95852000  0.25967000  0.86023000  1.0
  O  O23  1  0.99129000  0.36344000  0.26302000  1.0
  O  O24  1  0.61622000  0.68905000  0.02127000  1.0
  O  O25  1  0.37606000  0.30843000  0.01516000  1.0
