# generated using pymatgen
data_Er2H11C11NO16
_symmetry_space_group_name_H-M   'P 1'
_cell_length_a   7.40576000
_cell_length_b   10.69270000
_cell_length_c   12.91650000
_cell_angle_alpha   95.51230000
_cell_angle_beta   103.33900000
_cell_angle_gamma   107.02500000
_symmetry_Int_Tables_number   1
_chemical_formula_structural   Er2H11C11NO16
_chemical_formula_sum   'Er4 H22 C22 N2 O32'
_cell_volume   936.78908948
_cell_formula_units_Z   2
loop_
 _symmetry_equiv_pos_site_id
 _symmetry_equiv_pos_as_xyz
  1  'x, y, z'
loop_
 _atom_site_type_symbol
 _atom_site_label
 _atom_site_symmetry_multiplicity
 _atom_site_fract_x
 _atom_site_fract_y
 _atom_site_fract_z
 _atom_site_occupancy
  Er  Er0  1  0.32879000  0.03831000  0.19103000  1.0
  Er  Er1  1  0.67121000  0.96169000  0.80898000  1.0
  Er  Er2  1  0.78224000  0.68145000  0.39994000  1.0
  Er  Er3  1  0.21776000  0.31856000  0.60006000  1.0
  H  H4  1  0.89032000  0.66399000  0.99108000  1.0
  H  H5  1  0.10968000  0.33599000  0.00892000  1.0
  H  H6  1  0.71452000  0.41628000  0.92388000  1.0
  H  H7  1  0.28548000  0.58371000  0.07613000  1.0
  H  H8  1  0.56412000  0.28051000  0.04911000  1.0
  H  H9  1  0.43587000  0.71949000  0.95089000  1.0
  H  H10  1  0.96882000  0.09657000  0.07928000  1.0
  H  H11  1  0.03119000  0.90343000  0.92073000  1.0
  H  H12  1  0.06500000  0.17977000  0.19601000  1.0
  H  H13  1  0.93499000  0.82023000  0.80400000  1.0
  H  H14  1  0.09923000  0.98584000  0.33762000  1.0
  H  H15  1  0.90076000  0.01415000  0.66238000  1.0
  H  H16  1  0.27719000  0.11344000  0.40954000  1.0
  H  H17  1  0.72280000  0.88655000  0.59046000  1.0
  H  H18  1  0.10321000  0.92964000  0.53268000  1.0
  H  H19  1  0.89680000  0.07036000  0.46731000  1.0
  H  H20  1  0.15241000  0.81008000  0.57427000  1.0
  H  H21  1  0.84759000  0.18991000  0.42573000  1.0
  H  H22  1  0.40734000  0.65239000  0.44345000  1.0
  H  H23  1  0.59267000  0.34761000  0.55655000  1.0
  H  H24  1  0.51311000  0.62625000  0.55501000  1.0
  H  H25  1  0.48688000  0.37376000  0.44499000  1.0
  C  C26  1  0.83495000  0.65233000  0.14701000  1.0
  C  C27  1  0.16504000  0.34766000  0.85300000  1.0
  C  C28  1  0.82429000  0.59888000  0.04178000  1.0
  C  C29  1  0.17571000  0.40111000  0.95822000  1.0
  C  C30  1  0.72699000  0.46295000  0.00528000  1.0
  C  C31  1  0.27302000  0.53704000  0.99473000  1.0
  C  C32  1  0.64249000  0.38648000  0.07427000  1.0
  C  C33  1  0.35750000  0.61352000  0.92574000  1.0
  C  C34  1  0.65816000  0.44864000  0.17771000  1.0
  C  C35  1  0.34182000  0.55136000  0.82229000  1.0
  C  C36  1  0.94253000  0.79523000  0.19821000  1.0
  C  C37  1  0.05747000  0.20477000  0.80179000  1.0
  C  C38  1  0.57158000  0.37878000  0.25938000  1.0
  C  C39  1  0.42840000  0.62123000  0.74062000  1.0
  C  C40  1  0.60369000  0.92420000  0.35363000  1.0
  C  C41  1  0.39630000  0.07580000  0.64637000  1.0
  C  C42  1  0.47704000  0.80301000  0.26416000  1.0
  C  C43  1  0.52294000  0.19698000  0.73585000  1.0
  C  C44  1  0.39539000  0.97771000  0.96095000  1.0
  C  C45  1  0.60463000  0.02230000  0.03906000  1.0
  C  C46  1  0.94257000  0.49370000  0.54364000  1.0
  C  C47  1  0.05744000  0.50632000  0.45632000  1.0
  N  N48  1  0.75374000  0.57843000  0.21264000  1.0
  N  N49  1  0.24625000  0.42157000  0.78736000  1.0
  O  O50  1  0.02148000  0.87493000  0.14332000  1.0
  O  O51  1  0.97851000  0.12506000  0.85668000  1.0
  O  O52  1  0.94904000  0.82612000  0.29785000  1.0
  O  O53  1  0.05096000  0.17389000  0.70215000  1.0
  O  O54  1  0.58818000  0.45144000  0.34765000  1.0
  O  O55  1  0.41181000  0.54857000  0.65235000  1.0
  O  O56  1  0.49060000  0.25464000  0.23758000  1.0
  O  O57  1  0.50938000  0.74537000  0.76241000  1.0
  O  O58  1  0.56713000  0.03176000  0.34549000  1.0
  O  O59  1  0.43287000  0.96824000  0.65451000  1.0
  O  O60  1  0.73854000  0.90750000  0.42668000  1.0
  O  O61  1  0.26145000  0.09249000  0.57331000  1.0
  O  O62  1  0.50118000  0.69245000  0.27520000  1.0
  O  O63  1  0.49881000  0.30755000  0.72480000  1.0
  O  O64  1  0.36021000  0.82588000  0.18575000  1.0
  O  O65  1  0.63977000  0.17411000  0.81425000  1.0
  O  O66  1  0.37555000  0.93714000  0.86325000  1.0
  O  O67  1  0.62444000  0.06287000  0.13675000  1.0
  O  O68  1  0.25928000  0.98586000  0.00387000  1.0
  O  O69  1  0.74076000  0.01416000  0.99615000  1.0
  O  O70  1  0.84345000  0.57114000  0.54927000  1.0
  O  O71  1  0.15658000  0.42888000  0.45072000  1.0
  O  O72  1  0.04392000  0.59452000  0.39870000  1.0
  O  O73  1  0.95611000  0.40549000  0.60127000  1.0
  O  O74  1  0.09774000  0.15219000  0.13038000  1.0
  O  O75  1  0.90228000  0.84781000  0.86964000  1.0
  O  O76  1  0.20109000  0.07050000  0.33559000  1.0
  O  O77  1  0.79891000  0.92949000  0.66441000  1.0
  O  O78  1  0.04353000  0.83297000  0.53156000  1.0
  O  O79  1  0.95648000  0.16703000  0.46843000  1.0
  O  O80  1  0.53690000  0.67436000  0.49439000  1.0
  O  O81  1  0.46310000  0.32565000  0.50561000  1.0
