# generated using pymatgen
data_Zr3H17C27O16
_symmetry_space_group_name_H-M   'P 1'
_cell_length_a   14.74620000
_cell_length_b   14.75290000
_cell_length_c   14.75270000
_cell_angle_alpha   60.18210000
_cell_angle_beta   60.07240000
_cell_angle_gamma   60.07190000
_symmetry_Int_Tables_number   1
_chemical_formula_structural   Zr3H17C27O16
_chemical_formula_sum   'Zr6 H34 C54 O32'
_cell_volume   2275.00427672
_cell_formula_units_Z   2
loop_
 _symmetry_equiv_pos_site_id
 _symmetry_equiv_pos_as_xyz
  1  'x, y, z'
loop_
 _atom_site_type_symbol
 _atom_site_label
 _atom_site_symmetry_multiplicity
 _atom_site_fract_x
 _atom_site_fract_y
 _atom_site_fract_z
 _atom_site_occupancy
  Zr  Zr0  1  0.87927000  0.88037000  0.62084000  1.0
  Zr  Zr1  1  0.11918000  0.11918000  0.38138000  1.0
  Zr  Zr2  1  0.11923000  0.87968000  0.62077000  1.0
  Zr  Zr3  1  0.87916000  0.11914000  0.38213000  1.0
  Zr  Zr4  1  0.11960000  0.87974000  0.38137000  1.0
  Zr  Zr5  1  0.87957000  0.11947000  0.62127000  1.0
  H  H6  1  0.09573000  0.71709000  0.59446000  1.0
  H  H7  1  0.09554000  0.09300000  0.21871000  1.0
  H  H8  1  0.09444000  0.09373000  0.59520000  1.0
  H  H9  1  0.71615000  0.09423000  0.59591000  1.0
  H  H10  1  0.15588000  0.40066000  0.37189000  1.0
  H  H11  1  0.82834000  0.61470000  0.61337000  1.0
  H  H12  1  0.15563000  0.57164000  0.37170000  1.0
  H  H13  1  0.82839000  0.44393000  0.61336000  1.0
  H  H14  1  0.42271000  0.13672000  0.09558000  1.0
  H  H15  1  0.60112000  0.83845000  0.93178000  1.0
  H  H16  1  0.59324000  0.13664000  0.92525000  1.0
  H  H17  1  0.43069000  0.83848000  0.10219000  1.0
  H  H18  1  0.82891000  0.11158000  0.94521000  1.0
  H  H19  1  0.15553000  0.86918000  0.07379000  1.0
  H  H20  1  0.82864000  0.11161000  0.11607000  1.0
  H  H21  1  0.15594000  0.86934000  0.90276000  1.0
  H  H22  1  0.43021000  0.59973000  0.34102000  1.0
  H  H23  1  0.59264000  0.42341000  0.63923000  1.0
  H  H24  1  0.60084000  0.42941000  0.34112000  1.0
  H  H25  1  0.42207000  0.59372000  0.63905000  1.0
  H  H26  1  0.99697000  0.57171000  0.73719000  1.0
  H  H27  1  0.00872000  0.40181000  0.73360000  1.0
  H  H28  1  0.99706000  0.23565000  0.07297000  1.0
  H  H29  1  0.00889000  0.23234000  0.90290000  1.0
  H  H30  1  0.42545000  0.84239000  0.63520000  1.0
  H  H31  1  0.59571000  0.13320000  0.34538000  1.0
  H  H32  1  0.59586000  0.84271000  0.63555000  1.0
  H  H33  1  0.42526000  0.13285000  0.34507000  1.0
  H  H34  1  0.90608000  0.58116000  0.22908000  1.0
  H  H35  1  0.97276000  0.43536000  0.27672000  1.0
  H  H36  1  0.05188000  0.52502000  0.19218000  1.0
  H  H37  1  0.05122000  0.69103000  0.02699000  1.0
  H  H38  1  0.97340000  0.77505000  0.93612000  1.0
  H  H39  1  0.90531000  0.72849000  0.08172000  1.0
  C  C40  1  0.99485000  0.70040000  0.49587000  1.0
  C  C41  1  0.31017000  0.99337000  0.20308000  1.0
  C  C42  1  0.99495000  0.30848000  0.49665000  1.0
  C  C43  1  0.70112000  0.99394000  0.81178000  1.0
  C  C44  1  0.99442000  0.69937000  0.80877000  1.0
  C  C45  1  0.70074000  0.99347000  0.49574000  1.0
  C  C46  1  0.99419000  0.30731000  0.20103000  1.0
  C  C47  1  0.30938000  0.99345000  0.49567000  1.0
  C  C48  1  0.31005000  0.70125000  0.49523000  1.0
  C  C49  1  0.99522000  0.99463000  0.81016000  1.0
  C  C50  1  0.70095000  0.30995000  0.49617000  1.0
  C  C51  1  0.99480000  0.99399000  0.20216000  1.0
  C  C52  1  0.99257000  0.41244000  0.49336000  1.0
  C  C53  1  0.99233000  0.60197000  0.49297000  1.0
  C  C54  1  0.08467000  0.44848000  0.42404000  1.0
  C  C55  1  0.89935000  0.56716000  0.56083000  1.0
  C  C56  1  0.08453000  0.54283000  0.42388000  1.0
  C  C57  1  0.89948000  0.47275000  0.56095000  1.0
  C  C58  1  0.41609000  0.98870000  0.10711000  1.0
  C  C59  1  0.60531000  0.98881000  0.91783000  1.0
  C  C60  1  0.46268000  0.07185000  0.05903000  1.0
  C  C61  1  0.56124000  0.90328000  0.96838000  1.0
  C  C62  1  0.55689000  0.07178000  0.96490000  1.0
  C  C63  1  0.46709000  0.90329000  0.06260000  1.0
  C  C64  1  0.99282000  0.99116000  0.91420000  1.0
  C  C65  1  0.99240000  0.99085000  0.10378000  1.0
  C  C66  1  0.89982000  0.05896000  0.97430000  1.0
  C  C67  1  0.08451000  0.92147000  0.04488000  1.0
  C  C68  1  0.89959000  0.05886000  0.06873000  1.0
  C  C69  1  0.08476000  0.92161000  0.95049000  1.0
  C  C70  1  0.41566000  0.60498000  0.49104000  1.0
  C  C71  1  0.60490000  0.41578000  0.49138000  1.0
  C  C72  1  0.46662000  0.56028000  0.40580000  1.0
  C  C73  1  0.55635000  0.46289000  0.57435000  1.0
  C  C74  1  0.56082000  0.46613000  0.40588000  1.0
  C  C75  1  0.46212000  0.55702000  0.57426000  1.0
  C  C76  1  0.99176000  0.59916000  0.91107000  1.0
  C  C77  1  0.99507000  0.50253000  0.90704000  1.0
  C  C78  1  0.98651000  0.60179000  0.00654000  1.0
  C  C79  1  0.00039000  0.49787000  0.81033000  1.0
  C  C80  1  0.00571000  0.40273000  0.80857000  1.0
  C  C81  1  0.99165000  0.40958000  0.10073000  1.0
  C  C82  1  0.98648000  0.50507000  0.10328000  1.0
  C  C83  1  0.99500000  0.40557000  0.00403000  1.0
  C  C84  1  0.00043000  0.30889000  0.99920000  1.0
  C  C85  1  0.00577000  0.30728000  0.90395000  1.0
  C  C86  1  0.41495000  0.98878000  0.49127000  1.0
  C  C87  1  0.60407000  0.98899000  0.49145000  1.0
  C  C88  1  0.46358000  0.90554000  0.57230000  1.0
  C  C89  1  0.55764000  0.07001000  0.40820000  1.0
  C  C90  1  0.55776000  0.90564000  0.57240000  1.0
  C  C91  1  0.46351000  0.06988000  0.40809000  1.0
  C  C92  1  0.97853000  0.51115000  0.20600000  1.0
  C  C93  1  0.97837000  0.70475000  0.01237000  1.0
  O  O94  1  0.91912000  0.73840000  0.57439000  1.0
  O  O95  1  0.26770000  0.07292000  0.24022000  1.0
  O  O96  1  0.07358000  0.26697000  0.42134000  1.0
  O  O97  1  0.73733000  0.92024000  0.76903000  1.0
  O  O98  1  0.07412000  0.73583000  0.76762000  1.0
  O  O99  1  0.73774000  0.07279000  0.42134000  1.0
  O  O100  1  0.91731000  0.26715000  0.24193000  1.0
  O  O101  1  0.26730000  0.91923000  0.57506000  1.0
  O  O102  1  0.26817000  0.73797000  0.42069000  1.0
  O  O103  1  0.91977000  0.07327000  0.76948000  1.0
  O  O104  1  0.73828000  0.26810000  0.57543000  1.0
  O  O105  1  0.07387000  0.91936000  0.23949000  1.0
  O  O106  1  0.07382000  0.91938000  0.76858000  1.0
  O  O107  1  0.73733000  0.26741000  0.42225000  1.0
  O  O108  1  0.91896000  0.07245000  0.24021000  1.0
  O  O109  1  0.26764000  0.73860000  0.57460000  1.0
  O  O110  1  0.91740000  0.74042000  0.76877000  1.0
  O  O111  1  0.26743000  0.07289000  0.42136000  1.0
  O  O112  1  0.07374000  0.26629000  0.23766000  1.0
  O  O113  1  0.73795000  0.91904000  0.57490000  1.0
  O  O114  1  0.73843000  0.07320000  0.77000000  1.0
  O  O115  1  0.07375000  0.73788000  0.42102000  1.0
  O  O116  1  0.26814000  0.91896000  0.23977000  1.0
  O  O117  1  0.91949000  0.26778000  0.57522000  1.0
  O  O118  1  0.79662000  0.06732000  0.56905000  1.0
  O  O119  1  0.06686000  0.06718000  0.56878000  1.0
  O  O120  1  0.06694000  0.06662000  0.29903000  1.0
  O  O121  1  0.06703000  0.79741000  0.56814000  1.0
  O  O122  1  0.14880000  0.94989000  0.45146000  1.0
  O  O123  1  0.94985000  0.94989000  0.45154000  1.0
  O  O124  1  0.94968000  0.14852000  0.45193000  1.0
  O  O125  1  0.94970000  0.95021000  0.65027000  1.0
