# generated using pymatgen
data_NiH30C28(NO5)2
_symmetry_space_group_name_H-M   'P 1'
_cell_length_a   10.65170000
_cell_length_b   12.24510000
_cell_length_c   23.50060000
_cell_angle_alpha   90.00580000
_cell_angle_beta   89.99650000
_cell_angle_gamma   89.99800000
_symmetry_Int_Tables_number   1
_chemical_formula_structural   NiH30C28(NO5)2
_chemical_formula_sum   'Ni4 H120 C112 N8 O40'
_cell_volume   3065.20982963
_cell_formula_units_Z   4
loop_
 _symmetry_equiv_pos_site_id
 _symmetry_equiv_pos_as_xyz
  1  'x, y, z'
loop_
 _atom_site_type_symbol
 _atom_site_label
 _atom_site_symmetry_multiplicity
 _atom_site_fract_x
 _atom_site_fract_y
 _atom_site_fract_z
 _atom_site_occupancy
  Ni  Ni0  1  0.20569000  0.32934000  0.27325000  1.0
  Ni  Ni1  1  0.70560000  0.17068000  0.22673000  1.0
  Ni  Ni2  1  0.79420000  0.67064000  0.72678000  1.0
  Ni  Ni3  1  0.29429000  0.82937000  0.77326000  1.0
  H  H4  1  0.06427000  0.55231000  0.46515000  1.0
  H  H5  1  0.56430000  0.94765000  0.03484000  1.0
  H  H6  1  0.93572000  0.44769000  0.53486000  1.0
  H  H7  1  0.43568000  0.05234000  0.96514000  1.0
  H  H8  1  0.05755000  0.65186000  0.55757000  1.0
  H  H9  1  0.55756000  0.84810000  0.94243000  1.0
  H  H10  1  0.94246000  0.34811000  0.44242000  1.0
  H  H11  1  0.44244000  0.15195000  0.05759000  1.0
  H  H12  1  0.14223000  0.79443000  0.62135000  1.0
  H  H13  1  0.64220000  0.70550000  0.87864000  1.0
  H  H14  1  0.85771000  0.20557000  0.37864000  1.0
  H  H15  1  0.35775000  0.29452000  0.12136000  1.0
  H  H16  1  0.32345000  0.90886000  0.59018000  1.0
  H  H17  1  0.82343000  0.59108000  0.90979000  1.0
  H  H18  1  0.67655000  0.09109000  0.40983000  1.0
  H  H19  1  0.17655000  0.40896000  0.09019000  1.0
  H  H20  1  0.42385000  0.87692000  0.49678000  1.0
  H  H21  1  0.92389000  0.62305000  0.00317000  1.0
  H  H22  1  0.57624000  0.12300000  0.50326000  1.0
  H  H23  1  0.07618000  0.37703000  0.99678000  1.0
  H  H24  1  0.51436000  0.62307000  0.47985000  1.0
  H  H25  1  0.01439000  0.87688000  0.02013000  1.0
  H  H26  1  0.48567000  0.37694000  0.52015000  1.0
  H  H27  1  0.98566000  0.12311000  0.97988000  1.0
  H  H28  1  0.71794000  0.57596000  0.52416000  1.0
  H  H29  1  0.21799000  0.92400000  0.97584000  1.0
  H  H30  1  0.28207000  0.42401000  0.47585000  1.0
  H  H31  1  0.78206000  0.07601000  0.02416000  1.0
  H  H32  1  0.91198000  0.67621000  0.49699000  1.0
  H  H33  1  0.41204000  0.82375000  0.00300000  1.0
  H  H34  1  0.08804000  0.32374000  0.50301000  1.0
  H  H35  1  0.58801000  0.17629000  0.99702000  1.0
  H  H36  1  0.90436000  0.81998000  0.42287000  1.0
  H  H37  1  0.40440000  0.68002000  0.07713000  1.0
  H  H38  1  0.09568000  0.18000000  0.57714000  1.0
  H  H39  1  0.59566000  0.32002000  0.92287000  1.0
  H  H40  1  0.77887000  0.93454000  0.35611000  1.0
  H  H41  1  0.27889000  0.56550000  0.14393000  1.0
  H  H42  1  0.22120000  0.06548000  0.64391000  1.0
  H  H43  1  0.72113000  0.43444000  0.85606000  1.0
  H  H44  1  0.10407000  0.15175000  0.34438000  1.0
  H  H45  1  0.60404000  0.34835000  0.15559000  1.0
  H  H46  1  0.89584000  0.84812000  0.65567000  1.0
  H  H47  1  0.39592000  0.65178000  0.84435000  1.0
  H  H48  1  0.41140000  0.16294000  0.40866000  1.0
  H  H49  1  0.91144000  0.33711000  0.09128000  1.0
  H  H50  1  0.58871000  0.83690000  0.59148000  1.0
  H  H51  1  0.08865000  0.66295000  0.90865000  1.0
  H  H52  1  0.39503000  0.02387000  0.43108000  1.0
  H  H53  1  0.89501000  0.47620000  0.06888000  1.0
  H  H54  1  0.60486000  0.97595000  0.56898000  1.0
  H  H55  1  0.10498000  0.52389000  0.93107000  1.0
  H  H56  1  0.34267000  0.13254000  0.47627000  1.0
  H  H57  1  0.84264000  0.36754000  0.02369000  1.0
  H  H58  1  0.65725000  0.86724000  0.52383000  1.0
  H  H59  1  0.15735000  0.63256000  0.97625000  1.0
  H  H60  1  0.05063000  0.02934000  0.40561000  1.0
  H  H61  1  0.55067000  0.47075000  0.09437000  1.0
  H  H62  1  0.94942000  0.97052000  0.59447000  1.0
  H  H63  1  0.44941000  0.52937000  0.90557000  1.0
  H  H64  1  0.12879000  0.03163000  0.47286000  1.0
  H  H65  1  0.62885000  0.46843000  0.02713000  1.0
  H  H66  1  0.87132000  0.96827000  0.52719000  1.0
  H  H67  1  0.37130000  0.53166000  0.97282000  1.0
  H  H68  1  0.17808000  0.93703000  0.41913000  1.0
  H  H69  1  0.67815000  0.56303000  0.08085000  1.0
  H  H70  1  0.82205000  0.06294000  0.58091000  1.0
  H  H71  1  0.32202000  0.43702000  0.91911000  1.0
  H  H72  1  0.05092000  0.23936000  0.17919000  1.0
  H  H73  1  0.55084000  0.26070000  0.32081000  1.0
  H  H74  1  0.94901000  0.76056000  0.82082000  1.0
  H  H75  1  0.44904000  0.73937000  0.67919000  1.0
  H  H76  1  0.27846000  0.02179000  0.19258000  1.0
  H  H77  1  0.77848000  0.47829000  0.30744000  1.0
  H  H78  1  0.72163000  0.97809000  0.80735000  1.0
  H  H79  1  0.22154000  0.52181000  0.69261000  1.0
  H  H80  1  0.28386000  0.01342000  0.11656000  1.0
  H  H81  1  0.78380000  0.48659000  0.38347000  1.0
  H  H82  1  0.71613000  0.98654000  0.88338000  1.0
  H  H83  1  0.21613000  0.51343000  0.61660000  1.0
  H  H84  1  0.17509000  0.93060000  0.15522000  1.0
  H  H85  1  0.67506000  0.56944000  0.34482000  1.0
  H  H86  1  0.82491000  0.06939000  0.84471000  1.0
  H  H87  1  0.32489000  0.43060000  0.65525000  1.0
  H  H88  1  0.96662000  0.15401000  0.10958000  1.0
  H  H89  1  0.46665000  0.34604000  0.39046000  1.0
  H  H90  1  0.03346000  0.84602000  0.89041000  1.0
  H  H91  1  0.53338000  0.65398000  0.60959000  1.0
  H  H92  1  0.99511000  0.01111000  0.10270000  1.0
  H  H93  1  0.49515000  0.48891000  0.39732000  1.0
  H  H94  1  0.00492000  0.98891000  0.89729000  1.0
  H  H95  1  0.50486000  0.51110000  0.60271000  1.0
  H  H96  1  0.08913000  0.10615000  0.06335000  1.0
  H  H97  1  0.58917000  0.39389000  0.43665000  1.0
  H  H98  1  0.91094000  0.89384000  0.93664000  1.0
  H  H99  1  0.41088000  0.60617000  0.56337000  1.0
  H  H100  1  0.32483000  0.55482000  0.31794000  1.0
  H  H101  1  0.82492000  0.94518000  0.18203000  1.0
  H  H102  1  0.67510000  0.44514000  0.68206000  1.0
  H  H103  1  0.17503000  0.05492000  0.81795000  1.0
  H  H104  1  0.37586000  0.95127000  0.31024000  1.0
  H  H105  1  0.87588000  0.54873000  0.18976000  1.0
  H  H106  1  0.62422000  0.04876000  0.68977000  1.0
  H  H107  1  0.12416000  0.45125000  0.81021000  1.0
  H  H108  1  0.01539000  0.35522000  0.33213000  1.0
  H  H109  1  0.51524000  0.14478000  0.16785000  1.0
  H  H110  1  0.98432000  0.64479000  0.66789000  1.0
  H  H111  1  0.48446000  0.85526000  0.83213000  1.0
  H  H112  1  0.97686000  0.36939000  0.26631000  1.0
  H  H113  1  0.47669000  0.13065000  0.23366000  1.0
  H  H114  1  0.02286000  0.63064000  0.73372000  1.0
  H  H115  1  0.52305000  0.86938000  0.76631000  1.0
  H  H116  1  0.35680000  0.41134000  0.21103000  1.0
  H  H117  1  0.85667000  0.08867000  0.28895000  1.0
  H  H118  1  0.64335000  0.58854000  0.78890000  1.0
  H  H119  1  0.14341000  0.91139000  0.71105000  1.0
  H  H120  1  0.43229000  0.30179000  0.22336000  1.0
  H  H121  1  0.93230000  0.19816000  0.27662000  1.0
  H  H122  1  0.56779000  0.69814000  0.77665000  1.0
  H  H123  1  0.06775000  0.80186000  0.72333000  1.0
  C  C124  1  0.15466000  0.48612000  0.36617000  1.0
  C  C125  1  0.65466000  0.01387000  0.13382000  1.0
  C  C126  1  0.84532000  0.51382000  0.63386000  1.0
  C  C127  1  0.34528000  0.98622000  0.86614000  1.0
  C  C128  1  0.20208000  0.57894000  0.40115000  1.0
  C  C129  1  0.70212000  0.92104000  0.09882000  1.0
  C  C130  1  0.79792000  0.42102000  0.59885000  1.0
  C  C131  1  0.29789000  0.07902000  0.90115000  1.0
  C  C132  1  0.14497000  0.60160000  0.45273000  1.0
  C  C133  1  0.64501000  0.89837000  0.04725000  1.0
  C  C134  1  0.85503000  0.39840000  0.54727000  1.0
  C  C135  1  0.35499000  0.10165000  0.95273000  1.0
  C  C136  1  0.19025000  0.68374000  0.48945000  1.0
  C  C137  1  0.69031000  0.81623000  0.01053000  1.0
  C  C138  1  0.80977000  0.31624000  0.51055000  1.0
  C  C139  1  0.30973000  0.18380000  0.98946000  1.0
  C  C140  1  0.13552000  0.70305000  0.54366000  1.0
  C  C141  1  0.63554000  0.79691000  0.95634000  1.0
  C  C142  1  0.86448000  0.29694000  0.45634000  1.0
  C  C143  1  0.36446000  0.20311000  0.04366000  1.0
  C  C144  1  0.18284000  0.78255000  0.57922000  1.0
  C  C145  1  0.68284000  0.71741000  0.92076000  1.0
  C  C146  1  0.81714000  0.21745000  0.42078000  1.0
  C  C147  1  0.31713000  0.28261000  0.07923000  1.0
  C  C148  1  0.28682000  0.84627000  0.56174000  1.0
  C  C149  1  0.78683000  0.65370000  0.93823000  1.0
  C  C150  1  0.71318000  0.15370000  0.43827000  1.0
  C  C151  1  0.21318000  0.34636000  0.06174000  1.0
  C  C152  1  0.34275000  0.82860000  0.50963000  1.0
  C  C153  1  0.84279000  0.67135000  0.99033000  1.0
  C  C154  1  0.65729000  0.17134000  0.49039000  1.0
  C  C155  1  0.15725000  0.32870000  0.00964000  1.0
  C  C156  1  0.29753000  0.74659000  0.47194000  1.0
  C  C157  1  0.79760000  0.75337000  0.02803000  1.0
  C  C158  1  0.70250000  0.25336000  0.52807000  1.0
  C  C159  1  0.20246000  0.24667000  0.97195000  1.0
  C  C160  1  0.35675000  0.72354000  0.41911000  1.0
  C  C161  1  0.85680000  0.77642000  0.08086000  1.0
  C  C162  1  0.64326000  0.27644000  0.58088000  1.0
  C  C163  1  0.14325000  0.22363000  0.91914000  1.0
  C  C164  1  0.30995000  0.64115000  0.38399000  1.0
  C  C165  1  0.80999000  0.85882000  0.11599000  1.0
  C  C166  1  0.69002000  0.35883000  0.61600000  1.0
  C  C167  1  0.19000000  0.14121000  0.88402000  1.0
  C  C168  1  0.47314000  0.78124000  0.40196000  1.0
  C  C169  1  0.97317000  0.71871000  0.09802000  1.0
  C  C170  1  0.52689000  0.21876000  0.59805000  1.0
  C  C171  1  0.02689000  0.28130000  0.90197000  1.0
  C  C172  1  0.59010000  0.75112000  0.42645000  1.0
  C  C173  1  0.09012000  0.74883000  0.07353000  1.0
  C  C174  1  0.40995000  0.24890000  0.57356000  1.0
  C  C175  1  0.90995000  0.25113000  0.92646000  1.0
  C  C176  1  0.59937000  0.66666667  0.46773000  1.0
  C  C177  1  0.09942000  0.83334000  0.03225000  1.0
  C  C178  1  0.40064000  0.33341000  0.53228000  1.0
  C  C179  1  0.90063000  0.16661000  0.96774000  1.0
  C  C180  1  0.71279000  0.64054000  0.49235000  1.0
  C  C181  1  0.21283000  0.85941000  0.00765000  1.0
  C  C182  1  0.28721000  0.35943000  0.50767000  1.0
  C  C183  1  0.78720000  0.14059000  0.99234000  1.0
  C  C184  1  0.82354000  0.69680000  0.47661000  1.0
  C  C185  1  0.32360000  0.80316000  0.02338000  1.0
  C  C186  1  0.17647000  0.30317000  0.52340000  1.0
  C  C187  1  0.67644000  0.19685000  0.97662000  1.0
  C  C188  1  0.81884000  0.77741000  0.43576000  1.0
  C  C189  1  0.31887000  0.72255000  0.06424000  1.0
  C  C190  1  0.18121000  0.22256000  0.56426000  1.0
  C  C191  1  0.68118000  0.27743000  0.93575000  1.0
  C  C192  1  0.70312000  0.80697000  0.40979000  1.0
  C  C193  1  0.20315000  0.69302000  0.09020000  1.0
  C  C194  1  0.29693000  0.19306000  0.59023000  1.0
  C  C195  1  0.79691000  0.30691000  0.90977000  1.0
  C  C196  1  0.69421000  0.89102000  0.36899000  1.0
  C  C197  1  0.19423000  0.60899000  0.13101000  1.0
  C  C198  1  0.30585000  0.10900000  0.63102000  1.0
  C  C199  1  0.80581000  0.39095000  0.86897000  1.0
  C  C200  1  0.58035000  0.92115000  0.34515000  1.0
  C  C201  1  0.08037000  0.57885000  0.15484000  1.0
  C  C202  1  0.41970000  0.07888000  0.65486000  1.0
  C  C203  1  0.91966000  0.42110000  0.84514000  1.0
  C  C204  1  0.57305000  0.01421000  0.30450000  1.0
  C  C205  1  0.07309000  0.48581000  0.19549000  1.0
  C  C206  1  0.42696000  0.98581000  0.69548000  1.0
  C  C207  1  0.92690000  0.51420000  0.80454000  1.0
  C  C208  1  0.46802000  0.86407000  0.36136000  1.0
  C  C209  1  0.96804000  0.63590000  0.13863000  1.0
  C  C210  1  0.53202000  0.13595000  0.63866000  1.0
  C  C211  1  0.03199000  0.36407000  0.86135000  1.0
  C  C212  1  0.19862000  0.16603000  0.36190000  1.0
  C  C213  1  0.69860000  0.33404000  0.13808000  1.0
  C  C214  1  0.80132000  0.83392000  0.63814000  1.0
  C  C215  1  0.30137000  0.66605000  0.86188000  1.0
  C  C216  1  0.35214000  0.10539000  0.43194000  1.0
  C  C217  1  0.85216000  0.39467000  0.06803000  1.0
  C  C218  1  0.64783000  0.89448000  0.56814000  1.0
  C  C219  1  0.14790000  0.60538000  0.93192000  1.0
  C  C220  1  0.14163000  0.01969000  0.42683000  1.0
  C  C221  1  0.64166000  0.48038000  0.07315000  1.0
  C  C222  1  0.85845000  0.98027000  0.57321000  1.0
  C  C223  1  0.35842000  0.51969000  0.92681000  1.0
  C  C224  1  0.12642000  0.17983000  0.18681000  1.0
  C  C225  1  0.62637000  0.32021000  0.31318000  1.0
  C  C226  1  0.87355000  0.82013000  0.81321000  1.0
  C  C227  1  0.37355000  0.67983000  0.68682000  1.0
  C  C228  1  0.22228000  0.01032000  0.15409000  1.0
  C  C229  1  0.72227000  0.48972000  0.34593000  1.0
  C  C230  1  0.77774000  0.98966000  0.84586000  1.0
  C  C231  1  0.27771000  0.51033000  0.65412000  1.0
  C  C232  1  0.03956000  0.09187000  0.10373000  1.0
  C  C233  1  0.53959000  0.40816000  0.39627000  1.0
  C  C234  1  0.96050000  0.90815000  0.89626000  1.0
  C  C235  1  0.46043000  0.59186000  0.60374000  1.0
  N  N236  1  0.22936000  0.10057000  0.40505000  1.0
  N  N237  1  0.72938000  0.39948000  0.09493000  1.0
  N  N238  1  0.77065000  0.89940000  0.59499000  1.0
  N  N239  1  0.27067000  0.60056000  0.90502000  1.0
  N  N240  1  0.12817000  0.09635000  0.15071000  1.0
  N  N241  1  0.62817000  0.40367000  0.34928000  1.0
  N  N242  1  0.87187000  0.90364000  0.84928000  1.0
  N  N243  1  0.37182000  0.59635000  0.65072000  1.0
  O  O244  1  0.21860000  0.46492000  0.32036000  1.0
  O  O245  1  0.71863000  0.03512000  0.17961000  1.0
  O  O246  1  0.78144000  0.53492000  0.67970000  1.0
  O  O247  1  0.28136000  0.96503000  0.82034000  1.0
  O  O248  1  0.05950000  0.43297000  0.38202000  1.0
  O  O249  1  0.55944000  0.06696000  0.11798000  1.0
  O  O250  1  0.94039000  0.56707000  0.61801000  1.0
  O  O251  1  0.44046000  0.93306000  0.88198000  1.0
  O  O252  1  0.37078000  0.61942000  0.33497000  1.0
  O  O253  1  0.87082000  0.88057000  0.16500000  1.0
  O  O254  1  0.62915000  0.38058000  0.66501000  1.0
  O  O255  1  0.12913000  0.11950000  0.83500000  1.0
  O  O256  1  0.35595000  0.89129000  0.33878000  1.0
  O  O257  1  0.85597000  0.60868000  0.16120000  1.0
  O  O258  1  0.64409000  0.10873000  0.66122000  1.0
  O  O259  1  0.14405000  0.39132000  0.83877000  1.0
  O  O260  1  0.46714000  0.03411000  0.28060000  1.0
  O  O261  1  0.96721000  0.46593000  0.21942000  1.0
  O  O262  1  0.53283000  0.96593000  0.71942000  1.0
  O  O263  1  0.03274000  0.53410000  0.78057000  1.0
  O  O264  1  0.67159000  0.07178000  0.29652000  1.0
  O  O265  1  0.17165000  0.42823000  0.20343000  1.0
  O  O266  1  0.32844000  0.92818000  0.70339000  1.0
  O  O267  1  0.82836000  0.57183000  0.79670000  1.0
  O  O268  1  0.26926000  0.23879000  0.34171000  1.0
  O  O269  1  0.76917000  0.26125000  0.15828000  1.0
  O  O270  1  0.73062000  0.76115000  0.65829000  1.0
  O  O271  1  0.23069000  0.73882000  0.84173000  1.0
  O  O272  1  0.20421000  0.19191000  0.22692000  1.0
  O  O273  1  0.70412000  0.30810000  0.27306000  1.0
  O  O274  1  0.79567000  0.80806000  0.77314000  1.0
  O  O275  1  0.29574000  0.69192000  0.72691000  1.0
  O  O276  1  0.00693000  0.31307000  0.29483000  1.0
  O  O277  1  0.50680000  0.18694000  0.20514000  1.0
  O  O278  1  0.99283000  0.68697000  0.70519000  1.0
  O  O279  1  0.49300000  0.81306000  0.79483000  1.0
  O  O280  1  0.39640000  0.36907000  0.24143000  1.0
  O  O281  1  0.89638000  0.13090000  0.25855000  1.0
  O  O282  1  0.60366000  0.63089000  0.75855000  1.0
  O  O283  1  0.10371000  0.86908000  0.74142000  1.0
