# generated using pymatgen
data_Zn3Cr3H45C69N9O25
_symmetry_space_group_name_H-M   'P 1'
_cell_length_a   14.66550000
_cell_length_b   16.92610000
_cell_length_c   16.92615000
_cell_angle_alpha   119.99970685
_cell_angle_beta   90.00010000
_cell_angle_gamma   90.00000000
_symmetry_Int_Tables_number   1
_chemical_formula_structural   Zn3Cr3H45C69N9O25
_chemical_formula_sum   'Zn3 Cr3 H45 C69 N9 O25'
_cell_volume   3638.68010743
_cell_formula_units_Z   1
loop_
 _symmetry_equiv_pos_site_id
 _symmetry_equiv_pos_as_xyz
  1  'x, y, z'
loop_
 _atom_site_type_symbol
 _atom_site_label
 _atom_site_symmetry_multiplicity
 _atom_site_fract_x
 _atom_site_fract_y
 _atom_site_fract_z
 _atom_site_occupancy
  Zn  Zn0  1  1.00000000  0.00000000  0.34279000  1.0
  Zn  Zn1  1  1.00000000  0.65721000  0.65721000  1.0
  Zn  Zn2  1  0.00000000  0.34279000  1.00000000  1.0
  Cr  Cr3  1  0.50000000  0.88550000  1.00000000  1.0
  Cr  Cr4  1  0.50000000  1.00000000  0.88549000  1.0
  Cr  Cr5  1  0.50000000  0.11451000  0.11451000  1.0
  H  H6  1  0.73008000  0.14713000  0.27216000  1.0
  H  H7  1  0.88123000  0.14127000  0.34112000  1.0
  H  H8  1  0.73007000  0.72784000  0.87497000  1.0
  H  H9  1  0.88122000  0.65888000  0.80016000  1.0
  H  H10  1  0.73008000  0.12502000  0.85286000  1.0
  H  H11  1  0.88122000  0.19985000  0.85872000  1.0
  H  H12  1  0.26992000  0.14713000  0.27216000  1.0
  H  H13  1  0.11878000  0.14128000  0.34113000  1.0
  H  H14  1  0.26993000  0.72784000  0.87497000  1.0
  H  H15  1  0.11878000  0.65887000  0.80015000  1.0
  H  H16  1  0.26992000  0.12503000  0.85287000  1.0
  H  H17  1  0.11878000  0.19985000  0.85872000  1.0
  H  H18  1  0.26992000  0.85287000  0.12503000  1.0
  H  H19  1  0.11878000  0.85873000  0.19985000  1.0
  H  H20  1  0.26992000  0.27216000  0.14713000  1.0
  H  H21  1  0.11878000  0.34112000  0.14127000  1.0
  H  H22  1  0.26992000  0.87497000  0.72784000  1.0
  H  H23  1  0.11877000  0.80015000  0.65888000  1.0
  H  H24  1  0.73008000  0.85287000  0.12503000  1.0
  H  H25  1  0.88123000  0.85873000  0.19985000  1.0
  H  H26  1  0.73008000  0.27215000  0.14712000  1.0
  H  H27  1  0.88122000  0.34112000  0.14127000  1.0
  H  H28  1  0.73007000  0.87497000  0.72784000  1.0
  H  H29  1  0.88122000  0.80015000  0.65888000  1.0
  H  H30  1  0.50000000  0.52874000  0.00001000  1.0
  H  H31  1  0.50000000  0.00000000  0.52873000  1.0
  H  H32  1  0.50000000  0.47127000  0.47127000  1.0
  H  H33  1  1.00000000  0.17250000  0.63301000  1.0
  H  H34  1  0.00000000  0.36699000  0.53949000  1.0
  H  H35  1  0.00000000  0.46052000  0.82750000  1.0
  H  H36  1  1.00000000  0.82749000  0.46051000  1.0
  H  H37  1  1.00000000  0.63301000  0.17250000  1.0
  H  H38  1  1.00000000  0.53949000  0.36699000  1.0
  H  H39  1  0.50000000  0.82355000  0.14097000  1.0
  H  H40  1  0.50000000  0.67887000  0.14753000  1.0
  H  H41  1  0.50000000  0.85903000  0.68258000  1.0
  H  H42  1  0.50000000  0.85248000  0.53134000  1.0
  H  H43  1  0.50000000  0.31742000  0.17645000  1.0
  H  H44  1  0.50000000  0.46866000  0.32114000  1.0
  H  H45  1  0.50000000  0.17645000  0.31742000  1.0
  H  H46  1  0.50000000  0.32114000  0.46866000  1.0
  H  H47  1  0.50000000  0.14097000  0.82355000  1.0
  H  H48  1  0.50000000  0.14753000  0.67887000  1.0
  H  H49  1  0.50000000  0.68259000  0.85904000  1.0
  H  H50  1  0.50000000  0.53135000  0.85248000  1.0
  C  C51  1  0.76076000  0.08215000  0.25589000  1.0
  C  C52  1  0.84355000  0.07959000  0.29435000  1.0
  C  C53  1  0.76076000  0.74411000  0.82627000  1.0
  C  C54  1  0.84355000  0.70565000  0.78524000  1.0
  C  C55  1  0.76076000  0.17374000  0.91784000  1.0
  C  C56  1  0.84355000  0.21475000  0.92040000  1.0
  C  C57  1  0.23924000  0.08216000  0.25590000  1.0
  C  C58  1  0.15644000  0.07960000  0.29436000  1.0
  C  C59  1  0.23925000  0.74410000  0.82626000  1.0
  C  C60  1  0.15644000  0.70565000  0.78524000  1.0
  C  C61  1  0.23923000  0.17374000  0.91784000  1.0
  C  C62  1  0.15645000  0.21476000  0.92041000  1.0
  C  C63  1  0.23924000  0.91784000  0.17374000  1.0
  C  C64  1  0.15644000  0.92041000  0.21477000  1.0
  C  C65  1  0.23923000  0.25590000  0.08216000  1.0
  C  C66  1  0.15645000  0.29435000  0.07959000  1.0
  C  C67  1  0.23924000  0.82626000  0.74410000  1.0
  C  C68  1  0.15644000  0.78524000  0.70565000  1.0
  C  C69  1  0.76077000  0.91783000  0.17373000  1.0
  C  C70  1  0.84356000  0.92042000  0.21476000  1.0
  C  C71  1  0.76076000  0.25590000  0.08216000  1.0
  C  C72  1  0.84355000  0.29434000  0.07958000  1.0
  C  C73  1  0.76076000  0.82626000  0.74410000  1.0
  C  C74  1  0.84355000  0.78524000  0.70565000  1.0
  C  C75  1  0.50000000  0.59318000  0.00000000  1.0
  C  C76  1  0.50000000  0.00000000  0.59318000  1.0
  C  C77  1  0.50000000  0.40682000  0.40683000  1.0
  C  C78  1  0.63086000  0.00000000  0.14939000  1.0
  C  C79  1  0.71777000  0.00001000  0.19458000  1.0
  C  C80  1  0.63087000  0.85060000  0.85061000  1.0
  C  C81  1  0.71776000  0.80542000  0.80542000  1.0
  C  C82  1  0.63087000  0.14938000  0.99999000  1.0
  C  C83  1  0.71776000  0.19457000  0.99999000  1.0
  C  C84  1  0.36913000  0.00000000  0.14939000  1.0
  C  C85  1  0.28223000  0.00000000  0.19458000  1.0
  C  C86  1  0.36913000  0.85061000  0.85061000  1.0
  C  C87  1  0.28224000  0.80542000  0.80542000  1.0
  C  C88  1  0.36913000  0.14940000  0.00001000  1.0
  C  C89  1  0.28224000  0.19457000  0.00000000  1.0
  C  C90  1  1.00000000  0.18585000  0.47863000  1.0
  C  C91  1  0.00000000  0.26172000  0.57599000  1.0
  C  C92  1  0.00000000  0.24289000  0.64765000  1.0
  C  C93  1  0.00000000  0.52137000  0.70722000  1.0
  C  C94  1  0.00000000  0.42402000  0.68574000  1.0
  C  C95  1  1.00000000  0.35234000  0.59523000  1.0
  C  C96  1  0.00000000  0.29277000  0.81414000  1.0
  C  C97  1  0.00000000  0.31427000  0.73828000  1.0
  C  C98  1  0.00000000  0.40475000  0.75709000  1.0
  C  C99  1  1.00000000  0.81415000  0.29278000  1.0
  C  C100  1  1.00000000  0.73828000  0.31427000  1.0
  C  C101  1  1.00000000  0.75711000  0.40476000  1.0
  C  C102  1  1.00000000  0.47863000  0.18585000  1.0
  C  C103  1  1.00000000  0.57599000  0.26172000  1.0
  C  C104  1  1.00000000  0.64765000  0.24289000  1.0
  C  C105  1  1.00000000  0.70722000  0.52137000  1.0
  C  C106  1  1.00000000  0.68574000  0.42402000  1.0
  C  C107  1  1.00000000  0.59524000  0.35234000  1.0
  C  C108  1  0.50000000  0.75701000  0.07904000  1.0
  C  C109  1  0.50000000  0.67619000  0.08187000  1.0
  C  C110  1  0.50000000  0.92096000  0.67796000  1.0
  C  C111  1  0.50000000  0.91814000  0.59432000  1.0
  C  C112  1  0.50000000  0.32204000  0.24301000  1.0
  C  C113  1  0.50000000  0.40568000  0.32381000  1.0
  C  C114  1  0.50000000  0.24300000  0.32204000  1.0
  C  C115  1  0.50000000  0.32380000  0.40567000  1.0
  C  C116  1  0.50000000  0.07903000  0.75700000  1.0
  C  C117  1  0.50000000  0.08186000  0.67618000  1.0
  C  C118  1  0.50000000  0.67797000  0.92097000  1.0
  C  C119  1  0.50000000  0.59432000  0.91814000  1.0
  N  N120  1  0.50000000  0.75804000  0.00000000  1.0
  N  N121  1  0.50000000  0.99999000  0.75803000  1.0
  N  N122  1  0.50000000  0.24196000  0.24196000  1.0
  N  N123  1  0.88399000  0.00000000  0.27459000  1.0
  N  N124  1  0.88398000  0.72541000  0.72541000  1.0
  N  N125  1  0.88399000  0.27459000  0.00000000  1.0
  N  N126  1  0.11602000  0.00000000  0.27459000  1.0
  N  N127  1  0.11602000  0.72541000  0.72541000  1.0
  N  N128  1  0.11601000  0.27460000  1.00000000  1.0
  O  O129  1  0.59730000  0.92231000  0.09240000  1.0
  O  O130  1  0.59731000  0.90760000  0.82991000  1.0
  O  O131  1  0.59730000  0.17009000  0.07769000  1.0
  O  O132  1  0.40269000  0.92231000  0.09240000  1.0
  O  O133  1  0.40269000  0.90760000  0.82991000  1.0
  O  O134  1  0.40269000  0.17009000  0.07769000  1.0
  O  O135  1  0.40269000  0.07769000  0.17009000  1.0
  O  O136  1  0.40269000  0.09240000  0.92231000  1.0
  O  O137  1  0.40269000  0.82991000  0.90760000  1.0
  O  O138  1  0.59731000  0.07769000  0.17009000  1.0
  O  O139  1  0.59731000  0.09240000  0.92231000  1.0
  O  O140  1  0.59731000  0.82991000  0.90760000  1.0
  O  O141  1  0.50000000  0.00000000  0.00000000  1.0
  O  O142  1  0.00000000  0.20360000  0.41486000  1.0
  O  O143  1  1.00000000  0.10400000  0.46720000  1.0
  O  O144  1  0.00000000  0.58513000  0.78873000  1.0
  O  O145  1  0.00000000  0.53279000  0.63679000  1.0
  O  O146  1  0.00000000  0.21126000  0.79640000  1.0
  O  O147  1  0.00000000  0.36320000  0.89600000  1.0
  O  O148  1  1.00000000  0.79640000  0.21127000  1.0
  O  O149  1  0.00000000  0.89600000  0.36320000  1.0
  O  O150  1  1.00000000  0.41487000  0.20360000  1.0
  O  O151  1  1.00000000  0.46721000  0.10400000  1.0
  O  O152  1  1.00000000  0.78874000  0.58514000  1.0
  O  O153  1  1.00000000  0.63680000  0.53280000  1.0
