# generated using pymatgen
data_Zn2H24C27(NO2)4
_symmetry_space_group_name_H-M   'P 1'
_cell_length_a   10.98670000
_cell_length_b   18.23180000
_cell_length_c   18.94720000
_cell_angle_alpha   71.75400000
_cell_angle_beta   89.99990000
_cell_angle_gamma   89.99990000
_symmetry_Int_Tables_number   1
_chemical_formula_structural   Zn2H24C27(NO2)4
_chemical_formula_sum   'Zn8 H96 C108 N16 O32'
_cell_volume   3604.44072966
_cell_formula_units_Z   4
loop_
 _symmetry_equiv_pos_site_id
 _symmetry_equiv_pos_as_xyz
  1  'x, y, z'
loop_
 _atom_site_type_symbol
 _atom_site_label
 _atom_site_symmetry_multiplicity
 _atom_site_fract_x
 _atom_site_fract_y
 _atom_site_fract_z
 _atom_site_occupancy
  Zn  Zn0  1  0.18899000  0.31671000  0.97211000  1.0
  Zn  Zn1  1  0.68900000  0.18329000  0.52789000  1.0
  Zn  Zn2  1  0.81101000  0.68329000  0.02789000  1.0
  Zn  Zn3  1  0.31101000  0.81672000  0.47211000  1.0
  Zn  Zn4  1  0.18912000  0.21326000  0.87644000  1.0
  Zn  Zn5  1  0.68912000  0.28674000  0.62356000  1.0
  Zn  Zn6  1  0.81088000  0.78674000  0.12355000  1.0
  Zn  Zn7  1  0.31088000  0.71326000  0.37644000  1.0
  H  H8  1  0.51613000  0.61634000  0.32636000  1.0
  H  H9  1  0.01613000  0.88366000  0.17364000  1.0
  H  H10  1  0.48387000  0.38366000  0.67364000  1.0
  H  H11  1  0.98387000  0.11634000  0.82636000  1.0
  H  H12  1  0.46632000  0.53567000  0.22685000  1.0
  H  H13  1  0.96632000  0.96433000  0.27315000  1.0
  H  H14  1  0.53368000  0.46433000  0.77315000  1.0
  H  H15  1  0.03368000  0.03567000  0.72685000  1.0
  H  H16  1  0.09106000  0.68069000  0.30664000  1.0
  H  H17  1  0.59106000  0.81931000  0.19336000  1.0
  H  H18  1  0.90894000  0.31931000  0.69336000  1.0
  H  H19  1  0.40894000  0.18069000  0.80664000  1.0
  H  H20  1  0.06573000  0.65757000  0.22333000  1.0
  H  H21  1  0.56573000  0.84243000  0.27667000  1.0
  H  H22  1  0.93427000  0.34243000  0.77667000  1.0
  H  H23  1  0.43426000  0.15757000  0.72333000  1.0
  H  H24  1  0.04901000  0.58566000  0.31078000  1.0
  H  H25  1  0.54901000  0.91434000  0.18922000  1.0
  H  H26  1  0.95099000  0.41434000  0.68922000  1.0
  H  H27  1  0.45099000  0.08565000  0.81078000  1.0
  H  H28  1  0.16732000  0.59867000  0.14921000  1.0
  H  H29  1  0.66731000  0.90133000  0.35079000  1.0
  H  H30  1  0.83268000  0.40133000  0.85079000  1.0
  H  H31  1  0.33268000  0.09867000  0.64921000  1.0
  H  H32  1  0.28428000  0.53265000  0.14928000  1.0
  H  H33  1  0.78428000  0.96735000  0.35072000  1.0
  H  H34  1  0.71572000  0.46735000  0.85072000  1.0
  H  H35  1  0.21572000  0.03265000  0.64928000  1.0
  H  H36  1  0.17594000  0.42689000  0.24048000  1.0
  H  H37  1  0.67594000  0.07311000  0.25952000  1.0
  H  H38  1  0.82406000  0.57312000  0.75952000  1.0
  H  H39  1  0.32406000  0.92689000  0.74048000  1.0
  H  H40  1  0.07611000  0.49184000  0.26361000  1.0
  H  H41  1  0.57611000  0.00816000  0.23639000  1.0
  H  H42  1  0.92389000  0.50816000  0.73639000  1.0
  H  H43  1  0.42389000  0.99184000  0.76361000  1.0
  H  H44  1  0.98146000  0.53045000  0.13874000  1.0
  H  H45  1  0.48146000  0.96956000  0.36126000  1.0
  H  H46  1  0.01854000  0.46955000  0.86126000  1.0
  H  H47  1  0.51854000  0.03044000  0.63874000  1.0
  H  H48  1  0.96811000  0.43018000  0.18414000  1.0
  H  H49  1  0.46811000  0.06982000  0.31586000  1.0
  H  H50  1  0.03189000  0.56982000  0.81586000  1.0
  H  H51  1  0.53188000  0.93018000  0.68414000  1.0
  H  H52  1  0.13317000  0.57722000  0.02809000  1.0
  H  H53  1  0.63317000  0.92278000  0.47191000  1.0
  H  H54  1  0.86683000  0.42278000  0.97192000  1.0
  H  H55  1  0.36683000  0.07722000  0.52809000  1.0
  H  H56  1  0.23655000  0.49673000  0.93870000  1.0
  H  H57  1  0.73655000  0.00327000  0.56130000  1.0
  H  H58  1  0.76345000  0.50327000  0.06130000  1.0
  H  H59  1  0.26345000  0.99673000  0.43870000  1.0
  H  H60  1  0.09118000  0.26805000  0.12268000  1.0
  H  H61  1  0.59118000  0.23195000  0.37732000  1.0
  H  H62  1  0.90882000  0.73195000  0.87732000  1.0
  H  H63  1  0.40882000  0.76805000  0.62268000  1.0
  H  H64  1  0.09737000  0.30801000  0.19752000  1.0
  H  H65  1  0.59737000  0.19199000  0.30248000  1.0
  H  H66  1  0.90263000  0.69199000  0.80248000  1.0
  H  H67  1  0.40263000  0.80801000  0.69752000  1.0
  H  H68  1  0.96236000  0.31652000  0.14411000  1.0
  H  H69  1  0.46236000  0.18348000  0.35589000  1.0
  H  H70  1  0.03764000  0.68348000  0.85589000  1.0
  H  H71  1  0.53764000  0.81652000  0.64411000  1.0
  H  H72  1  0.27714000  0.00384000  0.04418000  1.0
  H  H73  1  0.77714000  0.49616000  0.45582000  1.0
  H  H74  1  0.72286000  0.99616000  0.95582000  1.0
  H  H75  1  0.22286000  0.50384000  0.54418000  1.0
  H  H76  1  0.31946000  0.88865000  0.15538000  1.0
  H  H77  1  0.81946000  0.61135000  0.34462000  1.0
  H  H78  1  0.68054000  0.11135000  0.84462000  1.0
  H  H79  1  0.18054000  0.38865000  0.65538000  1.0
  H  H80  1  0.23906000  0.02296000  0.29930000  1.0
  H  H81  1  0.73906000  0.47704000  0.20070000  1.0
  H  H82  1  0.76094000  0.97704000  0.70070000  1.0
  H  H83  1  0.26094000  0.52296000  0.79930000  1.0
  H  H84  1  0.19921000  0.13908000  0.18756000  1.0
  H  H85  1  0.69922000  0.36092000  0.31244000  1.0
  H  H86  1  0.80078000  0.86092000  0.81243000  1.0
  H  H87  1  0.30078000  0.63908000  0.68756000  1.0
  H  H88  1  0.80348000  0.22053000  0.83686000  1.0
  H  H89  1  0.30349000  0.27947000  0.66314000  1.0
  H  H90  1  0.19651000  0.77947000  0.16314000  1.0
  H  H91  1  0.69652000  0.72053000  0.33686000  1.0
  H  H92  1  0.57798000  0.23319000  0.82798000  1.0
  H  H93  1  0.07798000  0.26681000  0.67202000  1.0
  H  H94  1  0.42202000  0.76681000  0.17202000  1.0
  H  H95  1  0.92202000  0.73319000  0.32798000  1.0
  H  H96  1  0.57134000  0.30123000  0.02550000  1.0
  H  H97  1  0.07134000  0.19877000  0.47450000  1.0
  H  H98  1  0.42866000  0.69877000  0.97450000  1.0
  H  H99  1  0.92866000  0.80123000  0.52550000  1.0
  H  H100  1  0.80006000  0.29158000  0.03275000  1.0
  H  H101  1  0.30006000  0.20842000  0.46725000  1.0
  H  H102  1  0.19994000  0.70842000  0.96725000  1.0
  H  H103  1  0.69994000  0.79158000  0.53275000  1.0
  C  C104  1  0.43071000  0.60705000  0.30191000  1.0
  C  C105  1  0.93071000  0.89295000  0.19809000  1.0
  C  C106  1  0.56929000  0.39295000  0.69809000  1.0
  C  C107  1  0.06929000  0.10705000  0.80191000  1.0
  C  C108  1  0.40713000  0.56672000  0.25336000  1.0
  C  C109  1  0.90713000  0.93328000  0.24664000  1.0
  C  C110  1  0.59287000  0.43328000  0.74664000  1.0
  C  C111  1  0.09287000  0.06672000  0.75336000  1.0
  C  C112  1  0.23420000  0.61670000  0.27962000  1.0
  C  C113  1  0.73420000  0.88330000  0.22038000  1.0
  C  C114  1  0.76580000  0.38330000  0.72038000  1.0
  C  C115  1  0.26580000  0.11670000  0.77962000  1.0
  C  C116  1  0.10340000  0.63611000  0.27972000  1.0
  C  C117  1  0.60340000  0.86389000  0.22028000  1.0
  C  C118  1  0.89660000  0.36389000  0.72028000  1.0
  C  C119  1  0.39660000  0.13610000  0.77972000  1.0
  C  C120  1  0.21673000  0.54812000  0.18486000  1.0
  C  C121  1  0.71673000  0.95188000  0.31514000  1.0
  C  C122  1  0.78327000  0.45188000  0.81514000  1.0
  C  C123  1  0.28327000  0.04812000  0.68486000  1.0
  C  C124  1  0.12695000  0.48186000  0.21754000  1.0
  C  C125  1  0.62695000  0.01814000  0.28246000  1.0
  C  C126  1  0.87305000  0.51814000  0.78246000  1.0
  C  C127  1  0.37305000  0.98186000  0.71754000  1.0
  C  C128  1  0.03361000  0.47647000  0.15936000  1.0
  C  C129  1  0.53361000  0.02353000  0.34064000  1.0
  C  C130  1  0.96639000  0.52353000  0.84064000  1.0
  C  C131  1  0.46639000  0.97647000  0.65936000  1.0
  C  C132  1  0.14038000  0.51604000  0.03482000  1.0
  C  C133  1  0.64038000  0.98396000  0.46518000  1.0
  C  C134  1  0.85962000  0.48395000  0.96518000  1.0
  C  C135  1  0.35962000  0.01604000  0.53482000  1.0
  C  C136  1  0.18936000  0.47588000  0.99143000  1.0
  C  C137  1  0.68936000  0.02412000  0.50857000  1.0
  C  C138  1  0.81064000  0.52412000  0.00858000  1.0
  C  C139  1  0.31064000  0.97588000  0.49143000  1.0
  C  C140  1  0.10774000  0.39003000  0.08786000  1.0
  C  C141  1  0.60774000  0.10997000  0.41213000  1.0
  C  C142  1  0.89226000  0.60997000  0.91214000  1.0
  C  C143  1  0.39226000  0.89003000  0.58787000  1.0
  C  C144  1  0.06245000  0.31671000  0.14106000  1.0
  C  C145  1  0.56245000  0.18329000  0.35894000  1.0
  C  C146  1  0.93755000  0.68329000  0.85894000  1.0
  C  C147  1  0.43755000  0.81671000  0.64106000  1.0
  C  C148  1  0.21495000  0.14724000  0.04255000  1.0
  C  C149  1  0.71495000  0.35276000  0.45745000  1.0
  C  C150  1  0.78505000  0.85276000  0.95745000  1.0
  C  C151  1  0.28505000  0.64724000  0.54255000  1.0
  C  C152  1  0.23667000  0.07813000  0.10950000  1.0
  C  C153  1  0.73667000  0.42187000  0.39050000  1.0
  C  C154  1  0.76333000  0.92187000  0.89049000  1.0
  C  C155  1  0.26333000  0.57813000  0.60950000  1.0
  C  C156  1  0.26983000  0.00743000  0.10037000  1.0
  C  C157  1  0.76984000  0.49257000  0.39963000  1.0
  C  C158  1  0.73016000  0.99257000  0.89963000  1.0
  C  C159  1  0.23016000  0.50743000  0.60037000  1.0
  C  C160  1  0.29307000  0.94358000  0.16214000  1.0
  C  C161  1  0.79307000  0.55642000  0.33786000  1.0
  C  C162  1  0.70693000  0.05642000  0.83786000  1.0
  C  C163  1  0.20693000  0.44358000  0.66214000  1.0
  C  C164  1  0.28292000  0.94920000  0.23403000  1.0
  C  C165  1  0.78292000  0.55080000  0.26597000  1.0
  C  C166  1  0.71708000  0.05080000  0.76597000  1.0
  C  C167  1  0.21709000  0.44920000  0.73403000  1.0
  C  C168  1  0.30814000  0.88064000  0.30093000  1.0
  C  C169  1  0.80814000  0.61936000  0.19907000  1.0
  C  C170  1  0.69186000  0.11936000  0.69907000  1.0
  C  C171  1  0.19186000  0.38064000  0.80093000  1.0
  C  C172  1  0.24809000  0.01979000  0.24304000  1.0
  C  C173  1  0.74809000  0.48021000  0.25696000  1.0
  C  C174  1  0.75191000  0.98021000  0.75696000  1.0
  C  C175  1  0.25191000  0.51979000  0.74304000  1.0
  C  C176  1  0.22549000  0.08379000  0.18132000  1.0
  C  C177  1  0.72550000  0.41621000  0.31868000  1.0
  C  C178  1  0.77451000  0.91622000  0.81868000  1.0
  C  C179  1  0.27451000  0.58378000  0.68132000  1.0
  C  C180  1  0.95174000  0.25805000  0.93414000  1.0
  C  C181  1  0.45174000  0.24195000  0.56586000  1.0
  C  C182  1  0.04826000  0.74194000  0.06586000  1.0
  C  C183  1  0.54826000  0.75805000  0.43414000  1.0
  C  C184  1  0.81540000  0.25637000  0.93473000  1.0
  C  C185  1  0.31540000  0.24363000  0.56527000  1.0
  C  C186  1  0.18460000  0.74363000  0.06527000  1.0
  C  C187  1  0.68460000  0.75637000  0.43473000  1.0
  C  C188  1  0.75238000  0.23816000  0.87813000  1.0
  C  C189  1  0.25239000  0.26184000  0.62187000  1.0
  C  C190  1  0.24761000  0.76184000  0.12187000  1.0
  C  C191  1  0.74762000  0.73816000  0.37813000  1.0
  C  C192  1  0.62618000  0.24476000  0.87357000  1.0
  C  C193  1  0.12618000  0.25524000  0.62643000  1.0
  C  C194  1  0.37382000  0.75524000  0.12643000  1.0
  C  C195  1  0.87382000  0.74476000  0.37357000  1.0
  C  C196  1  0.56109000  0.26808000  0.92644000  1.0
  C  C197  1  0.06109000  0.23192000  0.57356000  1.0
  C  C198  1  0.43891000  0.73192000  0.07356000  1.0
  C  C199  1  0.93891000  0.76808000  0.42644000  1.0
  C  C200  1  0.42496000  0.27485000  0.92239000  1.0
  C  C201  1  0.92496000  0.22515000  0.57761000  1.0
  C  C202  1  0.57504000  0.72515000  0.07761000  1.0
  C  C203  1  0.07504000  0.77485000  0.42239000  1.0
  C  C204  1  0.62385000  0.28407000  0.98446000  1.0
  C  C205  1  0.12385000  0.21593000  0.51555000  1.0
  C  C206  1  0.37615000  0.71593000  0.01554000  1.0
  C  C207  1  0.87615000  0.78407000  0.48445000  1.0
  C  C208  1  0.75007000  0.27863000  0.98835000  1.0
  C  C209  1  0.25007000  0.22137000  0.51165000  1.0
  C  C210  1  0.24993000  0.72137000  0.01165000  1.0
  C  C211  1  0.74993000  0.77863000  0.48835000  1.0
  N  N212  1  0.32282000  0.63797000  0.31756000  1.0
  N  N213  1  0.82282000  0.86203000  0.18244000  1.0
  N  N214  1  0.67718000  0.36203000  0.68244000  1.0
  N  N215  1  0.17718000  0.13797000  0.81756000  1.0
  N  N216  1  0.28303000  0.57299000  0.23994000  1.0
  N  N217  1  0.78303000  0.92701000  0.26006000  1.0
  N  N218  1  0.71697000  0.42701000  0.76006000  1.0
  N  N219  1  0.21697000  0.07299000  0.73994000  1.0
  N  N220  1  0.08979000  0.46110000  0.09561000  1.0
  N  N221  1  0.58979000  0.03890000  0.40439000  1.0
  N  N222  1  0.91021000  0.53890000  0.90439000  1.0
  N  N223  1  0.41021000  0.96110000  0.59561000  1.0
  N  N224  1  0.16826000  0.39786000  0.02464000  1.0
  N  N225  1  0.66826000  0.10214000  0.47536000  1.0
  N  N226  1  0.83174000  0.60214000  0.97536000  1.0
  N  N227  1  0.33174000  0.89786000  0.52464000  1.0
  O  O228  1  0.18669000  0.21040000  0.05417000  1.0
  O  O229  1  0.68670000  0.28960000  0.44583000  1.0
  O  O230  1  0.81330000  0.78960000  0.94583000  1.0
  O  O231  1  0.31330000  0.71040000  0.55417000  1.0
  O  O232  1  0.22763000  0.13734000  0.97960000  1.0
  O  O233  1  0.72763000  0.36266000  0.52040000  1.0
  O  O234  1  0.77237000  0.86266000  0.02040000  1.0
  O  O235  1  0.27237000  0.63734000  0.47960000  1.0
  O  O236  1  0.33061000  0.81660000  0.29005000  1.0
  O  O237  1  0.83061000  0.68340000  0.20995000  1.0
  O  O238  1  0.66939000  0.18340000  0.70995000  1.0
  O  O239  1  0.16939000  0.31660000  0.79005000  1.0
  O  O240  1  0.30589000  0.89254000  0.36382000  1.0
  O  O241  1  0.80589000  0.60746000  0.13618000  1.0
  O  O242  1  0.69411000  0.10746000  0.63618000  1.0
  O  O243  1  0.19411000  0.39254000  0.86382000  1.0
  O  O244  1  0.00651000  0.21486000  0.90325000  1.0
  O  O245  1  0.50652000  0.28514000  0.59675000  1.0
  O  O246  1  0.99348000  0.78514000  0.09675000  1.0
  O  O247  1  0.49349000  0.71486000  0.40325000  1.0
  O  O248  1  0.00110000  0.30568000  0.96252000  1.0
  O  O249  1  0.50110000  0.19432000  0.53748000  1.0
  O  O250  1  0.99890000  0.69432000  0.03748000  1.0
  O  O251  1  0.49890000  0.80568000  0.46252000  1.0
  O  O252  1  0.37101000  0.24928000  0.87546000  1.0
  O  O253  1  0.87101000  0.25071000  0.62454000  1.0
  O  O254  1  0.62899000  0.75072000  0.12454000  1.0
  O  O255  1  0.12899000  0.74929000  0.37546000  1.0
  O  O256  1  0.37404000  0.30531000  0.96684000  1.0
  O  O257  1  0.87405000  0.19469000  0.53316000  1.0
  O  O258  1  0.62596000  0.69469000  0.03316000  1.0
  O  O259  1  0.12596000  0.80531000  0.46684000  1.0
