# generated using pymatgen
data_CuH4C7N2O7
_symmetry_space_group_name_H-M   'P 1'
_cell_length_a   6.68219000
_cell_length_b   7.54020000
_cell_length_c   17.77180000
_cell_angle_alpha   89.99880000
_cell_angle_beta   90.00070000
_cell_angle_gamma   89.99930000
_symmetry_Int_Tables_number   1
_chemical_formula_structural   CuH4C7N2O7
_chemical_formula_sum   'Cu4 H16 C28 N8 O28'
_cell_volume   895.43301416
_cell_formula_units_Z   4
loop_
 _symmetry_equiv_pos_site_id
 _symmetry_equiv_pos_as_xyz
  1  'x, y, z'
loop_
 _atom_site_type_symbol
 _atom_site_label
 _atom_site_symmetry_multiplicity
 _atom_site_fract_x
 _atom_site_fract_y
 _atom_site_fract_z
 _atom_site_occupancy
  Cu  Cu0  1  0.50065000  0.00490000  0.50244000  1.0
  Cu  Cu1  1  0.00065000  0.99509000  0.49756000  1.0
  Cu  Cu2  1  0.50063000  0.50488000  0.99756000  1.0
  Cu  Cu3  1  0.00064000  0.49510000  0.00244000  1.0
  H  H4  1  0.75212000  0.80895000  0.55871000  1.0
  H  H5  1  0.25213000  0.19103000  0.44129000  1.0
  H  H6  1  0.75212000  0.30896000  0.94129000  1.0
  H  H7  1  0.25212000  0.69103000  0.05871000  1.0
  H  H8  1  0.02589000  0.98919000  0.26297000  1.0
  H  H9  1  0.52588000  0.01082000  0.73704000  1.0
  H  H10  1  0.02588000  0.48919000  0.23703000  1.0
  H  H11  1  0.52588000  0.51083000  0.76296000  1.0
  H  H12  1  0.67941000  0.12063000  0.06465000  1.0
  H  H13  1  0.17939000  0.87937000  0.93535000  1.0
  H  H14  1  0.67944000  0.62066000  0.43535000  1.0
  H  H15  1  0.17944000  0.37935000  0.56465000  1.0
  H  H16  1  0.43587000  0.21547000  0.28639000  1.0
  H  H17  1  0.93586000  0.78453000  0.71361000  1.0
  H  H18  1  0.43586000  0.71545000  0.21361000  1.0
  H  H19  1  0.93588000  0.28455000  0.78639000  1.0
  C  C20  1  0.74759000  0.08771000  0.36807000  1.0
  C  C21  1  0.24757000  0.91229000  0.63193000  1.0
  C  C22  1  0.74757000  0.58769000  0.13193000  1.0
  C  C23  1  0.24757000  0.41230000  0.86807000  1.0
  C  C24  1  0.73311000  0.10130000  0.28364000  1.0
  C  C25  1  0.23309000  0.89870000  0.71636000  1.0
  C  C26  1  0.73310000  0.60129000  0.21636000  1.0
  C  C27  1  0.23310000  0.39870000  0.78364000  1.0
  C  C28  1  0.88948000  0.04102000  0.23790000  1.0
  C  C29  1  0.38946000  0.95898000  0.76210000  1.0
  C  C30  1  0.88947000  0.54102000  0.26210000  1.0
  C  C31  1  0.38947000  0.45900000  0.73790000  1.0
  C  C32  1  0.86457000  0.04613000  0.16002000  1.0
  C  C33  1  0.36456000  0.95386000  0.83998000  1.0
  C  C34  1  0.86458000  0.54614000  0.33998000  1.0
  C  C35  1  0.36458000  0.45387000  0.66002000  1.0
  C  C36  1  0.69401000  0.11424000  0.12559000  1.0
  C  C37  1  0.19400000  0.88577000  0.87441000  1.0
  C  C38  1  0.69403000  0.61425000  0.37441000  1.0
  C  C39  1  0.19403000  0.38576000  0.62559000  1.0
  C  C40  1  0.54408000  0.17618000  0.17315000  1.0
  C  C41  1  0.04407000  0.82383000  0.82685000  1.0
  C  C42  1  0.54409000  0.67618000  0.32685000  1.0
  C  C43  1  0.04410000  0.32382000  0.67315000  1.0
  C  C44  1  0.55836000  0.16882000  0.25127000  1.0
  C  C45  1  0.05835000  0.83119000  0.74874000  1.0
  C  C46  1  0.55835000  0.66881000  0.24873000  1.0
  C  C47  1  0.05837000  0.33119000  0.75126000  1.0
  N  N48  1  0.02343000  0.97582000  0.11074000  1.0
  N  N49  1  0.52342000  0.02418000  0.88926000  1.0
  N  N50  1  0.02345000  0.47582000  0.38925000  1.0
  N  N51  1  0.52345000  0.52418000  0.61074000  1.0
  N  N52  1  0.36214000  0.25072000  0.13978000  1.0
  N  N53  1  0.86214000  0.74928000  0.86022000  1.0
  N  N54  1  0.36215000  0.75073000  0.36022000  1.0
  N  N55  1  0.86217000  0.24928000  0.63978000  1.0
  O  O56  1  0.58191000  0.09887000  0.40303000  1.0
  O  O57  1  0.08188000  0.90114000  0.59697000  1.0
  O  O58  1  0.58187000  0.59880000  0.09698000  1.0
  O  O59  1  0.08187000  0.40118000  0.90302000  1.0
  O  O60  1  0.92182000  0.06647000  0.39509000  1.0
  O  O61  1  0.42179000  0.93352000  0.60491000  1.0
  O  O62  1  0.92179000  0.56647000  0.10491000  1.0
  O  O63  1  0.42179000  0.43350000  0.89509000  1.0
  O  O64  1  0.16802000  0.89989000  0.14123000  1.0
  O  O65  1  0.66801000  0.10010000  0.85878000  1.0
  O  O66  1  0.16803000  0.39989000  0.35878000  1.0
  O  O67  1  0.66803000  0.60011000  0.64122000  1.0
  O  O68  1  0.00308000  0.99541000  0.04225000  1.0
  O  O69  1  0.50306000  0.00461000  0.95775000  1.0
  O  O70  1  0.00310000  0.49542000  0.45775000  1.0
  O  O71  1  0.50310000  0.50458000  0.54225000  1.0
  O  O72  1  0.34627000  0.24937000  0.07011000  1.0
  O  O73  1  0.84626000  0.75064000  0.92989000  1.0
  O  O74  1  0.34629000  0.74939000  0.42989000  1.0
  O  O75  1  0.84630000  0.25061000  0.57011000  1.0
  O  O76  1  0.23328000  0.31044000  0.18321000  1.0
  O  O77  1  0.73329000  0.68955000  0.81679000  1.0
  O  O78  1  0.23329000  0.81043000  0.31679000  1.0
  O  O79  1  0.73330000  0.18957000  0.68321000  1.0
  O  O80  1  0.74858000  0.87682000  0.51175000  1.0
  O  O81  1  0.24858000  0.12316000  0.48826000  1.0
  O  O82  1  0.74858000  0.37683000  0.98825000  1.0
  O  O83  1  0.24856000  0.62317000  0.01174000  1.0
