# generated using pymatgen
data_ErH9C12N3(ClO3)3
_symmetry_space_group_name_H-M   'P 1'
_cell_length_a   12.53780000
_cell_length_b   13.53620000
_cell_length_c   15.31620000
_cell_angle_alpha   114.26000000
_cell_angle_beta   89.99960000
_cell_angle_gamma   90.00000000
_symmetry_Int_Tables_number   1
_chemical_formula_structural   ErH9C12N3(ClO3)3
_chemical_formula_sum   'Er4 H36 C48 N12 Cl12 O36'
_cell_volume   2369.82613664
_cell_formula_units_Z   4
loop_
 _symmetry_equiv_pos_site_id
 _symmetry_equiv_pos_as_xyz
  1  'x, y, z'
loop_
 _atom_site_type_symbol
 _atom_site_label
 _atom_site_symmetry_multiplicity
 _atom_site_fract_x
 _atom_site_fract_y
 _atom_site_fract_z
 _atom_site_occupancy
  Er  Er0  1  0.44425000  0.83964000  0.69438000  1.0
  Er  Er1  1  0.94424000  0.66035000  0.30562000  1.0
  Er  Er2  1  0.55575000  0.16036000  0.30562000  1.0
  Er  Er3  1  0.05576000  0.33965000  0.69439000  1.0
  H  H4  1  0.25184000  0.04436000  0.68108000  1.0
  H  H5  1  0.75184000  0.45564000  0.31892000  1.0
  H  H6  1  0.74816000  0.95565000  0.31892000  1.0
  H  H7  1  0.24816000  0.54435000  0.68108000  1.0
  H  H8  1  0.24835000  0.16333000  0.89270000  1.0
  H  H9  1  0.74836000  0.33667000  0.10730000  1.0
  H  H10  1  0.75165000  0.83667000  0.10730000  1.0
  H  H11  1  0.25165000  0.66333000  0.89270000  1.0
  H  H12  1  0.18459000  0.19749000  0.80811000  1.0
  H  H13  1  0.68460000  0.30251000  0.19189000  1.0
  H  H14  1  0.81541000  0.80251000  0.19189000  1.0
  H  H15  1  0.31541000  0.69749000  0.80811000  1.0
  H  H16  1  0.12302000  0.70593000  0.63000000  1.0
  H  H17  1  0.62302000  0.79407000  0.37000000  1.0
  H  H18  1  0.87698000  0.29407000  0.37000000  1.0
  H  H19  1  0.37698000  0.20593000  0.63000000  1.0
  H  H20  1  0.25029000  0.80572000  0.52417000  1.0
  H  H21  1  0.75029000  0.69428000  0.47583000  1.0
  H  H22  1  0.74971000  0.19428000  0.47584000  1.0
  H  H23  1  0.24971000  0.30572000  0.52416000  1.0
  H  H24  1  0.11890000  0.75254000  0.50147000  1.0
  H  H25  1  0.61890000  0.74747000  0.49852000  1.0
  H  H26  1  0.88110000  0.24746000  0.49853000  1.0
  H  H27  1  0.38110000  0.25253000  0.50147000  1.0
  H  H28  1  0.71114000  0.91454000  0.71538000  1.0
  H  H29  1  0.21114000  0.58546000  0.28462000  1.0
  H  H30  1  0.28887000  0.08546000  0.28461000  1.0
  H  H31  1  0.78886000  0.41454000  0.71538000  1.0
  H  H32  1  0.80984000  0.72205000  0.73032000  1.0
  H  H33  1  0.30984000  0.77795000  0.26968000  1.0
  H  H34  1  0.19016000  0.27795000  0.26968000  1.0
  H  H35  1  0.69016000  0.22205000  0.73032000  1.0
  H  H36  1  0.87097000  0.83999000  0.73275000  1.0
  H  H37  1  0.37097000  0.66001000  0.26725000  1.0
  H  H38  1  0.12903000  0.16001000  0.26725000  1.0
  H  H39  1  0.62904000  0.33998000  0.73275000  1.0
  C  C40  1  0.27309000  0.05660000  0.75469000  1.0
  C  C41  1  0.77309000  0.44341000  0.24531000  1.0
  C  C42  1  0.72691000  0.94341000  0.24531000  1.0
  C  C43  1  0.22691000  0.55659000  0.75469000  1.0
  C  C44  1  0.19517000  0.74291000  0.61467000  1.0
  C  C45  1  0.69518000  0.75709000  0.38533000  1.0
  C  C46  1  0.80483000  0.25709000  0.38533000  1.0
  C  C47  1  0.30483000  0.24291000  0.61467000  1.0
  C  C48  1  0.70957000  0.83389000  0.71684000  1.0
  C  C49  1  0.20957000  0.66611000  0.28317000  1.0
  C  C50  1  0.29043000  0.16611000  0.28316000  1.0
  C  C51  1  0.79043000  0.33389000  0.71683000  1.0
  C  C52  1  0.61071000  0.01881000  0.53383000  1.0
  C  C53  1  0.11071000  0.48120000  0.46618000  1.0
  C  C54  1  0.38929000  0.98120000  0.46617000  1.0
  C  C55  1  0.88929000  0.51881000  0.53383000  1.0
  C  C56  1  0.53900000  0.96642000  0.57134000  1.0
  C  C57  1  0.03900000  0.53358000  0.42866000  1.0
  C  C58  1  0.46100000  0.03359000  0.42866000  1.0
  C  C59  1  0.96100000  0.46642000  0.57134000  1.0
  C  C60  1  0.42362000  0.94575000  0.53555000  1.0
  C  C61  1  0.92362000  0.55425000  0.46445000  1.0
  C  C62  1  0.57638000  0.05425000  0.46444000  1.0
  C  C63  1  0.07638000  0.44576000  0.53556000  1.0
  C  C64  1  0.42982000  0.92183000  0.01491000  1.0
  C  C65  1  0.92982000  0.57817000  0.98509000  1.0
  C  C66  1  0.57018000  0.07817000  0.98509000  1.0
  C  C67  1  0.07018000  0.42183000  0.01491000  1.0
  C  C68  1  0.44940000  0.91021000  0.92134000  1.0
  C  C69  1  0.94940000  0.58979000  0.07865000  1.0
  C  C70  1  0.55060000  0.08979000  0.07866000  1.0
  C  C71  1  0.05060000  0.41021000  0.92134000  1.0
  C  C72  1  0.52268000  0.99304000  0.90636000  1.0
  C  C73  1  0.02268000  0.50696000  0.09363000  1.0
  C  C74  1  0.47732000  0.00696000  0.09364000  1.0
  C  C75  1  0.97732000  0.49303000  0.90637000  1.0
  C  C76  1  0.49448000  0.46980000  0.58124000  1.0
  C  C77  1  0.99448000  0.03020000  0.41876000  1.0
  C  C78  1  0.50552000  0.53020000  0.41876000  1.0
  C  C79  1  0.00552000  0.96980000  0.58124000  1.0
  C  C80  1  0.47670000  0.57849000  0.59527000  1.0
  C  C81  1  0.97670000  0.92150000  0.40473000  1.0
  C  C82  1  0.52330000  0.42150000  0.40473000  1.0
  C  C83  1  0.02330000  0.07850000  0.59527000  1.0
  C  C84  1  0.48721000  0.61050000  0.51052000  1.0
  C  C85  1  0.98721000  0.88950000  0.48948000  1.0
  C  C86  1  0.51279000  0.38950000  0.48948000  1.0
  C  C87  1  0.01279000  0.11050000  0.51052000  1.0
  N  N88  1  0.23352000  0.14587000  0.82276000  1.0
  N  N89  1  0.73352000  0.35413000  0.17724000  1.0
  N  N90  1  0.76648000  0.85413000  0.17724000  1.0
  N  N91  1  0.26648000  0.64587000  0.82276000  1.0
  N  N92  1  0.19014000  0.76149000  0.53634000  1.0
  N  N93  1  0.69014000  0.73851000  0.46366000  1.0
  N  N94  1  0.80986000  0.23851000  0.46366000  1.0
  N  N95  1  0.30986000  0.26149000  0.53634000  1.0
  N  N96  1  0.80382000  0.79770000  0.73202000  1.0
  N  N97  1  0.30382000  0.70229000  0.26798000  1.0
  N  N98  1  0.19618000  0.20230000  0.26798000  1.0
  N  N99  1  0.69618000  0.29770000  0.73202000  1.0
  Cl  Cl100  1  0.74178000  0.03721000  0.57197000  1.0
  Cl  Cl101  1  0.24178000  0.46279000  0.42803000  1.0
  Cl  Cl102  1  0.25823000  0.96279000  0.42803000  1.0
  Cl  Cl103  1  0.75822000  0.53721000  0.57197000  1.0
  Cl  Cl104  1  0.34746000  0.83271000  0.03808000  1.0
  Cl  Cl105  1  0.84746000  0.66729000  0.96191000  1.0
  Cl  Cl106  1  0.65254000  0.16729000  0.96191000  1.0
  Cl  Cl107  1  0.15254000  0.33271000  0.03808000  1.0
  Cl  Cl108  1  0.48778000  0.43971000  0.68082000  1.0
  Cl  Cl109  1  0.98778000  0.06029000  0.31918000  1.0
  Cl  Cl110  1  0.51222000  0.56029000  0.31918000  1.0
  Cl  Cl111  1  0.01222000  0.93971000  0.68082000  1.0
  O  O112  1  0.33086000  0.99044000  0.77090000  1.0
  O  O113  1  0.83087000  0.50956000  0.22910000  1.0
  O  O114  1  0.66914000  0.00956000  0.22910000  1.0
  O  O115  1  0.16913000  0.49044000  0.77090000  1.0
  O  O116  1  0.27380000  0.76254000  0.66981000  1.0
  O  O117  1  0.77381000  0.73746000  0.33019000  1.0
  O  O118  1  0.72620000  0.23746000  0.33020000  1.0
  O  O119  1  0.22619000  0.26255000  0.66981000  1.0
  O  O120  1  0.62497000  0.78108000  0.70485000  1.0
  O  O121  1  0.12497000  0.71892000  0.29515000  1.0
  O  O122  1  0.37503000  0.21892000  0.29514000  1.0
  O  O123  1  0.87503000  0.28108000  0.70485000  1.0
  O  O124  1  0.56232000  0.93239000  0.63420000  1.0
  O  O125  1  0.06232000  0.56761000  0.36581000  1.0
  O  O126  1  0.43768000  0.06761000  0.36581000  1.0
  O  O127  1  0.93768000  0.43239000  0.63420000  1.0
  O  O128  1  0.36684000  0.89706000  0.57379000  1.0
  O  O129  1  0.86685000  0.60295000  0.42621000  1.0
  O  O130  1  0.63315000  0.10295000  0.42622000  1.0
  O  O131  1  0.13315000  0.39706000  0.57379000  1.0
  O  O132  1  0.41271000  0.83638000  0.84495000  1.0
  O  O133  1  0.91271000  0.66362000  0.15505000  1.0
  O  O134  1  0.58729000  0.16363000  0.15505000  1.0
  O  O135  1  0.08729000  0.33638000  0.84495000  1.0
  O  O136  1  0.53664000  0.97848000  0.82047000  1.0
  O  O137  1  0.03664000  0.52152000  0.17952000  1.0
  O  O138  1  0.46336000  0.02151000  0.17953000  1.0
  O  O139  1  0.96336000  0.47848000  0.82048000  1.0
  O  O140  1  0.45224000  0.65377000  0.67408000  1.0
  O  O141  1  0.95224000  0.84623000  0.32592000  1.0
  O  O142  1  0.54776000  0.34623000  0.32592000  1.0
  O  O143  1  0.04776000  0.15377000  0.67408000  1.0
  O  O144  1  0.47915000  0.71182000  0.53248000  1.0
  O  O145  1  0.97915000  0.78818000  0.46752000  1.0
  O  O146  1  0.52085000  0.28818000  0.46752000  1.0
  O  O147  1  0.02085000  0.21182000  0.53248000  1.0
