# generated using pymatgen
data_K2BeH6C8O9
_symmetry_space_group_name_H-M   'P 1'
_cell_length_a   8.06276000
_cell_length_b   12.61500000
_cell_length_c   12.85510000
_cell_angle_alpha   89.99990000
_cell_angle_beta   90.00000000
_cell_angle_gamma   89.99990000
_symmetry_Int_Tables_number   1
_chemical_formula_structural   K2BeH6C8O9
_chemical_formula_sum   'K8 Be4 H24 C32 O36'
_cell_volume   1307.51429834
_cell_formula_units_Z   4
loop_
 _symmetry_equiv_pos_site_id
 _symmetry_equiv_pos_as_xyz
  1  'x, y, z'
loop_
 _atom_site_type_symbol
 _atom_site_label
 _atom_site_symmetry_multiplicity
 _atom_site_fract_x
 _atom_site_fract_y
 _atom_site_fract_z
 _atom_site_occupancy
  K  K0  1  0.94779000  0.85613000  0.94335000  1.0
  K  K1  1  0.55222000  0.14387000  0.94336000  1.0
  K  K2  1  0.55221000  0.35613000  0.55665000  1.0
  K  K3  1  0.94779000  0.64387000  0.55665000  1.0
  K  K4  1  0.05221000  0.14387000  0.05665000  1.0
  K  K5  1  0.44779000  0.85613000  0.05664000  1.0
  K  K6  1  0.44779000  0.64387000  0.44335000  1.0
  K  K7  1  0.05221000  0.35613000  0.44335000  1.0
  Be  Be8  1  0.25000000  0.00000000  0.75705000  1.0
  Be  Be9  1  0.25000000  0.50000000  0.74295000  1.0
  Be  Be10  1  0.75000000  0.00000000  0.24295000  1.0
  Be  Be11  1  0.75000000  0.50000000  0.25705000  1.0
  H  H12  1  0.95740000  0.15581000  0.55022000  1.0
  H  H13  1  0.54260000  0.84419000  0.55022000  1.0
  H  H14  1  0.54260000  0.65581000  0.94978000  1.0
  H  H15  1  0.95740000  0.34419000  0.94978000  1.0
  H  H16  1  0.04260000  0.84419000  0.44978000  1.0
  H  H17  1  0.45740000  0.15581000  0.44978000  1.0
  H  H18  1  0.45740000  0.34419000  0.05022000  1.0
  H  H19  1  0.04261000  0.65581000  0.05022000  1.0
  H  H20  1  0.78459000  0.10908000  0.68917000  1.0
  H  H21  1  0.71541000  0.89092000  0.68917000  1.0
  H  H22  1  0.71541000  0.60908000  0.81083000  1.0
  H  H23  1  0.78459000  0.39092000  0.81083000  1.0
  H  H24  1  0.21541000  0.89092000  0.31083000  1.0
  H  H25  1  0.28459000  0.10908000  0.31083000  1.0
  H  H26  1  0.28459000  0.39092000  0.18917000  1.0
  H  H27  1  0.21541000  0.60908000  0.18917000  1.0
  H  H28  1  0.03936000  0.69538000  0.77792000  1.0
  H  H29  1  0.46064000  0.30462000  0.77792000  1.0
  H  H30  1  0.46064000  0.19538000  0.72208000  1.0
  H  H31  1  0.03936000  0.80462000  0.72208000  1.0
  H  H32  1  0.96064000  0.30462000  0.22208000  1.0
  H  H33  1  0.53936000  0.69538000  0.22208000  1.0
  H  H34  1  0.53936000  0.80462000  0.27792000  1.0
  H  H35  1  0.96064000  0.19538000  0.27792000  1.0
  C  C36  1  0.19993000  0.15455000  0.62372000  1.0
  C  C37  1  0.30007000  0.84545000  0.62372000  1.0
  C  C38  1  0.30007000  0.65455000  0.87628000  1.0
  C  C39  1  0.19993000  0.34545000  0.87628000  1.0
  C  C40  1  0.80007000  0.84545000  0.37628000  1.0
  C  C41  1  0.69993000  0.15454000  0.37628000  1.0
  C  C42  1  0.69993000  0.34546000  0.12372000  1.0
  C  C43  1  0.80007000  0.65454000  0.12372000  1.0
  C  C44  1  0.01787000  0.13334000  0.62302000  1.0
  C  C45  1  0.48213000  0.86666000  0.62302000  1.0
  C  C46  1  0.48213000  0.63334000  0.87698000  1.0
  C  C47  1  0.01787000  0.36666000  0.87698000  1.0
  C  C48  1  0.98213000  0.86666000  0.37698000  1.0
  C  C49  1  0.51787000  0.13334000  0.37698000  1.0
  C  C50  1  0.51787000  0.36666000  0.12302000  1.0
  C  C51  1  0.98213000  0.63334000  0.12302000  1.0
  C  C52  1  0.91828000  0.10519000  0.70239000  1.0
  C  C53  1  0.58172000  0.89481000  0.70239000  1.0
  C  C54  1  0.58172000  0.60519000  0.79761000  1.0
  C  C55  1  0.91828000  0.39481000  0.79761000  1.0
  C  C56  1  0.08172000  0.89481000  0.29761000  1.0
  C  C57  1  0.41828000  0.10519000  0.29761000  1.0
  C  C58  1  0.41828000  0.39481000  0.20239000  1.0
  C  C59  1  0.08172000  0.60519000  0.20239000  1.0
  C  C60  1  0.96109000  0.07801000  0.81203000  1.0
  C  C61  1  0.53891000  0.92200000  0.81203000  1.0
  C  C62  1  0.53891000  0.57801000  0.68797000  1.0
  C  C63  1  0.96109000  0.42199000  0.68797000  1.0
  C  C64  1  0.03891000  0.92199000  0.18797000  1.0
  C  C65  1  0.46109000  0.07801000  0.18797000  1.0
  C  C66  1  0.46109000  0.42200000  0.31203000  1.0
  C  C67  1  0.03891000  0.57800000  0.31203000  1.0
  O  O68  1  0.29847000  0.10211000  0.68525000  1.0
  O  O69  1  0.20153000  0.89789000  0.68525000  1.0
  O  O70  1  0.20153000  0.60211000  0.81475000  1.0
  O  O71  1  0.29847000  0.39789000  0.81475000  1.0
  O  O72  1  0.70153000  0.89789000  0.31475000  1.0
  O  O73  1  0.79847000  0.10211000  0.31475000  1.0
  O  O74  1  0.79847000  0.39789000  0.18525000  1.0
  O  O75  1  0.70153000  0.60211000  0.18525000  1.0
  O  O76  1  0.09818000  0.02837000  0.83367000  1.0
  O  O77  1  0.40182000  0.97163000  0.83367000  1.0
  O  O78  1  0.40182000  0.52837000  0.66633000  1.0
  O  O79  1  0.09818000  0.47163000  0.66633000  1.0
  O  O80  1  0.90182000  0.97163000  0.16633000  1.0
  O  O81  1  0.59818000  0.02837000  0.16633000  1.0
  O  O82  1  0.59818000  0.47163000  0.33367000  1.0
  O  O83  1  0.90182000  0.52837000  0.33367000  1.0
  O  O84  1  0.25179000  0.22607000  0.56442000  1.0
  O  O85  1  0.24821000  0.77393000  0.56443000  1.0
  O  O86  1  0.24821000  0.72607000  0.93557000  1.0
  O  O87  1  0.25179000  0.27393000  0.93558000  1.0
  O  O88  1  0.74821000  0.77393000  0.43557000  1.0
  O  O89  1  0.75178000  0.22607000  0.43557000  1.0
  O  O90  1  0.75178000  0.27393000  0.06443000  1.0
  O  O91  1  0.74822000  0.72607000  0.06443000  1.0
  O  O92  1  0.85883000  0.10084000  0.88165000  1.0
  O  O93  1  0.64117000  0.89917000  0.88165000  1.0
  O  O94  1  0.64117000  0.60084000  0.61835000  1.0
  O  O95  1  0.85883000  0.39916000  0.61835000  1.0
  O  O96  1  0.14117000  0.89916000  0.11835000  1.0
  O  O97  1  0.35883000  0.10083000  0.11835000  1.0
  O  O98  1  0.35883000  0.39917000  0.38165000  1.0
  O  O99  1  0.14117000  0.60083000  0.38165000  1.0
  O  O100  1  0.96338000  0.75000000  0.75000000  1.0
  O  O101  1  0.53662000  0.25000000  0.75000000  1.0
  O  O102  1  0.03662000  0.25000000  0.25000000  1.0
  O  O103  1  0.46338000  0.75000000  0.25000000  1.0
