# generated using pymatgen
data_Cd2H12C17N18
_symmetry_space_group_name_H-M   'P 1'
_cell_length_a   9.62045000
_cell_length_b   11.04470000
_cell_length_c   12.50770000
_cell_angle_alpha   86.13860000
_cell_angle_beta   80.95310000
_cell_angle_gamma   79.43340000
_symmetry_Int_Tables_number   1
_chemical_formula_structural   Cd2H12C17N18
_chemical_formula_sum   'Cd4 H24 C34 N36'
_cell_volume   1289.20081347
_cell_formula_units_Z   2
loop_
 _symmetry_equiv_pos_site_id
 _symmetry_equiv_pos_as_xyz
  1  'x, y, z'
loop_
 _atom_site_type_symbol
 _atom_site_label
 _atom_site_symmetry_multiplicity
 _atom_site_fract_x
 _atom_site_fract_y
 _atom_site_fract_z
 _atom_site_occupancy
  Cd  Cd0  1  0.17388000  0.50911000  0.01993000  1.0
  Cd  Cd1  1  0.82612000  0.49089000  0.98007000  1.0
  Cd  Cd2  1  0.31870000  0.35091000  0.28860000  1.0
  Cd  Cd3  1  0.68130000  0.64909000  0.71140000  1.0
  H  H4  1  0.05587000  0.73075000  0.84066000  1.0
  H  H5  1  0.94413000  0.26925000  0.15934000  1.0
  H  H6  1  0.07186000  0.95035000  0.78155000  1.0
  H  H7  1  0.92815000  0.04965000  0.21844000  1.0
  H  H8  1  0.18726000  0.07374000  0.89179000  1.0
  H  H9  1  0.81274000  0.92626000  0.10821000  1.0
  H  H10  1  0.28644000  0.97395000  0.05411000  1.0
  H  H11  1  0.71356000  0.02605000  0.94589000  1.0
  H  H12  1  0.63913000  0.57551000  0.29438000  1.0
  H  H13  1  0.36087000  0.42449000  0.70562000  1.0
  H  H14  1  0.75368000  0.57589000  0.46124000  1.0
  H  H15  1  0.24631000  0.42411000  0.53876000  1.0
  H  H16  1  0.36957000  0.73098000  0.64042000  1.0
  H  H17  1  0.63043000  0.26902000  0.35958000  1.0
  H  H18  1  0.24018000  0.74446000  0.48127000  1.0
  H  H19  1  0.75982000  0.25553000  0.51873000  1.0
  H  H20  1  0.11191000  0.92906000  0.31340000  1.0
  H  H21  1  0.88809000  0.07094000  0.68660000  1.0
  H  H22  1  0.13165000  0.14471000  0.35904000  1.0
  H  H23  1  0.86835000  0.85529000  0.64096000  1.0
  H  H24  1  0.55800000  0.09654000  0.22369000  1.0
  H  H25  1  0.44199000  0.90346000  0.77631000  1.0
  H  H26  1  0.55820000  0.87828000  0.17465000  1.0
  H  H27  1  0.44180000  0.12172000  0.82535000  1.0
  C  C28  1  0.10182000  0.78871000  0.88803000  1.0
  C  C29  1  0.89818000  0.21129000  0.11197000  1.0
  C  C30  1  0.11239000  0.91059000  0.85502000  1.0
  C  C31  1  0.88761000  0.08941000  0.14498000  1.0
  C  C32  1  0.17729000  0.97852000  0.91616000  1.0
  C  C33  1  0.82271000  0.02148000  0.08384000  1.0
  C  C34  1  0.23029000  0.92302000  0.00862000  1.0
  C  C35  1  0.76971000  0.07698000  0.99137000  1.0
  C  C36  1  0.21323000  0.80158000  0.03737000  1.0
  C  C37  1  0.78677000  0.19842000  0.96263000  1.0
  C  C38  1  0.26466000  0.73116000  0.13146000  1.0
  C  C39  1  0.73535000  0.26884000  0.86854000  1.0
  C  C40  1  0.35901000  0.66473000  0.27871000  1.0
  C  C41  1  0.64099000  0.33527000  0.72129000  1.0
  C  C42  1  0.43087000  0.66270000  0.37452000  1.0
  C  C43  1  0.56913000  0.33730000  0.62548000  1.0
  C  C44  1  0.57648000  0.61304000  0.36887000  1.0
  C  C45  1  0.42352000  0.38696000  0.63113000  1.0
  C  C46  1  0.64025000  0.61231000  0.46155000  1.0
  C  C47  1  0.35974000  0.38769000  0.53845000  1.0
  C  C48  1  0.42614000  0.70224000  0.56116000  1.0
  C  C49  1  0.57386000  0.29775000  0.43884000  1.0
  C  C50  1  0.35450000  0.70897000  0.47212000  1.0
  C  C51  1  0.64550000  0.29103000  0.52788000  1.0
  C  C52  1  0.33437000  0.89060000  0.24067000  1.0
  C  C53  1  0.66563000  0.10941000  0.75933000  1.0
  C  C54  1  0.21218000  0.96385000  0.29335000  1.0
  C  C55  1  0.78782000  0.03615000  0.70665000  1.0
  C  C56  1  0.22309000  0.08203000  0.31861000  1.0
  C  C57  1  0.77691000  0.91797000  0.68139000  1.0
  C  C58  1  0.46242000  0.05472000  0.24428000  1.0
  C  C59  1  0.53758000  0.94528000  0.75572000  1.0
  C  C60  1  0.46288000  0.93404000  0.21700000  1.0
  C  C61  1  0.53712000  0.06596000  0.78300000  1.0
  N  N62  1  0.14994000  0.73590000  0.97756000  1.0
  N  N63  1  0.85006000  0.26410000  0.02244000  1.0
  N  N64  1  0.26239000  0.61180000  0.14794000  1.0
  N  N65  1  0.73761000  0.38820000  0.85206000  1.0
  N  N66  1  0.31935000  0.57057000  0.23906000  1.0
  N  N67  1  0.68065000  0.42943000  0.76094000  1.0
  N  N68  1  0.32468000  0.76850000  0.21393000  1.0
  N  N69  1  0.67532000  0.23150000  0.78607000  1.0
  N  N70  1  0.56612000  0.65539000  0.55574000  1.0
  N  N71  1  0.43389000  0.34461000  0.44426000  1.0
  N  N72  1  0.34561000  0.12681000  0.29389000  1.0
  N  N73  1  0.65439000  0.87319000  0.70611000  1.0
  N  N74  1  0.94035000  0.55664000  0.10965000  1.0
  N  N75  1  0.05966000  0.44336000  0.89035000  1.0
  N  N76  1  0.90129000  0.64912000  0.16020000  1.0
  N  N77  1  0.09871000  0.35088000  0.83980000  1.0
  N  N78  1  0.86518000  0.73749000  0.21076000  1.0
  N  N79  1  0.13482000  0.26251000  0.78924000  1.0
  N  N80  1  0.23933000  0.32636000  0.11764000  1.0
  N  N81  1  0.76067000  0.67364000  0.88236000  1.0
  N  N82  1  0.31421000  0.24497000  0.06444000  1.0
  N  N83  1  0.68579000  0.75503000  0.93557000  1.0
  N  N84  1  0.38575000  0.16446000  0.01517000  1.0
  N  N85  1  0.61425000  0.83554000  0.98483000  1.0
  N  N86  1  0.10639000  0.38000000  0.39334000  1.0
  N  N87  1  0.89361000  0.62001000  0.60667000  1.0
  N  N88  1  0.99487000  0.37333000  0.36433000  1.0
  N  N89  1  0.00513000  0.62667000  0.63567000  1.0
  N  N90  1  0.88347000  0.36627000  0.34041000  1.0
  N  N91  1  0.11653000  0.63373000  0.65959000  1.0
  N  N92  1  0.45065000  0.67403000  0.81233000  1.0
  N  N93  1  0.54935000  0.32597000  0.18767000  1.0
  N  N94  1  0.41544000  0.58322000  0.85509000  1.0
  N  N95  1  0.58456000  0.41678000  0.14490000  1.0
  N  N96  1  0.38178000  0.49118000  0.89650000  1.0
  N  N97  1  0.61822000  0.50882000  0.10350000  1.0
