# generated using pymatgen
data_Dy2H10C18SN4O13
_symmetry_space_group_name_H-M   'P 1'
_cell_length_a   6.61322000
_cell_length_b   9.54402000
_cell_length_c   16.04250000
_cell_angle_alpha   97.31010000
_cell_angle_beta   90.00000000
_cell_angle_gamma   89.99990000
_symmetry_Int_Tables_number   1
_chemical_formula_structural   Dy2H10C18SN4O13
_chemical_formula_sum   'Dy4 H20 C36 S2 N8 O26'
_cell_volume   1004.31974769
_cell_formula_units_Z   2
loop_
 _symmetry_equiv_pos_site_id
 _symmetry_equiv_pos_as_xyz
  1  'x, y, z'
loop_
 _atom_site_type_symbol
 _atom_site_label
 _atom_site_symmetry_multiplicity
 _atom_site_fract_x
 _atom_site_fract_y
 _atom_site_fract_z
 _atom_site_occupancy
  Dy  Dy0  1  0.82982000  0.82434000  0.34973000  1.0
  Dy  Dy1  1  0.17018000  0.82434000  0.84973000  1.0
  Dy  Dy2  1  0.67602000  0.00776000  0.14923000  1.0
  Dy  Dy3  1  0.32397000  0.00776000  0.64922000  1.0
  H  H4  1  0.07318000  0.00707000  0.22061000  1.0
  H  H5  1  0.92681000  0.00707000  0.72061000  1.0
  H  H6  1  0.14092000  0.06208000  0.13673000  1.0
  H  H7  1  0.85907000  0.06208000  0.63673000  1.0
  H  H8  1  0.69821000  0.62270000  0.64538000  1.0
  H  H9  1  0.30180000  0.62270000  0.14538000  1.0
  H  H10  1  0.81137000  0.21701000  0.85105000  1.0
  H  H11  1  0.18863000  0.21701000  0.35105000  1.0
  H  H12  1  0.67577000  0.31285000  0.60903000  1.0
  H  H13  1  0.32424000  0.31285000  0.10903000  1.0
  H  H14  1  0.66666667  0.43210000  0.31408000  1.0
  H  H15  1  0.33328000  0.43210000  0.81408000  1.0
  H  H16  1  0.70655000  0.81927000  0.55449000  1.0
  H  H17  1  0.29345000  0.81927000  0.05449000  1.0
  H  H18  1  0.79583000  0.39383000  0.18264000  1.0
  H  H19  1  0.20417000  0.39383000  0.68264000  1.0
  H  H20  1  0.82443000  0.52750000  0.89064000  1.0
  H  H21  1  0.17557000  0.52749000  0.39064000  1.0
  H  H22  1  0.78319000  0.01335000  0.93656000  1.0
  H  H23  1  0.21680000  0.01335000  0.43656000  1.0
  C  C24  1  0.68922000  0.08649000  0.50538000  1.0
  C  C25  1  0.31078000  0.08650000  0.00538000  1.0
  C  C26  1  0.68320000  0.23055000  0.47762000  1.0
  C  C27  1  0.31681000  0.23055000  0.97762000  1.0
  C  C28  1  0.68075000  0.33949000  0.54511000  1.0
  C  C29  1  0.31925000  0.33949000  0.04511000  1.0
  C  C30  1  0.68651000  0.47837000  0.52846000  1.0
  C  C31  1  0.31349000  0.47837000  0.02846000  1.0
  C  C32  1  0.68743000  0.51354000  0.44524000  1.0
  C  C33  1  0.31257000  0.51354000  0.94524000  1.0
  C  C34  1  0.67633000  0.40614000  0.37789000  1.0
  C  C35  1  0.32368000  0.40615000  0.87789000  1.0
  C  C36  1  0.67929000  0.26439000  0.39265000  1.0
  C  C37  1  0.32071000  0.26439000  0.89265000  1.0
  C  C38  1  0.66929000  0.16455000  0.31239000  1.0
  C  C39  1  0.33071000  0.16455000  0.81239000  1.0
  C  C40  1  0.69829000  0.70848000  0.52962000  1.0
  C  C41  1  0.30172000  0.70849000  0.02962000  1.0
  C  C42  1  0.80898000  0.66375000  0.18764000  1.0
  C  C43  1  0.19102000  0.66375000  0.68764000  1.0
  C  C44  1  0.80321000  0.56466000  0.10698000  1.0
  C  C45  1  0.19679000  0.56466000  0.60698000  1.0
  C  C46  1  0.79956000  0.42148000  0.11903000  1.0
  C  C47  1  0.20044000  0.42148000  0.61903000  1.0
  C  C48  1  0.79938000  0.31728000  0.04990000  1.0
  C  C49  1  0.20062000  0.31728000  0.54990000  1.0
  C  C50  1  0.81066000  0.35638000  0.96782000  1.0
  C  C51  1  0.18934000  0.35638000  0.46782000  1.0
  C  C52  1  0.81773000  0.49686000  0.95372000  1.0
  C  C53  1  0.18227000  0.49686000  0.45372000  1.0
  C  C54  1  0.81073000  0.60227000  0.02309000  1.0
  C  C55  1  0.18927000  0.60227000  0.52309000  1.0
  C  C56  1  0.81270000  0.74938000  0.99804000  1.0
  C  C57  1  0.18729000  0.74938000  0.49804000  1.0
  C  C58  1  0.79285000  0.12350000  0.96318000  1.0
  C  C59  1  0.20714000  0.12350000  0.46318000  1.0
  S  S60  1  0.32798000  0.82668000  0.27255000  1.0
  S  S61  1  0.67201000  0.82668000  0.77255000  1.0
  N  N62  1  0.69187000  0.60490000  0.57994000  1.0
  N  N63  1  0.30814000  0.60490000  0.07994000  1.0
  N  N64  1  0.69637000  0.65940000  0.44803000  1.0
  N  N65  1  0.30364000  0.65940000  0.94803000  1.0
  N  N66  1  0.78746000  0.17053000  0.04483000  1.0
  N  N67  1  0.21253000  0.17052000  0.54483000  1.0
  N  N68  1  0.80838000  0.23038000  0.91483000  1.0
  N  N69  1  0.19162000  0.23038000  0.41484000  1.0
  O  O70  1  0.47801000  0.84333000  0.34163000  1.0
  O  O71  1  0.52199000  0.84333000  0.84163000  1.0
  O  O72  1  0.14141000  0.91228000  0.30014000  1.0
  O  O73  1  0.85858000  0.91228000  0.80014000  1.0
  O  O74  1  0.27342000  0.67771000  0.24906000  1.0
  O  O75  1  0.72658000  0.67771000  0.74906000  1.0
  O  O76  1  0.40846000  0.88932000  0.19840000  1.0
  O  O77  1  0.59154000  0.88932000  0.69840000  1.0
  O  O78  1  0.77606000  0.98490000  0.46133000  1.0
  O  O79  1  0.22395000  0.98490000  0.96133000  1.0
  O  O80  1  0.61825000  0.07281000  0.57857000  1.0
  O  O81  1  0.38175000  0.07281000  0.07857000  1.0
  O  O82  1  0.75731000  0.04318000  0.30166000  1.0
  O  O83  1  0.24268000  0.04318000  0.80166000  1.0
  O  O84  1  0.57914000  0.20589000  0.24939000  1.0
  O  O85  1  0.42086000  0.20589000  0.74939000  1.0
  O  O86  1  0.80895000  0.61108000  0.25677000  1.0
  O  O87  1  0.19105000  0.61108000  0.75677000  1.0
  O  O88  1  0.81781000  0.79932000  0.19121000  1.0
  O  O89  1  0.18218000  0.79933000  0.69121000  1.0
  O  O90  1  0.70704000  0.84782000  0.03721000  1.0
  O  O91  1  0.29296000  0.84783000  0.53721000  1.0
  O  O92  1  0.91618000  0.76733000  0.93396000  1.0
  O  O93  1  0.08382000  0.76733000  0.43396000  1.0
  O  O94  1  0.02397000  0.05987000  0.17479000  1.0
  O  O95  1  0.97603000  0.05987000  0.67479000  1.0
