# generated using pymatgen
data_CuH14C16N2O5
_symmetry_space_group_name_H-M   'P 1'
_cell_length_a   7.46251000
_cell_length_b   9.79038000
_cell_length_c   11.99250000
_cell_angle_alpha   74.15670000
_cell_angle_beta   81.52100000
_cell_angle_gamma   73.93680000
_symmetry_Int_Tables_number   1
_chemical_formula_structural   CuH14C16N2O5
_chemical_formula_sum   'Cu2 H28 C32 N4 O10'
_cell_volume   807.53413382
_cell_formula_units_Z   2
loop_
 _symmetry_equiv_pos_site_id
 _symmetry_equiv_pos_as_xyz
  1  'x, y, z'
loop_
 _atom_site_type_symbol
 _atom_site_label
 _atom_site_symmetry_multiplicity
 _atom_site_fract_x
 _atom_site_fract_y
 _atom_site_fract_z
 _atom_site_occupancy
  Cu  Cu0  1  0.74104000  0.69249000  0.68790000  1.0
  Cu  Cu1  1  0.25896000  0.30751000  0.31210000  1.0
  H  H2  1  0.99660000  0.67100000  0.45576000  1.0
  H  H3  1  0.00340000  0.32899000  0.54425000  1.0
  H  H4  1  0.07234000  0.85847000  0.27917000  1.0
  H  H5  1  0.92767000  0.14153000  0.72083000  1.0
  H  H6  1  0.92638000  0.12684000  0.26758000  1.0
  H  H7  1  0.07363000  0.87316000  0.73242000  1.0
  H  H8  1  0.70054000  0.31985000  0.36599000  1.0
  H  H9  1  0.29947000  0.68015000  0.63401000  1.0
  H  H10  1  0.48946000  0.37442000  0.53609000  1.0
  H  H11  1  0.51056000  0.62558000  0.46391000  1.0
  H  H12  1  0.33909000  0.28304000  0.73870000  1.0
  H  H13  1  0.66091000  0.71697000  0.26130000  1.0
  H  H14  1  0.31085000  0.06663000  0.90457000  1.0
  H  H15  1  0.68915000  0.93338000  0.09543000  1.0
  H  H16  1  0.48143000  0.81292000  0.88480000  1.0
  H  H17  1  0.51855000  0.18708000  0.11520000  1.0
  H  H18  1  0.25317000  0.63979000  0.91747000  1.0
  H  H19  1  0.74682000  0.36021000  0.08253000  1.0
  H  H20  1  0.14190000  0.50392000  0.99966000  1.0
  H  H21  1  0.85809000  0.49608000  0.00034000  1.0
  H  H22  1  0.46865000  0.39096000  0.00021000  1.0
  H  H23  1  0.53134000  0.60904000  0.99979000  1.0
  H  H24  1  0.38307000  0.31491000  0.90784000  1.0
  H  H25  1  0.61693000  0.68509000  0.09216000  1.0
  H  H26  1  0.00008000  0.49451000  0.67462000  1.0
  H  H27  1  0.99992000  0.50549000  0.32538000  1.0
  H  H28  1  0.80479000  0.44041000  0.69072000  1.0
  H  H29  1  0.19521000  0.55959000  0.30929000  1.0
  C  C30  1  0.93578000  0.78785000  0.44816000  1.0
  C  C31  1  0.06422000  0.21214000  0.55184000  1.0
  C  C32  1  0.97544000  0.89455000  0.34892000  1.0
  C  C33  1  0.02456000  0.10544000  0.65108000  1.0
  C  C34  1  0.89382000  0.04180000  0.34230000  1.0
  C  C35  1  0.10617000  0.95819000  0.65771000  1.0
  C  C36  1  0.76986000  0.08276000  0.43565000  1.0
  C  C37  1  0.23013000  0.91723000  0.56435000  1.0
  C  C38  1  0.67646000  0.23096000  0.43947000  1.0
  C  C39  1  0.32354000  0.76904000  0.56052000  1.0
  C  C40  1  0.56047000  0.26162000  0.53401000  1.0
  C  C41  1  0.43954000  0.73838000  0.46599000  1.0
  C  C42  1  0.52954000  0.14749000  0.63314000  1.0
  C  C43  1  0.47046000  0.85251000  0.36685000  1.0
  C  C44  1  0.41444000  0.17148000  0.73406000  1.0
  C  C45  1  0.58556000  0.82852000  0.26594000  1.0
  C  C46  1  0.39833000  0.05207000  0.82535000  1.0
  C  C47  1  0.60166000  0.94793000  0.17465000  1.0
  C  C48  1  0.49283000  0.90966000  0.81578000  1.0
  C  C49  1  0.50716000  0.09034000  0.18422000  1.0
  C  C50  1  0.61995000  0.00073000  0.63101000  1.0
  C  C51  1  0.38005000  0.99927000  0.36899000  1.0
  C  C52  1  0.73940000  0.96818000  0.53207000  1.0
  C  C53  1  0.26059000  0.03182000  0.46793000  1.0
  C  C54  1  0.10633000  0.56264000  0.81768000  1.0
  C  C55  1  0.89367000  0.43735000  0.18232000  1.0
  C  C56  1  0.22628000  0.53466000  0.91802000  1.0
  C  C57  1  0.77372000  0.46534000  0.08198000  1.0
  C  C58  1  0.40825000  0.41656000  0.91627000  1.0
  C  C59  1  0.59175000  0.58345000  0.08374000  1.0
  C  C60  1  0.55813000  0.45859000  0.82304000  1.0
  C  C61  1  0.44187000  0.54142000  0.17696000  1.0
  N  N62  1  0.82123000  0.82439000  0.53743000  1.0
  N  N63  1  0.17876000  0.17561000  0.46257000  1.0
  N  N64  1  0.59946000  0.88501000  0.72052000  1.0
  N  N65  1  0.40054000  0.11500000  0.27948000  1.0
  O  O66  1  0.95557000  0.66349000  0.81372000  1.0
  O  O67  1  0.04443000  0.33650000  0.18628000  1.0
  O  O68  1  0.16356000  0.48395000  0.74378000  1.0
  O  O69  1  0.83645000  0.51605000  0.25621000  1.0
  O  O70  1  0.56203000  0.59473000  0.79863000  1.0
  O  O71  1  0.43798000  0.40527000  0.20137000  1.0
  O  O72  1  0.67041000  0.36135000  0.77860000  1.0
  O  O73  1  0.32959000  0.63865000  0.22140000  1.0
  O  O74  1  0.87695000  0.51219000  0.63687000  1.0
  O  O75  1  0.12305000  0.48781000  0.36313000  1.0
