# generated using pymatgen
data_SmH13(CO)8
_symmetry_space_group_name_H-M   'P 1'
_cell_length_a   7.51790000
_cell_length_b   9.04824000
_cell_length_c   10.04160000
_cell_angle_alpha   86.54730000
_cell_angle_beta   75.67130000
_cell_angle_gamma   88.31520000
_symmetry_Int_Tables_number   1
_chemical_formula_structural   SmH13(CO)8
_chemical_formula_sum   'Sm2 H26 C16 O16'
_cell_volume   660.54297292
_cell_formula_units_Z   2
loop_
 _symmetry_equiv_pos_site_id
 _symmetry_equiv_pos_as_xyz
  1  'x, y, z'
loop_
 _atom_site_type_symbol
 _atom_site_label
 _atom_site_symmetry_multiplicity
 _atom_site_fract_x
 _atom_site_fract_y
 _atom_site_fract_z
 _atom_site_occupancy
  Sm  Sm0  1  0.74039000  0.92015000  0.01594000  1.0
  Sm  Sm1  1  0.25962000  0.07985000  0.98406000  1.0
  H  H2  1  0.85902000  0.76597000  0.73311000  1.0
  H  H3  1  0.14101000  0.23402000  0.26687000  1.0
  H  H4  1  0.23940000  0.52318000  0.69532000  1.0
  H  H5  1  0.76064000  0.47685000  0.30468000  1.0
  H  H6  1  0.15042000  0.46123000  0.87015000  1.0
  H  H7  1  0.84960000  0.53876000  0.12984000  1.0
  H  H8  1  0.30886000  0.60506000  0.83305000  1.0
  H  H9  1  0.69116000  0.39497000  0.16696000  1.0
  H  H10  1  0.33756000  0.29882000  0.41170000  1.0
  H  H11  1  0.66242000  0.70119000  0.58830000  1.0
  H  H12  1  0.56986000  0.24155000  0.40735000  1.0
  H  H13  1  0.43012000  0.75846000  0.59266000  1.0
  H  H14  1  0.38551000  0.12027000  0.47761000  1.0
  H  H15  1  0.61448000  0.87973000  0.52240000  1.0
  H  H16  1  0.15224000  0.89117000  0.32698000  1.0
  H  H17  1  0.84776000  0.10881000  0.67302000  1.0
  H  H18  1  0.96710000  0.77876000  0.42918000  1.0
  H  H19  1  0.03289000  0.22122000  0.57081000  1.0
  H  H20  1  0.94569000  0.97547000  0.41781000  1.0
  H  H21  1  0.05430000  0.02451000  0.58220000  1.0
  H  H22  1  0.14959000  0.66845000  0.09329000  1.0
  H  H23  1  0.85042000  0.33155000  0.90670000  1.0
  H  H24  1  0.30712000  0.51548000  0.09657000  1.0
  H  H25  1  0.69289000  0.48452000  0.90341000  1.0
  H  H26  1  0.22388000  0.62047000  0.24533000  1.0
  H  H27  1  0.77612000  0.37953000  0.75466000  1.0
  C  C28  1  0.42603000  0.72860000  0.08597000  1.0
  C  C29  1  0.57398000  0.27141000  0.91402000  1.0
  C  C30  1  0.03958000  0.66882000  0.81713000  1.0
  C  C31  1  0.96044000  0.33118000  0.18288000  1.0
  C  C32  1  0.19422000  0.55880000  0.80061000  1.0
  C  C33  1  0.80579000  0.44123000  0.19939000  1.0
  C  C34  1  0.43667000  0.20622000  0.39593000  1.0
  C  C35  1  0.56332000  0.79378000  0.60408000  1.0
  C  C36  1  0.45627000  0.14189000  0.25753000  1.0
  C  C37  1  0.54374000  0.85812000  0.74248000  1.0
  C  C38  1  0.92124000  0.87714000  0.23927000  1.0
  C  C39  1  0.07874000  0.12285000  0.76073000  1.0
  C  C40  1  0.26649000  0.62635000  0.13219000  1.0
  C  C41  1  0.73352000  0.37365000  0.86780000  1.0
  C  C42  1  0.00319000  0.87790000  0.36091000  1.0
  C  C43  1  0.99680000  0.12209000  0.63909000  1.0
  O  O44  1  0.60927000  0.08682000  0.19810000  1.0
  O  O45  1  0.39074000  0.91318000  0.80190000  1.0
  O  O46  1  0.77966000  0.80450000  0.24222000  1.0
  O  O47  1  0.22033000  0.19550000  0.75779000  1.0
  O  O48  1  0.31295000  0.14461000  0.20808000  1.0
  O  O49  1  0.68703000  0.85538000  0.79192000  1.0
  O  O50  1  0.97264000  0.72601000  0.92894000  1.0
  O  O51  1  0.02736000  0.27398000  0.07104000  1.0
  O  O52  1  0.39858000  0.87110000  0.08429000  1.0
  O  O53  1  0.60142000  0.12890000  0.91571000  1.0
  O  O54  1  0.58827000  0.67802000  0.05133000  1.0
  O  O55  1  0.41174000  0.32198000  0.94866000  1.0
  O  O56  1  0.97606000  0.69889000  0.70652000  1.0
  O  O57  1  0.02390000  0.30114000  0.29350000  1.0
  O  O58  1  0.99529000  0.95899000  0.13019000  1.0
  O  O59  1  0.00471000  0.04101000  0.86982000  1.0
