# generated using pymatgen
data_CoH18C22(NO)4
_symmetry_space_group_name_H-M   'P 1'
_cell_length_a   10.63170000
_cell_length_b   10.74420000
_cell_length_c   11.62130000
_cell_angle_alpha   110.47500000
_cell_angle_beta   101.20000000
_cell_angle_gamma   110.56000000
_symmetry_Int_Tables_number   1
_chemical_formula_structural   CoH18C22(NO)4
_chemical_formula_sum   'Co2 H36 C44 N8 O8'
_cell_volume   1085.67270991
_cell_formula_units_Z   2
loop_
 _symmetry_equiv_pos_site_id
 _symmetry_equiv_pos_as_xyz
  1  'x, y, z'
loop_
 _atom_site_type_symbol
 _atom_site_label
 _atom_site_symmetry_multiplicity
 _atom_site_fract_x
 _atom_site_fract_y
 _atom_site_fract_z
 _atom_site_occupancy
  Co  Co0  1  0.72478000  0.25924000  0.83476000  1.0
  Co  Co1  1  0.27521000  0.74076000  0.16523000  1.0
  H  H2  1  0.59697000  0.56596000  0.73726000  1.0
  H  H3  1  0.40303000  0.43404000  0.26274000  1.0
  H  H4  1  0.47997000  0.30385000  0.57194000  1.0
  H  H5  1  0.52002000  0.69614000  0.42806000  1.0
  H  H6  1  0.55392000  0.92706000  0.59669000  1.0
  H  H7  1  0.44608000  0.07294000  0.40331000  1.0
  H  H8  1  0.85645000  0.09540000  0.97560000  1.0
  H  H9  1  0.14355000  0.90461000  0.02440000  1.0
  H  H10  1  0.05609000  0.19199000  0.72472000  1.0
  H  H11  1  0.94391000  0.80801000  0.27528000  1.0
  H  H12  1  0.80856000  0.05453000  0.56381000  1.0
  H  H13  1  0.19144000  0.94547000  0.43619000  1.0
  H  H14  1  0.40847000  0.03417000  0.60457000  1.0
  H  H15  1  0.59153000  0.96583000  0.39543000  1.0
  H  H16  1  0.55407000  0.42839000  0.95428000  1.0
  H  H17  1  0.44593000  0.57160000  0.04572000  1.0
  H  H18  1  0.77142000  0.57047000  0.52231000  1.0
  H  H19  1  0.22859000  0.42953000  0.47770000  1.0
  H  H20  1  0.91250000  0.84576000  0.62941000  1.0
  H  H21  1  0.08750000  0.15424000  0.37059000  1.0
  H  H22  1  0.16495000  0.96778000  0.78924000  1.0
  H  H23  1  0.83505000  0.03222000  0.21076000  1.0
  H  H24  1  0.26977000  0.81091000  0.83874000  1.0
  H  H25  1  0.73023000  0.18909000  0.16126000  1.0
  H  H26  1  0.90183000  0.30638000  0.51684000  1.0
  H  H27  1  0.09817000  0.69362000  0.48317000  1.0
  H  H28  1  0.75341000  0.33634000  0.46733000  1.0
  H  H29  1  0.24659000  0.66366000  0.53268000  1.0
  H  H30  1  0.25443000  0.54655000  0.73358000  1.0
  H  H31  1  0.74557000  0.45345000  0.26642000  1.0
  H  H32  1  0.08649000  0.39412000  0.68151000  1.0
  H  H33  1  0.91351000  0.60588000  0.31848000  1.0
  H  H34  1  0.77876000  0.81425000  0.85173000  1.0
  H  H35  1  0.22124000  0.18575000  0.14827000  1.0
  H  H36  1  0.28389000  0.34365000  0.83726000  1.0
  H  H37  1  0.71611000  0.65635000  0.16274000  1.0
  C  C38  1  0.55529000  0.53861000  0.63342000  1.0
  C  C39  1  0.44472000  0.46140000  0.36659000  1.0
  C  C40  1  0.56743000  0.65168000  0.59509000  1.0
  C  C41  1  0.43256000  0.34832000  0.40492000  1.0
  C  C42  1  0.48927000  0.38971000  0.54012000  1.0
  C  C43  1  0.51073000  0.61028000  0.45989000  1.0
  C  C44  1  0.63721000  0.80881000  0.68957000  1.0
  C  C45  1  0.36279000  0.19119000  0.31043000  1.0
  C  C46  1  0.62379000  0.92807000  0.67888000  1.0
  C  C47  1  0.37621000  0.07193000  0.32112000  1.0
  C  C48  1  0.78045000  0.01944000  0.87568000  1.0
  C  C49  1  0.21955000  0.98056000  0.12432000  1.0
  C  C50  1  0.03278000  0.10911000  0.62592000  1.0
  C  C51  1  0.96721000  0.89089000  0.37407000  1.0
  C  C52  1  0.14271000  0.07914000  0.59186000  1.0
  C  C53  1  0.85729000  0.92087000  0.40814000  1.0
  C  C54  1  0.89263000  0.03113000  0.53544000  1.0
  C  C55  1  0.10737000  0.96887000  0.46455000  1.0
  C  C56  1  0.28989000  0.15726000  0.68449000  1.0
  C  C57  1  0.71011000  0.84274000  0.31551000  1.0
  C  C58  1  0.40558000  0.12663000  0.67981000  1.0
  C  C59  1  0.59443000  0.87338000  0.32019000  1.0
  C  C60  1  0.48235000  0.32966000  0.86211000  1.0
  C  C61  1  0.51765000  0.67034000  0.13789000  1.0
  C  C62  1  0.88021000  0.62408000  0.59431000  1.0
  C  C63  1  0.11979000  0.37592000  0.40569000  1.0
  C  C64  1  0.95919000  0.77902000  0.65450000  1.0
  C  C65  1  0.04081000  0.22098000  0.34551000  1.0
  C  C66  1  0.10006000  0.84703000  0.74402000  1.0
  C  C67  1  0.89994000  0.15298000  0.25598000  1.0
  C  C68  1  0.15888000  0.75856000  0.77095000  1.0
  C  C69  1  0.84111000  0.24143000  0.22905000  1.0
  C  C70  1  0.07929000  0.60261000  0.71256000  1.0
  C  C71  1  0.92071000  0.39739000  0.28744000  1.0
  C  C72  1  0.93714000  0.53407000  0.62270000  1.0
  C  C73  1  0.06286000  0.46593000  0.37730000  1.0
  C  C74  1  0.84277000  0.36782000  0.55455000  1.0
  C  C75  1  0.15723000  0.63218000  0.44546000  1.0
  C  C76  1  0.77730000  0.30303000  0.63814000  1.0
  C  C77  1  0.22271000  0.69697000  0.36187000  1.0
  C  C78  1  0.14939000  0.51424000  0.74689000  1.0
  C  C79  1  0.85061000  0.48575000  0.25311000  1.0
  C  C80  1  0.18456000  0.53739000  0.88926000  1.0
  C  C81  1  0.81544000  0.46261000  0.11073000  1.0
  N  N82  1  0.73656000  0.87008000  0.81563000  1.0
  N  N83  1  0.26343000  0.12993000  0.18437000  1.0
  N  N84  1  0.71260000  0.05722000  0.79449000  1.0
  N  N85  1  0.28739000  0.94279000  0.20551000  1.0
  N  N86  1  0.34159000  0.28583000  0.80149000  1.0
  N  N87  1  0.65842000  0.71417000  0.19851000  1.0
  N  N88  1  0.52473000  0.23528000  0.79081000  1.0
  N  N89  1  0.47526000  0.76471000  0.20919000  1.0
  O  O90  1  0.18639000  0.65348000  0.97377000  1.0
  O  O91  1  0.81361000  0.34651000  0.02622000  1.0
  O  O92  1  0.21785000  0.44670000  0.91744000  1.0
  O  O93  1  0.78215000  0.55329000  0.08255000  1.0
  O  O94  1  0.84205000  0.37619000  0.76469000  1.0
  O  O95  1  0.15795000  0.62381000  0.23531000  1.0
  O  O96  1  0.66513000  0.17973000  0.58407000  1.0
  O  O97  1  0.33486000  0.82027000  0.41594000  1.0
