# generated using pymatgen
data_HgHC2S2N2Cl
_symmetry_space_group_name_H-M   'P 1'
_cell_length_a   7.52970000
_cell_length_b   9.19601000
_cell_length_c   9.66727000
_cell_angle_alpha   89.99990000
_cell_angle_beta   89.99990000
_cell_angle_gamma   75.03000000
_symmetry_Int_Tables_number   1
_chemical_formula_structural   HgHC2S2N2Cl
_chemical_formula_sum   'Hg4 H4 C8 S8 N8 Cl4'
_cell_volume   646.67429954
_cell_formula_units_Z   4
loop_
 _symmetry_equiv_pos_site_id
 _symmetry_equiv_pos_as_xyz
  1  'x, y, z'
loop_
 _atom_site_type_symbol
 _atom_site_label
 _atom_site_symmetry_multiplicity
 _atom_site_fract_x
 _atom_site_fract_y
 _atom_site_fract_z
 _atom_site_occupancy
  Hg  Hg0  1  0.83316000  0.84507000  0.76314000  1.0
  Hg  Hg1  1  0.66685000  0.15492000  0.26314000  1.0
  Hg  Hg2  1  0.16684000  0.15493000  0.23686000  1.0
  Hg  Hg3  1  0.33315000  0.84507000  0.73686000  1.0
  H  H4  1  0.32422000  0.44094000  0.02539000  1.0
  H  H5  1  0.17578000  0.55905000  0.52539000  1.0
  H  H6  1  0.67578000  0.55906000  0.97461000  1.0
  H  H7  1  0.82422000  0.44094000  0.47461000  1.0
  C  C8  1  0.53558000  0.15521000  0.80067000  1.0
  C  C9  1  0.96442000  0.84479000  0.30068000  1.0
  C  C10  1  0.46442000  0.84480000  0.19933000  1.0
  C  C11  1  0.03557000  0.15521000  0.69934000  1.0
  C  C12  1  0.40200000  0.34550000  0.96558000  1.0
  C  C13  1  0.09801000  0.65449000  0.46558000  1.0
  C  C14  1  0.59800000  0.65449000  0.03443000  1.0
  C  C15  1  0.90199000  0.34551000  0.53442000  1.0
  S  S16  1  0.59758000  0.04092000  0.65739000  1.0
  S  S17  1  0.90243000  0.95908000  0.15739000  1.0
  S  S18  1  0.40242000  0.95909000  0.34261000  1.0
  S  S19  1  0.09757000  0.04092000  0.84261000  1.0
  S  S20  1  0.36982000  0.32656000  0.79135000  1.0
  S  S21  1  0.13019000  0.67344000  0.29134000  1.0
  S  S22  1  0.63019000  0.67345000  0.20866000  1.0
  S  S23  1  0.86980000  0.32656000  0.70866000  1.0
  N  N24  1  0.60432000  0.12396000  0.92632000  1.0
  N  N25  1  0.89569000  0.87604000  0.42631000  1.0
  N  N26  1  0.39569000  0.87604000  0.07368000  1.0
  N  N27  1  0.10431000  0.12396000  0.57367000  1.0
  N  N28  1  0.52677000  0.23289000  0.01902000  1.0
  N  N29  1  0.97325000  0.76711000  0.51901000  1.0
  N  N30  1  0.47323000  0.76712000  0.98098000  1.0
  N  N31  1  0.02676000  0.23289000  0.48098000  1.0
  Cl  Cl32  1  0.03192000  0.64203000  0.88264000  1.0
  Cl  Cl33  1  0.46808000  0.35795000  0.38264000  1.0
  Cl  Cl34  1  0.96807000  0.35796000  0.11736000  1.0
  Cl  Cl35  1  0.53192000  0.64204000  0.61736000  1.0
