# generated using pymatgen
data_CuH10C6(NO2)2
_symmetry_space_group_name_H-M   'P 1'
_cell_length_a   5.58512000
_cell_length_b   7.63994335
_cell_length_c   9.99478000
_cell_angle_alpha   80.35655413
_cell_angle_beta   89.99220000
_cell_angle_gamma   68.57993037
_symmetry_Int_Tables_number   1
_chemical_formula_structural   CuH10C6(NO2)2
_chemical_formula_sum   'Cu2 H20 C12 N4 O8'
_cell_volume   390.54275971
_cell_formula_units_Z   2
loop_
 _symmetry_equiv_pos_site_id
 _symmetry_equiv_pos_as_xyz
  1  'x, y, z'
loop_
 _atom_site_type_symbol
 _atom_site_label
 _atom_site_symmetry_multiplicity
 _atom_site_fract_x
 _atom_site_fract_y
 _atom_site_fract_z
 _atom_site_occupancy
  Cu  Cu0  1  0.22004000  0.26864000  0.14005000  1.0
  Cu  Cu1  1  0.51131000  0.26876000  0.63999000  1.0
  H  H2  1  0.76327000  0.29346000  0.18348000  1.0
  H  H3  1  0.94320000  0.29380000  0.68339000  1.0
  H  H4  1  0.19293000  0.60764000  0.12664000  1.0
  H  H5  1  0.19953000  0.60764000  0.62674000  1.0
  H  H6  1  0.12884000  0.59122000  0.96537000  1.0
  H  H7  1  0.27996000  0.59130000  0.46544000  1.0
  H  H8  1  0.78733000  0.01883000  0.34566000  1.0
  H  H9  1  0.19352000  0.01915000  0.84553000  1.0
  H  H10  1  0.03496000  0.93288000  0.47384000  1.0
  H  H11  1  0.03165000  0.93315000  0.97369000  1.0
  H  H12  1  0.79208000  0.28117000  0.43892000  1.0
  H  H13  1  0.92659000  0.28145000  0.93880000  1.0
  H  H14  1  0.89249000  0.57922000  0.30402000  1.0
  H  H15  1  0.52845000  0.57946000  0.80403000  1.0
  H  H16  1  0.57720000  0.59550000  0.25191000  1.0
  H  H17  1  0.82731000  0.59589000  0.75174000  1.0
  H  H18  1  0.70865000  0.61009000  0.01005000  1.0
  H  H19  1  0.68108000  0.61056000  0.50996000  1.0
  H  H20  1  0.75127000  0.79423000  0.08279000  1.0
  H  H21  1  0.45427000  0.79450000  0.58283000  1.0
  C  C22  1  0.15918000  0.91156000  0.27156000  1.0
  C  C23  1  0.92899000  0.91185000  0.77140000  1.0
  C  C24  1  0.97979000  0.01780000  0.37101000  1.0
  C  C25  1  0.00207000  0.01810000  0.87088000  1.0
  C  C26  1  0.95172000  0.22348000  0.37380000  1.0
  C  C27  1  0.82463000  0.22375000  0.87369000  1.0
  C  C28  1  0.19646000  0.23667000  0.43517000  1.0
  C  C29  1  0.56674000  0.23685000  0.93508000  1.0
  C  C30  1  0.78111000  0.54456000  0.22891000  1.0
  C  C31  1  0.67433000  0.54486000  0.72884000  1.0
  C  C32  1  0.81949000  0.63842000  0.08901000  1.0
  C  C33  1  0.54201000  0.63869000  0.58899000  1.0
  N  N34  1  0.88745000  0.33539000  0.23546000  1.0
  N  N35  1  0.77710000  0.33569000  0.73536000  1.0
  N  N36  1  0.09750000  0.55325000  0.06608000  1.0
  N  N37  1  0.34929000  0.55333000  0.56613000  1.0
  O  O38  1  0.26706000  0.99365000  0.18163000  1.0
  O  O39  1  0.73910000  0.99384000  0.68150000  1.0
  O  O40  1  0.19049000  0.73712000  0.28129000  1.0
  O  O41  1  0.07219000  0.73747000  0.78109000  1.0
  O  O42  1  0.36145000  0.26545000  0.35876000  1.0
  O  O43  1  0.37300000  0.26562000  0.85871000  1.0
  O  O44  1  0.21520000  0.21613000  0.56597000  1.0
  O  O45  1  0.56855000  0.21627000  0.06590000  1.0
