# generated using pymatgen
data_CuH12C14(ClO4)2
_symmetry_space_group_name_H-M   'P 1'
_cell_length_a   3.70903000
_cell_length_b   7.13274000
_cell_length_c   14.88660000
_cell_angle_alpha   78.08520000
_cell_angle_beta   87.95860000
_cell_angle_gamma   84.43850000
_symmetry_Int_Tables_number   1
_chemical_formula_structural   CuH12C14(ClO4)2
_chemical_formula_sum   'Cu1 H12 C14 Cl2 O8'
_cell_volume   383.48505077
_cell_formula_units_Z   1
loop_
 _symmetry_equiv_pos_site_id
 _symmetry_equiv_pos_as_xyz
  1  'x, y, z'
loop_
 _atom_site_type_symbol
 _atom_site_label
 _atom_site_symmetry_multiplicity
 _atom_site_fract_x
 _atom_site_fract_y
 _atom_site_fract_z
 _atom_site_occupancy
  Cu  Cu0  1  0.50000000  0.50000000  0.50000000  1.0
  H  H1  1  0.32801000  0.83111000  0.24611000  1.0
  H  H2  1  0.67198000  0.16889000  0.75389000  1.0
  H  H3  1  0.53041000  0.93811000  0.08552000  1.0
  H  H4  1  0.46958000  0.06189000  0.91448000  1.0
  H  H5  1  0.83566000  0.46359000  0.14899000  1.0
  H  H6  1  0.16434000  0.53641000  0.85100000  1.0
  H  H7  1  0.99300000  0.37382000  0.62269000  1.0
  H  H8  1  0.00700000  0.62618000  0.37731000  1.0
  H  H9  1  0.82847000  0.19347000  0.58815000  1.0
  H  H10  1  0.17153000  0.80652000  0.41185000  1.0
  H  H11  1  0.38654000  0.13207000  0.40995000  1.0
  H  H12  1  0.61345000  0.86795000  0.59004000  1.0
  C  C13  1  0.61432000  0.26546000  0.26118000  1.0
  C  C14  1  0.38569000  0.73454000  0.73882000  1.0
  C  C15  1  0.46528000  0.08680000  0.28865000  1.0
  C  C16  1  0.53473000  0.91320000  0.71135000  1.0
  C  C17  1  0.43843000  0.96963000  0.22506000  1.0
  C  C18  1  0.56159000  0.03037000  0.77494000  1.0
  C  C19  1  0.55160000  0.02979000  0.13473000  1.0
  C  C20  1  0.44839000  0.97021000  0.86527000  1.0
  C  C21  1  0.68931000  0.20870000  0.10692000  1.0
  C  C22  1  0.31068000  0.79130000  0.89308000  1.0
  C  C23  1  0.72281000  0.32576000  0.16924000  1.0
  C  C24  1  0.27719000  0.67425000  0.83076000  1.0
  C  C25  1  0.66588000  0.39025000  0.32705000  1.0
  C  C26  1  0.33413000  0.60975000  0.67295000  1.0
  Cl  Cl27  1  0.82660000  0.28033000  0.99348000  1.0
  Cl  Cl28  1  0.17341000  0.71965000  0.00652000  1.0
  O  O29  1  0.53115000  0.33328000  0.40998000  1.0
  O  O30  1  0.46886000  0.66666667  0.59001000  1.0
  O  O31  1  0.83067000  0.53876000  0.30340000  1.0
  O  O32  1  0.16934000  0.46124000  0.69660000  1.0
  O  O33  1  0.89544000  0.32786000  0.56820000  1.0
  O  O34  1  0.10456000  0.67214000  0.43180000  1.0
  O  O35  1  0.34727000  0.02493000  0.37688000  1.0
  O  O36  1  0.65271000  0.97509000  0.62311000  1.0
