# generated using pymatgen
data_Zn4H12C28O15
_symmetry_space_group_name_H-M   'P 1'
_cell_length_a   15.94460000
_cell_length_b   16.00710000
_cell_length_c   17.14500000
_cell_angle_alpha   62.26300000
_cell_angle_beta   62.98400000
_cell_angle_gamma   89.95030000
_symmetry_Int_Tables_number   1
_chemical_formula_structural   Zn4H12C28O15
_chemical_formula_sum   'Zn8 H24 C56 O30'
_cell_volume   3325.14601965
_cell_formula_units_Z   2
loop_
 _symmetry_equiv_pos_site_id
 _symmetry_equiv_pos_as_xyz
  1  'x, y, z'
loop_
 _atom_site_type_symbol
 _atom_site_label
 _atom_site_symmetry_multiplicity
 _atom_site_fract_x
 _atom_site_fract_y
 _atom_site_fract_z
 _atom_site_occupancy
  Zn  Zn0  1  0.79430000  0.89378000  0.91045000  1.0
  Zn  Zn1  1  0.39256000  0.29314000  0.91291000  1.0
  Zn  Zn2  1  0.79336000  0.69454000  0.91130000  1.0
  Zn  Zn3  1  0.20665000  0.30547000  0.08870000  1.0
  Zn  Zn4  1  0.60744000  0.70686000  0.08709000  1.0
  Zn  Zn5  1  0.20570000  0.10622000  0.08955000  1.0
  Zn  Zn6  1  0.80510000  0.70497000  0.09093000  1.0
  Zn  Zn7  1  0.19490000  0.29504000  0.90906000  1.0
  H  H8  1  0.06566000  0.54802000  0.73850000  1.0
  H  H9  1  0.02492000  0.42604000  0.35313000  1.0
  H  H10  1  0.45046000  0.36499000  0.24744000  1.0
  H  H11  1  0.54952000  0.63503000  0.75255000  1.0
  H  H12  1  0.97501000  0.57395000  0.64690000  1.0
  H  H13  1  0.10147000  0.92895000  0.40045000  1.0
  H  H14  1  0.89854000  0.07105000  0.59954000  1.0
  H  H15  1  0.33593000  0.38765000  0.59752000  1.0
  H  H16  1  0.93428000  0.45195000  0.26152000  1.0
  H  H17  1  0.66407000  0.61235000  0.40248000  1.0
  H  H18  1  0.91373000  0.68375000  0.55633000  1.0
  H  H19  1  0.08622000  0.31625000  0.44369000  1.0
  H  H20  1  0.56654000  0.36680000  0.28908000  1.0
  H  H21  1  0.43345000  0.63321000  0.71090000  1.0
  H  H22  1  0.29477000  0.40544000  0.26637000  1.0
  H  H23  1  0.10326000  0.84997000  0.65583000  1.0
  H  H24  1  0.89675000  0.15001000  0.34416000  1.0
  H  H25  1  0.29186000  0.51724000  0.45300000  1.0
  H  H26  1  0.70814000  0.48276000  0.54701000  1.0
  H  H27  1  0.70520000  0.59457000  0.73364000  1.0
  H  H28  1  0.13115000  0.68672000  0.74240000  1.0
  H  H29  1  0.86884000  0.31326000  0.25760000  1.0
  H  H30  1  0.21475000  0.48312000  0.36964000  1.0
  H  H31  1  0.78523000  0.51688000  0.63039000  1.0
  C  C32  1  0.61301000  0.60719000  0.27851000  1.0
  C  C33  1  0.90881000  0.30240000  0.29743000  1.0
  C  C34  1  0.58496000  0.53696000  0.60353000  1.0
  C  C35  1  0.02389000  0.80486000  0.60288000  1.0
  C  C36  1  0.97611000  0.19514000  0.39711000  1.0
  C  C37  1  0.41503000  0.46304000  0.39646000  1.0
  C  C38  1  0.07537000  0.78883000  0.65428000  1.0
  C  C39  1  0.92462000  0.21115000  0.34572000  1.0
  C  C40  1  0.32585000  0.48301000  0.40845000  1.0
  C  C41  1  0.67414000  0.51698000  0.59156000  1.0
  C  C42  1  0.28232000  0.46321000  0.36207000  1.0
  C  C43  1  0.71766000  0.53680000  0.63795000  1.0
  C  C44  1  0.09116000  0.69758000  0.70257000  1.0
  C  C45  1  0.05487000  0.62010000  0.70001000  1.0
  C  C46  1  0.94508000  0.37988000  0.30002000  1.0
  C  C47  1  0.32716000  0.42070000  0.30397000  1.0
  C  C48  1  0.38699000  0.39281000  0.72148000  1.0
  C  C49  1  0.67281000  0.57930000  0.69605000  1.0
  C  C50  1  0.05598000  0.95915000  0.44519000  1.0
  C  C51  1  0.94403000  0.04086000  0.55480000  1.0
  C  C52  1  0.40786000  0.43835000  0.55355000  1.0
  C  C53  1  0.59215000  0.56165000  0.44645000  1.0
  C  C54  1  0.88950000  0.88897000  0.72154000  1.0
  C  C55  1  0.04994000  0.05496000  0.39291000  1.0
  C  C56  1  0.95006000  0.94505000  0.60709000  1.0
  C  C57  1  0.44610000  0.45220000  0.60704000  1.0
  C  C58  1  0.55390000  0.54780000  0.39296000  1.0
  C  C59  1  0.11050000  0.11103000  0.27845000  1.0
  C  C60  1  0.99222000  0.09726000  0.44781000  1.0
  C  C61  1  0.00778000  0.90275000  0.55219000  1.0
  C  C62  1  0.54003000  0.51538000  0.55343000  1.0
  C  C63  1  0.45998000  0.48462000  0.44657000  1.0
  C  C64  1  0.97284000  0.52656000  0.00069000  1.0
  C  C65  1  0.02716000  0.47345000  0.99930000  1.0
  C  C66  1  0.52731000  0.97361000  0.99912000  1.0
  C  C67  1  0.47269000  0.02639000  0.00088000  1.0
  C  C68  1  0.52686000  0.52710000  0.99970000  1.0
  C  C69  1  0.47315000  0.47289000  0.00030000  1.0
  C  C70  1  0.59145000  0.90964000  0.99821000  1.0
  C  C71  1  0.40855000  0.09036000  0.00179000  1.0
  C  C72  1  0.90811000  0.59003000  0.00180000  1.0
  C  C73  1  0.09190000  0.40997000  0.99819000  1.0
  C  C74  1  0.59137000  0.59158000  0.99867000  1.0
  C  C75  1  0.40864000  0.40842000  0.00133000  1.0
  C  C76  1  0.90817000  0.90829000  0.00182000  1.0
  C  C77  1  0.09182000  0.09171000  0.99818000  1.0
  C  C78  1  0.97287000  0.97260000  0.00087000  1.0
  C  C79  1  0.02713000  0.02740000  0.99913000  1.0
  C  C80  1  0.00391000  0.63451000  0.64872000  1.0
  C  C81  1  0.99604000  0.36548000  0.35130000  1.0
  C  C82  1  0.41505000  0.39838000  0.29272000  1.0
  C  C83  1  0.58493000  0.60162000  0.70728000  1.0
  C  C84  1  0.98854000  0.72634000  0.60007000  1.0
  C  C85  1  0.01143000  0.27365000  0.39994000  1.0
  C  C86  1  0.45912000  0.41989000  0.33781000  1.0
  C  C87  1  0.54087000  0.58012000  0.66219000  1.0
  O  O88  1  0.75086000  0.74999000  0.00001000  1.0
  O  O89  1  0.29409000  0.37068000  0.76323000  1.0
  O  O90  1  0.87200000  0.93886000  0.76497000  1.0
  O  O91  1  0.12800000  0.06114000  0.23503000  1.0
  O  O92  1  0.54965000  0.81840000  0.06051000  1.0
  O  O93  1  0.45036000  0.18160000  0.93948000  1.0
  O  O94  1  0.87561000  0.60777000  0.94181000  1.0
  O  O95  1  0.12439000  0.39223000  0.05818000  1.0
  O  O96  1  0.24914000  0.25001000  0.99999000  1.0
  O  O97  1  0.55005000  0.62416000  0.05775000  1.0
  O  O98  1  0.44996000  0.37584000  0.94225000  1.0
  O  O99  1  0.68232000  0.60829000  0.93875000  1.0
  O  O100  1  0.31769000  0.39171000  0.06125000  1.0
  O  O101  1  0.88889000  0.81695000  0.06427000  1.0
  O  O102  1  0.11111000  0.18305000  0.93573000  1.0
  O  O103  1  0.87765000  0.95038000  0.93996000  1.0
  O  O104  1  0.12234000  0.04962000  0.06005000  1.0
  O  O105  1  0.68238000  0.95137000  0.93542000  1.0
  O  O106  1  0.31763000  0.04863000  0.06457000  1.0
  O  O107  1  0.89086000  0.62083000  0.06257000  1.0
  O  O108  1  0.10914000  0.37918000  0.93742000  1.0
  O  O109  1  0.56574000  0.63397000  0.23168000  1.0
  O  O110  1  0.43426000  0.36604000  0.76832000  1.0
  O  O111  1  0.85771000  0.79640000  0.76699000  1.0
  O  O112  1  0.14229000  0.20360000  0.23301000  1.0
  O  O113  1  0.70592000  0.62932000  0.23676000  1.0
  O  O114  1  0.93738000  0.74382000  0.55024000  1.0
  O  O115  1  0.06260000  0.25619000  0.44976000  1.0
  O  O116  1  0.54670000  0.40056000  0.32674000  1.0
  O  O117  1  0.45329000  0.59944000  0.67325000  1.0
