# generated using pymatgen
data_Mn2H4WC8(N4O)2
_symmetry_space_group_name_H-M   'P 1'
_cell_length_a   12.75420000
_cell_length_b   13.21450000
_cell_length_c   13.71700000
_cell_angle_alpha   113.07800000
_cell_angle_beta   111.80500000
_cell_angle_gamma   101.10200000
_symmetry_Int_Tables_number   1
_chemical_formula_structural   Mn2H4WC8(N4O)2
_chemical_formula_sum   'Mn8 H16 W4 C32 N32 O8'
_cell_volume   1813.34106673
_cell_formula_units_Z   4
loop_
 _symmetry_equiv_pos_site_id
 _symmetry_equiv_pos_as_xyz
  1  'x, y, z'
loop_
 _atom_site_type_symbol
 _atom_site_label
 _atom_site_symmetry_multiplicity
 _atom_site_fract_x
 _atom_site_fract_y
 _atom_site_fract_z
 _atom_site_occupancy
  Mn  Mn0  1  0.39729000  0.13994000  0.89240000  1.0
  Mn  Mn1  1  0.23602000  0.77712000  0.32422000  1.0
  Mn  Mn2  1  0.41219000  0.45303000  0.67623000  1.0
  Mn  Mn3  1  0.76397000  0.22287000  0.67579000  1.0
  Mn  Mn4  1  0.99552000  0.75242000  0.89232000  1.0
  Mn  Mn5  1  0.00447000  0.24758000  0.10767000  1.0
  Mn  Mn6  1  0.58782000  0.54698000  0.32378000  1.0
  Mn  Mn7  1  0.60270000  0.86006000  0.10758000  1.0
  H  H8  1  0.20004000  0.95153000  0.68188000  1.0
  H  H9  1  0.12891000  0.87752000  0.47346000  1.0
  H  H10  1  0.84438000  0.59609000  0.47308000  1.0
  H  H11  1  0.15560000  0.40390000  0.52691000  1.0
  H  H12  1  0.84727000  0.02894000  0.22337000  1.0
  H  H13  1  0.15272000  0.97104000  0.77663000  1.0
  H  H14  1  0.87566000  0.19431000  0.22354000  1.0
  H  H15  1  0.87110000  0.12248000  0.52655000  1.0
  H  H16  1  0.98239000  0.73025000  0.68170000  1.0
  H  H17  1  0.19636000  0.42954000  0.44247000  1.0
  H  H18  1  0.80363000  0.57044000  0.55752000  1.0
  H  H19  1  0.12433000  0.80567000  0.77643000  1.0
  H  H20  1  0.74586000  0.01264000  0.44246000  1.0
  H  H21  1  0.25416000  0.98735000  0.55755000  1.0
  H  H22  1  0.01760000  0.26974000  0.31829000  1.0
  H  H23  1  0.79997000  0.04847000  0.31813000  1.0
  W  W24  1  0.78923000  0.53901000  0.07804000  1.0
  W  W25  1  0.39045000  0.14076000  0.28144000  1.0
  W  W26  1  0.60954000  0.85924000  0.71856000  1.0
  W  W27  1  0.21077000  0.46099000  0.92196000  1.0
  C  C28  1  0.24581000  0.19989000  0.22571000  1.0
  C  C29  1  0.52023000  0.97380000  0.77391000  1.0
  C  C30  1  0.50103000  0.31578000  0.33461000  1.0
  C  C31  1  0.23857000  0.44126000  0.77359000  1.0
  C  C32  1  0.75420000  0.80012000  0.77430000  1.0
  C  C33  1  0.37614000  0.24523000  0.43648000  1.0
  C  C34  1  0.74168000  0.69071000  0.13475000  1.0
  C  C35  1  0.63247000  0.51120000  0.92379000  1.0
  C  C36  1  0.96507000  0.66780000  0.22685000  1.0
  C  C37  1  0.12421000  0.36157000  0.98184000  1.0
  C  C38  1  0.60633000  0.85890000  0.87345000  1.0
  C  C39  1  0.76143000  0.55875000  0.22640000  1.0
  C  C40  1  0.87580000  0.63844000  0.01817000  1.0
  C  C41  1  0.89352000  0.44443000  0.13523000  1.0
  C  C42  1  0.64306000  0.37945000  0.01809000  1.0
  C  C43  1  0.39366000  0.14109000  0.12655000  1.0
  C  C44  1  0.62385000  0.75476000  0.56353000  1.0
  C  C45  1  0.44030000  0.80855000  0.56338000  1.0
  C  C46  1  0.23261000  0.98548000  0.12667000  1.0
  C  C47  1  0.79210000  0.41245000  0.92395000  1.0
  C  C48  1  0.35694000  0.62055000  0.98191000  1.0
  C  C49  1  0.55970000  0.19144000  0.43662000  1.0
  C  C50  1  0.49897000  0.68422000  0.66539000  1.0
  C  C51  1  0.36754000  0.48880000  0.07623000  1.0
  C  C52  1  0.76739000  0.01452000  0.87332000  1.0
  C  C53  1  0.25832000  0.30930000  0.86524000  1.0
  C  C54  1  0.47977000  0.02620000  0.22609000  1.0
  C  C55  1  0.20791000  0.58756000  0.07605000  1.0
  C  C56  1  0.03494000  0.33222000  0.77317000  1.0
  C  C57  1  0.10650000  0.55559000  0.86478000  1.0
  C  C58  1  0.66666667  0.98087000  0.66499000  1.0
  C  C59  1  0.33333333  0.01912000  0.33501000  1.0
  N  N60  1  0.45066000  0.50773000  0.16525000  1.0
  N  N61  1  0.06424000  0.73844000  0.30746000  1.0
  N  N62  1  0.47013000  0.03568000  0.80329000  1.0
  N  N63  1  0.54933000  0.49227000  0.83476000  1.0
  N  N64  1  0.69991000  0.05473000  0.64337000  1.0
  N  N65  1  0.70915000  0.77007000  0.15709000  1.0
  N  N66  1  0.16635000  0.23236000  0.19626000  1.0
  N  N67  1  0.55587000  0.41114000  0.35601000  1.0
  N  N68  1  0.44414000  0.58887000  0.64402000  1.0
  N  N69  1  0.37607000  0.30691000  0.52549000  1.0
  N  N70  1  0.94834000  0.38751000  0.15789000  1.0
  N  N71  1  0.25726000  0.43133000  0.69298000  1.0
  N  N72  1  0.14595000  0.90232000  0.04055000  1.0
  N  N73  1  0.07515000  0.30758000  0.01381000  1.0
  N  N74  1  0.62391000  0.69307000  0.47451000  1.0
  N  N75  1  0.05169000  0.61252000  0.84212000  1.0
  N  N76  1  0.43789000  0.70653000  0.01391000  1.0
  N  N77  1  0.60551000  0.86183000  0.95952000  1.0
  N  N78  1  0.92486000  0.69241000  0.98619000  1.0
  N  N79  1  0.74272000  0.56866000  0.30700000  1.0
  N  N80  1  0.78594000  0.34218000  0.83478000  1.0
  N  N81  1  0.39448000  0.13817000  0.04047000  1.0
  N  N82  1  0.52987000  0.96432000  0.19670000  1.0
  N  N83  1  0.93576000  0.26157000  0.69256000  1.0
  N  N84  1  0.21407000  0.65783000  0.16522000  1.0
  N  N85  1  0.56211000  0.29346000  0.98607000  1.0
  N  N86  1  0.35125000  0.78125000  0.47445000  1.0
  N  N87  1  0.83365000  0.76765000  0.80375000  1.0
  N  N88  1  0.85405000  0.09768000  0.95943000  1.0
  N  N89  1  0.64875000  0.21874000  0.52556000  1.0
  N  N90  1  0.29085000  0.22993000  0.84290000  1.0
  N  N91  1  0.30007000  0.94527000  0.35664000  1.0
  O  O92  1  0.22406000  0.96754000  0.76668000  1.0
  O  O93  1  0.87618000  0.60313000  0.55359000  1.0
  O  O94  1  0.17784000  0.95093000  0.55396000  1.0
  O  O95  1  0.04301000  0.79890000  0.76651000  1.0
  O  O96  1  0.12381000  0.39686000  0.44639000  1.0
  O  O97  1  0.82218000  0.04907000  0.44605000  1.0
  O  O98  1  0.95698000  0.20110000  0.23346000  1.0
  O  O99  1  0.77595000  0.03245000  0.23333000  1.0
