# generated using pymatgen
data_ZnH14C18(NO2)2
_symmetry_space_group_name_H-M   'P 1'
_cell_length_a   13.71490000
_cell_length_b   13.79260000
_cell_length_c   21.57630000
_cell_angle_alpha   90.00030000
_cell_angle_beta   89.99970000
_cell_angle_gamma   89.99970000
_symmetry_Int_Tables_number   1
_chemical_formula_structural   ZnH14C18(NO2)2
_chemical_formula_sum   'Zn8 H112 C144 N16 O32'
_cell_volume   4081.46201234
_cell_formula_units_Z   8
loop_
 _symmetry_equiv_pos_site_id
 _symmetry_equiv_pos_as_xyz
  1  'x, y, z'
loop_
 _atom_site_type_symbol
 _atom_site_label
 _atom_site_symmetry_multiplicity
 _atom_site_fract_x
 _atom_site_fract_y
 _atom_site_fract_z
 _atom_site_occupancy
  Zn  Zn0  1  0.53197000  0.10196000  0.94274000  1.0
  Zn  Zn1  1  0.46804000  0.60196000  0.55726000  1.0
  Zn  Zn2  1  0.46805000  0.89804000  0.05726000  1.0
  Zn  Zn3  1  0.53196000  0.39803000  0.44274000  1.0
  Zn  Zn4  1  0.96804000  0.89803000  0.44274000  1.0
  Zn  Zn5  1  0.03196000  0.39803000  0.05726000  1.0
  Zn  Zn6  1  0.03196000  0.10195000  0.55726000  1.0
  Zn  Zn7  1  0.96804000  0.60196000  0.94274000  1.0
  H  H8  1  0.48386000  0.39199000  0.81760000  1.0
  H  H9  1  0.54324000  0.21106000  0.74292000  1.0
  H  H10  1  0.48546000  0.42239000  0.70340000  1.0
  H  H11  1  0.55695000  0.24579000  0.62832000  1.0
  H  H12  1  0.36578000  0.03306000  0.86247000  1.0
  H  H13  1  0.18462000  0.02613000  0.86059000  1.0
  H  H14  1  0.18600000  0.17407000  0.03723000  1.0
  H  H15  1  0.36809000  0.17511000  0.03114000  1.0
  H  H16  1  0.03786000  0.13673000  0.99772000  1.0
  H  H17  1  0.02161000  0.03007000  0.87216000  1.0
  H  H18  1  0.71484000  0.14972000  0.02271000  1.0
  H  H19  1  0.89532000  0.13966000  0.01548000  1.0
  H  H20  1  0.85634000  0.00935000  0.83429000  1.0
  H  H21  1  0.67636000  0.02801000  0.84980000  1.0
  H  H22  1  0.51615000  0.89200000  0.68241000  1.0
  H  H23  1  0.45679000  0.71106000  0.75708000  1.0
  H  H24  1  0.51457000  0.92239000  0.79661000  1.0
  H  H25  1  0.44309000  0.74579000  0.87169000  1.0
  H  H26  1  0.63422000  0.53304000  0.63754000  1.0
  H  H27  1  0.81537000  0.52611000  0.63942000  1.0
  H  H28  1  0.81400000  0.67406000  0.46278000  1.0
  H  H29  1  0.63191000  0.67510000  0.46887000  1.0
  H  H30  1  0.96212000  0.63672000  0.50228000  1.0
  H  H31  1  0.97840000  0.53007000  0.62784000  1.0
  H  H32  1  0.28516000  0.64971000  0.47729000  1.0
  H  H33  1  0.10469000  0.63966000  0.48452000  1.0
  H  H34  1  0.14367000  0.50937000  0.66571000  1.0
  H  H35  1  0.32364000  0.52802000  0.65021000  1.0
  H  H36  1  0.51611000  0.60803000  0.18241000  1.0
  H  H37  1  0.45675000  0.78895000  0.25710000  1.0
  H  H38  1  0.51454000  0.57761000  0.29661000  1.0
  H  H39  1  0.44306000  0.75420000  0.37170000  1.0
  H  H40  1  0.63423000  0.96696000  0.13753000  1.0
  H  H41  1  0.81538000  0.97390000  0.13940000  1.0
  H  H42  1  0.81401000  0.82594000  0.96278000  1.0
  H  H43  1  0.63193000  0.82490000  0.96886000  1.0
  H  H44  1  0.96214000  0.86328000  0.00228000  1.0
  H  H45  1  0.97841000  0.96993000  0.12784000  1.0
  H  H46  1  0.28518000  0.85029000  0.97729000  1.0
  H  H47  1  0.10470000  0.86035000  0.98452000  1.0
  H  H48  1  0.14368000  0.99065000  0.16571000  1.0
  H  H49  1  0.32365000  0.97198000  0.15021000  1.0
  H  H50  1  0.48386000  0.10801000  0.31759000  1.0
  H  H51  1  0.54322000  0.28894000  0.24292000  1.0
  H  H52  1  0.48546000  0.07761000  0.20339000  1.0
  H  H53  1  0.55694000  0.25421000  0.12831000  1.0
  H  H54  1  0.36578000  0.46697000  0.36247000  1.0
  H  H55  1  0.18463000  0.47389000  0.36058000  1.0
  H  H56  1  0.18599000  0.32594000  0.53721000  1.0
  H  H57  1  0.36808000  0.32491000  0.53113000  1.0
  H  H58  1  0.03787000  0.36328000  0.49772000  1.0
  H  H59  1  0.02158000  0.46992000  0.37215000  1.0
  H  H60  1  0.71482000  0.35029000  0.52272000  1.0
  H  H61  1  0.89530000  0.36034000  0.51549000  1.0
  H  H62  1  0.85632000  0.49062000  0.33429000  1.0
  H  H63  1  0.67634000  0.47198000  0.34980000  1.0
  H  H64  1  0.01611000  0.60801000  0.31758000  1.0
  H  H65  1  0.95678000  0.78895000  0.24290000  1.0
  H  H66  1  0.01454000  0.57761000  0.20339000  1.0
  H  H67  1  0.94308000  0.75421000  0.12830000  1.0
  H  H68  1  0.13422000  0.96696000  0.36247000  1.0
  H  H69  1  0.31537000  0.97389000  0.36058000  1.0
  H  H70  1  0.31400000  0.82593000  0.53722000  1.0
  H  H71  1  0.13192000  0.82490000  0.53113000  1.0
  H  H72  1  0.46213000  0.86326000  0.49771000  1.0
  H  H73  1  0.47841000  0.96993000  0.37216000  1.0
  H  H74  1  0.78516000  0.85028000  0.52271000  1.0
  H  H75  1  0.60469000  0.86034000  0.51548000  1.0
  H  H76  1  0.64367000  0.99063000  0.33429000  1.0
  H  H77  1  0.82365000  0.97198000  0.34980000  1.0
  H  H78  1  0.98388000  0.10801000  0.18241000  1.0
  H  H79  1  0.04323000  0.28895000  0.25709000  1.0
  H  H80  1  0.98545000  0.07761000  0.29661000  1.0
  H  H81  1  0.05693000  0.25420000  0.37170000  1.0
  H  H82  1  0.86579000  0.46696000  0.13753000  1.0
  H  H83  1  0.68464000  0.47389000  0.13942000  1.0
  H  H84  1  0.68599000  0.32594000  0.96278000  1.0
  H  H85  1  0.86808000  0.32490000  0.96886000  1.0
  H  H86  1  0.53788000  0.36328000  0.00228000  1.0
  H  H87  1  0.52158000  0.46990000  0.12785000  1.0
  H  H88  1  0.21483000  0.35029000  0.97728000  1.0
  H  H89  1  0.39531000  0.36033000  0.98451000  1.0
  H  H90  1  0.35632000  0.49060000  0.16571000  1.0
  H  H91  1  0.17635000  0.47197000  0.15020000  1.0
  H  H92  1  0.98387000  0.39199000  0.68240000  1.0
  H  H93  1  0.04321000  0.21104000  0.75708000  1.0
  H  H94  1  0.98544000  0.42238000  0.79660000  1.0
  H  H95  1  0.05690000  0.24578000  0.87169000  1.0
  H  H96  1  0.86577000  0.03301000  0.63753000  1.0
  H  H97  1  0.68461000  0.02610000  0.63940000  1.0
  H  H98  1  0.68600000  0.17408000  0.46278000  1.0
  H  H99  1  0.86809000  0.17511000  0.46887000  1.0
  H  H100  1  0.53787000  0.13674000  0.50228000  1.0
  H  H101  1  0.52159000  0.03008000  0.62783000  1.0
  H  H102  1  0.21482000  0.14970000  0.47728000  1.0
  H  H103  1  0.39530000  0.13966000  0.48452000  1.0
  H  H104  1  0.35633000  0.00936000  0.66570000  1.0
  H  H105  1  0.17636000  0.02801000  0.65020000  1.0
  H  H106  1  0.01613000  0.89201000  0.81758000  1.0
  H  H107  1  0.95675000  0.71106000  0.74292000  1.0
  H  H108  1  0.01454000  0.92239000  0.70339000  1.0
  H  H109  1  0.94306000  0.74578000  0.62831000  1.0
  H  H110  1  0.13423000  0.53303000  0.86247000  1.0
  H  H111  1  0.31539000  0.52611000  0.86059000  1.0
  H  H112  1  0.31400000  0.67407000  0.03723000  1.0
  H  H113  1  0.13191000  0.67510000  0.03113000  1.0
  H  H114  1  0.46213000  0.63673000  0.99773000  1.0
  H  H115  1  0.47840000  0.53008000  0.87217000  1.0
  H  H116  1  0.78517000  0.64972000  0.02271000  1.0
  H  H117  1  0.60469000  0.63967000  0.01548000  1.0
  H  H118  1  0.64367000  0.50935000  0.83430000  1.0
  H  H119  1  0.82365000  0.52800000  0.84980000  1.0
  C  C120  1  0.51498000  0.25389000  0.86397000  1.0
  C  C121  1  0.50488000  0.31690000  0.80851000  1.0
  C  C122  1  0.52155000  0.28661000  0.74992000  1.0
  C  C123  1  0.51109000  0.34796000  0.69641000  1.0
  C  C124  1  0.53024000  0.31873000  0.63786000  1.0
  C  C125  1  0.51622000  0.38284000  0.58344000  1.0
  C  C126  1  0.32275000  0.06303000  0.90040000  1.0
  C  C127  1  0.22167000  0.05996000  0.89971000  1.0
  C  C128  1  0.16904000  0.09951000  0.94976000  1.0
  C  C129  1  0.22368000  0.14169000  0.99783000  1.0
  C  C130  1  0.32467000  0.14190000  0.99473000  1.0
  C  C131  1  0.06352000  0.10101000  0.95559000  1.0
  C  C132  1  0.99772000  0.06566000  0.91481000  1.0
  C  C133  1  0.74995000  0.11982000  0.98168000  1.0
  C  C134  1  0.85056000  0.11366000  0.97710000  1.0
  C  C135  1  0.89269000  0.07370000  0.92331000  1.0
  C  C136  1  0.82823000  0.04176000  0.87681000  1.0
  C  C137  1  0.72823000  0.05162000  0.88495000  1.0
  C  C138  1  0.48504000  0.75391000  0.63603000  1.0
  C  C139  1  0.49514000  0.81691000  0.69150000  1.0
  C  C140  1  0.47848000  0.78661000  0.75008000  1.0
  C  C141  1  0.48894000  0.84796000  0.80360000  1.0
  C  C142  1  0.46979000  0.81873000  0.86214000  1.0
  C  C143  1  0.48379000  0.88285000  0.91656000  1.0
  C  C144  1  0.67725000  0.56301000  0.59961000  1.0
  C  C145  1  0.77833000  0.55994000  0.60030000  1.0
  C  C146  1  0.83096000  0.59950000  0.55024000  1.0
  C  C147  1  0.77632000  0.64168000  0.50218000  1.0
  C  C148  1  0.67533000  0.64189000  0.50527000  1.0
  C  C149  1  0.93648000  0.60100000  0.54441000  1.0
  C  C150  1  0.00228000  0.56566000  0.58520000  1.0
  C  C151  1  0.25005000  0.61981000  0.51832000  1.0
  C  C152  1  0.14945000  0.61366000  0.52289000  1.0
  C  C153  1  0.10731000  0.57370000  0.57668000  1.0
  C  C154  1  0.17178000  0.54177000  0.62319000  1.0
  C  C155  1  0.27178000  0.55163000  0.61505000  1.0
  C  C156  1  0.48501000  0.74613000  0.13605000  1.0
  C  C157  1  0.49510000  0.68312000  0.19150000  1.0
  C  C158  1  0.47844000  0.71340000  0.25009000  1.0
  C  C159  1  0.48891000  0.65204000  0.30360000  1.0
  C  C160  1  0.46976000  0.68126000  0.36215000  1.0
  C  C161  1  0.48378000  0.61715000  0.41657000  1.0
  C  C162  1  0.67726000  0.93699000  0.09960000  1.0
  C  C163  1  0.77834000  0.94007000  0.10029000  1.0
  C  C164  1  0.83097000  0.90050000  0.05024000  1.0
  C  C165  1  0.77632000  0.85831000  0.00217000  1.0
  C  C166  1  0.67534000  0.85811000  0.00527000  1.0
  C  C167  1  0.93650000  0.89900000  0.04441000  1.0
  C  C168  1  0.00230000  0.93435000  0.08519000  1.0
  C  C169  1  0.25007000  0.88019000  0.01832000  1.0
  C  C170  1  0.14946000  0.88634000  0.02290000  1.0
  C  C171  1  0.10732000  0.92630000  0.07668000  1.0
  C  C172  1  0.17180000  0.95824000  0.12319000  1.0
  C  C173  1  0.27179000  0.94838000  0.11506000  1.0
  C  C174  1  0.51496000  0.24610000  0.36397000  1.0
  C  C175  1  0.50488000  0.18310000  0.30850000  1.0
  C  C176  1  0.52154000  0.21339000  0.24992000  1.0
  C  C177  1  0.51108000  0.15204000  0.19640000  1.0
  C  C178  1  0.53024000  0.18127000  0.13786000  1.0
  C  C179  1  0.51623000  0.11715000  0.08343000  1.0
  C  C180  1  0.32275000  0.43699000  0.40039000  1.0
  C  C181  1  0.22167000  0.44006000  0.39970000  1.0
  C  C182  1  0.16903000  0.40050000  0.44975000  1.0
  C  C183  1  0.22368000  0.35832000  0.49782000  1.0
  C  C184  1  0.32467000  0.35812000  0.49472000  1.0
  C  C185  1  0.06351000  0.39900000  0.45558000  1.0
  C  C186  1  0.99770000  0.43434000  0.41480000  1.0
  C  C187  1  0.74993000  0.38019000  0.48168000  1.0
  C  C188  1  0.85054000  0.38634000  0.47710000  1.0
  C  C189  1  0.89267000  0.42629000  0.42332000  1.0
  C  C190  1  0.82821000  0.45822000  0.37682000  1.0
  C  C191  1  0.72821000  0.44836000  0.38495000  1.0
  C  C192  1  0.98502000  0.74611000  0.36396000  1.0
  C  C193  1  0.99510000  0.68310000  0.30850000  1.0
  C  C194  1  0.97846000  0.71339000  0.24991000  1.0
  C  C195  1  0.98892000  0.65204000  0.19640000  1.0
  C  C196  1  0.96978000  0.68127000  0.13785000  1.0
  C  C197  1  0.98379000  0.61715000  0.08343000  1.0
  C  C198  1  0.17725000  0.93699000  0.40039000  1.0
  C  C199  1  0.27833000  0.94006000  0.39970000  1.0
  C  C200  1  0.33096000  0.90050000  0.44975000  1.0
  C  C201  1  0.27632000  0.85831000  0.49782000  1.0
  C  C202  1  0.17533000  0.85811000  0.49473000  1.0
  C  C203  1  0.43648000  0.89899000  0.45558000  1.0
  C  C204  1  0.50229000  0.93434000  0.41480000  1.0
  C  C205  1  0.75005000  0.88018000  0.48169000  1.0
  C  C206  1  0.64945000  0.88634000  0.47711000  1.0
  C  C207  1  0.60732000  0.92629000  0.42332000  1.0
  C  C208  1  0.67179000  0.95822000  0.37682000  1.0
  C  C209  1  0.77178000  0.94837000  0.38495000  1.0
  C  C210  1  0.01498000  0.24612000  0.13604000  1.0
  C  C211  1  0.00490000  0.18311000  0.19150000  1.0
  C  C212  1  0.02154000  0.21339000  0.25009000  1.0
  C  C213  1  0.01108000  0.15204000  0.30360000  1.0
  C  C214  1  0.03023000  0.18126000  0.36215000  1.0
  C  C215  1  0.01621000  0.11714000  0.41657000  1.0
  C  C216  1  0.82275000  0.43699000  0.09961000  1.0
  C  C217  1  0.72168000  0.44006000  0.10030000  1.0
  C  C218  1  0.66904000  0.40050000  0.05025000  1.0
  C  C219  1  0.72368000  0.35832000  0.00218000  1.0
  C  C220  1  0.82467000  0.35811000  0.00527000  1.0
  C  C221  1  0.56352000  0.39900000  0.04441000  1.0
  C  C222  1  0.49771000  0.43433000  0.08520000  1.0
  C  C223  1  0.24994000  0.38018000  0.01831000  1.0
  C  C224  1  0.35055000  0.38633000  0.02289000  1.0
  C  C225  1  0.39268000  0.42628000  0.07668000  1.0
  C  C226  1  0.32821000  0.45820000  0.12318000  1.0
  C  C227  1  0.22821000  0.44836000  0.11505000  1.0
  C  C228  1  0.01497000  0.25389000  0.63603000  1.0
  C  C229  1  0.00488000  0.31689000  0.69149000  1.0
  C  C230  1  0.02152000  0.28660000  0.75008000  1.0
  C  C231  1  0.01106000  0.34795000  0.80359000  1.0
  C  C232  1  0.03021000  0.31872000  0.86214000  1.0
  C  C233  1  0.01621000  0.38285000  0.91656000  1.0
  C  C234  1  0.82274000  0.06300000  0.59960000  1.0
  C  C235  1  0.72166000  0.05993000  0.60029000  1.0
  C  C236  1  0.66903000  0.09950000  0.55024000  1.0
  C  C237  1  0.72369000  0.14170000  0.50217000  1.0
  C  C238  1  0.82467000  0.14189000  0.50528000  1.0
  C  C239  1  0.56351000  0.10101000  0.54441000  1.0
  C  C240  1  0.49771000  0.06566000  0.58519000  1.0
  C  C241  1  0.24994000  0.11981000  0.51831000  1.0
  C  C242  1  0.35055000  0.11366000  0.52289000  1.0
  C  C243  1  0.39268000  0.07370000  0.57668000  1.0
  C  C244  1  0.32821000  0.04176000  0.62319000  1.0
  C  C245  1  0.22822000  0.05161000  0.61505000  1.0
  C  C246  1  0.98504000  0.75393000  0.86398000  1.0
  C  C247  1  0.99511000  0.81692000  0.80850000  1.0
  C  C248  1  0.97845000  0.78662000  0.74992000  1.0
  C  C249  1  0.98891000  0.84795000  0.69640000  1.0
  C  C250  1  0.96976000  0.81873000  0.63785000  1.0
  C  C251  1  0.98378000  0.88283000  0.58343000  1.0
  C  C252  1  0.17726000  0.56301000  0.90040000  1.0
  C  C253  1  0.27834000  0.55994000  0.89972000  1.0
  C  C254  1  0.33096000  0.59951000  0.94976000  1.0
  C  C255  1  0.27632000  0.64169000  0.99783000  1.0
  C  C256  1  0.17533000  0.64189000  0.99473000  1.0
  C  C257  1  0.43649000  0.60101000  0.95559000  1.0
  C  C258  1  0.50229000  0.56566000  0.91481000  1.0
  C  C259  1  0.75006000  0.61982000  0.98169000  1.0
  C  C260  1  0.64945000  0.61366000  0.97710000  1.0
  C  C261  1  0.60732000  0.57370000  0.92332000  1.0
  C  C262  1  0.67178000  0.54176000  0.87682000  1.0
  C  C263  1  0.77178000  0.55162000  0.88495000  1.0
  N  N264  1  0.37433000  0.10268000  0.94729000  1.0
  N  N265  1  0.68895000  0.09011000  0.93659000  1.0
  N  N266  1  0.62567000  0.60267000  0.55271000  1.0
  N  N267  1  0.31106000  0.59011000  0.56341000  1.0
  N  N268  1  0.62568000  0.89733000  0.05271000  1.0
  N  N269  1  0.31107000  0.90989000  0.06341000  1.0
  N  N270  1  0.37432000  0.39734000  0.44728000  1.0
  N  N271  1  0.68893000  0.40989000  0.43660000  1.0
  N  N272  1  0.12567000  0.89733000  0.44729000  1.0
  N  N273  1  0.81106000  0.90988000  0.43660000  1.0
  N  N274  1  0.87433000  0.39733000  0.05271000  1.0
  N  N275  1  0.18893000  0.40988000  0.06340000  1.0
  N  N276  1  0.87433000  0.10266000  0.55272000  1.0
  N  N277  1  0.18893000  0.09010000  0.56340000  1.0
  N  N278  1  0.12568000  0.60266000  0.94729000  1.0
  N  N279  1  0.81106000  0.59011000  0.93659000  1.0
  O  O280  1  0.52828000  0.16238000  0.85517000  1.0
  O  O281  1  0.50990000  0.29272000  0.91698000  1.0
  O  O282  1  0.47209000  0.46275000  0.59160000  1.0
  O  O283  1  0.54887000  0.35039000  0.53184000  1.0
  O  O284  1  0.47173000  0.66240000  0.64483000  1.0
  O  O285  1  0.49014000  0.79274000  0.58302000  1.0
  O  O286  1  0.52792000  0.96276000  0.90840000  1.0
  O  O287  1  0.45113000  0.85040000  0.96817000  1.0
  O  O288  1  0.47173000  0.83765000  0.14486000  1.0
  O  O289  1  0.49008000  0.70732000  0.08303000  1.0
  O  O290  1  0.52791000  0.53724000  0.40840000  1.0
  O  O291  1  0.45112000  0.64959000  0.46817000  1.0
  O  O292  1  0.52828000  0.33761000  0.35517000  1.0
  O  O293  1  0.50984000  0.20727000  0.41698000  1.0
  O  O294  1  0.47209000  0.03725000  0.09160000  1.0
  O  O295  1  0.54890000  0.14960000  0.03183000  1.0
  O  O296  1  0.97174000  0.83762000  0.35516000  1.0
  O  O297  1  0.99009000  0.70727000  0.41697000  1.0
  O  O298  1  0.02792000  0.53724000  0.09159000  1.0
  O  O299  1  0.95112000  0.64960000  0.03183000  1.0
  O  O300  1  0.02828000  0.33763000  0.14484000  1.0
  O  O301  1  0.00990000  0.20729000  0.08302000  1.0
  O  O302  1  0.97208000  0.03723000  0.40839000  1.0
  O  O303  1  0.04887000  0.14958000  0.46817000  1.0
  O  O304  1  0.02827000  0.16238000  0.64483000  1.0
  O  O305  1  0.00989000  0.29272000  0.58302000  1.0
  O  O306  1  0.97209000  0.46276000  0.90839000  1.0
  O  O307  1  0.04887000  0.35040000  0.96816000  1.0
  O  O308  1  0.97172000  0.66242000  0.85518000  1.0
  O  O309  1  0.99015000  0.79278000  0.91698000  1.0
  O  O310  1  0.02791000  0.96274000  0.59160000  1.0
  O  O311  1  0.95112000  0.85038000  0.53183000  1.0
