# generated using pymatgen
data_Co2H19C25N3O8
_symmetry_space_group_name_H-M   'P 1'
_cell_length_a   15.65316692
_cell_length_b   15.65400000
_cell_length_c   21.50160000
_cell_angle_alpha   90.00000000
_cell_angle_beta   90.00010001
_cell_angle_gamma   119.99528099
_symmetry_Int_Tables_number   1
_chemical_formula_structural   Co2H19C25N3O8
_chemical_formula_sum   'Co12 H114 C150 N18 O48'
_cell_volume   4562.99092964
_cell_formula_units_Z   6
loop_
 _symmetry_equiv_pos_site_id
 _symmetry_equiv_pos_as_xyz
  1  'x, y, z'
loop_
 _atom_site_type_symbol
 _atom_site_label
 _atom_site_symmetry_multiplicity
 _atom_site_fract_x
 _atom_site_fract_y
 _atom_site_fract_z
 _atom_site_occupancy
  Co  Co0  1  0.52542000  0.70587000  0.82356000  1.0
  Co  Co1  1  0.70574000  0.18028000  0.65677000  1.0
  Co  Co2  1  0.18036000  0.47446000  0.49025000  1.0
  Co  Co3  1  0.47459000  0.29414000  0.32356000  1.0
  Co  Co4  1  0.29426000  0.81971000  0.15677000  1.0
  Co  Co5  1  0.81965000  0.52555000  0.99025000  1.0
  Co  Co6  1  0.44402000  0.50667000  0.91198000  1.0
  Co  Co7  1  0.50661000  0.06258000  0.74514000  1.0
  Co  Co8  1  0.06268000  0.55596000  0.57868000  1.0
  Co  Co9  1  0.55598000  0.49333000  0.41198000  1.0
  Co  Co10  1  0.49338000  0.93741000  0.24514000  1.0
  Co  Co11  1  0.93732000  0.44404000  0.07868000  1.0
  H  H12  1  0.50164000  0.64821000  0.28712000  1.0
  H  H13  1  0.64817000  0.14665000  0.12029000  1.0
  H  H14  1  0.14651000  0.49849000  0.95389000  1.0
  H  H15  1  0.49837000  0.35180000  0.78713000  1.0
  H  H16  1  0.35183000  0.85335000  0.62029000  1.0
  H  H17  1  0.85349000  0.50152000  0.45389000  1.0
  H  H18  1  0.48384000  0.43445000  0.15460000  1.0
  H  H19  1  0.43463000  0.95062000  0.98770000  1.0
  H  H20  1  0.95061000  0.51618000  0.82127000  1.0
  H  H21  1  0.51616000  0.56555000  0.65460000  1.0
  H  H22  1  0.56537000  0.04938000  0.48770000  1.0
  H  H23  1  0.04939000  0.48383000  0.32127000  1.0
  H  H24  1  0.37385000  0.62988000  0.10719000  1.0
  H  H25  1  0.62977000  0.25610000  0.94037000  1.0
  H  H26  1  0.25609000  0.62639000  0.77398000  1.0
  H  H27  1  0.62614000  0.37011000  0.60719000  1.0
  H  H28  1  0.37022000  0.74389000  0.44037000  1.0
  H  H29  1  0.74391000  0.37361000  0.27398000  1.0
  H  H30  1  0.39734000  0.41767000  0.05241000  1.0
  H  H31  1  0.41765000  0.02023000  0.88562000  1.0
  H  H32  1  0.02033000  0.60273000  0.71912000  1.0
  H  H33  1  0.60266000  0.58234000  0.55241000  1.0
  H  H34  1  0.58235000  0.97977000  0.38562000  1.0
  H  H35  1  0.97968000  0.39727000  0.21912000  1.0
  H  H36  1  0.35004000  0.49712000  0.03544000  1.0
  H  H37  1  0.49700000  0.14696000  0.86858000  1.0
  H  H38  1  0.14708000  0.65006000  0.70215000  1.0
  H  H39  1  0.64995000  0.50288000  0.53544000  1.0
  H  H40  1  0.50299000  0.85303000  0.36858000  1.0
  H  H41  1  0.85292000  0.34994000  0.20215000  1.0
  H  H42  1  0.58013000  0.69654000  0.05313000  1.0
  H  H43  1  0.69650000  0.11637000  0.88629000  1.0
  H  H44  1  0.11656000  0.42007000  0.71989000  1.0
  H  H45  1  0.41985000  0.30345000  0.55313000  1.0
  H  H46  1  0.30350000  0.88362000  0.38630000  1.0
  H  H47  1  0.88346000  0.57994000  0.21988000  1.0
  H  H48  1  0.46371000  0.66561000  0.02142000  1.0
  H  H49  1  0.66554000  0.20187000  0.85464000  1.0
  H  H50  1  0.20201000  0.53648000  0.68814000  1.0
  H  H51  1  0.53628000  0.33439000  0.52142000  1.0
  H  H52  1  0.33446000  0.79812000  0.35463000  1.0
  H  H53  1  0.79800000  0.46352000  0.18814000  1.0
  H  H54  1  0.64201000  0.59444000  0.04729000  1.0
  H  H55  1  0.59448000  0.95244000  0.88040000  1.0
  H  H56  1  0.95259000  0.35815000  0.71409000  1.0
  H  H57  1  0.35798000  0.40556000  0.54728000  1.0
  H  H58  1  0.40551000  0.04755000  0.38040000  1.0
  H  H59  1  0.04742000  0.64184000  0.21409000  1.0
  H  H60  1  0.55739000  0.46703000  0.04638000  1.0
  H  H61  1  0.46707000  0.90962000  0.87951000  1.0
  H  H62  1  0.90976000  0.44274000  0.71312000  1.0
  H  H63  1  0.44260000  0.53297000  0.54638000  1.0
  H  H64  1  0.53292000  0.09037000  0.37951000  1.0
  H  H65  1  0.09025000  0.55726000  0.21311000  1.0
  H  H66  1  0.67475000  0.63911000  0.81787000  1.0
  H  H67  1  0.63901000  0.96417000  0.65106000  1.0
  H  H68  1  0.96435000  0.32510000  0.48442000  1.0
  H  H69  1  0.32525000  0.36089000  0.31787000  1.0
  H  H70  1  0.36099000  0.03583000  0.15105000  1.0
  H  H71  1  0.03565000  0.67490000  0.98442000  1.0
  H  H72  1  0.85399000  0.70876000  0.80417000  1.0
  H  H73  1  0.70873000  0.85464000  0.63731000  1.0
  H  H74  1  0.85481000  0.14591000  0.47055000  1.0
  H  H75  1  0.14601000  0.29123000  0.30417000  1.0
  H  H76  1  0.29127000  0.14536000  0.13731000  1.0
  H  H77  1  0.14519000  0.85410000  0.97054000  1.0
  H  H78  1  0.87769000  0.99488000  0.77912000  1.0
  H  H79  1  0.99478000  0.11709000  0.61218000  1.0
  H  H80  1  0.11727000  0.12222000  0.44563000  1.0
  H  H81  1  0.12231000  0.00511000  0.27912000  1.0
  H  H82  1  0.00522000  0.88291000  0.11218000  1.0
  H  H83  1  0.88273000  0.87778000  0.94563000  1.0
  H  H84  1  0.69692000  0.91192000  0.79334000  1.0
  H  H85  1  0.91175000  0.21483000  0.62639000  1.0
  H  H86  1  0.21505000  0.30297000  0.45996000  1.0
  H  H87  1  0.30308000  0.08808000  0.29334000  1.0
  H  H88  1  0.08825000  0.78517000  0.12639000  1.0
  H  H89  1  0.78495000  0.69704000  0.95996000  1.0
  H  H90  1  0.02529000  0.98808000  0.77353000  1.0
  H  H91  1  0.98808000  0.96279000  0.60658000  1.0
  H  H92  1  0.96292000  0.97463000  0.44001000  1.0
  H  H93  1  0.97471000  0.01191000  0.27353000  1.0
  H  H94  1  0.01192000  0.03721000  0.10659000  1.0
  H  H95  1  0.03708000  0.02538000  0.94001000  1.0
  H  H96  1  0.01022000  0.78671000  0.79722000  1.0
  H  H97  1  0.78688000  0.77654000  0.63076000  1.0
  H  H98  1  0.77665000  0.98976000  0.46373000  1.0
  H  H99  1  0.98978000  0.21329000  0.29722000  1.0
  H  H100  1  0.21312000  0.22346000  0.13077000  1.0
  H  H101  1  0.22335000  0.01024000  0.96373000  1.0
  H  H102  1  0.15618000  0.77864000  0.78540000  1.0
  H  H103  1  0.77877000  0.62252000  0.61920000  1.0
  H  H104  1  0.62251000  0.84380000  0.45215000  1.0
  H  H105  1  0.84382000  0.22135000  0.28539000  1.0
  H  H106  1  0.22123000  0.37747000  0.11920000  1.0
  H  H107  1  0.37749000  0.15620000  0.95216000  1.0
  H  H108  1  0.33738000  0.86110000  0.76970000  1.0
  H  H109  1  0.86114000  0.52371000  0.60343000  1.0
  H  H110  1  0.52373000  0.66256000  0.43668000  1.0
  H  H111  1  0.66262000  0.13890000  0.26969000  1.0
  H  H112  1  0.13886000  0.47629000  0.10343000  1.0
  H  H113  1  0.47628000  0.33746000  0.93668000  1.0
  H  H114  1  0.36452000  0.13790000  0.76562000  1.0
  H  H115  1  0.13798000  0.77328000  0.59903000  1.0
  H  H116  1  0.77338000  0.63536000  0.43248000  1.0
  H  H117  1  0.63548000  0.86210000  0.26562000  1.0
  H  H118  1  0.86202000  0.22672000  0.09903000  1.0
  H  H119  1  0.22662000  0.36465000  0.93248000  1.0
  H  H120  1  0.18411000  0.06826000  0.77864000  1.0
  H  H121  1  0.06839000  0.88412000  0.61195000  1.0
  H  H122  1  0.88417000  0.81581000  0.44532000  1.0
  H  H123  1  0.81589000  0.93173000  0.27864000  1.0
  H  H124  1  0.93160000  0.11587000  0.11195000  1.0
  H  H125  1  0.11583000  0.18420000  0.94532000  1.0
  C  C126  1  0.43706000  0.64862000  0.19783000  1.0
  C  C127  1  0.64859000  0.21158000  0.03100000  1.0
  C  C128  1  0.21158000  0.56311000  0.86461000  1.0
  C  C129  1  0.56294000  0.35138000  0.69783000  1.0
  C  C130  1  0.35141000  0.78842000  0.53100000  1.0
  C  C131  1  0.78843000  0.43690000  0.36461000  1.0
  C  C132  1  0.48194000  0.61611000  0.24074000  1.0
  C  C133  1  0.61610000  0.13421000  0.07390000  1.0
  C  C134  1  0.13415000  0.51816000  0.90748000  1.0
  C  C135  1  0.51806000  0.38388000  0.74075000  1.0
  C  C136  1  0.38391000  0.86580000  0.57390000  1.0
  C  C137  1  0.86585000  0.48184000  0.40748000  1.0
  C  C138  1  0.49555000  0.53677000  0.22511000  1.0
  C  C139  1  0.53681000  0.04122000  0.05825000  1.0
  C  C140  1  0.04119000  0.50447000  0.89180000  1.0
  C  C141  1  0.50445000  0.46323000  0.72511000  1.0
  C  C142  1  0.46318000  0.95877000  0.55825000  1.0
  C  C143  1  0.95882000  0.49554000  0.39181000  1.0
  C  C144  1  0.47202000  0.49592000  0.16526000  1.0
  C  C145  1  0.49604000  0.02390000  0.99839000  1.0
  C  C146  1  0.02389000  0.52800000  0.83195000  1.0
  C  C147  1  0.52798000  0.50408000  0.66527000  1.0
  C  C148  1  0.50396000  0.97610000  0.49839000  1.0
  C  C149  1  0.97611000  0.47200000  0.33195000  1.0
  C  C150  1  0.43204000  0.53132000  0.12101000  1.0
  C  C151  1  0.53139000  0.09929000  0.95415000  1.0
  C  C152  1  0.09929000  0.56805000  0.78772000  1.0
  C  C153  1  0.56795000  0.46867000  0.62101000  1.0
  C  C154  1  0.46861000  0.90071000  0.45415000  1.0
  C  C155  1  0.90071000  0.43195000  0.28773000  1.0
  C  C156  1  0.41091000  0.60462000  0.13899000  1.0
  C  C157  1  0.60460000  0.19375000  0.97214000  1.0
  C  C158  1  0.19374000  0.58926000  0.80576000  1.0
  C  C159  1  0.58909000  0.39538000  0.63899000  1.0
  C  C160  1  0.39539000  0.80624000  0.47214000  1.0
  C  C161  1  0.80626000  0.41074000  0.30576000  1.0
  C  C162  1  0.41368000  0.49443000  0.05485000  1.0
  C  C163  1  0.49439000  0.08069000  0.88801000  1.0
  C  C164  1  0.08079000  0.58644000  0.72156000  1.0
  C  C165  1  0.58631000  0.50557000  0.55485000  1.0
  C  C166  1  0.50560000  0.91930000  0.38800000  1.0
  C  C167  1  0.91921000  0.41356000  0.22157000  1.0
  C  C168  1  0.52958000  0.65873000  0.01413000  1.0
  C  C169  1  0.65868000  0.12914000  0.84730000  1.0
  C  C170  1  0.12927000  0.47059000  0.68088000  1.0
  C  C171  1  0.47041000  0.34127000  0.51413000  1.0
  C  C172  1  0.34131000  0.87085000  0.34730000  1.0
  C  C173  1  0.87074000  0.52942000  0.18087000  1.0
  C  C174  1  0.57399000  0.71486000  0.95394000  1.0
  C  C175  1  0.71484000  0.14092000  0.78713000  1.0
  C  C176  1  0.14103000  0.42613000  0.62071000  1.0
  C  C177  1  0.42600000  0.28514000  0.45394000  1.0
  C  C178  1  0.28516000  0.85909000  0.28713000  1.0
  C  C179  1  0.85898000  0.57387000  0.12071000  1.0
  C  C180  1  0.58170000  0.53565000  0.01995000  1.0
  C  C181  1  0.53567000  0.95394000  0.85307000  1.0
  C  C182  1  0.95406000  0.41839000  0.68672000  1.0
  C  C183  1  0.41830000  0.46436000  0.51995000  1.0
  C  C184  1  0.46433000  0.04606000  0.35308000  1.0
  C  C185  1  0.04595000  0.58160000  0.18672000  1.0
  C  C186  1  0.62254000  0.52134000  0.95843000  1.0
  C  C187  1  0.52132000  0.89876000  0.79155000  1.0
  C  C188  1  0.89885000  0.37749000  0.62522000  1.0
  C  C189  1  0.37746000  0.47867000  0.45843000  1.0
  C  C190  1  0.47869000  0.10125000  0.29155000  1.0
  C  C191  1  0.10115000  0.62251000  0.12522000  1.0
  C  C192  1  0.41428000  0.72949000  0.21086000  1.0
  C  C193  1  0.72939000  0.31522000  0.04415000  1.0
  C  C194  1  0.31523000  0.58591000  0.87769000  1.0
  C  C195  1  0.58572000  0.27050000  0.71087000  1.0
  C  C196  1  0.27061000  0.68477000  0.54415000  1.0
  C  C197  1  0.68478000  0.41410000  0.37769000  1.0
  C  C198  1  0.52508000  0.48766000  0.27350000  1.0
  C  C199  1  0.48768000  0.96261000  0.10664000  1.0
  C  C200  1  0.96256000  0.47495000  0.94018000  1.0
  C  C201  1  0.47492000  0.51234000  0.77350000  1.0
  C  C202  1  0.51232000  0.03739000  0.60664000  1.0
  C  C203  1  0.03744000  0.52505000  0.44018000  1.0
  C  C204  1  0.72240000  0.71759000  0.80845000  1.0
  C  C205  1  0.71748000  0.99502000  0.64161000  1.0
  C  C206  1  0.99522000  0.27748000  0.47502000  1.0
  C  C207  1  0.27760000  0.28241000  0.30845000  1.0
  C  C208  1  0.28252000  0.00497000  0.14161000  1.0
  C  C209  1  0.00479000  0.72253000  0.97501000  1.0
  C  C210  1  0.82319000  0.75753000  0.80099000  1.0
  C  C211  1  0.75746000  0.93420000  0.63413000  1.0
  C  C212  1  0.93438000  0.17669000  0.46748000  1.0
  C  C213  1  0.17682000  0.24248000  0.30099000  1.0
  C  C214  1  0.24254000  0.06580000  0.13413000  1.0
  C  C215  1  0.06562000  0.82332000  0.96747000  1.0
  C  C216  1  0.88364000  0.85963000  0.79026000  1.0
  C  C217  1  0.85957000  0.97588000  0.62339000  1.0
  C  C218  1  0.97606000  0.11625000  0.45676000  1.0
  C  C219  1  0.11637000  0.14038000  0.29027000  1.0
  C  C220  1  0.14043000  0.02412000  0.12339000  1.0
  C  C221  1  0.02394000  0.88376000  0.95676000  1.0
  C  C222  1  0.83603000  0.91554000  0.78753000  1.0
  C  C223  1  0.91544000  0.07940000  0.62061000  1.0
  C  C224  1  0.07959000  0.16388000  0.45409000  1.0
  C  C225  1  0.16397000  0.08446000  0.28753000  1.0
  C  C226  1  0.08456000  0.92060000  0.12061000  1.0
  C  C227  1  0.92041000  0.83613000  0.95409000  1.0
  C  C228  1  0.73480000  0.86977000  0.79549000  1.0
  C  C229  1  0.86963000  0.13482000  0.62858000  1.0
  C  C230  1  0.13502000  0.26509000  0.46211000  1.0
  C  C231  1  0.26521000  0.13024000  0.29549000  1.0
  C  C232  1  0.13037000  0.86517000  0.12858000  1.0
  C  C233  1  0.86498000  0.73491000  0.96211000  1.0
  C  C234  1  0.98978000  0.90902000  0.78319000  1.0
  C  C235  1  0.90906000  0.91922000  0.61635000  1.0
  C  C236  1  0.91935000  0.01011000  0.44966000  1.0
  C  C237  1  0.01022000  0.09097000  0.28319000  1.0
  C  C238  1  0.09094000  0.08078000  0.11636000  1.0
  C  C239  1  0.08065000  0.98989000  0.94966000  1.0
  C  C240  1  0.04592000  0.86594000  0.78815000  1.0
  C  C241  1  0.86607000  0.82004000  0.62155000  1.0
  C  C242  1  0.82012000  0.95401000  0.45465000  1.0
  C  C243  1  0.95409000  0.13407000  0.28815000  1.0
  C  C244  1  0.13393000  0.17996000  0.12155000  1.0
  C  C245  1  0.17989000  0.04600000  0.95465000  1.0
  C  C246  1  0.15219000  0.91546000  0.78204000  1.0
  C  C247  1  0.91559000  0.76329000  0.61553000  1.0
  C  C248  1  0.76332000  0.84776000  0.44865000  1.0
  C  C249  1  0.84781000  0.08454000  0.28204000  1.0
  C  C250  1  0.08441000  0.23671000  0.11554000  1.0
  C  C251  1  0.23669000  0.15226000  0.94865000  1.0
  C  C252  1  0.19914000  0.85872000  0.78070000  1.0
  C  C253  1  0.85884000  0.65962000  0.61439000  1.0
  C  C254  1  0.65963000  0.80083000  0.44746000  1.0
  C  C255  1  0.80086000  0.14127000  0.28070000  1.0
  C  C256  1  0.14116000  0.34038000  0.11439000  1.0
  C  C257  1  0.34037000  0.19918000  0.94746000  1.0
  C  C258  1  0.30032000  0.90415000  0.77282000  1.0
  C  C259  1  0.90423000  0.60382000  0.60649000  1.0
  C  C260  1  0.60385000  0.69962000  0.43971000  1.0
  C  C261  1  0.69968000  0.09585000  0.27281000  1.0
  C  C262  1  0.09577000  0.39618000  0.10649000  1.0
  C  C263  1  0.39615000  0.30039000  0.93971000  1.0
  C  C264  1  0.31480000  0.05858000  0.76987000  1.0
  C  C265  1  0.05867000  0.74374000  0.60331000  1.0
  C  C266  1  0.74379000  0.68510000  0.43666000  1.0
  C  C267  1  0.68520000  0.94142000  0.26987000  1.0
  C  C268  1  0.94133000  0.25626000  0.10331000  1.0
  C  C269  1  0.25621000  0.31490000  0.93667000  1.0
  C  C270  1  0.21395000  0.01858000  0.77689000  1.0
  C  C271  1  0.01870000  0.80462000  0.61029000  1.0
  C  C272  1  0.80465000  0.78596000  0.44356000  1.0
  C  C273  1  0.78606000  0.98143000  0.27689000  1.0
  C  C274  1  0.98129000  0.19537000  0.11029000  1.0
  C  C275  1  0.19535000  0.21404000  0.94357000  1.0
  N  N276  1  0.49761000  0.55265000  0.01138000  1.0
  N  N277  1  0.55263000  0.05501000  0.84452000  1.0
  N  N278  1  0.05513000  0.50250000  0.67809000  1.0
  N  N279  1  0.50238000  0.44734000  0.51138000  1.0
  N  N280  1  0.44736000  0.94498000  0.34451000  1.0
  N  N281  1  0.94488000  0.49749000  0.17809000  1.0
  N  N282  1  0.67759000  0.77227000  0.80568000  1.0
  N  N283  1  0.77213000  0.09449000  0.63881000  1.0
  N  N284  1  0.09469000  0.32227000  0.47233000  1.0
  N  N285  1  0.32241000  0.22773000  0.30568000  1.0
  N  N286  1  0.22787000  0.90551000  0.13881000  1.0
  N  N287  1  0.90531000  0.67773000  0.97233000  1.0
  N  N288  1  0.35869000  0.00293000  0.76748000  1.0
  N  N289  1  0.00299000  0.64419000  0.60102000  1.0
  N  N290  1  0.64425000  0.64123000  0.43435000  1.0
  N  N291  1  0.64131000  0.99707000  0.26747000  1.0
  N  N292  1  0.99701000  0.35581000  0.10102000  1.0
  N  N293  1  0.35575000  0.35878000  0.93435000  1.0
  O  O294  1  0.54452000  0.65838000  0.90428000  1.0
  O  O295  1  0.65832000  0.11369000  0.73747000  1.0
  O  O296  1  0.11391000  0.45545000  0.57102000  1.0
  O  O297  1  0.45548000  0.34162000  0.40428000  1.0
  O  O298  1  0.34167000  0.88631000  0.23748000  1.0
  O  O299  1  0.88609000  0.54454000  0.07102000  1.0
  O  O300  1  0.62607000  0.80550000  0.95351000  1.0
  O  O301  1  0.80549000  0.17965000  0.78669000  1.0
  O  O302  1  0.17967000  0.37413000  0.62034000  1.0
  O  O303  1  0.37390000  0.19449000  0.45351000  1.0
  O  O304  1  0.19450000  0.82034000  0.28670000  1.0
  O  O305  1  0.82033000  0.62586000  0.12033000  1.0
  O  O306  1  0.56921000  0.49677000  0.91012000  1.0
  O  O307  1  0.49674000  0.92753000  0.74324000  1.0
  O  O308  1  0.92755000  0.43077000  0.57689000  1.0
  O  O309  1  0.43080000  0.50325000  0.41012000  1.0
  O  O310  1  0.50327000  0.07248000  0.24325000  1.0
  O  O311  1  0.07245000  0.56923000  0.07689000  1.0
  O  O312  1  0.70830000  0.53255000  0.95838000  1.0
  O  O313  1  0.53247000  0.82417000  0.79149000  1.0
  O  O314  1  0.82430000  0.29174000  0.62523000  1.0
  O  O315  1  0.29169000  0.46744000  0.45837000  1.0
  O  O316  1  0.46753000  0.17583000  0.29149000  1.0
  O  O317  1  0.17570000  0.70826000  0.12523000  1.0
  O  O318  1  0.34509000  0.72636000  0.17843000  1.0
  O  O319  1  0.72622000  0.38133000  0.01180000  1.0
  O  O320  1  0.38130000  0.65520000  0.84533000  1.0
  O  O321  1  0.65491000  0.27364000  0.67843000  1.0
  O  O322  1  0.27379000  0.61867000  0.51180000  1.0
  O  O323  1  0.61870000  0.34480000  0.34533000  1.0
  O  O324  1  0.46670000  0.79545000  0.25139000  1.0
  O  O325  1  0.79529000  0.32864000  0.08469000  1.0
  O  O326  1  0.32870000  0.53336000  0.91815000  1.0
  O  O327  1  0.53330000  0.20455000  0.75139000  1.0
  O  O328  1  0.20471000  0.67135000  0.58469000  1.0
  O  O329  1  0.67130000  0.46664000  0.41815000  1.0
  O  O330  1  0.57121000  0.53608000  0.32142000  1.0
  O  O331  1  0.53609000  0.96487000  0.15456000  1.0
  O  O332  1  0.96491000  0.42889000  0.98812000  1.0
  O  O333  1  0.42878000  0.46391000  0.82141000  1.0
  O  O334  1  0.46391000  0.03513000  0.65456000  1.0
  O  O335  1  0.03509000  0.57112000  0.48812000  1.0
  O  O336  1  0.49581000  0.39651000  0.26305000  1.0
  O  O337  1  0.39651000  0.90079000  0.09618000  1.0
  O  O338  1  0.90066000  0.50421000  0.92971000  1.0
  O  O339  1  0.50419000  0.60349000  0.76304000  1.0
  O  O340  1  0.60349000  0.09921000  0.59618000  1.0
  O  O341  1  0.09934000  0.49579000  0.42971000  1.0
