# generated using pymatgen
data_CaH10C10(NCl)2
_symmetry_space_group_name_H-M   'P 1'
_cell_length_a   3.94946000
_cell_length_b   9.21126175
_cell_length_c   16.45800000
_cell_angle_alpha   88.60973710
_cell_angle_beta   83.14550000
_cell_angle_gamma   78.16615705
_symmetry_Int_Tables_number   1
_chemical_formula_structural   CaH10C10(NCl)2
_chemical_formula_sum   'Ca2 H20 C20 N4 Cl4'
_cell_volume   581.82018621
_cell_formula_units_Z   2
loop_
 _symmetry_equiv_pos_site_id
 _symmetry_equiv_pos_as_xyz
  1  'x, y, z'
loop_
 _atom_site_type_symbol
 _atom_site_label
 _atom_site_symmetry_multiplicity
 _atom_site_fract_x
 _atom_site_fract_y
 _atom_site_fract_z
 _atom_site_occupancy
  Ca  Ca0  1  0.01609000  0.99938000  0.00041000  1.0
  Ca  Ca1  1  0.26627000  0.49914000  0.49966000  1.0
  H  H2  1  0.88242000  0.87815000  0.82041000  1.0
  H  H3  1  0.58228000  0.12102000  0.17989000  1.0
  H  H4  1  0.95241000  0.37810000  0.67969000  1.0
  H  H5  1  0.01257000  0.62017000  0.32001000  1.0
  H  H6  1  0.03438000  0.65991000  0.72449000  1.0
  H  H7  1  0.41773000  0.34094000  0.27441000  1.0
  H  H8  1  0.00844000  0.15981000  0.77554000  1.0
  H  H9  1  0.94182000  0.83994000  0.22540000  1.0
  H  H10  1  0.40027000  0.42341000  0.77119000  1.0
  H  H11  1  0.59657000  0.57873000  0.22700000  1.0
  H  H12  1  0.42125000  0.92337000  0.72886000  1.0
  H  H13  1  0.07243000  0.07798000  0.27279000  1.0
  H  H14  1  0.60595000  0.41582000  0.90949000  1.0
  H  H15  1  0.93696000  0.58564000  0.08928000  1.0
  H  H16  1  0.76508000  0.91579000  0.59066000  1.0
  H  H17  1  0.27494000  0.08532000  0.41059000  1.0
  H  H18  1  0.44794000  0.64747000  0.99555000  1.0
  H  H19  1  0.09645000  0.35278000  0.00427000  1.0
  H  H20  1  0.69292000  0.14745000  0.50463000  1.0
  H  H21  1  0.35040000  0.85258000  0.49566000  1.0
  C  C22  1  0.04680000  0.77380000  0.83697000  1.0
  C  C23  1  0.66027000  0.22589000  0.16304000  1.0
  C  C24  1  0.13335000  0.27373000  0.66314000  1.0
  C  C25  1  0.07352000  0.72513000  0.33684000  1.0
  C  C26  1  0.12891000  0.65224000  0.78434000  1.0
  C  C27  1  0.56706000  0.34846000  0.21491000  1.0
  C  C28  1  0.16283000  0.15216000  0.71572000  1.0
  C  C29  1  0.03123000  0.84764000  0.28498000  1.0
  C  C30  1  0.33241000  0.52121000  0.81038000  1.0
  C  C31  1  0.66684000  0.48010000  0.18847000  1.0
  C  C32  1  0.39260000  0.02118000  0.68970000  1.0
  C  C33  1  0.10456000  0.97940000  0.31134000  1.0
  C  C34  1  0.44779000  0.51680000  0.88741000  1.0
  C  C35  1  0.85713000  0.48415000  0.11174000  1.0
  C  C36  1  0.58482000  0.01676000  0.61270000  1.0
  C  C37  1  0.21754000  0.98376000  0.38817000  1.0
  C  C38  1  0.35723000  0.64432000  0.93558000  1.0
  C  C39  1  0.94256000  0.35585000  0.06419000  1.0
  C  C40  1  0.54246000  0.14429000  0.56459000  1.0
  C  C41  1  0.25655000  0.85546000  0.43569000  1.0
  N  N42  1  0.15945000  0.77142000  0.91130000  1.0
  N  N43  1  0.84699000  0.22804000  0.08900000  1.0
  N  N44  1  0.32032000  0.27134000  0.58886000  1.0
  N  N45  1  0.18562000  0.72758000  0.41097000  1.0
  Cl  Cl46  1  0.50579000  0.11982000  0.90672000  1.0
  Cl  Cl47  1  0.52805000  0.87862000  0.09403000  1.0
  Cl  Cl48  1  0.66276000  0.61973000  0.59333000  1.0
  Cl  Cl49  1  0.87140000  0.37824000  0.40605000  1.0
