# generated using pymatgen
data_LuH7C3O8
_symmetry_space_group_name_H-M   'P 1'
_cell_length_a   6.46452000
_cell_length_b   6.46842000
_cell_length_c   9.35540000
_cell_angle_alpha   72.31700000
_cell_angle_beta   87.42340000
_cell_angle_gamma   83.29170000
_symmetry_Int_Tables_number   1
_chemical_formula_structural   LuH7C3O8
_chemical_formula_sum   'Lu2 H14 C6 O16'
_cell_volume   370.14448493
_cell_formula_units_Z   2
loop_
 _symmetry_equiv_pos_site_id
 _symmetry_equiv_pos_as_xyz
  1  'x, y, z'
loop_
 _atom_site_type_symbol
 _atom_site_label
 _atom_site_symmetry_multiplicity
 _atom_site_fract_x
 _atom_site_fract_y
 _atom_site_fract_z
 _atom_site_occupancy
  Lu  Lu0  1  0.25155000  0.24934000  0.24931000  1.0
  Lu  Lu1  1  0.74845000  0.75066000  0.75069000  1.0
  H  H2  1  0.73473000  0.36121000  0.28535000  1.0
  H  H3  1  0.26526000  0.63879000  0.71465000  1.0
  H  H4  1  0.20767000  0.87714000  0.07060000  1.0
  H  H5  1  0.79234000  0.12287000  0.92940000  1.0
  H  H6  1  0.20030000  0.28585000  0.65571000  1.0
  H  H7  1  0.79969000  0.71416000  0.34430000  1.0
  H  H8  1  0.40378000  0.80986000  0.42894000  1.0
  H  H9  1  0.59621000  0.19013000  0.57106000  1.0
  H  H10  1  0.15128000  0.82658000  0.43069000  1.0
  H  H11  1  0.84872000  0.17342000  0.56931000  1.0
  H  H12  1  0.39873000  0.29986000  0.94711000  1.0
  H  H13  1  0.60128000  0.70014000  0.05289000  1.0
  H  H14  1  0.14878000  0.29770000  0.94068000  1.0
  H  H15  1  0.85123000  0.70230000  0.05932000  1.0
  C  C16  1  0.75472000  0.22080000  0.23956000  1.0
  C  C17  1  0.24529000  0.77920000  0.76044000  1.0
  C  C18  1  0.22228000  0.69998000  0.12709000  1.0
  C  C19  1  0.77773000  0.30002000  0.87292000  1.0
  C  C20  1  0.21157000  0.28606000  0.53774000  1.0
  C  C21  1  0.78842000  0.71394000  0.46226000  1.0
  O  O22  1  0.59268000  0.13768000  0.22295000  1.0
  O  O23  1  0.40733000  0.86232000  0.77705000  1.0
  O  O24  1  0.93796000  0.15386000  0.20734000  1.0
  O  O25  1  0.06203000  0.84614000  0.79266000  1.0
  O  O26  1  0.40110000  0.59099000  0.14931000  1.0
  O  O27  1  0.59891000  0.40901000  0.85069000  1.0
  O  O28  1  0.05932000  0.60113000  0.16829000  1.0
  O  O29  1  0.94068000  0.39888000  0.83172000  1.0
  O  O30  1  0.05008000  0.26918000  0.47076000  1.0
  O  O31  1  0.94991000  0.73082000  0.52925000  1.0
  O  O32  1  0.38606000  0.29993000  0.46824000  1.0
  O  O33  1  0.61393000  0.70007000  0.53177000  1.0
  O  O34  1  0.27533000  0.89466000  0.37575000  1.0
  O  O35  1  0.72467000  0.10533000  0.62425000  1.0
  O  O36  1  0.27146000  0.25421000  0.00910000  1.0
  O  O37  1  0.72855000  0.74579000  0.99089000  1.0
