# generated using pymatgen
data_CdH12C13N2O5
_symmetry_space_group_name_H-M   'P 1'
_cell_length_a   10.38880000
_cell_length_b   10.90670000
_cell_length_c   12.97370000
_cell_angle_alpha   90.00000000
_cell_angle_beta   90.00000000
_cell_angle_gamma   113.53500000
_symmetry_Int_Tables_number   1
_chemical_formula_structural   CdH12C13N2O5
_chemical_formula_sum   'Cd4 H48 C52 N8 O20'
_cell_volume   1347.73634525
_cell_formula_units_Z   4
loop_
 _symmetry_equiv_pos_site_id
 _symmetry_equiv_pos_as_xyz
  1  'x, y, z'
loop_
 _atom_site_type_symbol
 _atom_site_label
 _atom_site_symmetry_multiplicity
 _atom_site_fract_x
 _atom_site_fract_y
 _atom_site_fract_z
 _atom_site_occupancy
  Cd  Cd0  1  0.16993000  0.47335000  0.01357000  1.0
  Cd  Cd1  1  0.83008000  0.52665000  0.51357000  1.0
  Cd  Cd2  1  0.31258000  0.61304000  0.70320000  1.0
  Cd  Cd3  1  0.68742000  0.38696000  0.20320000  1.0
  H  H4  1  0.08880000  0.62948000  0.82913000  1.0
  H  H5  1  0.91120000  0.37052000  0.32913000  1.0
  H  H6  1  0.06932000  0.67505000  0.71248000  1.0
  H  H7  1  0.93068000  0.32495000  0.21248000  1.0
  H  H8  1  0.61009000  0.64893000  0.65394000  1.0
  H  H9  1  0.38991000  0.35107000  0.15394000  1.0
  H  H10  1  0.51940000  0.53030000  0.58889000  1.0
  H  H11  1  0.48060000  0.46970000  0.08889000  1.0
  H  H12  1  0.09206000  0.99938000  0.53873000  1.0
  H  H13  1  0.90794000  0.00062000  0.03873000  1.0
  H  H14  1  0.19657000  0.23074000  0.61176000  1.0
  H  H15  1  0.80343000  0.76926000  0.11176000  1.0
  H  H16  1  0.95852000  0.09147000  0.88875000  1.0
  H  H17  1  0.04148000  0.90853000  0.38875000  1.0
  H  H18  1  0.64046000  0.83648000  0.81791000  1.0
  H  H19  1  0.35954000  0.16352000  0.31791000  1.0
  H  H20  1  0.62901000  0.49308000  0.98774000  1.0
  H  H21  1  0.37099000  0.50692000  0.48774000  1.0
  H  H22  1  0.02078000  0.77804000  0.87399000  1.0
  H  H23  1  0.97922000  0.22196000  0.37399000  1.0
  H  H24  1  0.45760000  0.63931000  0.17189000  1.0
  H  H25  1  0.54240000  0.36069000  0.67189000  1.0
  H  H26  1  0.04668000  0.62398000  0.19590000  1.0
  H  H27  1  0.95332000  0.37602000  0.69590000  1.0
  H  H28  1  0.20057000  0.75563000  0.36785000  1.0
  H  H29  1  0.79943000  0.24437000  0.86785000  1.0
  H  H30  1  0.54381000  0.71700000  0.35869000  1.0
  H  H31  1  0.45619000  0.28300000  0.85869000  1.0
  H  H32  1  0.44110000  0.77913000  0.43419000  1.0
  H  H33  1  0.55890000  0.22087000  0.93419000  1.0
  H  H34  1  0.51636000  0.98301000  0.31405000  1.0
  H  H35  1  0.48364000  0.01699000  0.81405000  1.0
  H  H36  1  0.61593000  0.91446000  0.24310000  1.0
  H  H37  1  0.38407000  0.08554000  0.74310000  1.0
  H  H38  1  0.74511000  0.91960000  0.42195000  1.0
  H  H39  1  0.25489000  0.08040000  0.92195000  1.0
  H  H40  1  0.79178000  0.06315000  0.34364000  1.0
  H  H41  1  0.20822000  0.93685000  0.84364000  1.0
  H  H42  1  0.77360000  0.11246000  0.53098000  1.0
  H  H43  1  0.22640000  0.88754000  0.03098000  1.0
  H  H44  1  0.66425000  0.16029000  0.44960000  1.0
  H  H45  1  0.33575000  0.83971000  0.94960000  1.0
  H  H46  1  0.63325000  0.85767000  0.61402000  1.0
  H  H47  1  0.36675000  0.14234000  0.11402000  1.0
  H  H48  1  0.40971000  0.07197000  0.48764000  1.0
  H  H49  1  0.59029000  0.92803000  0.98764000  1.0
  H  H50  1  0.22358000  0.85019000  0.59679000  1.0
  H  H51  1  0.77642000  0.14981000  0.09679000  1.0
  C  C52  1  0.92877000  0.93852000  0.77369000  1.0
  C  C53  1  0.07123000  0.06147000  0.27369000  1.0
  C  C54  1  0.96716000  0.91463000  0.67383000  1.0
  C  C55  1  0.03284000  0.08537000  0.17383000  1.0
  C  C56  1  0.06325000  0.01933000  0.61576000  1.0
  C  C57  1  0.93675000  0.98067000  0.11576000  1.0
  C  C58  1  0.12106000  0.14828000  0.65570000  1.0
  C  C59  1  0.87894000  0.85172000  0.15570000  1.0
  C  C60  1  0.08159000  0.17376000  0.75378000  1.0
  C  C61  1  0.91841000  0.82624000  0.25378000  1.0
  C  C62  1  0.98530000  0.06895000  0.81185000  1.0
  C  C63  1  0.01470000  0.93105000  0.31185000  1.0
  C  C64  1  0.84117000  0.82146000  0.83800000  1.0
  C  C65  1  0.15883000  0.17854000  0.33800000  1.0
  C  C66  1  0.69632000  0.78001000  0.85149000  1.0
  C  C67  1  0.30368000  0.21999000  0.35149000  1.0
  C  C68  1  0.61973000  0.66255000  0.90648000  1.0
  C  C69  1  0.38027000  0.33746000  0.40648000  1.0
  C  C70  1  0.68809000  0.58627000  0.94771000  1.0
  C  C71  1  0.31191000  0.41373000  0.44771000  1.0
  C  C72  1  0.83274000  0.62784000  0.93718000  1.0
  C  C73  1  0.16726000  0.37215000  0.43718000  1.0
  C  C74  1  0.90787000  0.74533000  0.88253000  1.0
  C  C75  1  0.09213000  0.25467000  0.38253000  1.0
  C  C76  1  0.89932000  0.77842000  0.62638000  1.0
  C  C77  1  0.10068000  0.22158000  0.12638000  1.0
  C  C78  1  0.14397000  0.31299000  0.79700000  1.0
  C  C79  1  0.85603000  0.68701000  0.29700000  1.0
  C  C80  1  0.46494000  0.61883000  0.92195000  1.0
  C  C81  1  0.53506000  0.38117000  0.42195000  1.0
  C  C82  1  0.90754000  0.54901000  0.98517000  1.0
  C  C83  1  0.09246000  0.45099000  0.48517000  1.0
  C  C84  1  0.36667000  0.65540000  0.19835000  1.0
  C  C85  1  0.63333000  0.34460000  0.69835000  1.0
  C  C86  1  0.15572000  0.64959000  0.21533000  1.0
  C  C87  1  0.84428000  0.35041000  0.71533000  1.0
  C  C88  1  0.23083000  0.71524000  0.30026000  1.0
  C  C89  1  0.76917000  0.28475000  0.80026000  1.0
  C  C90  1  0.48414000  0.78063000  0.35697000  1.0
  C  C91  1  0.51586000  0.21937000  0.85697000  1.0
  C  C92  1  0.57878000  0.92212000  0.32121000  1.0
  C  C93  1  0.42122000  0.07788000  0.82121000  1.0
  C  C94  1  0.70665000  0.99286000  0.39097000  1.0
  C  C95  1  0.29335000  0.00714000  0.89097000  1.0
  C  C96  1  0.68211000  0.07422000  0.47949000  1.0
  C  C97  1  0.31789000  0.92578000  0.97949000  1.0
  C  C98  1  0.54580000  0.88604000  0.59893000  1.0
  C  C99  1  0.45420000  0.11396000  0.09893000  1.0
  C  C100  1  0.42618000  0.99460000  0.53112000  1.0
  C  C101  1  0.57382000  0.00540000  0.03112000  1.0
  C  C102  1  0.33616000  0.88569000  0.58546000  1.0
  C  C103  1  0.66384000  0.11431000  0.08546000  1.0
  N  N104  1  0.24162000  0.61283000  0.15247000  1.0
  N  N105  1  0.75838000  0.38717000  0.65247000  1.0
  N  N106  1  0.36415000  0.71764000  0.28826000  1.0
  N  N107  1  0.63585000  0.28236000  0.78826000  1.0
  N  N108  1  0.55824000  0.99348000  0.54054000  1.0
  N  N109  1  0.44176000  0.00653000  0.04054000  1.0
  N  N110  1  0.41227000  0.81890000  0.62728000  1.0
  N  N111  1  0.58773000  0.18110000  0.12728000  1.0
  O  O112  1  0.77388000  0.74148000  0.59648000  1.0
  O  O113  1  0.22612000  0.25852000  0.09648000  1.0
  O  O114  1  0.97309000  0.70919000  0.61484000  1.0
  O  O115  1  0.02691000  0.29081000  0.11484000  1.0
  O  O116  1  0.24513000  0.39826000  0.74629000  1.0
  O  O117  1  0.75487000  0.60174000  0.24629000  1.0
  O  O118  1  0.08940000  0.33255000  0.87958000  1.0
  O  O119  1  0.91060000  0.66746000  0.37958000  1.0
  O  O120  1  0.39972000  0.67792000  0.87402000  1.0
  O  O121  1  0.60028000  0.32208000  0.37402000  1.0
  O  O122  1  0.40637000  0.52355000  0.98631000  1.0
  O  O123  1  0.59363000  0.47645000  0.48631000  1.0
  O  O124  1  0.84807000  0.46305000  0.05357000  1.0
  O  O125  1  0.15194000  0.53695000  0.55357000  1.0
  O  O126  1  0.03321000  0.57773000  0.95179000  1.0
  O  O127  1  0.96679000  0.42227000  0.45179000  1.0
  O  O128  1  0.13809000  0.67143000  0.76415000  1.0
  O  O129  1  0.86191000  0.32857000  0.26415000  1.0
  O  O130  1  0.51472000  0.57697000  0.65375000  1.0
  O  O131  1  0.48528000  0.42303000  0.15375000  1.0
