# generated using pymatgen
data_Cu3H12(C3N2)4
_symmetry_space_group_name_H-M   'P 1'
_cell_length_a   5.39239000
_cell_length_b   6.65308000
_cell_length_c   10.20160000
_cell_angle_alpha   73.04200000
_cell_angle_beta   89.01850000
_cell_angle_gamma   89.73300000
_symmetry_Int_Tables_number   1
_chemical_formula_structural   Cu3H12(C3N2)4
_chemical_formula_sum   'Cu3 H12 C12 N8'
_cell_volume   350.02744520
_cell_formula_units_Z   1
loop_
 _symmetry_equiv_pos_site_id
 _symmetry_equiv_pos_as_xyz
  1  'x, y, z'
loop_
 _atom_site_type_symbol
 _atom_site_label
 _atom_site_symmetry_multiplicity
 _atom_site_fract_x
 _atom_site_fract_y
 _atom_site_fract_z
 _atom_site_occupancy
  Cu  Cu0  1  0.00000000  0.00000000  0.00000000  1.0
  Cu  Cu1  1  0.49999000  0.00001000  0.49999000  1.0
  Cu  Cu2  1  0.50001000  0.50000000  0.50000000  1.0
  H  H3  1  0.71497000  0.48814000  0.21598000  1.0
  H  H4  1  0.28506000  0.51187000  0.78402000  1.0
  H  H5  1  0.47415000  0.71534000  0.98179000  1.0
  H  H6  1  0.52588000  0.28467000  0.01822000  1.0
  H  H7  1  0.06985000  0.76588000  0.32740000  1.0
  H  H8  1  0.93017000  0.23410000  0.67260000  1.0
  H  H9  1  0.76187000  0.71410000  0.81745000  1.0
  H  H10  1  0.23813000  0.28589000  0.18254000  1.0
  H  H11  1  0.98205000  0.75017000  0.56559000  1.0
  H  H12  1  0.01792000  0.24984000  0.43441000  1.0
  H  H13  1  0.43660000  0.04305000  0.78824000  1.0
  H  H14  1  0.56338000  0.95696000  0.21176000  1.0
  C  C15  1  0.54415000  0.57770000  0.20486000  1.0
  C  C16  1  0.45584000  0.42229000  0.79511000  1.0
  C  C17  1  0.42662000  0.69367000  0.08835000  1.0
  C  C18  1  0.57339000  0.30631000  0.91164000  1.0
  C  C19  1  0.21285000  0.72152000  0.26528000  1.0
  C  C20  1  0.78717000  0.27850000  0.73474000  1.0
  C  C21  1  0.93471000  0.78958000  0.77451000  1.0
  C  C22  1  0.06529000  0.21041000  0.22549000  1.0
  C  C23  1  0.04472000  0.80763000  0.64835000  1.0
  C  C24  1  0.95527000  0.19237000  0.35164000  1.0
  C  C25  1  0.28294000  0.95962000  0.76163000  1.0
  C  C26  1  0.71704000  0.04039000  0.23837000  1.0
  N  N27  1  0.21815000  0.78528000  0.12703000  1.0
  N  N28  1  0.78191000  0.21469000  0.87300000  1.0
  N  N29  1  0.40714000  0.59530000  0.31735000  1.0
  N  N30  1  0.59281000  0.40472000  0.68265000  1.0
  N  N31  1  0.26549000  0.91651000  0.64062000  1.0
  N  N32  1  0.73449000  0.08350000  0.35937000  1.0
  N  N33  1  0.08673000  0.88669000  0.84496000  1.0
  N  N34  1  0.91325000  0.11331000  0.15504000  1.0
