# generated using pymatgen
data_V4Cu3H4C4(NO2)6
_symmetry_space_group_name_H-M   'P 1'
_cell_length_a   8.84194000
_cell_length_b   8.89826000
_cell_length_c   11.42370000
_cell_angle_alpha   68.09600000
_cell_angle_beta   89.99860000
_cell_angle_gamma   89.99240000
_symmetry_Int_Tables_number   1
_chemical_formula_structural   V4Cu3H4C4(NO2)6
_chemical_formula_sum   'V8 Cu6 H8 C8 N12 O24'
_cell_volume   833.90886126
_cell_formula_units_Z   2
loop_
 _symmetry_equiv_pos_site_id
 _symmetry_equiv_pos_as_xyz
  1  'x, y, z'
loop_
 _atom_site_type_symbol
 _atom_site_label
 _atom_site_symmetry_multiplicity
 _atom_site_fract_x
 _atom_site_fract_y
 _atom_site_fract_z
 _atom_site_occupancy
  V  V0  1  0.31929000  0.19782000  0.98139000  1.0
  V  V1  1  0.81938000  0.30215000  0.51839000  1.0
  V  V2  1  0.68097000  0.80186000  0.01853000  1.0
  V  V3  1  0.18073000  0.69804000  0.48134000  1.0
  V  V4  1  0.15253000  0.08507000  0.26593000  1.0
  V  V5  1  0.65281000  0.41476000  0.23382000  1.0
  V  V6  1  0.84761000  0.91508000  0.73398000  1.0
  V  V7  1  0.34753000  0.58481000  0.76584000  1.0
  Cu  Cu8  1  0.99995000  0.00007000  0.99963000  1.0
  Cu  Cu9  1  0.50001000  0.50015000  0.50009000  1.0
  Cu  Cu10  1  0.29127000  0.88002000  0.88517000  1.0
  Cu  Cu11  1  0.79065000  0.61990000  0.61503000  1.0
  Cu  Cu12  1  0.70918000  0.11952000  0.11495000  1.0
  Cu  Cu13  1  0.20877000  0.38029000  0.38529000  1.0
  H  H14  1  0.31895000  0.51036000  0.10281000  1.0
  H  H15  1  0.81922000  0.98924000  0.39771000  1.0
  H  H16  1  0.68040000  0.48883000  0.89810000  1.0
  H  H17  1  0.18114000  0.01066000  0.60252000  1.0
  H  H18  1  0.96434000  0.68213000  0.26616000  1.0
  H  H19  1  0.46472000  0.81837000  0.23373000  1.0
  H  H20  1  0.03468000  0.31902000  0.73318000  1.0
  H  H21  1  0.53542000  0.18173000  0.76658000  1.0
  C  C22  1  0.22863000  0.58381000  0.11704000  1.0
  C  C23  1  0.72883000  0.91613000  0.38319000  1.0
  C  C24  1  0.77077000  0.41580000  0.88338000  1.0
  C  C25  1  0.27139000  0.08402000  0.61695000  1.0
  C  C26  1  0.04752000  0.67055000  0.20049000  1.0
  C  C27  1  0.54776000  0.82990000  0.29945000  1.0
  C  C28  1  0.95180000  0.33008000  0.79922000  1.0
  C  C29  1  0.45238000  0.17042000  0.70072000  1.0
  N  N30  1  0.18579000  0.72600000  0.03261000  1.0
  N  N31  1  0.68556000  0.77412000  0.46756000  1.0
  N  N32  1  0.81419000  0.27369000  0.96749000  1.0
  N  N33  1  0.31429000  0.22628000  0.53271000  1.0
  N  N34  1  0.07114000  0.78083000  0.08546000  1.0
  N  N35  1  0.57097000  0.71956000  0.41453000  1.0
  N  N36  1  0.92874000  0.21939000  0.91420000  1.0
  N  N37  1  0.42883000  0.28093000  0.58576000  1.0
  N  N38  1  0.14525000  0.54566000  0.22402000  1.0
  N  N39  1  0.64577000  0.95444000  0.27604000  1.0
  N  N40  1  0.85373000  0.45451000  0.77615000  1.0
  N  N41  1  0.35467000  0.04560000  0.72400000  1.0
  O  O42  1  0.28467000  0.17670000  0.14015000  1.0
  O  O43  1  0.78504000  0.32312000  0.35954000  1.0
  O  O44  1  0.71514000  0.82358000  0.85959000  1.0
  O  O45  1  0.21528000  0.67660000  0.64015000  1.0
  O  O46  1  0.27078000  0.39566000  0.87579000  1.0
  O  O47  1  0.77081000  0.10428000  0.62393000  1.0
  O  O48  1  0.72950000  0.60401000  0.12378000  1.0
  O  O49  1  0.22924000  0.89584000  0.37597000  1.0
  O  O50  1  0.21600000  0.05301000  0.94396000  1.0
  O  O51  1  0.71607000  0.44703000  0.55568000  1.0
  O  O52  1  0.78408000  0.94677000  0.05601000  1.0
  O  O53  1  0.28412000  0.55319000  0.44388000  1.0
  O  O54  1  0.49816000  0.16749000  0.96759000  1.0
  O  O55  1  0.99823000  0.33220000  0.53265000  1.0
  O  O56  1  0.50211000  0.83156000  0.03289000  1.0
  O  O57  1  0.00184000  0.66791000  0.46744000  1.0
  O  O58  1  0.11884000  0.20829000  0.34372000  1.0
  O  O59  1  0.61868000  0.29146000  0.15613000  1.0
  O  O60  1  0.88169000  0.79165000  0.65640000  1.0
  O  O61  1  0.38158000  0.70801000  0.84359000  1.0
  O  O62  1  0.00621000  0.94862000  0.79523000  1.0
  O  O63  1  0.50624000  0.55131000  0.70477000  1.0
  O  O64  1  0.99383000  0.05168000  0.20486000  1.0
  O  O65  1  0.49436000  0.44843000  0.29515000  1.0
