# generated using pymatgen
data_ZnH23C25NO4
_symmetry_space_group_name_H-M   'P 1'
_cell_length_a   14.11780000
_cell_length_b   15.28890000
_cell_length_c   17.12170000
_cell_angle_alpha   91.19450000
_cell_angle_beta   98.96350000
_cell_angle_gamma   91.17700000
_symmetry_Int_Tables_number   1
_chemical_formula_structural   ZnH23C25NO4
_chemical_formula_sum   'Zn2 H46 C50 N2 O8'
_cell_volume   3648.65987737
_cell_formula_units_Z   2
loop_
 _symmetry_equiv_pos_site_id
 _symmetry_equiv_pos_as_xyz
  1  'x, y, z'
loop_
 _atom_site_type_symbol
 _atom_site_label
 _atom_site_symmetry_multiplicity
 _atom_site_fract_x
 _atom_site_fract_y
 _atom_site_fract_z
 _atom_site_occupancy
  Zn  Zn0  1  0.39991000  0.50334000  0.49832000  1.0
  Zn  Zn1  1  0.60826000  0.51015000  0.51263000  1.0
  H  H2  1  0.62436000  0.39916000  0.27671000  1.0
  H  H3  1  0.36496000  0.50151000  0.74635000  1.0
  H  H4  1  0.90157000  0.47405000  0.38303000  1.0
  H  H5  1  0.09622000  0.64306000  0.55155000  1.0
  H  H6  1  0.72861000  0.48088000  0.40014000  1.0
  H  H7  1  0.27038000  0.62430000  0.54255000  1.0
  H  H8  1  0.97405000  0.56706000  0.62496000  1.0
  H  H9  1  0.04396000  0.38426000  0.44629000  1.0
  H  H10  1  0.65262000  0.41913000  0.74507000  1.0
  H  H11  1  0.33204000  0.47884000  0.24361000  1.0
  H  H12  1  0.60017000  0.39279000  0.01239000  1.0
  H  H13  1  0.38065000  0.38338000  0.98724000  1.0
  H  H14  1  0.37372000  0.45368000  0.88471000  1.0
  H  H15  1  0.60617000  0.35376000  0.13503000  1.0
  H  H16  1  0.38236000  0.06872000  0.56462000  1.0
  H  H17  1  0.65560000  0.94684000  0.52083000  1.0
  H  H18  1  0.39046000  0.23193000  0.56897000  1.0
  H  H19  1  0.65015000  0.78398000  0.51488000  1.0
  H  H20  1  0.64018000  0.22905000  0.45531000  1.0
  H  H21  1  0.34290000  0.78427000  0.47709000  1.0
  H  H22  1  0.62938000  0.06603000  0.44498000  1.0
  H  H23  1  0.34674000  0.94747000  0.48064000  1.0
  H  H24  1  0.65737000  0.64796000  0.73973000  1.0
  H  H25  1  0.77298000  0.68640000  0.78503000  1.0
  H  H26  1  0.69159000  0.75953000  0.73239000  1.0
  H  H27  1  0.81545000  0.71539000  0.64852000  1.0
  H  H28  1  0.69939000  0.67676000  0.60545000  1.0
  H  H29  1  0.73303000  0.53114000  0.66705000  1.0
  H  H30  1  0.85215000  0.56808000  0.70456000  1.0
  H  H31  1  0.35694000  0.27613000  0.34472000  1.0
  H  H32  1  0.25425000  0.20589000  0.33947000  1.0
  H  H33  1  0.27551000  0.26449000  0.25495000  1.0
  H  H34  1  0.14886000  0.34072000  0.31737000  1.0
  H  H35  1  0.25507000  0.40687000  0.32719000  1.0
  H  H36  1  0.30512000  0.34421000  0.46413000  1.0
  H  H37  1  0.19009000  0.29321000  0.45504000  1.0
  H  H38  1  0.30231000  0.58743000  0.08637000  1.0
  H  H39  1  0.34123000  0.53283000  0.00537000  1.0
  H  H40  1  0.21628000  0.54326000  0.00751000  1.0
  H  H41  1  0.26393000  0.39096000  0.04513000  1.0
  H  H42  1  0.22945000  0.44723000  0.12633000  1.0
  H  H43  1  0.78275000  0.47035000  0.89110000  1.0
  H  H44  1  0.73769000  0.45737000  0.98118000  1.0
  H  H45  1  0.83102000  0.38946000  0.95839000  1.0
  H  H46  1  0.67393000  0.30513000  0.93377000  1.0
  H  H47  1  0.72047000  0.31951000  0.84527000  1.0
  C  C48  1  0.52080000  0.33764000  0.51496000  1.0
  C  C49  1  0.49460000  0.67605000  0.49555000  1.0
  C  C50  1  0.43781000  0.10347000  0.53884000  1.0
  C  C51  1  0.58672000  0.91150000  0.51018000  1.0
  C  C52  1  0.44246000  0.19449000  0.54215000  1.0
  C  C53  1  0.58414000  0.82060000  0.50756000  1.0
  C  C54  1  0.51589000  0.23986000  0.51245000  1.0
  C  C55  1  0.49630000  0.77410000  0.49618000  1.0
  C  C56  1  0.58387000  0.19275000  0.47857000  1.0
  C  C57  1  0.41101000  0.82075000  0.48688000  1.0
  C  C58  1  0.57803000  0.10189000  0.47393000  1.0
  C  C59  1  0.41359000  0.91185000  0.48938000  1.0
  C  C60  1  0.50540000  0.05548000  0.50449000  1.0
  C  C61  1  0.50154000  0.95894000  0.50124000  1.0
  C  C62  1  0.88201000  0.49503000  0.43949000  1.0
  C  C63  1  0.12063000  0.58272000  0.52708000  1.0
  C  C64  1  0.78618000  0.49833000  0.44856000  1.0
  C  C65  1  0.21703000  0.57281000  0.52241000  1.0
  C  C66  1  0.82395000  0.54799000  0.57987000  1.0
  C  C67  1  0.19045000  0.43198000  0.46637000  1.0
  C  C68  1  0.92160000  0.54814000  0.57338000  1.0
  C  C69  1  0.09197000  0.43946000  0.46732000  1.0
  C  C70  1  0.48955000  0.47482000  0.35308000  1.0
  C  C71  1  0.50638000  0.49900000  0.65628000  1.0
  C  C72  1  0.95239000  0.52019000  0.50343000  1.0
  C  C73  1  0.05560000  0.51465000  0.49846000  1.0
  C  C74  1  0.47964000  0.44432000  0.26851000  1.0
  C  C75  1  0.50974000  0.46595000  0.73827000  1.0
  C  C76  1  0.55670000  0.40780000  0.23760000  1.0
  C  C77  1  0.42963000  0.47227000  0.77705000  1.0
  C  C78  1  0.54607000  0.38295000  0.15824000  1.0
  C  C79  1  0.43486000  0.44403000  0.85393000  1.0
  C  C80  1  0.45973000  0.39585000  0.10637000  1.0
  C  C81  1  0.51909000  0.40772000  0.89493000  1.0
  C  C82  1  0.37994000  0.42824000  0.13850000  1.0
  C  C83  1  0.59825000  0.39649000  0.85406000  1.0
  C  C84  1  0.39193000  0.45165000  0.21871000  1.0
  C  C85  1  0.59205000  0.42654000  0.77698000  1.0
  C  C86  1  0.45306000  0.38607000  0.02076000  1.0
  C  C87  1  0.52733000  0.39134000  0.97949000  1.0
  C  C88  1  0.79190000  0.57512000  0.65607000  1.0
  C  C89  1  0.75634000  0.66976000  0.65640000  1.0
  C  C90  1  0.71759000  0.69227000  0.73264000  1.0
  C  C91  1  0.22999000  0.34972000  0.43633000  1.0
  C  C92  1  0.22453000  0.34545000  0.34573000  1.0
  C  C93  1  0.28061000  0.26859000  0.31962000  1.0
  C  C94  1  0.28495000  0.44545000  0.08780000  1.0
  C  C95  1  0.28597000  0.53213000  0.04405000  1.0
  C  C96  1  0.68978000  0.35480000  0.89175000  1.0
  C  C97  1  0.76470000  0.42168000  0.93312000  1.0
  N  N98  1  0.75720000  0.52309000  0.51704000  1.0
  N  N99  1  0.25147000  0.49944000  0.49308000  1.0
  O  O100  1  0.44425000  0.37656000  0.52487000  1.0
  O  O101  1  0.57583000  0.63946000  0.50736000  1.0
  O  O102  1  0.59995000  0.37463000  0.50642000  1.0
  O  O103  1  0.41315000  0.63655000  0.48401000  1.0
  O  O104  1  0.41223000  0.47710000  0.38307000  1.0
  O  O105  1  0.58489000  0.49854000  0.62791000  1.0
  O  O106  1  0.57306000  0.49626000  0.38858000  1.0
  O  O107  1  0.42612000  0.52397000  0.62007000  1.0
