# generated using pymatgen
data_ZnH12C24NClO8
_symmetry_space_group_name_H-M   'P 1'
_cell_length_a   15.24630000
_cell_length_b   15.24780000
_cell_length_c   16.38350000
_cell_angle_alpha   92.57820000
_cell_angle_beta   92.50960000
_cell_angle_gamma   90.15030000
_symmetry_Int_Tables_number   1
_chemical_formula_structural   ZnH12C24NClO8
_chemical_formula_sum   'Zn2 H24 C48 N2 Cl2 O16'
_cell_volume   3801.16890952
_cell_formula_units_Z   2
loop_
 _symmetry_equiv_pos_site_id
 _symmetry_equiv_pos_as_xyz
  1  'x, y, z'
loop_
 _atom_site_type_symbol
 _atom_site_label
 _atom_site_symmetry_multiplicity
 _atom_site_fract_x
 _atom_site_fract_y
 _atom_site_fract_z
 _atom_site_occupancy
  Zn  Zn0  1  0.49437000  0.49422000  0.91347000  1.0
  Zn  Zn1  1  0.50563000  0.50568000  0.08652000  1.0
  H  H2  1  0.42170000  0.42204000  0.21393000  1.0
  H  H3  1  0.41800000  0.41835000  0.36545000  1.0
  H  H4  1  0.62010000  0.61979000  0.37910000  1.0
  H  H5  1  0.37980000  0.38026000  0.62088000  1.0
  H  H6  1  0.58191000  0.58170000  0.63457000  1.0
  H  H7  1  0.57820000  0.57798000  0.78608000  1.0
  H  H8  1  0.57176000  0.57161000  0.50334000  1.0
  H  H9  1  0.42815000  0.42846000  0.49665000  1.0
  H  H10  1  0.50438000  0.77509000  0.12124000  1.0
  H  H11  1  0.49459000  0.77307000  0.86258000  1.0
  H  H12  1  0.49605000  0.22478000  0.87878000  1.0
  H  H13  1  0.50578000  0.22678000  0.13743000  1.0
  H  H14  1  0.22668000  0.50518000  0.13752000  1.0
  H  H15  1  0.22514000  0.49578000  0.87888000  1.0
  H  H16  1  0.77344000  0.49328000  0.86241000  1.0
  H  H17  1  0.77491000  0.50266000  0.12106000  1.0
  H  H18  1  0.51507000  0.15142000  0.22089000  1.0
  H  H19  1  0.51194000  0.85126000  0.21008000  1.0
  H  H20  1  0.48883000  0.14864000  0.78994000  1.0
  H  H21  1  0.48558000  0.84847000  0.77907000  1.0
  H  H22  1  0.85091000  0.50948000  0.20995000  1.0
  H  H23  1  0.15109000  0.51306000  0.22103000  1.0
  H  H24  1  0.84896000  0.48397000  0.77904000  1.0
  H  H25  1  0.14912000  0.48753000  0.78995000  1.0
  C  C26  1  0.50100000  0.32951000  0.01105000  1.0
  C  C27  1  0.32961000  0.50121000  0.01117000  1.0
  C  C28  1  0.49910000  0.67037000  0.98901000  1.0
  C  C29  1  0.67043000  0.49816000  0.98876000  1.0
  C  C30  1  0.46420000  0.46443000  0.25385000  1.0
  C  C31  1  0.46288000  0.46312000  0.33815000  1.0
  C  C32  1  0.51952000  0.51957000  0.38659000  1.0
  C  C33  1  0.57478000  0.57465000  0.34550000  1.0
  C  C34  1  0.57171000  0.57158000  0.26024000  1.0
  C  C35  1  0.52417000  0.52417000  0.47567000  1.0
  C  C36  1  0.47574000  0.47589000  0.52432000  1.0
  C  C37  1  0.42512000  0.42540000  0.65448000  1.0
  C  C38  1  0.48039000  0.48048000  0.61341000  1.0
  C  C39  1  0.53703000  0.53693000  0.66185000  1.0
  C  C40  1  0.53571000  0.53559000  0.74616000  1.0
  C  C41  1  0.42821000  0.42844000  0.73974000  1.0
  C  C42  1  0.50269000  0.81488000  0.06741000  1.0
  C  C43  1  0.50342000  0.90693000  0.07234000  1.0
  C  C44  1  0.50751000  0.95569000  0.14947000  1.0
  C  C45  1  0.49668000  0.81367000  0.91929000  1.0
  C  C46  1  0.49660000  0.90579000  0.92088000  1.0
  C  C47  1  0.49277000  0.95359000  0.84727000  1.0
  C  C48  1  0.49783000  0.18499000  0.93260000  1.0
  C  C49  1  0.49725000  0.09294000  0.92766000  1.0
  C  C50  1  0.49319000  0.04419000  0.85053000  1.0
  C  C51  1  0.50379000  0.18619000  0.08071000  1.0
  C  C52  1  0.50402000  0.09408000  0.07912000  1.0
  C  C53  1  0.50789000  0.04628000  0.15271000  1.0
  C  C54  1  0.49947000  0.76872000  0.99175000  1.0
  C  C55  1  0.50020000  0.95355000  0.99831000  1.0
  C  C56  1  0.50091000  0.23116000  0.00827000  1.0
  C  C57  1  0.50050000  0.04632000  0.00169000  1.0
  C  C58  1  0.18617000  0.50297000  0.08079000  1.0
  C  C59  1  0.09405000  0.50267000  0.07916000  1.0
  C  C60  1  0.04608000  0.50614000  0.15273000  1.0
  C  C61  1  0.18525000  0.49723000  0.93268000  1.0
  C  C62  1  0.09320000  0.49619000  0.92769000  1.0
  C  C63  1  0.04458000  0.49199000  0.85054000  1.0
  C  C64  1  0.81391000  0.49521000  0.91917000  1.0
  C  C65  1  0.90603000  0.49507000  0.92082000  1.0
  C  C66  1  0.95399000  0.49136000  0.84725000  1.0
  C  C67  1  0.81482000  0.50098000  0.06727000  1.0
  C  C68  1  0.90686000  0.50163000  0.07226000  1.0
  C  C69  1  0.95549000  0.50559000  0.14941000  1.0
  C  C70  1  0.23127000  0.50050000  0.00837000  1.0
  C  C71  1  0.04642000  0.49912000  0.00170000  1.0
  C  C72  1  0.76879000  0.49802000  0.99157000  1.0
  C  C73  1  0.95365000  0.49857000  0.99827000  1.0
  N  N74  1  0.51784000  0.51789000  0.21463000  1.0
  N  N75  1  0.48208000  0.48211000  0.78536000  1.0
  Cl  Cl76  1  0.64016000  0.63977000  0.21141000  1.0
  Cl  Cl77  1  0.35974000  0.36023000  0.78855000  1.0
  O  O78  1  0.50126000  0.36553000  0.94233000  1.0
  O  O79  1  0.50074000  0.36961000  0.08097000  1.0
  O  O80  1  0.36963000  0.50095000  0.08109000  1.0
  O  O81  1  0.36573000  0.50197000  0.94249000  1.0
  O  O82  1  0.49851000  0.63437000  0.05772000  1.0
  O  O83  1  0.49945000  0.63023000  0.91910000  1.0
  O  O84  1  0.63043000  0.49854000  0.91882000  1.0
  O  O85  1  0.63427000  0.49797000  0.05744000  1.0
  O  O86  1  0.51208000  0.08850000  0.22835000  1.0
  O  O87  1  0.51135000  0.91442000  0.22203000  1.0
  O  O88  1  0.48936000  0.08548000  0.77798000  1.0
  O  O89  1  0.48857000  0.91140000  0.77165000  1.0
  O  O90  1  0.91406000  0.50927000  0.22195000  1.0
  O  O91  1  0.08813000  0.51015000  0.22839000  1.0
  O  O92  1  0.91189000  0.48710000  0.77161000  1.0
  O  O93  1  0.08598000  0.48829000  0.77800000  1.0
