# generated using pymatgen
data_CdH8C14(SN2)3
_symmetry_space_group_name_H-M   'P 1'
_cell_length_a   7.72789000
_cell_length_b   9.48117000
_cell_length_c   14.22160035
_cell_angle_alpha   109.47475579
_cell_angle_beta   103.66789153
_cell_angle_gamma   89.99410000
_symmetry_Int_Tables_number   1
_chemical_formula_structural   CdH8C14(SN2)3
_chemical_formula_sum   'Cd2 H16 C28 S6 N12'
_cell_volume   951.04722031
_cell_formula_units_Z   2
loop_
 _symmetry_equiv_pos_site_id
 _symmetry_equiv_pos_as_xyz
  1  'x, y, z'
loop_
 _atom_site_type_symbol
 _atom_site_label
 _atom_site_symmetry_multiplicity
 _atom_site_fract_x
 _atom_site_fract_y
 _atom_site_fract_z
 _atom_site_occupancy
  Cd  Cd0  1  0.50000000  0.50000000  0.49999000  1.0
  Cd  Cd1  1  0.99999000  0.00002000  0.50001000  1.0
  H  H2  1  0.18735000  0.57035000  0.32890000  1.0
  H  H3  1  0.94811000  0.44592000  0.17155000  1.0
  H  H4  1  0.08562000  0.02026000  0.20569000  1.0
  H  H5  1  0.32295000  0.16478000  0.36402000  1.0
  H  H6  1  0.31247000  0.24151000  0.67094000  1.0
  H  H7  1  0.55175000  0.27442000  0.82828000  1.0
  H  H8  1  0.41416000  0.81466000  0.79419000  1.0
  H  H9  1  0.17682000  0.80088000  0.63585000  1.0
  H  H10  1  0.81268000  0.42962000  0.67107000  1.0
  H  H11  1  0.05191000  0.55404000  0.82843000  1.0
  H  H12  1  0.91438000  0.97971000  0.79431000  1.0
  H  H13  1  0.67704000  0.83520000  0.63598000  1.0
  H  H14  1  0.68755000  0.75853000  0.32907000  1.0
  H  H15  1  0.44826000  0.72560000  0.17174000  1.0
  H  H16  1  0.58582000  0.18535000  0.20580000  1.0
  H  H17  1  0.82316000  0.19917000  0.36414000  1.0
  C  C18  1  0.16297000  0.44850000  0.29872000  1.0
  C  C19  1  0.02899000  0.37774000  0.21034000  1.0
  C  C20  1  0.99944000  0.22070000  0.17360000  1.0
  C  C21  1  0.10513000  0.14212000  0.23056000  1.0
  C  C22  1  0.23700000  0.22174000  0.31813000  1.0
  C  C23  1  0.86359000  0.14234000  0.07913000  1.0
  C  C24  1  0.15354000  0.36070000  0.56045000  1.0
  C  C25  1  0.33686000  0.14988000  0.70113000  1.0
  C  C26  1  0.47085000  0.16744000  0.78948000  1.0
  C  C27  1  0.50041000  0.04713000  0.82620000  1.0
  C  C28  1  0.39474000  0.91159000  0.76928000  1.0
  C  C29  1  0.26282000  0.90372000  0.68173000  1.0
  C  C30  1  0.63629000  0.06328000  0.92068000  1.0
  C  C31  1  0.34635000  0.80010000  0.43935000  1.0
  C  C32  1  0.83706000  0.55146000  0.70127000  1.0
  C  C33  1  0.97102000  0.62223000  0.78965000  1.0
  C  C34  1  0.00057000  0.77926000  0.82639000  1.0
  C  C35  1  0.89486000  0.85785000  0.76944000  1.0
  C  C36  1  0.76300000  0.77823000  0.68187000  1.0
  C  C37  1  0.13642000  0.85763000  0.92087000  1.0
  C  C38  1  0.84648000  0.63934000  0.43958000  1.0
  C  C39  1  0.66315000  0.85015000  0.29888000  1.0
  C  C40  1  0.52916000  0.83259000  0.21053000  1.0
  C  C41  1  0.49959000  0.95288000  0.17380000  1.0
  C  C42  1  0.60525000  0.08843000  0.23072000  1.0
  C  C43  1  0.73717000  0.09631000  0.31827000  1.0
  C  C44  1  0.36370000  0.93671000  0.07932000  1.0
  C  C45  1  0.65360000  0.19991000  0.56065000  1.0
  S  S46  1  0.27677000  0.51737000  0.62852000  1.0
  S  S47  1  0.22304000  0.88862000  0.37127000  1.0
  S  S48  1  0.72326000  0.48266000  0.37148000  1.0
  S  S49  1  0.77692000  0.11140000  0.62875000  1.0
  S  S50  1  0.74991000  0.23472000  0.99996000  1.0
  S  S51  1  0.25011000  0.76526000  0.00004000  1.0
  N  N52  1  0.26703000  0.37226000  0.35127000  1.0
  N  N53  1  0.81429000  0.99666000  0.04442000  1.0
  N  N54  1  0.06490000  0.24596000  0.51220000  1.0
  N  N55  1  0.23283000  0.02107000  0.64860000  1.0
  N  N56  1  0.68566000  0.95215000  0.95525000  1.0
  N  N57  1  0.43518000  0.73369000  0.48763000  1.0
  N  N58  1  0.73298000  0.62772000  0.64872000  1.0
  N  N59  1  0.18570000  0.00332000  0.95557000  1.0
  N  N60  1  0.93509000  0.75407000  0.48783000  1.0
  N  N61  1  0.76718000  0.97897000  0.35141000  1.0
  N  N62  1  0.31433000  0.04784000  0.04475000  1.0
  N  N63  1  0.56479000  0.26629000  0.51236000  1.0
