# generated using pymatgen
data_ErAgH8C12(N2O5)2
_symmetry_space_group_name_H-M   'P 1'
_cell_length_a   6.70842000
_cell_length_b   9.25494000
_cell_length_c   14.39656198
_cell_angle_alpha   78.32782329
_cell_angle_beta   81.69965594
_cell_angle_gamma   76.33300000
_symmetry_Int_Tables_number   1
_chemical_formula_structural   ErAgH8C12(N2O5)2
_chemical_formula_sum   'Er2 Ag2 H16 C24 N8 O20'
_cell_volume   846.16678859
_cell_formula_units_Z   2
loop_
 _symmetry_equiv_pos_site_id
 _symmetry_equiv_pos_as_xyz
  1  'x, y, z'
loop_
 _atom_site_type_symbol
 _atom_site_label
 _atom_site_symmetry_multiplicity
 _atom_site_fract_x
 _atom_site_fract_y
 _atom_site_fract_z
 _atom_site_occupancy
  Er  Er0  1  0.18225000  0.50970000  0.72720000  1.0
  Er  Er1  1  0.81771000  0.49031000  0.27279000  1.0
  Ag  Ag2  1  0.79114000  0.17539000  0.80052000  1.0
  Ag  Ag3  1  0.20888000  0.82461000  0.19949000  1.0
  H  H4  1  0.48841000  0.72973000  0.83812000  1.0
  H  H5  1  0.51156000  0.27029000  0.16186000  1.0
  H  H6  1  0.39292000  0.65852000  0.01592000  1.0
  H  H7  1  0.60708000  0.34147000  0.98407000  1.0
  H  H8  1  0.81242000  0.04660000  0.61364000  1.0
  H  H9  1  0.18761000  0.95339000  0.38634000  1.0
  H  H10  1  0.83303000  0.13878000  0.43520000  1.0
  H  H11  1  0.16695000  0.86124000  0.56479000  1.0
  H  H12  1  0.03276000  0.61275000  0.91753000  1.0
  H  H13  1  0.96726000  0.38726000  0.08246000  1.0
  H  H14  1  0.16690000  0.44476000  0.93076000  1.0
  H  H15  1  0.83310000  0.55523000  0.06924000  1.0
  H  H16  1  0.88318000  0.76001000  0.70747000  1.0
  H  H17  1  0.11682000  0.23998000  0.29253000  1.0
  H  H18  1  0.99285000  0.81853000  0.77889000  1.0
  H  H19  1  0.00715000  0.18146000  0.22113000  1.0
  C  C20  1  0.41901000  0.81590000  0.88194000  1.0
  C  C21  1  0.58098000  0.18410000  0.11806000  1.0
  C  C22  1  0.36548000  0.77586000  0.97990000  1.0
  C  C23  1  0.63452000  0.22413000  0.02011000  1.0
  C  C24  1  0.24404000  0.02701000  0.99048000  1.0
  C  C25  1  0.75599000  0.97300000  0.00951000  1.0
  C  C26  1  0.29720000  0.06523000  0.89210000  1.0
  C  C27  1  0.70280000  0.93479000  0.10789000  1.0
  C  C28  1  0.25425000  0.22552000  0.83938000  1.0
  C  C29  1  0.74572000  0.77449000  0.16063000  1.0
  C  C30  1  0.14605000  0.14257000  0.05352000  1.0
  C  C31  1  0.85399000  0.85742000  0.94648000  1.0
  C  C32  1  0.79590000  0.16624000  0.58369000  1.0
  C  C33  1  0.20409000  0.83377000  0.41632000  1.0
  C  C34  1  0.80853000  0.21634000  0.48543000  1.0
  C  C35  1  0.19148000  0.78364000  0.51459000  1.0
  C  C36  1  0.75594000  0.46130000  0.50979000  1.0
  C  C37  1  0.24407000  0.53868000  0.49021000  1.0
  C  C38  1  0.73845000  0.41133000  0.60866000  1.0
  C  C39  1  0.26156000  0.58868000  0.39134000  1.0
  C  C40  1  0.68673000  0.52032000  0.67877000  1.0
  C  C41  1  0.31325000  0.47970000  0.32121000  1.0
  C  C42  1  0.73566000  0.62731000  0.46590000  1.0
  C  C43  1  0.26434000  0.37266000  0.53410000  1.0
  N  N44  1  0.38866000  0.96010000  0.83826000  1.0
  N  N45  1  0.61133000  0.03991000  0.16173000  1.0
  N  N46  1  0.28144000  0.88112000  0.03351000  1.0
  N  N47  1  0.71860000  0.11889000  0.96649000  1.0
  N  N48  1  0.76318000  0.26269000  0.64534000  1.0
  N  N49  1  0.23679000  0.73731000  0.35468000  1.0
  N  N50  1  0.79239000  0.36313000  0.44891000  1.0
  N  N51  1  0.20762000  0.63686000  0.55108000  1.0
  O  O52  1  0.07257000  0.28793000  0.81759000  1.0
  O  O53  1  0.92739000  0.71210000  0.18244000  1.0
  O  O54  1  0.39999000  0.29573000  0.81482000  1.0
  O  O55  1  0.59999000  0.70429000  0.18517000  1.0
  O  O56  1  0.14364000  0.28085000  0.02031000  1.0
  O  O57  1  0.85641000  0.71915000  0.97971000  1.0
  O  O58  1  0.07023000  0.09259000  0.13642000  1.0
  O  O59  1  0.92976000  0.90741000  0.86358000  1.0
  O  O60  1  0.83466000  0.55039000  0.71141000  1.0
  O  O61  1  0.16533000  0.44961000  0.28858000  1.0
  O  O62  1  0.49810000  0.56702000  0.70495000  1.0
  O  O63  1  0.50189000  0.43299000  0.29504000  1.0
  O  O64  1  0.71039000  0.72047000  0.52003000  1.0
  O  O65  1  0.28961000  0.27949000  0.47999000  1.0
  O  O66  1  0.74751000  0.65397000  0.37407000  1.0
  O  O67  1  0.25245000  0.34601000  0.62593000  1.0
  O  O68  1  0.14899000  0.54202000  0.88621000  1.0
  O  O69  1  0.85102000  0.45798000  0.11379000  1.0
  O  O70  1  0.01919000  0.76835000  0.72028000  1.0
  O  O71  1  0.98080000  0.23165000  0.27973000  1.0
