# generated using pymatgen
data_ZnH23C33N7O6
_symmetry_space_group_name_H-M   'P 1'
_cell_length_a   9.18398000
_cell_length_b   13.32040000
_cell_length_c   28.19320000
_cell_angle_alpha   89.99990000
_cell_angle_beta   92.93260000
_cell_angle_gamma   89.99960000
_symmetry_Int_Tables_number   1
_chemical_formula_structural   ZnH23C33N7O6
_chemical_formula_sum   'Zn4 H92 C132 N28 O24'
_cell_volume   3444.47825372
_cell_formula_units_Z   4
loop_
 _symmetry_equiv_pos_site_id
 _symmetry_equiv_pos_as_xyz
  1  'x, y, z'
loop_
 _atom_site_type_symbol
 _atom_site_label
 _atom_site_symmetry_multiplicity
 _atom_site_fract_x
 _atom_site_fract_y
 _atom_site_fract_z
 _atom_site_occupancy
  Zn  Zn0  1  0.99266000  0.57168000  0.16391000  1.0
  Zn  Zn1  1  0.50733000  0.07168000  0.33609000  1.0
  Zn  Zn2  1  0.00734000  0.42832000  0.83609000  1.0
  Zn  Zn3  1  0.49267000  0.92832000  0.66391000  1.0
  H  H4  1  0.25447000  0.90816000  0.99586000  1.0
  H  H5  1  0.24552000  0.40817000  0.50414000  1.0
  H  H6  1  0.74553000  0.09184000  0.00414000  1.0
  H  H7  1  0.75447000  0.59184000  0.49586000  1.0
  H  H8  1  0.21862000  0.69344000  0.12452000  1.0
  H  H9  1  0.28138000  0.19345000  0.37548000  1.0
  H  H10  1  0.78138000  0.30656000  0.87548000  1.0
  H  H11  1  0.71862000  0.80655000  0.62452000  1.0
  H  H12  1  0.24952000  0.81005000  0.05762000  1.0
  H  H13  1  0.25047000  0.31006000  0.44238000  1.0
  H  H14  1  0.75047000  0.18995000  0.94238000  1.0
  H  H15  1  0.74952000  0.68994000  0.55762000  1.0
  H  H16  1  0.81140000  0.73477000  0.00624000  1.0
  H  H17  1  0.68859000  0.23477000  0.49376000  1.0
  H  H18  1  0.18860000  0.26523000  0.99376000  1.0
  H  H19  1  0.31140000  0.76523000  0.50624000  1.0
  H  H20  1  0.79811000  0.62065000  0.07783000  1.0
  H  H21  1  0.70189000  0.12065000  0.42217000  1.0
  H  H22  1  0.20189000  0.37935000  0.92216000  1.0
  H  H23  1  0.29811000  0.87936000  0.57784000  1.0
  H  H24  1  0.79533000  0.96722000  0.87315000  1.0
  H  H25  1  0.70466000  0.46722000  0.62685000  1.0
  H  H26  1  0.20466000  0.03278000  0.12685000  1.0
  H  H27  1  0.29532000  0.53278000  0.37315000  1.0
  H  H28  1  0.93493000  0.09473000  0.82887000  1.0
  H  H29  1  0.56506000  0.59473000  0.67113000  1.0
  H  H30  1  0.06506000  0.90527000  0.17112000  1.0
  H  H31  1  0.43493000  0.40527000  0.32887000  1.0
  H  H32  1  0.18627000  0.13979000  0.85387000  1.0
  H  H33  1  0.31373000  0.63980000  0.64613000  1.0
  H  H34  1  0.81373000  0.86021000  0.14613000  1.0
  H  H35  1  0.68626000  0.36021000  0.35387000  1.0
  H  H36  1  0.31367000  0.05799000  0.92452000  1.0
  H  H37  1  0.18633000  0.55799000  0.57548000  1.0
  H  H38  1  0.68633000  0.94202000  0.07548000  1.0
  H  H39  1  0.81366000  0.44202000  0.42452000  1.0
  H  H40  1  0.78058000  0.87004000  0.25492000  1.0
  H  H41  1  0.71943000  0.37004000  0.24508000  1.0
  H  H42  1  0.21943000  0.12997000  0.74508000  1.0
  H  H43  1  0.28057000  0.62996000  0.75492000  1.0
  H  H44  1  0.04754000  0.94431000  0.38154000  1.0
  H  H45  1  0.45247000  0.44431000  0.11846000  1.0
  H  H46  1  0.95247000  0.05569000  0.61846000  1.0
  H  H47  1  0.54753000  0.55569000  0.88154000  1.0
  H  H48  1  0.19133000  0.72574000  0.28908000  1.0
  H  H49  1  0.30867000  0.22574000  0.21092000  1.0
  H  H50  1  0.80866000  0.27426000  0.71092000  1.0
  H  H51  1  0.69133000  0.77425000  0.78908000  1.0
  H  H52  1  0.30274000  0.74784000  0.36073000  1.0
  H  H53  1  0.19726000  0.24785000  0.13927000  1.0
  H  H54  1  0.69726000  0.25215000  0.63927000  1.0
  H  H55  1  0.80273000  0.75216000  0.86073000  1.0
  H  H56  1  0.21268000  0.81225000  0.40553000  1.0
  H  H57  1  0.28732000  0.31226000  0.09447000  1.0
  H  H58  1  0.78733000  0.18774000  0.59447000  1.0
  H  H59  1  0.71267000  0.68774000  0.90553000  1.0
  H  H60  1  0.87728000  0.32577000  0.10196000  1.0
  H  H61  1  0.62273000  0.82577000  0.39804000  1.0
  H  H62  1  0.12272000  0.67423000  0.89805000  1.0
  H  H63  1  0.37728000  0.17422000  0.60195000  1.0
  H  H64  1  0.46251000  0.41174000  0.92585000  1.0
  H  H65  1  0.03749000  0.91174000  0.57415000  1.0
  H  H66  1  0.53749000  0.58825000  0.07415000  1.0
  H  H67  1  0.96251000  0.08825000  0.42585000  1.0
  H  H68  1  0.46169000  0.29787000  0.99711000  1.0
  H  H69  1  0.03832000  0.79787000  0.50289000  1.0
  H  H70  1  0.53833000  0.70212000  0.00289000  1.0
  H  H71  1  0.96168000  0.20213000  0.49711000  1.0
  H  H72  1  0.86885000  0.43518000  0.04548000  1.0
  H  H73  1  0.63116000  0.93518000  0.45452000  1.0
  H  H74  1  0.13115000  0.56482000  0.95452000  1.0
  H  H75  1  0.36885000  0.06482000  0.54548000  1.0
  H  H76  1  0.85392000  0.53958000  0.97246000  1.0
  H  H77  1  0.64608000  0.03958000  0.52754000  1.0
  H  H78  1  0.14608000  0.46041000  0.02754000  1.0
  H  H79  1  0.35392000  0.96041000  0.47246000  1.0
  H  H80  1  0.92615000  0.20789000  0.18812000  1.0
  H  H81  1  0.57386000  0.70789000  0.31188000  1.0
  H  H82  1  0.07385000  0.79211000  0.81188000  1.0
  H  H83  1  0.42614000  0.29210000  0.68812000  1.0
  H  H84  1  0.80005000  0.07821000  0.23513000  1.0
  H  H85  1  0.69997000  0.57821000  0.26487000  1.0
  H  H86  1  0.19996000  0.92178000  0.76488000  1.0
  H  H87  1  0.30004000  0.42178000  0.73513000  1.0
  H  H88  1  0.55918000  0.01301000  0.20899000  1.0
  H  H89  1  0.94084000  0.51301000  0.29101000  1.0
  H  H90  1  0.44083000  0.98699000  0.79101000  1.0
  H  H91  1  0.05918000  0.48698000  0.70899000  1.0
  H  H92  1  0.43069000  0.07467000  0.13374000  1.0
  H  H93  1  0.06932000  0.57466000  0.36626000  1.0
  H  H94  1  0.56931000  0.92533000  0.86626000  1.0
  H  H95  1  0.93069000  0.42533000  0.63374000  1.0
  C  C96  1  0.13079000  0.70489000  0.09756000  1.0
  C  C97  1  0.36921000  0.20490000  0.40244000  1.0
  C  C98  1  0.86921000  0.29511000  0.90244000  1.0
  C  C99  1  0.63078000  0.79510000  0.59757000  1.0
  C  C100  1  0.14672000  0.77000000  0.05979000  1.0
  C  C101  1  0.35328000  0.27000000  0.44021000  1.0
  C  C102  1  0.85328000  0.23000000  0.94020000  1.0
  C  C103  1  0.64672000  0.73000000  0.55979000  1.0
  C  C104  1  0.03066000  0.78276000  0.02594000  1.0
  C  C105  1  0.46934000  0.28277000  0.47406000  1.0
  C  C106  1  0.96934000  0.21724000  0.97405000  1.0
  C  C107  1  0.53065000  0.71724000  0.52594000  1.0
  C  C108  1  0.90320000  0.72694000  0.03195000  1.0
  C  C109  1  0.59679000  0.22695000  0.46805000  1.0
  C  C110  1  0.09679000  0.27305000  0.96805000  1.0
  C  C111  1  0.40320000  0.77306000  0.53196000  1.0
  C  C112  1  0.89504000  0.66410000  0.07080000  1.0
  C  C113  1  0.60496000  0.16410000  0.42920000  1.0
  C  C114  1  0.10497000  0.33590000  0.92920000  1.0
  C  C115  1  0.39504000  0.83591000  0.57080000  1.0
  C  C116  1  0.03631000  0.85166000  0.98613000  1.0
  C  C117  1  0.46369000  0.35167000  0.51387000  1.0
  C  C118  1  0.96368000  0.14834000  0.01387000  1.0
  C  C119  1  0.53630000  0.64834000  0.48613000  1.0
  C  C120  1  0.97666000  0.94040000  0.92407000  1.0
  C  C121  1  0.52333000  0.44040000  0.57594000  1.0
  C  C122  1  0.02334000  0.05961000  0.07593000  1.0
  C  C123  1  0.47666000  0.55961000  0.42407000  1.0
  C  C124  1  0.90733000  0.98651000  0.88422000  1.0
  C  C125  1  0.59266000  0.48650000  0.61579000  1.0
  C  C126  1  0.09266000  0.01350000  0.11578000  1.0
  C  C127  1  0.40733000  0.51350000  0.38422000  1.0
  C  C128  1  0.98590000  0.05738000  0.85988000  1.0
  C  C129  1  0.51410000  0.55738000  0.64012000  1.0
  C  C130  1  0.01410000  0.94262000  0.14011000  1.0
  C  C131  1  0.48589000  0.44262000  0.35989000  1.0
  C  C132  1  0.13070000  0.08318000  0.87423000  1.0
  C  C133  1  0.36929000  0.58318000  0.62577000  1.0
  C  C134  1  0.86929000  0.91682000  0.12577000  1.0
  C  C135  1  0.63070000  0.41683000  0.37423000  1.0
  C  C136  1  0.20171000  0.03853000  0.91355000  1.0
  C  C137  1  0.29829000  0.53854000  0.58645000  1.0
  C  C138  1  0.79829000  0.96148000  0.08645000  1.0
  C  C139  1  0.70170000  0.46147000  0.41355000  1.0
  C  C140  1  0.12292000  0.96733000  0.93794000  1.0
  C  C141  1  0.37707000  0.46734000  0.56206000  1.0
  C  C142  1  0.87707000  0.03267000  0.06205000  1.0
  C  C143  1  0.62292000  0.53267000  0.43795000  1.0
  C  C144  1  0.96300000  0.72655000  0.22265000  1.0
  C  C145  1  0.53700000  0.22655000  0.27735000  1.0
  C  C146  1  0.03700000  0.27345000  0.77735000  1.0
  C  C147  1  0.46299000  0.77344000  0.72265000  1.0
  C  C148  1  0.98564000  0.79326000  0.26559000  1.0
  C  C149  1  0.51437000  0.29326000  0.23441000  1.0
  C  C150  1  0.01437000  0.20675000  0.73441000  1.0
  C  C151  1  0.48563000  0.70674000  0.76559000  1.0
  C  C152  1  0.87937000  0.86220000  0.27766000  1.0
  C  C153  1  0.62064000  0.36220000  0.22234000  1.0
  C  C154  1  0.12063000  0.13780000  0.72234000  1.0
  C  C155  1  0.37936000  0.63779000  0.77766000  1.0
  C  C156  1  0.89840000  0.91837000  0.31939000  1.0
  C  C157  1  0.60160000  0.41837000  0.18061000  1.0
  C  C158  1  0.10160000  0.08163000  0.68061000  1.0
  C  C159  1  0.39840000  0.58163000  0.81939000  1.0
  C  C160  1  0.02348000  0.90384000  0.34836000  1.0
  C  C161  1  0.47652000  0.40384000  0.15164000  1.0
  C  C162  1  0.97652000  0.09616000  0.65164000  1.0
  C  C163  1  0.52348000  0.59615000  0.84836000  1.0
  C  C164  1  0.10735000  0.78046000  0.29620000  1.0
  C  C165  1  0.39265000  0.28046000  0.20380000  1.0
  C  C166  1  0.89264000  0.21954000  0.70380000  1.0
  C  C167  1  0.60735000  0.71954000  0.79620000  1.0
  C  C168  1  0.78184000  0.98772000  0.33610000  1.0
  C  C169  1  0.71816000  0.48772000  0.16390000  1.0
  C  C170  1  0.21817000  0.01228000  0.66390000  1.0
  C  C171  1  0.28183000  0.51228000  0.83610000  1.0
  C  C172  1  0.25075000  0.81916000  0.36946000  1.0
  C  C173  1  0.24925000  0.31916000  0.13054000  1.0
  C  C174  1  0.74925000  0.18084000  0.63054000  1.0
  C  C175  1  0.75074000  0.68084000  0.86946000  1.0
  C  C176  1  0.36283000  0.90409000  0.36749000  1.0
  C  C177  1  0.13717000  0.40409000  0.13251000  1.0
  C  C178  1  0.63717000  0.09591000  0.63251000  1.0
  C  C179  1  0.86283000  0.59592000  0.86749000  1.0
  C  C180  1  0.55108000  0.41362000  0.95318000  1.0
  C  C181  1  0.94892000  0.91362000  0.54682000  1.0
  C  C182  1  0.44892000  0.58637000  0.04682000  1.0
  C  C183  1  0.05109000  0.08638000  0.45318000  1.0
  C  C184  1  0.55026000  0.35089000  0.99260000  1.0
  C  C185  1  0.94974000  0.85090000  0.50740000  1.0
  C  C186  1  0.44974000  0.64910000  0.00740000  1.0
  C  C187  1  0.05026000  0.14910000  0.49260000  1.0
  C  C188  1  0.66546000  0.35629000  0.02719000  1.0
  C  C189  1  0.83453000  0.85629000  0.47281000  1.0
  C  C190  1  0.33454000  0.64371000  0.97281000  1.0
  C  C191  1  0.16546000  0.14371000  0.52719000  1.0
  C  C192  1  0.77674000  0.42623000  0.01995000  1.0
  C  C193  1  0.72326000  0.92623000  0.48005000  1.0
  C  C194  1  0.22326000  0.57376000  0.98005000  1.0
  C  C195  1  0.27674000  0.07377000  0.51995000  1.0
  C  C196  1  0.76783000  0.48547000  0.97916000  1.0
  C  C197  1  0.73217000  0.98548000  0.52084000  1.0
  C  C198  1  0.23217000  0.51452000  0.02084000  1.0
  C  C199  1  0.26783000  0.01452000  0.47916000  1.0
  C  C200  1  0.66687000  0.28947000  0.06828000  1.0
  C  C201  1  0.83313000  0.78947000  0.43172000  1.0
  C  C202  1  0.33313000  0.71053000  0.93172000  1.0
  C  C203  1  0.16687000  0.21053000  0.56828000  1.0
  C  C204  1  0.74674000  0.21327000  0.13455000  1.0
  C  C205  1  0.75328000  0.71327000  0.36545000  1.0
  C  C206  1  0.25327000  0.78673000  0.86545000  1.0
  C  C207  1  0.24673000  0.28673000  0.63455000  1.0
  C  C208  1  0.81967000  0.17864000  0.17612000  1.0
  C  C209  1  0.68035000  0.67864000  0.32388000  1.0
  C  C210  1  0.18034000  0.82136000  0.82388000  1.0
  C  C211  1  0.31967000  0.32136000  0.67612000  1.0
  C  C212  1  0.74898000  0.10594000  0.20197000  1.0
  C  C213  1  0.75104000  0.60593000  0.29804000  1.0
  C  C214  1  0.25102000  0.89406000  0.79804000  1.0
  C  C215  1  0.24897000  0.39405000  0.70197000  1.0
  C  C216  1  0.61034000  0.06872000  0.18694000  1.0
  C  C217  1  0.88967000  0.56872000  0.31306000  1.0
  C  C218  1  0.38966000  0.93128000  0.81306000  1.0
  C  C219  1  0.11034000  0.43128000  0.68694000  1.0
  C  C220  1  0.53784000  0.10314000  0.14550000  1.0
  C  C221  1  0.96218000  0.60314000  0.35450000  1.0
  C  C222  1  0.46217000  0.89685000  0.85450000  1.0
  C  C223  1  0.03784000  0.39686000  0.64550000  1.0
  C  C224  1  0.60656000  0.17660000  0.11877000  1.0
  C  C225  1  0.89345000  0.67660000  0.38123000  1.0
  C  C226  1  0.39345000  0.82340000  0.88123000  1.0
  C  C227  1  0.10655000  0.32340000  0.61877000  1.0
  N  N228  1  0.00685000  0.65328000  0.10340000  1.0
  N  N229  1  0.49315000  0.15329000  0.39660000  1.0
  N  N230  1  0.99316000  0.34672000  0.89660000  1.0
  N  N231  1  0.50685000  0.84671000  0.60340000  1.0
  N  N232  1  0.15699000  0.90941000  0.97741000  1.0
  N  N233  1  0.34300000  0.40941000  0.52260000  1.0
  N  N234  1  0.84300000  0.09060000  0.02259000  1.0
  N  N235  1  0.65699000  0.59060000  0.47741000  1.0
  N  N236  1  0.92624000  0.86867000  0.95459000  1.0
  N  N237  1  0.57375000  0.36867000  0.54541000  1.0
  N  N238  1  0.07375000  0.13133000  0.04541000  1.0
  N  N239  1  0.42624000  0.63134000  0.45459000  1.0
  N  N240  1  0.12339000  0.83465000  0.33663000  1.0
  N  N241  1  0.37661000  0.33464000  0.16337000  1.0
  N  N242  1  0.87661000  0.16535000  0.66337000  1.0
  N  N243  1  0.62339000  0.66535000  0.83663000  1.0
  N  N244  1  0.65780000  0.48052000  0.94594000  1.0
  N  N245  1  0.84219000  0.98052000  0.55406000  1.0
  N  N246  1  0.34220000  0.51947000  0.05406000  1.0
  N  N247  1  0.15781000  0.01947000  0.44594000  1.0
  N  N248  1  0.78136000  0.28450000  0.10165000  1.0
  N  N249  1  0.71865000  0.78450000  0.39835000  1.0
  N  N250  1  0.21864000  0.71550000  0.89835000  1.0
  N  N251  1  0.28136000  0.21550000  0.60165000  1.0
  N  N252  1  0.55976000  0.22524000  0.07742000  1.0
  N  N253  1  0.94025000  0.72524000  0.42258000  1.0
  N  N254  1  0.44025000  0.77475000  0.92258000  1.0
  N  N255  1  0.05976000  0.27476000  0.57742000  1.0
  O  O256  1  0.06835000  0.66441000  0.21579000  1.0
  O  O257  1  0.43165000  0.16442000  0.28422000  1.0
  O  O258  1  0.93165000  0.33559000  0.78421000  1.0
  O  O259  1  0.56834000  0.83558000  0.71578000  1.0
  O  O260  1  0.84698000  0.73341000  0.19790000  1.0
  O  O261  1  0.65303000  0.23340000  0.30210000  1.0
  O  O262  1  0.15302000  0.26660000  0.80210000  1.0
  O  O263  1  0.34696000  0.76659000  0.69790000  1.0
  O  O264  1  0.66257000  0.98862000  0.30980000  1.0
  O  O265  1  0.83743000  0.48862000  0.19020000  1.0
  O  O266  1  0.33743000  0.01138000  0.69020000  1.0
  O  O267  1  0.16257000  0.51138000  0.80980000  1.0
  O  O268  1  0.80566000  0.03529000  0.37376000  1.0
  O  O269  1  0.69435000  0.53528000  0.12624000  1.0
  O  O270  1  0.19435000  0.96472000  0.62625000  1.0
  O  O271  1  0.30565000  0.46472000  0.87376000  1.0
  O  O272  1  0.33869000  0.97247000  0.33650000  1.0
  O  O273  1  0.16131000  0.47247000  0.16351000  1.0
  O  O274  1  0.66132000  0.02753000  0.66351000  1.0
  O  O275  1  0.83868000  0.52753000  0.83650000  1.0
  O  O276  1  0.47060000  0.89829000  0.39662000  1.0
  O  O277  1  0.02940000  0.39830000  0.10338000  1.0
  O  O278  1  0.52940000  0.10170000  0.60338000  1.0
  O  O279  1  0.97060000  0.60171000  0.89662000  1.0
