# generated using pymatgen
data_RbH3C6NO2
_symmetry_space_group_name_H-M   'P 1'
_cell_length_a   7.12993000
_cell_length_b   12.40760000
_cell_length_c   16.53230000
_cell_angle_alpha   90.00000000
_cell_angle_beta   90.00000000
_cell_angle_gamma   90.00000000
_symmetry_Int_Tables_number   1
_chemical_formula_structural   RbH3C6NO2
_chemical_formula_sum   'Rb8 H24 C48 N8 O16'
_cell_volume   1462.53520104
_cell_formula_units_Z   8
loop_
 _symmetry_equiv_pos_site_id
 _symmetry_equiv_pos_as_xyz
  1  'x, y, z'
loop_
 _atom_site_type_symbol
 _atom_site_label
 _atom_site_symmetry_multiplicity
 _atom_site_fract_x
 _atom_site_fract_y
 _atom_site_fract_z
 _atom_site_occupancy
  Rb  Rb0  1  0.91966000  0.08881000  0.89170000  1.0
  Rb  Rb1  1  0.41966000  0.91119000  0.89170000  1.0
  Rb  Rb2  1  0.08034000  0.58881000  0.39170000  1.0
  Rb  Rb3  1  0.41966000  0.58881000  0.60830000  1.0
  Rb  Rb4  1  0.08034000  0.91119000  0.10830000  1.0
  Rb  Rb5  1  0.58034000  0.08881000  0.10830000  1.0
  Rb  Rb6  1  0.91966000  0.41119000  0.60830000  1.0
  Rb  Rb7  1  0.58034000  0.41119000  0.39170000  1.0
  H  H8  1  0.01141000  0.65038000  0.97896000  1.0
  H  H9  1  0.51143000  0.34962000  0.97896000  1.0
  H  H10  1  0.98858000  0.15039000  0.47896000  1.0
  H  H11  1  0.51141000  0.15038000  0.52104000  1.0
  H  H12  1  0.98858000  0.34962000  0.02104000  1.0
  H  H13  1  0.48859000  0.65038000  0.02104000  1.0
  H  H14  1  0.01142000  0.84962000  0.52104000  1.0
  H  H15  1  0.48859000  0.84962000  0.47896000  1.0
  H  H16  1  0.14064000  0.47245000  0.93020000  1.0
  H  H17  1  0.64064000  0.52755000  0.93020000  1.0
  H  H18  1  0.85936000  0.97245000  0.43020000  1.0
  H  H19  1  0.64063000  0.97244000  0.56980000  1.0
  H  H20  1  0.85936000  0.52755000  0.06980000  1.0
  H  H21  1  0.35936000  0.47245000  0.06980000  1.0
  H  H22  1  0.14064000  0.02755000  0.56980000  1.0
  H  H23  1  0.35936000  0.02755000  0.43020000  1.0
  H  H24  1  0.22462000  0.45392000  0.78314000  1.0
  H  H25  1  0.72463000  0.54608000  0.78314000  1.0
  H  H26  1  0.77537000  0.95392000  0.28314000  1.0
  H  H27  1  0.72462000  0.95392000  0.71686000  1.0
  H  H28  1  0.77538000  0.54608000  0.21686000  1.0
  H  H29  1  0.27537000  0.45392000  0.21686000  1.0
  H  H30  1  0.22462000  0.04608000  0.71686000  1.0
  H  H31  1  0.27538000  0.04608000  0.28314000  1.0
  C  C32  1  0.07933000  0.70534000  0.78014000  1.0
  C  C33  1  0.57933000  0.29466000  0.78014000  1.0
  C  C34  1  0.92067000  0.20534000  0.28014000  1.0
  C  C35  1  0.57933000  0.20534000  0.71985000  1.0
  C  C36  1  0.92066000  0.29466000  0.21986000  1.0
  C  C37  1  0.42067000  0.70534000  0.21986000  1.0
  C  C38  1  0.07933000  0.79466000  0.71986000  1.0
  C  C39  1  0.42067000  0.79466000  0.28014000  1.0
  C  C40  1  0.02109000  0.72208000  0.86052000  1.0
  C  C41  1  0.52110000  0.27793000  0.86052000  1.0
  C  C42  1  0.97890000  0.22207000  0.36052000  1.0
  C  C43  1  0.52110000  0.22207000  0.63948000  1.0
  C  C44  1  0.97890000  0.27792000  0.13948000  1.0
  C  C45  1  0.47891000  0.72207000  0.13948000  1.0
  C  C46  1  0.02110000  0.77792000  0.63948000  1.0
  C  C47  1  0.47891000  0.77793000  0.36052000  1.0
  C  C48  1  0.93678000  0.82773000  0.88832000  1.0
  C  C49  1  0.43678000  0.17228000  0.88832000  1.0
  C  C50  1  0.06322000  0.32772000  0.38832000  1.0
  C  C51  1  0.43677000  0.32772000  0.61168000  1.0
  C  C52  1  0.06321000  0.17227000  0.11168000  1.0
  C  C53  1  0.56322000  0.82772000  0.11169000  1.0
  C  C54  1  0.93678000  0.67227000  0.61168000  1.0
  C  C55  1  0.56323000  0.67228000  0.38832000  1.0
  C  C56  1  0.04743000  0.63766000  0.91552000  1.0
  C  C57  1  0.54744000  0.36234000  0.91552000  1.0
  C  C58  1  0.95256000  0.13767000  0.41552000  1.0
  C  C59  1  0.54743000  0.13766000  0.58448000  1.0
  C  C60  1  0.95255000  0.36234000  0.08448000  1.0
  C  C61  1  0.45257000  0.63766000  0.08448000  1.0
  C  C62  1  0.04744000  0.86234000  0.58448000  1.0
  C  C63  1  0.45257000  0.86234000  0.41552000  1.0
  C  C64  1  0.11988000  0.53975000  0.88883000  1.0
  C  C65  1  0.61989000  0.46025000  0.88883000  1.0
  C  C66  1  0.88010000  0.03975000  0.38882000  1.0
  C  C67  1  0.61989000  0.03975000  0.61117000  1.0
  C  C68  1  0.88011000  0.46025000  0.11118000  1.0
  C  C69  1  0.38012000  0.53975000  0.11118000  1.0
  C  C70  1  0.11989000  0.96025000  0.61117000  1.0
  C  C71  1  0.38011000  0.96025000  0.38882000  1.0
  C  C72  1  0.16812000  0.52933000  0.80733000  1.0
  C  C73  1  0.66813000  0.47067000  0.80732000  1.0
  C  C74  1  0.83187000  0.02933000  0.30732000  1.0
  C  C75  1  0.66812000  0.02933000  0.69268000  1.0
  C  C76  1  0.83187000  0.47067000  0.19268000  1.0
  C  C77  1  0.33188000  0.52933000  0.19268000  1.0
  C  C78  1  0.16812000  0.97066000  0.69268000  1.0
  C  C79  1  0.33188000  0.97067000  0.30732000  1.0
  N  N80  1  0.15131000  0.61077000  0.75442000  1.0
  N  N81  1  0.65133000  0.38923000  0.75442000  1.0
  N  N82  1  0.84868000  0.11077000  0.25443000  1.0
  N  N83  1  0.65132000  0.11077000  0.74557000  1.0
  N  N84  1  0.84868000  0.38923000  0.24557000  1.0
  N  N85  1  0.34868000  0.61077000  0.24557000  1.0
  N  N86  1  0.15131000  0.88923000  0.74558000  1.0
  N  N87  1  0.34868000  0.88923000  0.25443000  1.0
  O  O88  1  0.79060000  0.86062000  0.85280000  1.0
  O  O89  1  0.29060000  0.13938000  0.85279000  1.0
  O  O90  1  0.20941000  0.36062000  0.35280000  1.0
  O  O91  1  0.29060000  0.36062000  0.64721000  1.0
  O  O92  1  0.20939000  0.13938000  0.14720000  1.0
  O  O93  1  0.70940000  0.86061000  0.14721000  1.0
  O  O94  1  0.79060000  0.63938000  0.64720000  1.0
  O  O95  1  0.70941000  0.63939000  0.35279000  1.0
  O  O96  1  0.02232000  0.87425000  0.94613000  1.0
  O  O97  1  0.52233000  0.12576000  0.94612000  1.0
  O  O98  1  0.97768000  0.37425000  0.44613000  1.0
  O  O99  1  0.52231000  0.37425000  0.55388000  1.0
  O  O100  1  0.97767000  0.12575000  0.05387000  1.0
  O  O101  1  0.47770000  0.87425000  0.05388000  1.0
  O  O102  1  0.02233000  0.62575000  0.55387000  1.0
  O  O103  1  0.47770000  0.62575000  0.44612000  1.0
