# generated using pymatgen
data_NiH26C26(NO2)4
_symmetry_space_group_name_H-M   'P 1'
_cell_length_a   9.50131000
_cell_length_b   15.67660000
_cell_length_c   18.39770000
_cell_angle_alpha   89.99990000
_cell_angle_beta   90.00020000
_cell_angle_gamma   89.99960000
_symmetry_Int_Tables_number   1
_chemical_formula_structural   NiH26C26(NO2)4
_chemical_formula_sum   'Ni4 H104 C104 N16 O32'
_cell_volume   2740.30496774
_cell_formula_units_Z   4
loop_
 _symmetry_equiv_pos_site_id
 _symmetry_equiv_pos_as_xyz
  1  'x, y, z'
loop_
 _atom_site_type_symbol
 _atom_site_label
 _atom_site_symmetry_multiplicity
 _atom_site_fract_x
 _atom_site_fract_y
 _atom_site_fract_z
 _atom_site_occupancy
  Ni  Ni0  1  0.95308000  0.56557000  0.23482000  1.0
  Ni  Ni1  1  0.04691000  0.06557000  0.26518000  1.0
  Ni  Ni2  1  0.04692000  0.93443000  0.73483000  1.0
  Ni  Ni3  1  0.95309000  0.43443000  0.76518000  1.0
  H  H4  1  0.95469000  0.70288000  0.29721000  1.0
  H  H5  1  0.04531000  0.20288000  0.20279000  1.0
  H  H6  1  0.04531000  0.79712000  0.79721000  1.0
  H  H7  1  0.95470000  0.29712000  0.70279000  1.0
  H  H8  1  0.98451000  0.64347000  0.36353000  1.0
  H  H9  1  0.01549000  0.14347000  0.13647000  1.0
  H  H10  1  0.01549000  0.85653000  0.86354000  1.0
  H  H11  1  0.98451000  0.35653000  0.63646000  1.0
  H  H12  1  0.95183000  0.65837000  0.11702000  1.0
  H  H13  1  0.04817000  0.15837000  0.38298000  1.0
  H  H14  1  0.04818000  0.84163000  0.61702000  1.0
  H  H15  1  0.95183000  0.34163000  0.88298000  1.0
  H  H16  1  0.10777000  0.62048000  0.13671000  1.0
  H  H17  1  0.89223000  0.12048000  0.36328000  1.0
  H  H18  1  0.89224000  0.87952000  0.63672000  1.0
  H  H19  1  0.10777000  0.37951000  0.86329000  1.0
  H  H20  1  0.50531000  0.60154000  0.25582000  1.0
  H  H21  1  0.49469000  0.10154000  0.24418000  1.0
  H  H22  1  0.49469000  0.89846000  0.75582000  1.0
  H  H23  1  0.50531000  0.39846000  0.74418000  1.0
  H  H24  1  0.25066000  0.64061000  0.26919000  1.0
  H  H25  1  0.74934000  0.14061000  0.23081000  1.0
  H  H26  1  0.74934000  0.85939000  0.76919000  1.0
  H  H27  1  0.25067000  0.35939000  0.73081000  1.0
  H  H28  1  0.18000000  0.79155000  0.26713000  1.0
  H  H29  1  0.82000000  0.29154000  0.23287000  1.0
  H  H30  1  0.81999000  0.70846000  0.76713000  1.0
  H  H31  1  0.18000000  0.20846000  0.73288000  1.0
  H  H32  1  0.36318000  0.90576000  0.26016000  1.0
  H  H33  1  0.63682000  0.40576000  0.23984000  1.0
  H  H34  1  0.63682000  0.59424000  0.76016000  1.0
  H  H35  1  0.36318000  0.09424000  0.73984000  1.0
  H  H36  1  0.73117000  0.88402000  0.22408000  1.0
  H  H37  1  0.26883000  0.38402000  0.27592000  1.0
  H  H38  1  0.26882000  0.61598000  0.72408000  1.0
  H  H39  1  0.73118000  0.11598000  0.77592000  1.0
  H  H40  1  0.55370000  0.95586000  0.34967000  1.0
  H  H41  1  0.44629000  0.45586000  0.15033000  1.0
  H  H42  1  0.44629000  0.54414000  0.84967000  1.0
  H  H43  1  0.55371000  0.04414000  0.65034000  1.0
  H  H44  1  0.70154000  0.55036000  0.14065000  1.0
  H  H45  1  0.29846000  0.05036000  0.35934000  1.0
  H  H46  1  0.29845000  0.94964000  0.64066000  1.0
  H  H47  1  0.70155000  0.44964000  0.85935000  1.0
  H  H48  1  0.60035000  0.45018000  0.04778000  1.0
  H  H49  1  0.39965000  0.95018000  0.45222000  1.0
  H  H50  1  0.39965000  0.04982000  0.54778000  1.0
  H  H51  1  0.60035000  0.54982000  0.95222000  1.0
  H  H52  1  0.97772000  0.29806000  0.06988000  1.0
  H  H53  1  0.02227000  0.79806000  0.43012000  1.0
  H  H54  1  0.02228000  0.20194000  0.56988000  1.0
  H  H55  1  0.97773000  0.70194000  0.93012000  1.0
  H  H56  1  0.05739000  0.40051000  0.16447000  1.0
  H  H57  1  0.94261000  0.90051000  0.33553000  1.0
  H  H58  1  0.94261000  0.09949000  0.66448000  1.0
  H  H59  1  0.05739000  0.59949000  0.83553000  1.0
  H  H60  1  0.55781000  0.15414000  0.94550000  1.0
  H  H61  1  0.44220000  0.65414000  0.55451000  1.0
  H  H62  1  0.44219000  0.34585000  0.44549000  1.0
  H  H63  1  0.55780000  0.84585000  0.05450000  1.0
  H  H64  1  0.61604000  0.23733000  0.88679000  1.0
  H  H65  1  0.38396000  0.73733000  0.61322000  1.0
  H  H66  1  0.38395000  0.26266000  0.38678000  1.0
  H  H67  1  0.61604000  0.76267000  0.11322000  1.0
  H  H68  1  0.56699000  0.30321000  0.10529000  1.0
  H  H69  1  0.43301000  0.80320000  0.39471000  1.0
  H  H70  1  0.43301000  0.19680000  0.60529000  1.0
  H  H71  1  0.56699000  0.69680000  0.89471000  1.0
  H  H72  1  0.52618000  0.19708000  0.08118000  1.0
  H  H73  1  0.47382000  0.69707000  0.41883000  1.0
  H  H74  1  0.47382000  0.30292000  0.58117000  1.0
  H  H75  1  0.52618000  0.80292000  0.91882000  1.0
  H  H76  1  0.30332000  0.27475000  0.09633000  1.0
  H  H77  1  0.69668000  0.77475000  0.40367000  1.0
  H  H78  1  0.69668000  0.22525000  0.59632000  1.0
  H  H79  1  0.30332000  0.72525000  0.90367000  1.0
  H  H80  1  0.35882000  0.35647000  0.03512000  1.0
  H  H81  1  0.64119000  0.85647000  0.46488000  1.0
  H  H82  1  0.64118000  0.14353000  0.53512000  1.0
  H  H83  1  0.35881000  0.64352000  0.96488000  1.0
  H  H84  1  0.34741000  0.04176000  0.94869000  1.0
  H  H85  1  0.65261000  0.54175000  0.55131000  1.0
  H  H86  1  0.65259000  0.45825000  0.44868000  1.0
  H  H87  1  0.34740000  0.95825000  0.05131000  1.0
  H  H88  1  0.27604000  0.94470000  0.84698000  1.0
  H  H89  1  0.72398000  0.44470000  0.65303000  1.0
  H  H90  1  0.72397000  0.55530000  0.34697000  1.0
  H  H91  1  0.27603000  0.05530000  0.15302000  1.0
  H  H92  1  0.93863000  0.09850000  0.79352000  1.0
  H  H93  1  0.06137000  0.59850000  0.70648000  1.0
  H  H94  1  0.06136000  0.40150000  0.29352000  1.0
  H  H95  1  0.93864000  0.90150000  0.20648000  1.0
  H  H96  1  0.98892000  0.19953000  0.89485000  1.0
  H  H97  1  0.01109000  0.69953000  0.60516000  1.0
  H  H98  1  0.01107000  0.30047000  0.39484000  1.0
  H  H99  1  0.98892000  0.80047000  0.10516000  1.0
  H  H100  1  0.39158000  0.31636000  0.90418000  1.0
  H  H101  1  0.60842000  0.81636000  0.59582000  1.0
  H  H102  1  0.60841000  0.18364000  0.40418000  1.0
  H  H103  1  0.39158000  0.68364000  0.09582000  1.0
  H  H104  1  0.35315000  0.21075000  0.87684000  1.0
  H  H105  1  0.64685000  0.71075000  0.62316000  1.0
  H  H106  1  0.64683000  0.28925000  0.37684000  1.0
  H  H107  1  0.35315000  0.78925000  0.12316000  1.0
  C  C108  1  0.73414000  0.30850000  0.99088000  1.0
  C  C109  1  0.26586000  0.80850000  0.50912000  1.0
  C  C110  1  0.26586000  0.19150000  0.49088000  1.0
  C  C111  1  0.73414000  0.69150000  0.00912000  1.0
  C  C112  1  0.73002000  0.70360000  0.25417000  1.0
  C  C113  1  0.26998000  0.20360000  0.24583000  1.0
  C  C114  1  0.26998000  0.79640000  0.75417000  1.0
  C  C115  1  0.73002000  0.29640000  0.74584000  1.0
  C  C116  1  0.57765000  0.73103000  0.25485000  1.0
  C  C117  1  0.42236000  0.23103000  0.24515000  1.0
  C  C118  1  0.42235000  0.76897000  0.75485000  1.0
  C  C119  1  0.57765000  0.26897000  0.74515000  1.0
  C  C120  1  0.47280000  0.66820000  0.25770000  1.0
  C  C121  1  0.52720000  0.16819000  0.24231000  1.0
  C  C122  1  0.52719000  0.83181000  0.75770000  1.0
  C  C123  1  0.47281000  0.33181000  0.74230000  1.0
  C  C124  1  0.33104000  0.68954000  0.26426000  1.0
  C  C125  1  0.66896000  0.18954000  0.23574000  1.0
  C  C126  1  0.66896000  0.81047000  0.76426000  1.0
  C  C127  1  0.33105000  0.31046000  0.73574000  1.0
  C  C128  1  0.29119000  0.77519000  0.26439000  1.0
  C  C129  1  0.70881000  0.27520000  0.23562000  1.0
  C  C130  1  0.70880000  0.72481000  0.76438000  1.0
  C  C131  1  0.29119000  0.22481000  0.73561000  1.0
  C  C132  1  0.39351000  0.83872000  0.26080000  1.0
  C  C133  1  0.60649000  0.33872000  0.23920000  1.0
  C  C134  1  0.60649000  0.66128000  0.76080000  1.0
  C  C135  1  0.39351000  0.16128000  0.73920000  1.0
  C  C136  1  0.53765000  0.81821000  0.25809000  1.0
  C  C137  1  0.46234000  0.31821000  0.24190000  1.0
  C  C138  1  0.46234000  0.68179000  0.75810000  1.0
  C  C139  1  0.53766000  0.18179000  0.74190000  1.0
  C  C140  1  0.64179000  0.88699000  0.26095000  1.0
  C  C141  1  0.35821000  0.38699000  0.23905000  1.0
  C  C142  1  0.35820000  0.61301000  0.76095000  1.0
  C  C143  1  0.64180000  0.11301000  0.73905000  1.0
  C  C144  1  0.63712000  0.95161000  0.30909000  1.0
  C  C145  1  0.36288000  0.45161000  0.19091000  1.0
  C  C146  1  0.36287000  0.54839000  0.80909000  1.0
  C  C147  1  0.63712000  0.04839000  0.69091000  1.0
  C  C148  1  0.75406000  0.01391000  0.31661000  1.0
  C  C149  1  0.24594000  0.51390000  0.18339000  1.0
  C  C150  1  0.24594000  0.48610000  0.81661000  1.0
  C  C151  1  0.75406000  0.98610000  0.68339000  1.0
  C  C152  1  0.75802000  0.49343000  0.12305000  1.0
  C  C153  1  0.24198000  0.99343000  0.37695000  1.0
  C  C154  1  0.24197000  0.00657000  0.62305000  1.0
  C  C155  1  0.75803000  0.50657000  0.87695000  1.0
  C  C156  1  0.70320000  0.43750000  0.07169000  1.0
  C  C157  1  0.29679000  0.93750000  0.42831000  1.0
  C  C158  1  0.29679000  0.06249000  0.57169000  1.0
  C  C159  1  0.70321000  0.56249000  0.92831000  1.0
  C  C160  1  0.78167000  0.36601000  0.05101000  1.0
  C  C161  1  0.21833000  0.86601000  0.44899000  1.0
  C  C162  1  0.21833000  0.13399000  0.55101000  1.0
  C  C163  1  0.78167000  0.63399000  0.94899000  1.0
  C  C164  1  0.91252000  0.35296000  0.08380000  1.0
  C  C165  1  0.08748000  0.85296000  0.41620000  1.0
  C  C166  1  0.08748000  0.14704000  0.58380000  1.0
  C  C167  1  0.91252000  0.64704000  0.91620000  1.0
  C  C168  1  0.95803000  0.41055000  0.13628000  1.0
  C  C169  1  0.04197000  0.91055000  0.36372000  1.0
  C  C170  1  0.04197000  0.08945000  0.63629000  1.0
  C  C171  1  0.95803000  0.58945000  0.86371000  1.0
  C  C172  1  0.55069000  0.22320000  0.93417000  1.0
  C  C173  1  0.44931000  0.72320000  0.56583000  1.0
  C  C174  1  0.44930000  0.27679000  0.43417000  1.0
  C  C175  1  0.55069000  0.77679000  0.06583000  1.0
  C  C176  1  0.52163000  0.26382000  0.06228000  1.0
  C  C177  1  0.47838000  0.76381000  0.43772000  1.0
  C  C178  1  0.47837000  0.23619000  0.56228000  1.0
  C  C179  1  0.52163000  0.73618000  0.93772000  1.0
  C  C180  1  0.36798000  0.28815000  0.04834000  1.0
  C  C181  1  0.63203000  0.78815000  0.45167000  1.0
  C  C182  1  0.63202000  0.21185000  0.54833000  1.0
  C  C183  1  0.36797000  0.71184000  0.95166000  1.0
  C  C184  1  0.20438000  0.18485000  0.99449000  1.0
  C  C185  1  0.79563000  0.68485000  0.50551000  1.0
  C  C186  1  0.79561000  0.31515000  0.49448000  1.0
  C  C187  1  0.20437000  0.81515000  0.00551000  1.0
  C  C188  1  0.17178000  0.12795000  0.93103000  1.0
  C  C189  1  0.82823000  0.62795000  0.56897000  1.0
  C  C190  1  0.82821000  0.37205000  0.43102000  1.0
  C  C191  1  0.17178000  0.87205000  0.06897000  1.0
  C  C192  1  0.25408000  0.05592000  0.91646000  1.0
  C  C193  1  0.74594000  0.55592000  0.58354000  1.0
  C  C194  1  0.74592000  0.44408000  0.41645000  1.0
  C  C195  1  0.25407000  0.94408000  0.08354000  1.0
  C  C196  1  0.21605000  0.00193000  0.85990000  1.0
  C  C197  1  0.78396000  0.50193000  0.64011000  1.0
  C  C198  1  0.78395000  0.49808000  0.35989000  1.0
  C  C199  1  0.21604000  0.99807000  0.14010000  1.0
  C  C200  1  0.02660000  0.08777000  0.83019000  1.0
  C  C201  1  0.97340000  0.58777000  0.66981000  1.0
  C  C202  1  0.97340000  0.41223000  0.33018000  1.0
  C  C203  1  0.02660000  0.91223000  0.16981000  1.0
  C  C204  1  0.05515000  0.14370000  0.88690000  1.0
  C  C205  1  0.94486000  0.64370000  0.61310000  1.0
  C  C206  1  0.94484000  0.35630000  0.38689000  1.0
  C  C207  1  0.05515000  0.85630000  0.11310000  1.0
  C  C208  1  0.39799000  0.24895000  0.92075000  1.0
  C  C209  1  0.60201000  0.74895000  0.57925000  1.0
  C  C210  1  0.60200000  0.25105000  0.42075000  1.0
  C  C211  1  0.39799000  0.75105000  0.07925000  1.0
  N  N212  1  0.88328000  0.48022000  0.15545000  1.0
  N  N213  1  0.11673000  0.98022000  0.34455000  1.0
  N  N214  1  0.11672000  0.01978000  0.65545000  1.0
  N  N215  1  0.88328000  0.51978000  0.84455000  1.0
  N  N216  1  0.60583000  0.27106000  0.99600000  1.0
  N  N217  1  0.39417000  0.77106000  0.50400000  1.0
  N  N218  1  0.39417000  0.22894000  0.49600000  1.0
  N  N219  1  0.60582000  0.72894000  0.00399000  1.0
  N  N220  1  0.31537000  0.23831000  0.98713000  1.0
  N  N221  1  0.68464000  0.73830000  0.51287000  1.0
  N  N222  1  0.68463000  0.26169000  0.48712000  1.0
  N  N223  1  0.31536000  0.76170000  0.01287000  1.0
  N  N224  1  0.10401000  0.01739000  0.81705000  1.0
  N  N225  1  0.89600000  0.51739000  0.68295000  1.0
  N  N226  1  0.89600000  0.48262000  0.31705000  1.0
  N  N227  1  0.10400000  0.98261000  0.18295000  1.0
  O  O228  1  0.75358000  0.62528000  0.23763000  1.0
  O  O229  1  0.24642000  0.12528000  0.26237000  1.0
  O  O230  1  0.24642000  0.87472000  0.73763000  1.0
  O  O231  1  0.75358000  0.37472000  0.76237000  1.0
  O  O232  1  0.82321000  0.75764000  0.27211000  1.0
  O  O233  1  0.17680000  0.25764000  0.22789000  1.0
  O  O234  1  0.17680000  0.74236000  0.77211000  1.0
  O  O235  1  0.82321000  0.24236000  0.72789000  1.0
  O  O236  1  0.84881000  0.01208000  0.26661000  1.0
  O  O237  1  0.15120000  0.51208000  0.23339000  1.0
  O  O238  1  0.15120000  0.48792000  0.76661000  1.0
  O  O239  1  0.84881000  0.98792000  0.73339000  1.0
  O  O240  1  0.75461000  0.06225000  0.37210000  1.0
  O  O241  1  0.24539000  0.56225000  0.12790000  1.0
  O  O242  1  0.24539000  0.43775000  0.87210000  1.0
  O  O243  1  0.75461000  0.93775000  0.62791000  1.0
  O  O244  1  0.81116000  0.29888000  0.93645000  1.0
  O  O245  1  0.18884000  0.79888000  0.56355000  1.0
  O  O246  1  0.18884000  0.20111000  0.43645000  1.0
  O  O247  1  0.81115000  0.70112000  0.06355000  1.0
  O  O248  1  0.13141000  0.18005000  0.05074000  1.0
  O  O249  1  0.86860000  0.68005000  0.44926000  1.0
  O  O250  1  0.86858000  0.31995000  0.55073000  1.0
  O  O251  1  0.13140000  0.81994000  0.94926000  1.0
  O  O252  1  0.01976000  0.65547000  0.31453000  1.0
  O  O253  1  0.98024000  0.15547000  0.18547000  1.0
  O  O254  1  0.98024000  0.84453000  0.81453000  1.0
  O  O255  1  0.01976000  0.34453000  0.68547000  1.0
  O  O256  1  0.02162000  0.65159000  0.15624000  1.0
  O  O257  1  0.97839000  0.15159000  0.34376000  1.0
  O  O258  1  0.97839000  0.84841000  0.65624000  1.0
  O  O259  1  0.02162000  0.34841000  0.84376000  1.0
