# generated using pymatgen
data_Cd3P2H48C72(N3O7)2
_symmetry_space_group_name_H-M   'P 1'
_cell_length_a   11.76370000
_cell_length_b   15.22660000
_cell_length_c   19.42090000
_cell_angle_alpha   94.55840000
_cell_angle_beta   89.99990000
_cell_angle_gamma   89.99990000
_symmetry_Int_Tables_number   1
_chemical_formula_structural   Cd3P2H48C72(N3O7)2
_chemical_formula_sum   'Cd6 P4 H96 C144 N12 O28'
_cell_volume   3467.69037844
_cell_formula_units_Z   2
loop_
 _symmetry_equiv_pos_site_id
 _symmetry_equiv_pos_as_xyz
  1  'x, y, z'
loop_
 _atom_site_type_symbol
 _atom_site_label
 _atom_site_symmetry_multiplicity
 _atom_site_fract_x
 _atom_site_fract_y
 _atom_site_fract_z
 _atom_site_occupancy
  Cd  Cd0  1  0.93828000  0.27705000  0.11480000  1.0
  Cd  Cd1  1  0.43828000  0.22295000  0.38520000  1.0
  Cd  Cd2  1  0.06172000  0.72295000  0.88520000  1.0
  Cd  Cd3  1  0.56172000  0.77705000  0.61480000  1.0
  Cd  Cd4  1  0.00000000  0.00000000  0.00000000  1.0
  Cd  Cd5  1  0.50000000  0.50000000  0.50000000  1.0
  P  P6  1  0.01988000  0.79498000  0.34622000  1.0
  P  P7  1  0.51988000  0.70502000  0.15378000  1.0
  P  P8  1  0.98012000  0.20502000  0.65378000  1.0
  P  P9  1  0.48012000  0.29498000  0.84622000  1.0
  H  H10  1  0.89592000  0.64331000  0.37997000  1.0
  H  H11  1  0.39591000  0.85669000  0.12003000  1.0
  H  H12  1  0.10408000  0.35669000  0.62003000  1.0
  H  H13  1  0.60408000  0.14331000  0.87997000  1.0
  H  H14  1  0.86537000  0.49482000  0.31621000  1.0
  H  H15  1  0.36537000  0.00518000  0.18379000  1.0
  H  H16  1  0.13463000  0.50519000  0.68379000  1.0
  H  H17  1  0.63463000  0.99482000  0.81621000  1.0
  H  H18  1  0.01614000  0.58826000  0.13470000  1.0
  H  H19  1  0.51614000  0.91174000  0.36530000  1.0
  H  H20  1  0.98386000  0.41174000  0.86531000  1.0
  H  H21  1  0.48386000  0.08826000  0.63470000  1.0
  H  H22  1  0.05087000  0.73498000  0.19766000  1.0
  H  H23  1  0.55086000  0.76502000  0.30234000  1.0
  H  H24  1  0.94913000  0.26502000  0.80234000  1.0
  H  H25  1  0.44914000  0.23498000  0.69766000  1.0
  H  H26  1  0.17218000  0.86023000  0.23740000  1.0
  H  H27  1  0.67218000  0.63977000  0.26260000  1.0
  H  H28  1  0.82783000  0.13977000  0.76260000  1.0
  H  H29  1  0.32783000  0.36023000  0.73740000  1.0
  H  H30  1  0.14141000  0.97792000  0.15749000  1.0
  H  H31  1  0.64141000  0.52209000  0.34251000  1.0
  H  H32  1  0.85859000  0.02208000  0.84251000  1.0
  H  H33  1  0.35859000  0.47791000  0.65749000  1.0
  H  H34  1  0.83053000  0.05298000  0.26279000  1.0
  H  H35  1  0.33053000  0.44702000  0.23720000  1.0
  H  H36  1  0.16947000  0.94702000  0.73720000  1.0
  H  H37  1  0.66947000  0.55298000  0.76280000  1.0
  H  H38  1  0.85289000  0.92723000  0.33785000  1.0
  H  H39  1  0.35290000  0.57277000  0.16215000  1.0
  H  H40  1  0.14711000  0.07277000  0.66215000  1.0
  H  H41  1  0.64710000  0.42724000  0.83785000  1.0
  H  H42  1  0.19097000  0.90599000  0.41672000  1.0
  H  H43  1  0.69097000  0.59401000  0.08327000  1.0
  H  H44  1  0.80903000  0.09401000  0.58328000  1.0
  H  H45  1  0.30903000  0.40599000  0.91673000  1.0
  H  H46  1  0.38079000  0.87149000  0.46486000  1.0
  H  H47  1  0.88080000  0.62851000  0.03514000  1.0
  H  H48  1  0.61920000  0.12851000  0.53514000  1.0
  H  H49  1  0.11920000  0.37149000  0.96486000  1.0
  H  H50  1  0.36509000  0.61047000  0.36496000  1.0
  H  H51  1  0.86509000  0.88953000  0.13504000  1.0
  H  H52  1  0.63491000  0.38953000  0.63504000  1.0
  H  H53  1  0.13491000  0.11047000  0.86496000  1.0
  H  H54  1  0.17628000  0.64294000  0.31542000  1.0
  H  H55  1  0.67628000  0.85706000  0.18458000  1.0
  H  H56  1  0.82372000  0.35705000  0.68458000  1.0
  H  H57  1  0.32372000  0.14294000  0.81542000  1.0
  H  H58  1  0.72349000  0.33210000  0.01740000  1.0
  H  H59  1  0.22349000  0.16790000  0.48260000  1.0
  H  H60  1  0.27651000  0.66790000  0.98260000  1.0
  H  H61  1  0.77651000  0.83210000  0.51740000  1.0
  H  H62  1  0.51472000  0.34549000  0.02389000  1.0
  H  H63  1  0.01472000  0.15451000  0.47611000  1.0
  H  H64  1  0.48528000  0.65451000  0.97611000  1.0
  H  H65  1  0.98528000  0.84549000  0.52389000  1.0
  H  H66  1  0.52813000  0.21497000  0.21456000  1.0
  H  H67  1  0.02813000  0.28503000  0.28544000  1.0
  H  H68  1  0.47187000  0.78503000  0.78544000  1.0
  H  H69  1  0.97188000  0.71497000  0.71456000  1.0
  H  H70  1  0.73888000  0.20570000  0.19800000  1.0
  H  H71  1  0.23888000  0.29430000  0.30200000  1.0
  H  H72  1  0.26112000  0.79430000  0.80200000  1.0
  H  H73  1  0.76112000  0.70570000  0.69800000  1.0
  H  H74  1  0.36175000  0.17358000  0.18739000  1.0
  H  H75  1  0.86175000  0.32642000  0.31261000  1.0
  H  H76  1  0.63825000  0.82642000  0.81261000  1.0
  H  H77  1  0.13825000  0.67358000  0.68739000  1.0
  H  H78  1  0.15254000  0.17741000  0.18782000  1.0
  H  H79  1  0.65254000  0.32259000  0.31218000  1.0
  H  H80  1  0.84746000  0.82259000  0.81218000  1.0
  H  H81  1  0.34746000  0.67741000  0.68782000  1.0
  H  H82  1  0.14251000  0.40293000  0.08268000  1.0
  H  H83  1  0.64251000  0.09707000  0.41732000  1.0
  H  H84  1  0.85749000  0.59707000  0.91732000  1.0
  H  H85  1  0.35749000  0.90293000  0.58268000  1.0
  H  H86  1  0.35488000  0.40756000  0.07417000  1.0
  H  H87  1  0.85488000  0.09244000  0.42583000  1.0
  H  H88  1  0.64512000  0.59244000  0.92583000  1.0
  H  H89  1  0.14512000  0.90756000  0.57417000  1.0
  H  H90  1  0.79745000  0.13233000  0.01304000  1.0
  H  H91  1  0.29745000  0.36767000  0.48696000  1.0
  H  H92  1  0.20255000  0.86767000  0.98696000  1.0
  H  H93  1  0.70255000  0.63233000  0.51304000  1.0
  H  H94  1  0.58760000  0.14169000  0.01577000  1.0
  H  H95  1  0.08760000  0.35831000  0.48424000  1.0
  H  H96  1  0.41240000  0.85831000  0.98423000  1.0
  H  H97  1  0.91240000  0.64169000  0.51577000  1.0
  H  H98  1  0.58134000  0.85642000  0.98231000  1.0
  H  H99  1  0.08134000  0.64358000  0.51769000  1.0
  H  H100  1  0.41866000  0.14358000  0.01769000  1.0
  H  H101  1  0.91866000  0.35642000  0.48231000  1.0
  H  H102  1  0.79055000  0.86056000  0.98058000  1.0
  H  H103  1  0.29055000  0.63944000  0.51942000  1.0
  H  H104  1  0.20945000  0.13944000  0.01942000  1.0
  H  H105  1  0.70945000  0.36056000  0.48058000  1.0
  C  C106  1  0.97745000  0.69736000  0.29336000  1.0
  C  C107  1  0.47745000  0.80264000  0.20664000  1.0
  C  C108  1  0.02254000  0.30265000  0.70664000  1.0
  C  C109  1  0.52255000  0.19735000  0.79336000  1.0
  C  C110  1  0.92251000  0.63042000  0.32633000  1.0
  C  C111  1  0.42251000  0.86958000  0.17367000  1.0
  C  C112  1  0.07749000  0.36958000  0.67367000  1.0
  C  C113  1  0.57749000  0.13042000  0.82633000  1.0
  C  C114  1  0.90501000  0.54838000  0.29088000  1.0
  C  C115  1  0.40500000  0.95162000  0.20912000  1.0
  C  C116  1  0.09499000  0.45162000  0.70913000  1.0
  C  C117  1  0.59500000  0.04838000  0.79088000  1.0
  C  C118  1  0.94056000  0.53292000  0.22210000  1.0
  C  C119  1  0.44056000  0.96708000  0.27790000  1.0
  C  C120  1  0.05944000  0.46708000  0.77791000  1.0
  C  C121  1  0.55944000  0.03292000  0.72210000  1.0
  C  C122  1  0.99098000  0.60105000  0.18853000  1.0
  C  C123  1  0.49098000  0.89895000  0.31147000  1.0
  C  C124  1  0.00901000  0.39895000  0.81147000  1.0
  C  C125  1  0.50902000  0.10105000  0.68853000  1.0
  C  C126  1  0.00996000  0.68281000  0.22398000  1.0
  C  C127  1  0.50996000  0.81719000  0.27602000  1.0
  C  C128  1  0.99003000  0.31719000  0.77602000  1.0
  C  C129  1  0.49004000  0.18281000  0.72398000  1.0
  C  C130  1  0.92982000  0.44298000  0.18505000  1.0
  C  C131  1  0.42982000  0.05702000  0.31495000  1.0
  C  C132  1  0.07018000  0.55703000  0.81495000  1.0
  C  C133  1  0.57019000  0.94297000  0.68505000  1.0
  C  C134  1  0.01275000  0.88551000  0.29154000  1.0
  C  C135  1  0.51275000  0.61449000  0.20846000  1.0
  C  C136  1  0.98725000  0.11449000  0.70846000  1.0
  C  C137  1  0.48725000  0.38551000  0.79154000  1.0
  C  C138  1  0.09535000  0.90049000  0.24172000  1.0
  C  C139  1  0.59535000  0.59951000  0.25828000  1.0
  C  C140  1  0.90465000  0.09951000  0.75828000  1.0
  C  C141  1  0.40465000  0.40049000  0.74172000  1.0
  C  C142  1  0.07948000  0.96744000  0.19771000  1.0
  C  C143  1  0.57948000  0.53256000  0.30229000  1.0
  C  C144  1  0.92052000  0.03255000  0.80229000  1.0
  C  C145  1  0.42052000  0.46744000  0.69771000  1.0
  C  C146  1  0.98401000  0.02233000  0.20552000  1.0
  C  C147  1  0.48401000  0.47767000  0.29448000  1.0
  C  C148  1  0.01599000  0.97767000  0.79448000  1.0
  C  C149  1  0.51599000  0.52233000  0.70552000  1.0
  C  C150  1  0.90317000  0.00869000  0.25666000  1.0
  C  C151  1  0.40317000  0.49131000  0.24334000  1.0
  C  C152  1  0.09683000  0.99131000  0.74334000  1.0
  C  C153  1  0.59683000  0.50869000  0.75666000  1.0
  C  C154  1  0.91611000  0.93957000  0.29864000  1.0
  C  C155  1  0.41611000  0.56043000  0.20136000  1.0
  C  C156  1  0.08389000  0.06043000  0.70136000  1.0
  C  C157  1  0.58389000  0.43957000  0.79864000  1.0
  C  C158  1  0.96975000  0.09874000  0.16229000  1.0
  C  C159  1  0.46975000  0.40126000  0.33771000  1.0
  C  C160  1  0.03025000  0.90126000  0.83771000  1.0
  C  C161  1  0.53025000  0.59874000  0.66229000  1.0
  C  C162  1  0.16877000  0.77563000  0.36484000  1.0
  C  C163  1  0.66877000  0.72436000  0.13516000  1.0
  C  C164  1  0.83123000  0.22436000  0.63516000  1.0
  C  C165  1  0.33123000  0.27564000  0.86484000  1.0
  C  C166  1  0.22847000  0.84084000  0.40547000  1.0
  C  C167  1  0.72847000  0.65916000  0.09452000  1.0
  C  C168  1  0.77153000  0.15916000  0.59453000  1.0
  C  C169  1  0.27153000  0.34084000  0.90547000  1.0
  C  C170  1  0.33419000  0.82182000  0.43280000  1.0
  C  C171  1  0.83419000  0.67818000  0.06720000  1.0
  C  C172  1  0.66581000  0.17818000  0.56720000  1.0
  C  C173  1  0.16581000  0.32182000  0.93280000  1.0
  C  C174  1  0.38167000  0.73753000  0.42041000  1.0
  C  C175  1  0.88167000  0.76247000  0.07959000  1.0
  C  C176  1  0.61833000  0.26247000  0.57959000  1.0
  C  C177  1  0.11833000  0.23753000  0.92041000  1.0
  C  C178  1  0.32584000  0.67481000  0.37597000  1.0
  C  C179  1  0.82584000  0.82519000  0.12403000  1.0
  C  C180  1  0.67416000  0.32519000  0.62403000  1.0
  C  C181  1  0.17416000  0.17481000  0.87597000  1.0
  C  C182  1  0.22011000  0.69338000  0.34839000  1.0
  C  C183  1  0.72011000  0.80662000  0.15161000  1.0
  C  C184  1  0.77989000  0.30662000  0.65161000  1.0
  C  C185  1  0.27989000  0.19338000  0.84839000  1.0
  C  C186  1  0.48698000  0.71180000  0.45860000  1.0
  C  C187  1  0.98698000  0.78820000  0.04140000  1.0
  C  C188  1  0.51302000  0.28820000  0.54140000  1.0
  C  C189  1  0.01302000  0.21180000  0.95860000  1.0
  C  C190  1  0.67722000  0.30870000  0.06105000  1.0
  C  C191  1  0.17722000  0.19130000  0.43895000  1.0
  C  C192  1  0.32278000  0.69130000  0.93895000  1.0
  C  C193  1  0.82278000  0.80870000  0.56105000  1.0
  C  C194  1  0.55958000  0.31731000  0.06595000  1.0
  C  C195  1  0.05958000  0.18269000  0.43405000  1.0
  C  C196  1  0.44042000  0.68269000  0.93405000  1.0
  C  C197  1  0.94042000  0.81731000  0.56595000  1.0
  C  C198  1  0.50253000  0.28408000  0.12175000  1.0
  C  C199  1  0.00253000  0.21591000  0.37825000  1.0
  C  C200  1  0.49747000  0.71591000  0.87825000  1.0
  C  C201  1  0.99747000  0.78408000  0.62175000  1.0
  C  C202  1  0.56772000  0.24244000  0.17030000  1.0
  C  C203  1  0.06772000  0.25756000  0.32970000  1.0
  C  C204  1  0.43228000  0.75756000  0.82970000  1.0
  C  C205  1  0.93229000  0.74244000  0.67030000  1.0
  C  C206  1  0.68467000  0.23709000  0.16164000  1.0
  C  C207  1  0.18467000  0.26291000  0.33836000  1.0
  C  C208  1  0.31533000  0.76291000  0.83836000  1.0
  C  C209  1  0.81533000  0.73709000  0.66164000  1.0
  C  C210  1  0.37746000  0.28860000  0.12765000  1.0
  C  C211  1  0.87746000  0.21140000  0.37235000  1.0
  C  C212  1  0.62254000  0.71140000  0.87235000  1.0
  C  C213  1  0.12254000  0.78860000  0.62765000  1.0
  C  C214  1  0.31799000  0.22476000  0.16145000  1.0
  C  C215  1  0.81799000  0.27524000  0.33855000  1.0
  C  C216  1  0.68201000  0.77524000  0.83855000  1.0
  C  C217  1  0.18201000  0.72476000  0.66145000  1.0
  C  C218  1  0.20013000  0.22699000  0.16251000  1.0
  C  C219  1  0.70013000  0.27301000  0.33749000  1.0
  C  C220  1  0.79987000  0.77301000  0.83749000  1.0
  C  C221  1  0.29987000  0.72699000  0.66251000  1.0
  C  C222  1  0.19546000  0.35249000  0.10341000  1.0
  C  C223  1  0.69546000  0.14751000  0.39659000  1.0
  C  C224  1  0.80454000  0.64751000  0.89659000  1.0
  C  C225  1  0.30454000  0.85249000  0.60341000  1.0
  C  C226  1  0.31352000  0.35453000  0.09913000  1.0
  C  C227  1  0.81352000  0.14548000  0.40087000  1.0
  C  C228  1  0.68648000  0.64548000  0.90087000  1.0
  C  C229  1  0.18648000  0.85452000  0.59913000  1.0
  C  C230  1  0.74530000  0.07301000  0.00750000  1.0
  C  C231  1  0.24530000  0.42699000  0.49250000  1.0
  C  C232  1  0.25470000  0.92699000  0.99250000  1.0
  C  C233  1  0.75470000  0.57301000  0.50750000  1.0
  C  C234  1  0.62734000  0.07709000  0.00847000  1.0
  C  C235  1  0.12734000  0.42291000  0.49153000  1.0
  C  C236  1  0.37266000  0.92291000  0.99153000  1.0
  C  C237  1  0.87266000  0.57709000  0.50847000  1.0
  C  C238  1  0.56302000  0.99922000  0.99960000  1.0
  C  C239  1  0.06301000  0.50078000  0.50041000  1.0
  C  C240  1  0.43699000  0.00078000  0.00040000  1.0
  C  C241  1  0.93699000  0.49922000  0.49960000  1.0
  C  C242  1  0.62392000  0.91989000  0.98956000  1.0
  C  C243  1  0.12392000  0.58011000  0.51044000  1.0
  C  C244  1  0.37609000  0.08011000  0.01044000  1.0
  C  C245  1  0.87608000  0.41989000  0.48956000  1.0
  C  C246  1  0.74201000  0.92134000  0.98894000  1.0
  C  C247  1  0.24201000  0.57866000  0.51106000  1.0
  C  C248  1  0.25800000  0.07866000  0.01106000  1.0
  C  C249  1  0.75799000  0.42134000  0.48894000  1.0
  N  N250  1  0.13897000  0.28860000  0.13318000  1.0
  N  N251  1  0.63897000  0.21140000  0.36682000  1.0
  N  N252  1  0.86103000  0.71140000  0.86682000  1.0
  N  N253  1  0.36103000  0.78860000  0.63318000  1.0
  N  N254  1  0.73898000  0.26981000  0.10824000  1.0
  N  N255  1  0.23898000  0.23019000  0.39176000  1.0
  N  N256  1  0.26102000  0.73019000  0.89176000  1.0
  N  N257  1  0.76103000  0.76981000  0.60824000  1.0
  N  N258  1  0.80215000  0.99633000  0.99825000  1.0
  N  N259  1  0.30215000  0.50367000  0.50175000  1.0
  N  N260  1  0.19785000  0.00367000  0.00175000  1.0
  N  N261  1  0.69785000  0.49633000  0.49825000  1.0
  O  O262  1  0.91024000  0.37806000  0.22090000  1.0
  O  O263  1  0.41025000  0.12195000  0.27910000  1.0
  O  O264  1  0.08975000  0.62195000  0.77910000  1.0
  O  O265  1  0.58975000  0.87805000  0.72090000  1.0
  O  O266  1  0.94454000  0.43494000  0.11976000  1.0
  O  O267  1  0.44454000  0.06506000  0.38024000  1.0
  O  O268  1  0.05547000  0.56506000  0.88024000  1.0
  O  O269  1  0.55547000  0.93494000  0.61976000  1.0
  O  O270  1  0.00667000  0.09494000  0.10044000  1.0
  O  O271  1  0.50667000  0.40506000  0.39956000  1.0
  O  O272  1  0.99333000  0.90506000  0.89956000  1.0
  O  O273  1  0.49333000  0.59494000  0.60044000  1.0
  O  O274  1  0.92392000  0.16757000  0.19178000  1.0
  O  O275  1  0.42392000  0.33243000  0.30822000  1.0
  O  O276  1  0.07608000  0.83243000  0.80821000  1.0
  O  O277  1  0.57608000  0.66757000  0.69179000  1.0
  O  O278  1  0.53402000  0.77180000  0.49832000  1.0
  O  O279  1  0.03402000  0.72820000  0.00168000  1.0
  O  O280  1  0.46598000  0.22820000  0.50168000  1.0
  O  O281  1  0.96598000  0.27180000  0.99832000  1.0
  O  O282  1  0.51987000  0.63225000  0.44910000  1.0
  O  O283  1  0.01987000  0.86775000  0.05090000  1.0
  O  O284  1  0.48013000  0.36775000  0.55090000  1.0
  O  O285  1  0.98013000  0.13225000  0.94910000  1.0
  O  O286  1  0.94985000  0.81101000  0.41066000  1.0
  O  O287  1  0.44985000  0.68899000  0.08934000  1.0
  O  O288  1  0.05015000  0.18899000  0.58934000  1.0
  O  O289  1  0.55015000  0.31101000  0.91066000  1.0
