# generated using pymatgen
data_AlH15C21(NO2)3
_symmetry_space_group_name_H-M   'P 1'
_cell_length_a   4.05028000
_cell_length_b   24.63430000
_cell_length_c   24.63430000
_cell_angle_alpha   60.00000000
_cell_angle_beta   89.99970000
_cell_angle_gamma   90.00000000
_symmetry_Int_Tables_number   1
_chemical_formula_structural   AlH15C21(NO2)3
_chemical_formula_sum   'Al2 H30 C42 N6 O12'
_cell_volume   2128.61016228
_cell_formula_units_Z   2
loop_
 _symmetry_equiv_pos_site_id
 _symmetry_equiv_pos_as_xyz
  1  'x, y, z'
loop_
 _atom_site_type_symbol
 _atom_site_label
 _atom_site_symmetry_multiplicity
 _atom_site_fract_x
 _atom_site_fract_y
 _atom_site_fract_z
 _atom_site_occupancy
  Al  Al0  1  0.96431000  0.00000000  0.50000000  1.0
  Al  Al1  1  0.96376000  0.66666000  0.16667000  1.0
  H  H2  1  0.72338000  0.17315000  0.33710000  1.0
  H  H3  1  0.72315000  0.49355000  0.32956000  1.0
  H  H4  1  0.19529000  0.49329000  0.17806000  1.0
  H  H5  1  0.20001000  0.37636000  0.23763000  1.0
  H  H6  1  0.19558000  0.17334000  0.48864000  1.0
  H  H7  1  0.20008000  0.29030000  0.42907000  1.0
  H  H8  1  0.72338000  0.83710000  0.48975000  1.0
  H  H9  1  0.72310000  0.82956000  0.17689000  1.0
  H  H10  1  0.19534000  0.67805000  0.32865000  1.0
  H  H11  1  0.20004000  0.73763000  0.38602000  1.0
  H  H12  1  0.19557000  0.98864000  0.33801000  1.0
  H  H13  1  0.20008000  0.92907000  0.28063000  1.0
  H  H14  1  0.72339000  0.98974000  0.67315000  1.0
  H  H15  1  0.72313000  0.67690000  0.99354000  1.0
  H  H16  1  0.19531000  0.82865000  0.99330000  1.0
  H  H17  1  0.20001000  0.88602000  0.87635000  1.0
  H  H18  1  0.19556000  0.83802000  0.67335000  1.0
  H  H19  1  0.20006000  0.78064000  0.79030000  1.0
  H  H20  1  0.68849000  0.34110000  0.23670000  1.0
  H  H21  1  0.77794000  0.27109000  0.24202000  1.0
  H  H22  1  0.68857000  0.32558000  0.42997000  1.0
  H  H23  1  0.77790000  0.39560000  0.42465000  1.0
  H  H24  1  0.68852000  0.73670000  0.42220000  1.0
  H  H25  1  0.77795000  0.74203000  0.48688000  1.0
  H  H26  1  0.68855000  0.92998000  0.24444000  1.0
  H  H27  1  0.77785000  0.92466000  0.17974000  1.0
  H  H28  1  0.68851000  0.92219000  0.84111000  1.0
  H  H29  1  0.77796000  0.98688000  0.77110000  1.0
  H  H30  1  0.68855000  0.74444000  0.82558000  1.0
  H  H31  1  0.77788000  0.67975000  0.89560000  1.0
  C  C32  1  0.46420000  0.95247000  0.59629000  1.0
  C  C33  1  0.46420000  0.09630000  0.45124000  1.0
  C  C34  1  0.46420000  0.95125000  0.45246000  1.0
  C  C35  1  0.46365000  0.57038000  0.21542000  1.0
  C  C36  1  0.46364000  0.71542000  0.21420000  1.0
  C  C37  1  0.46365000  0.71420000  0.07038000  1.0
  C  C38  1  0.46308000  0.16643000  0.41633000  1.0
  C  C39  1  0.46274000  0.50026000  0.25034000  1.0
  C  C40  1  0.60481000  0.19904000  0.35702000  1.0
  C  C41  1  0.60568000  0.26489000  0.32300000  1.0
  C  C42  1  0.60460000  0.46765000  0.30965000  1.0
  C  C43  1  0.60552000  0.40179000  0.34368000  1.0
  C  C44  1  0.31756000  0.46778000  0.22342000  1.0
  C  C45  1  0.32185000  0.40252000  0.25687000  1.0
  C  C46  1  0.31780000  0.19888000  0.44327000  1.0
  C  C47  1  0.32200000  0.26414000  0.40982000  1.0
  C  C48  1  0.46484000  0.29851000  0.35016000  1.0
  C  C49  1  0.46480000  0.36815000  0.31653000  1.0
  C  C50  1  0.46307000  0.91633000  0.41725000  1.0
  C  C51  1  0.46273000  0.75035000  0.24940000  1.0
  C  C52  1  0.60481000  0.85703000  0.44394000  1.0
  C  C53  1  0.60568000  0.82301000  0.41211000  1.0
  C  C54  1  0.60457000  0.80965000  0.22270000  1.0
  C  C55  1  0.60550000  0.84368000  0.25453000  1.0
  C  C56  1  0.31758000  0.72342000  0.30880000  1.0
  C  C57  1  0.32186000  0.75687000  0.34061000  1.0
  C  C58  1  0.31779000  0.94327000  0.35785000  1.0
  C  C59  1  0.32199000  0.90982000  0.32604000  1.0
  C  C60  1  0.46484000  0.85016000  0.35133000  1.0
  C  C61  1  0.46480000  0.81652000  0.31532000  1.0
  C  C62  1  0.46307000  0.91725000  0.66642000  1.0
  C  C63  1  0.46273000  0.74941000  0.00025000  1.0
  C  C64  1  0.60481000  0.94395000  0.69903000  1.0
  C  C65  1  0.60568000  0.91212000  0.76488000  1.0
  C  C66  1  0.60459000  0.72270000  0.96765000  1.0
  C  C67  1  0.60550000  0.75454000  0.90179000  1.0
  C  C68  1  0.31757000  0.80880000  0.96778000  1.0
  C  C69  1  0.32185000  0.84061000  0.90252000  1.0
  C  C70  1  0.31778000  0.85786000  0.69888000  1.0
  C  C71  1  0.32199000  0.82604000  0.76414000  1.0
  C  C72  1  0.46484000  0.85133000  0.79851000  1.0
  C  C73  1  0.46480000  0.81532000  0.86816000  1.0
  N  N74  1  0.75725000  0.29581000  0.26459000  1.0
  N  N75  1  0.75726000  0.37089000  0.40208000  1.0
  N  N76  1  0.75727000  0.76459000  0.43960000  1.0
  N  N77  1  0.75724000  0.90209000  0.22703000  1.0
  N  N78  1  0.75726000  0.93960000  0.79581000  1.0
  N  N79  1  0.75725000  0.72704000  0.87088000  1.0
  O  O80  1  0.69968000  0.98981000  0.44111000  1.0
  O  O81  1  0.69968000  0.94111000  0.56908000  1.0
  O  O82  1  0.69969000  0.06908000  0.48981000  1.0
  O  O83  1  0.22901000  0.94035000  0.49099000  1.0
  O  O84  1  0.22901000  0.06866000  0.44035000  1.0
  O  O85  1  0.22901000  0.99099000  0.56866000  1.0
  O  O86  1  0.69908000  0.72555000  0.09760000  1.0
  O  O87  1  0.69908000  0.59760000  0.17685000  1.0
  O  O88  1  0.69908000  0.67685000  0.22555000  1.0
  O  O89  1  0.22837000  0.67569000  0.09799000  1.0
  O  O90  1  0.22837000  0.72633000  0.17568000  1.0
  O  O91  1  0.22837000  0.59800000  0.22632000  1.0
