# generated using pymatgen
data_Li3H13C7SO12
_symmetry_space_group_name_H-M   'P 1'
_cell_length_a   6.52485000
_cell_length_b   8.81450000
_cell_length_c   11.72660000
_cell_angle_alpha   96.73380000
_cell_angle_beta   96.96210000
_cell_angle_gamma   105.05500000
_symmetry_Int_Tables_number   1
_chemical_formula_structural   Li3H13C7SO12
_chemical_formula_sum   'Li6 H26 C14 S2 O24'
_cell_volume   638.65386481
_cell_formula_units_Z   2
loop_
 _symmetry_equiv_pos_site_id
 _symmetry_equiv_pos_as_xyz
  1  'x, y, z'
loop_
 _atom_site_type_symbol
 _atom_site_label
 _atom_site_symmetry_multiplicity
 _atom_site_fract_x
 _atom_site_fract_y
 _atom_site_fract_z
 _atom_site_occupancy
  Li  Li0  1  0.30684000  0.87720000  0.01368000  1.0
  Li  Li1  1  0.69316000  0.12280000  0.98632000  1.0
  Li  Li2  1  0.12998000  0.69644000  0.78569000  1.0
  Li  Li3  1  0.87002000  0.30356000  0.21431000  1.0
  Li  Li4  1  0.48334000  0.41018000  0.60167000  1.0
  Li  Li5  1  0.51666000  0.58983000  0.39834000  1.0
  H  H6  1  0.30309000  0.15127000  0.92806000  1.0
  H  H7  1  0.69691000  0.84873000  0.07195000  1.0
  H  H8  1  0.33025000  0.02258000  0.83394000  1.0
  H  H9  1  0.66975000  0.97742000  0.16606000  1.0
  H  H10  1  0.91784000  0.73059000  0.95334000  1.0
  H  H11  1  0.08216000  0.26941000  0.04666000  1.0
  H  H12  1  0.91570000  0.87290000  0.88323000  1.0
  H  H13  1  0.08430000  0.12710000  0.11677000  1.0
  H  H14  1  0.55368000  0.83033000  0.84918000  1.0
  H  H15  1  0.44632000  0.16967000  0.15082000  1.0
  H  H16  1  0.47226000  0.64222000  0.84046000  1.0
  H  H17  1  0.52774000  0.35778000  0.15955000  1.0
  H  H18  1  0.22223000  0.58317000  0.54024000  1.0
  H  H19  1  0.77777000  0.41683000  0.45976000  1.0
  H  H20  1  0.14953000  0.41735000  0.45700000  1.0
  H  H21  1  0.85047000  0.58266000  0.54301000  1.0
  H  H22  1  0.32812000  0.11966000  0.63267000  1.0
  H  H23  1  0.67188000  0.88034000  0.36733000  1.0
  H  H24  1  0.61730000  0.41400000  0.82440000  1.0
  H  H25  1  0.38271000  0.58599000  0.17560000  1.0
  H  H26  1  0.37265000  0.39199000  0.81275000  1.0
  H  H27  1  0.62736000  0.60800000  0.18725000  1.0
  H  H28  1  0.37897000  0.22222000  0.34510000  1.0
  H  H29  1  0.62102000  0.77778000  0.65489000  1.0
  H  H30  1  0.03626000  0.66896000  0.39937000  1.0
  H  H31  1  0.96375000  0.33103000  0.60063000  1.0
  C  C32  1  0.12828000  0.82438000  0.27764000  1.0
  C  C33  1  0.87172000  0.17562000  0.72236000  1.0
  C  C34  1  0.22545000  0.98222000  0.25777000  1.0
  C  C35  1  0.77455000  0.01777000  0.74223000  1.0
  C  C36  1  0.30258000  0.10096000  0.35733000  1.0
  C  C37  1  0.69742000  0.89903000  0.64267000  1.0
  C  C38  1  0.28601000  0.06537000  0.46872000  1.0
  C  C39  1  0.71399000  0.93462000  0.53127000  1.0
  C  C40  1  0.19014000  0.90695000  0.48642000  1.0
  C  C41  1  0.80986000  0.09305000  0.51358000  1.0
  C  C42  1  0.11185000  0.79044000  0.38872000  1.0
  C  C43  1  0.88815000  0.20956000  0.61128000  1.0
  C  C44  1  0.17869000  0.86549000  0.60299000  1.0
  C  C45  1  0.82131000  0.13451000  0.39701000  1.0
  S  S46  1  0.02986000  0.66516000  0.16290000  1.0
  S  S47  1  0.97014000  0.33483000  0.83709000  1.0
  O  O48  1  0.83200000  0.68438000  0.09534000  1.0
  O  O49  1  0.16800000  0.31562000  0.90466000  1.0
  O  O50  1  0.37503000  0.06696000  0.91782000  1.0
  O  O51  1  0.62497000  0.93304000  0.08218000  1.0
  O  O52  1  0.98131000  0.52391000  0.21996000  1.0
  O  O53  1  0.01869000  0.47609000  0.78004000  1.0
  O  O54  1  0.99631000  0.79349000  0.90035000  1.0
  O  O55  1  0.00369000  0.20651000  0.09965000  1.0
  O  O56  1  0.42740000  0.74000000  0.85647000  1.0
  O  O57  1  0.57260000  0.26000000  0.14353000  1.0
  O  O58  1  0.20015000  0.66713000  0.09043000  1.0
  O  O59  1  0.79986000  0.33287000  0.90957000  1.0
  O  O60  1  0.24108000  0.01448000  0.15227000  1.0
  O  O61  1  0.75891000  0.98552000  0.84773000  1.0
  O  O62  1  0.27955000  0.50127000  0.49870000  1.0
  O  O63  1  0.72045000  0.49873000  0.50131000  1.0
  O  O64  1  0.36147000  0.18129000  0.56282000  1.0
  O  O65  1  0.63853000  0.81871000  0.43717000  1.0
  O  O66  1  0.49861000  0.44079000  0.77673000  1.0
  O  O67  1  0.50139000  0.55921000  0.22327000  1.0
  O  O68  1  0.24738000  0.97912000  0.68945000  1.0
  O  O69  1  0.75262000  0.02088000  0.31055000  1.0
  O  O70  1  0.10539000  0.71906000  0.61749000  1.0
  O  O71  1  0.89461000  0.28095000  0.38252000  1.0
