# generated using pymatgen
data_ZnH12C13(NO2)2
_symmetry_space_group_name_H-M   'P 1'
_cell_length_a   9.59472000
_cell_length_b   11.00780000
_cell_length_c   11.17890000
_cell_angle_alpha   90.83950000
_cell_angle_beta   92.82060000
_cell_angle_gamma   91.11780000
_symmetry_Int_Tables_number   1
_chemical_formula_structural   ZnH12C13(NO2)2
_chemical_formula_sum   'Zn2 H24 C26 N4 O8'
_cell_volume   1178.88030482
_cell_formula_units_Z   2
loop_
 _symmetry_equiv_pos_site_id
 _symmetry_equiv_pos_as_xyz
  1  'x, y, z'
loop_
 _atom_site_type_symbol
 _atom_site_label
 _atom_site_symmetry_multiplicity
 _atom_site_fract_x
 _atom_site_fract_y
 _atom_site_fract_z
 _atom_site_occupancy
  Zn  Zn0  1  0.63699000  0.50620000  0.50551000  1.0
  Zn  Zn1  1  0.35385000  0.50670000  0.49197000  1.0
  H  H2  1  0.77329000  0.34808000  0.90008000  1.0
  H  H3  1  0.84846000  0.59447000  0.34193000  1.0
  H  H4  1  0.25274000  0.56397000  0.19201000  1.0
  H  H5  1  0.16740000  0.56269000  0.05277000  1.0
  H  H6  1  0.26992000  0.59559000  0.77631000  1.0
  H  H7  1  0.21578000  0.66516000  0.90354000  1.0
  H  H8  1  0.85041000  0.25089000  0.29104000  1.0
  H  H9  1  0.87945000  0.10183000  0.34262000  1.0
  H  H10  1  0.82327000  0.21602000  0.44296000  1.0
  H  H11  1  0.65099000  0.10149000  0.22984000  1.0
  H  H12  1  0.60307000  0.23455000  0.30386000  1.0
  H  H13  1  0.83919000  0.50326000  0.12796000  1.0
  H  H14  1  0.87876000  0.94675000  0.43498000  1.0
  H  H15  1  0.90692000  0.82293000  0.33654000  1.0
  H  H16  1  0.82165000  0.79886000  0.47323000  1.0
  H  H17  1  0.64585000  0.79134000  0.30437000  1.0
  H  H18  1  0.70567000  0.93217000  0.25193000  1.0
  H  H19  1  0.84162000  0.50049000  0.90310000  1.0
  H  H20  1  0.77117000  0.35134000  0.12411000  1.0
  H  H21  1  0.33480000  0.88876000  0.60819000  1.0
  H  H22  1  0.33069000  0.11655000  0.61169000  1.0
  H  H23  1  0.14051000  0.40901000  0.65575000  1.0
  H  H24  1  0.11535000  0.60279000  0.33980000  1.0
  H  H25  1  0.87372000  0.41257000  0.66414000  1.0
  C  C26  1  0.49374000  0.74471000  0.49075000  1.0
  C  C27  1  0.61689000  0.48653000  0.94239000  1.0
  C  C28  1  0.49651000  0.51861000  0.12795000  1.0
  C  C29  1  0.50181000  0.51828000  0.86807000  1.0
  C  C30  1  0.37809000  0.55217000  0.05536000  1.0
  C  C31  1  0.38172000  0.55468000  0.92726000  1.0
  C  C32  1  0.76405000  0.43903000  0.94084000  1.0
  C  C33  1  0.76225000  0.44084000  0.08229000  1.0
  C  C34  1  0.40456000  0.94198000  0.55443000  1.0
  C  C35  1  0.40146000  0.06776000  0.55564000  1.0
  C  C36  1  0.48974000  0.13352000  0.48343000  1.0
  C  C37  1  0.48652000  0.26935000  0.49289000  1.0
  C  C38  1  0.49872000  0.88086000  0.48420000  1.0
  C  C39  1  0.58065000  0.07426000  0.40693000  1.0
  C  C40  1  0.58872000  0.94577000  0.41014000  1.0
  C  C41  1  0.65823000  0.14907000  0.31731000  1.0
  C  C42  1  0.81204000  0.18050000  0.35072000  1.0
  C  C43  1  0.69021000  0.88025000  0.33358000  1.0
  C  C44  1  0.83300000  0.86107000  0.39857000  1.0
  C  C45  1  0.07414000  0.45101000  0.58673000  1.0
  C  C46  1  0.06026000  0.55757000  0.41008000  1.0
  C  C47  1  0.92933000  0.45215000  0.59094000  1.0
  C  C48  1  0.91546000  0.55551000  0.41227000  1.0
  C  C49  1  0.49601000  0.51014000  0.26021000  1.0
  C  C50  1  0.50785000  0.51369000  0.73591000  1.0
  C  C51  1  0.61512000  0.48803000  0.06613000  1.0
  N  N52  1  0.85176000  0.50390000  0.50330000  1.0
  N  N53  1  0.13815000  0.50458000  0.49665000  1.0
  N  N54  1  0.25443000  0.58726000  0.10390000  1.0
  N  N55  1  0.25920000  0.59064000  0.86646000  1.0
  O  O56  1  0.60889000  0.68826000  0.49407000  1.0
  O  O57  1  0.60422000  0.32429000  0.50957000  1.0
  O  O58  1  0.37333000  0.69446000  0.49500000  1.0
  O  O59  1  0.36816000  0.32003000  0.48683000  1.0
  O  O60  1  0.61289000  0.49691000  0.31725000  1.0
  O  O61  1  0.62717000  0.51177000  0.69101000  1.0
  O  O62  1  0.37823000  0.51518000  0.31073000  1.0
  O  O63  1  0.39092000  0.51113000  0.67402000  1.0
