# generated using pymatgen
data_DyH12C11N5O7
_symmetry_space_group_name_H-M   'P 1'
_cell_length_a   7.51806000
_cell_length_b   16.83889882
_cell_length_c   17.24438572
_cell_angle_alpha   62.08513570
_cell_angle_beta   77.42653884
_cell_angle_gamma   77.11810423
_symmetry_Int_Tables_number   1
_chemical_formula_structural   DyH12C11N5O7
_chemical_formula_sum   'Dy4 H48 C44 N20 O28'
_cell_volume   1864.16129614
_cell_formula_units_Z   4
loop_
 _symmetry_equiv_pos_site_id
 _symmetry_equiv_pos_as_xyz
  1  'x, y, z'
loop_
 _atom_site_type_symbol
 _atom_site_label
 _atom_site_symmetry_multiplicity
 _atom_site_fract_x
 _atom_site_fract_y
 _atom_site_fract_z
 _atom_site_occupancy
  Dy  Dy0  1  0.02842000  0.11161000  0.38236000  1.0
  Dy  Dy1  1  0.52252000  0.38836000  0.11770000  1.0
  Dy  Dy2  1  0.97158000  0.88839000  0.61764000  1.0
  Dy  Dy3  1  0.47747000  0.61164000  0.88230000  1.0
  H  H4  1  0.75376000  0.25943000  0.30033000  1.0
  H  H5  1  0.31369000  0.24043000  0.19970000  1.0
  H  H6  1  0.24623000  0.74057000  0.69967000  1.0
  H  H7  1  0.68632000  0.75957000  0.80029000  1.0
  H  H8  1  0.74986000  0.27299000  0.38942000  1.0
  H  H9  1  0.41285000  0.22679000  0.11071000  1.0
  H  H10  1  0.25014000  0.72701000  0.61058000  1.0
  H  H11  1  0.58715000  0.77321000  0.88929000  1.0
  H  H12  1  0.94795000  0.92928000  0.41904000  1.0
  H  H13  1  0.29662000  0.57073000  0.08097000  1.0
  H  H14  1  0.05205000  0.07072000  0.58096000  1.0
  H  H15  1  0.70338000  0.42927000  0.91903000  1.0
  H  H16  1  0.88486000  0.00114000  0.32350000  1.0
  H  H17  1  0.20988000  0.49881000  0.17646000  1.0
  H  H18  1  0.11514000  0.99886000  0.67650000  1.0
  H  H19  1  0.79011000  0.50119000  0.82355000  1.0
  H  H20  1  0.39520000  0.60313000  0.39975000  1.0
  H  H21  1  0.39787000  0.89703000  0.10007000  1.0
  H  H22  1  0.60481000  0.39686000  0.60025000  1.0
  H  H23  1  0.60213000  0.10297000  0.89993000  1.0
  H  H24  1  0.00544000  0.19212000  0.61690000  1.0
  H  H25  1  0.81400000  0.30790000  0.88314000  1.0
  H  H26  1  0.99457000  0.80788000  0.38310000  1.0
  H  H27  1  0.18600000  0.69210000  0.11686000  1.0
  H  H28  1  0.07599000  0.33009000  0.61769000  1.0
  H  H29  1  0.02364000  0.17012000  0.88217000  1.0
  H  H30  1  0.92402000  0.66991000  0.38231000  1.0
  H  H31  1  0.97636000  0.82989000  0.11782000  1.0
  H  H32  1  0.32451000  0.41857000  0.34618000  1.0
  H  H33  1  0.08972000  0.08157000  0.15368000  1.0
  H  H34  1  0.67549000  0.58143000  0.65382000  1.0
  H  H35  1  0.91028000  0.91843000  0.84632000  1.0
  H  H36  1  0.43926000  0.73953000  0.42531000  1.0
  H  H37  1  0.60358000  0.76062000  0.07448000  1.0
  H  H38  1  0.56075000  0.26047000  0.57469000  1.0
  H  H39  1  0.39644000  0.23937000  0.92551000  1.0
  H  H40  1  0.44304000  0.09065000  0.48576000  1.0
  H  H41  1  0.01962000  0.40927000  0.01426000  1.0
  H  H42  1  0.55695000  0.90935000  0.51425000  1.0
  H  H43  1  0.98037000  0.59074000  0.98574000  1.0
  H  H44  1  0.55287000  0.16819000  0.49252000  1.0
  H  H45  1  0.21353000  0.33164000  0.00764000  1.0
  H  H46  1  0.44712000  0.83182000  0.50748000  1.0
  H  H47  1  0.78646000  0.66836000  0.99236000  1.0
  H  H48  1  0.40664000  0.09820000  0.58795000  1.0
  H  H49  1  0.09281000  0.40151000  0.91217000  1.0
  H  H50  1  0.59337000  0.90180000  0.41205000  1.0
  H  H51  1  0.90719000  0.59849000  0.08783000  1.0
  C  C52  1  0.07541000  0.24282000  0.55808000  1.0
  C  C53  1  0.87613000  0.25725000  0.94190000  1.0
  C  C54  1  0.92459000  0.75718000  0.44192000  1.0
  C  C55  1  0.12386000  0.74275000  0.05810000  1.0
  C  C56  1  0.11979000  0.22789000  0.48032000  1.0
  C  C57  1  0.82801000  0.27216000  0.01967000  1.0
  C  C58  1  0.88021000  0.77211000  0.51968000  1.0
  C  C59  1  0.17199000  0.72784000  0.98033000  1.0
  C  C60  1  0.21152000  0.29389000  0.40248000  1.0
  C  C61  1  0.90813000  0.20617000  0.09748000  1.0
  C  C62  1  0.78848000  0.70611000  0.59752000  1.0
  C  C63  1  0.09187000  0.79383000  0.90252000  1.0
  C  C64  1  0.66929000  0.02870000  0.55971000  1.0
  C  C65  1  0.25794000  0.47111000  0.94030000  1.0
  C  C66  1  0.33071000  0.97130000  0.44029000  1.0
  C  C67  1  0.74206000  0.52889000  0.05970000  1.0
  C  C68  1  0.11426000  0.31837000  0.55880000  1.0
  C  C69  1  0.99134000  0.18180000  0.94109000  1.0
  C  C70  1  0.88574000  0.68163000  0.44120000  1.0
  C  C71  1  0.00866000  0.81820000  0.05891000  1.0
  C  C72  1  0.25194000  0.36934000  0.40504000  1.0
  C  C73  1  0.02664000  0.13081000  0.09485000  1.0
  C  C74  1  0.74806000  0.63066000  0.59496000  1.0
  C  C75  1  0.97336000  0.86919000  0.90515000  1.0
  C  C76  1  0.26772000  0.28575000  0.31800000  1.0
  C  C77  1  0.87174000  0.21431000  0.18196000  1.0
  C  C78  1  0.73228000  0.71425000  0.68200000  1.0
  C  C79  1  0.12826000  0.78569000  0.81804000  1.0
  C  C80  1  0.20410000  0.38372000  0.48119000  1.0
  C  C81  1  0.06918000  0.11649000  0.01865000  1.0
  C  C82  1  0.79590000  0.61628000  0.51881000  1.0
  C  C83  1  0.93082000  0.88351000  0.98135000  1.0
  C  C84  1  0.26176000  0.55306000  0.53197000  1.0
  C  C85  1  0.34643000  0.94713000  0.96784000  1.0
  C  C86  1  0.73825000  0.44693000  0.46803000  1.0
  C  C87  1  0.65358000  0.05287000  0.03215000  1.0
  C  C88  1  0.37188000  0.68108000  0.47207000  1.0
  C  C89  1  0.52454000  0.81909000  0.02773000  1.0
  C  C90  1  0.62812000  0.31892000  0.52793000  1.0
  C  C91  1  0.47546000  0.18091000  0.97227000  1.0
  C  C92  1  0.50805000  0.10116000  0.53088000  1.0
  C  C93  1  0.14019000  0.39866000  0.96919000  1.0
  C  C94  1  0.49195000  0.89884000  0.46912000  1.0
  C  C95  1  0.85980000  0.60134000  0.03082000  1.0
  N  N96  1  0.25040000  0.46202000  0.47429000  1.0
  N  N97  1  0.18681000  0.03822000  0.02551000  1.0
  N  N98  1  0.74961000  0.53798000  0.52571000  1.0
  N  N99  1  0.81319000  0.96178000  0.97449000  1.0
  N  N100  1  0.35125000  0.61317000  0.45488000  1.0
  N  N101  1  0.41902000  0.88702000  0.04492000  1.0
  N  N102  1  0.64874000  0.38683000  0.54513000  1.0
  N  N103  1  0.58098000  0.11299000  0.95508000  1.0
  N  N104  1  0.22977000  0.58340000  0.59314000  1.0
  N  N105  1  0.40577000  0.91680000  0.90667000  1.0
  N  N106  1  0.77023000  0.41660000  0.40686000  1.0
  N  N107  1  0.59423000  0.08320000  0.09333000  1.0
  N  N108  1  0.29897000  0.66420000  0.55459000  1.0
  N  N109  1  0.51713000  0.83599000  0.94521000  1.0
  N  N110  1  0.70104000  0.33579000  0.44542000  1.0
  N  N111  1  0.48287000  0.16401000  0.05479000  1.0
  N  N112  1  0.21121000  0.47340000  0.54522000  1.0
  N  N113  1  0.22961000  0.02681000  0.95461000  1.0
  N  N114  1  0.78879000  0.52660000  0.45478000  1.0
  N  N115  1  0.77039000  0.97320000  0.04539000  1.0
  O  O116  1  0.07861000  0.15452000  0.48439000  1.0
  O  O117  1  0.71746000  0.34545000  0.01567000  1.0
  O  O118  1  0.92138000  0.84548000  0.51561000  1.0
  O  O119  1  0.28254000  0.65455000  0.98433000  1.0
  O  O120  1  0.37179000  0.34127000  0.25797000  1.0
  O  O121  1  0.97138000  0.15873000  0.24199000  1.0
  O  O122  1  0.62821000  0.65873000  0.74203000  1.0
  O  O123  1  0.02862000  0.84127000  0.75801000  1.0
  O  O124  1  0.82032000  0.03378000  0.50529000  1.0
  O  O125  1  0.35944000  0.46612000  0.99477000  1.0
  O  O126  1  0.17968000  0.96622000  0.49471000  1.0
  O  O127  1  0.64056000  0.53388000  0.00523000  1.0
  O  O128  1  0.21118000  0.22631000  0.30645000  1.0
  O  O129  1  0.74439000  0.27374000  0.19352000  1.0
  O  O130  1  0.78882000  0.77369000  0.69355000  1.0
  O  O131  1  0.25560000  0.72626000  0.80648000  1.0
  O  O132  1  0.78658000  0.22955000  0.36150000  1.0
  O  O133  1  0.37804000  0.27026000  0.13861000  1.0
  O  O134  1  0.21342000  0.77045000  0.63850000  1.0
  O  O135  1  0.62196000  0.72974000  0.86139000  1.0
  O  O136  1  0.65969000  0.96135000  0.63510000  1.0
  O  O137  1  0.25645000  0.53838000  0.86486000  1.0
  O  O138  1  0.34030000  0.03865000  0.36491000  1.0
  O  O139  1  0.74356000  0.46161000  0.13514000  1.0
  O  O140  1  0.97617000  0.98530000  0.36241000  1.0
  O  O141  1  0.32426000  0.51472000  0.13760000  1.0
  O  O142  1  0.02383000  0.01470000  0.63759000  1.0
  O  O143  1  0.67574000  0.48528000  0.86240000  1.0
