# generated using pymatgen
data_Cu3Mo4H16C16N8ClO13
_symmetry_space_group_name_H-M   'P 1'
_cell_length_a   10.56750000
_cell_length_b   11.24020000
_cell_length_c   12.83400000
_cell_angle_alpha   96.14480000
_cell_angle_beta   102.20900000
_cell_angle_gamma   108.35100000
_symmetry_Int_Tables_number   1
_chemical_formula_structural   Cu3Mo4H16C16N8ClO13
_chemical_formula_sum   'Cu6 Mo8 H32 C32 N16 Cl2 O26'
_cell_volume   1389.19468487
_cell_formula_units_Z   2
loop_
 _symmetry_equiv_pos_site_id
 _symmetry_equiv_pos_as_xyz
  1  'x, y, z'
loop_
 _atom_site_type_symbol
 _atom_site_label
 _atom_site_symmetry_multiplicity
 _atom_site_fract_x
 _atom_site_fract_y
 _atom_site_fract_z
 _atom_site_occupancy
  Cu  Cu0  1  0.33533000  0.68030000  0.51145000  1.0
  Cu  Cu1  1  0.66468000  0.31970000  0.48855000  1.0
  Cu  Cu2  1  0.37456000  0.50982000  0.92205000  1.0
  Cu  Cu3  1  0.62543000  0.49018000  0.07795000  1.0
  Cu  Cu4  1  0.11232000  0.12338000  0.00930000  1.0
  Cu  Cu5  1  0.88768000  0.87662000  0.99070000  1.0
  Mo  Mo6  1  0.22556000  0.28742000  0.41677000  1.0
  Mo  Mo7  1  0.77444000  0.71258000  0.58323000  1.0
  Mo  Mo8  1  0.16913000  0.98772000  0.50249000  1.0
  Mo  Mo9  1  0.83087000  0.01228000  0.49751000  1.0
  Mo  Mo10  1  0.09732000  0.25040000  0.63081000  1.0
  Mo  Mo11  1  0.90268000  0.74960000  0.36919000  1.0
  Mo  Mo12  1  0.06163000  0.95702000  0.71706000  1.0
  Mo  Mo13  1  0.93837000  0.04298000  0.28294000  1.0
  H  H14  1  0.28411000  0.96247000  0.92586000  1.0
  H  H15  1  0.71589000  0.03753000  0.07414000  1.0
  H  H16  1  0.29251000  0.12068000  0.24167000  1.0
  H  H17  1  0.70749000  0.87932000  0.75833000  1.0
  H  H18  1  0.50289000  0.07581000  0.34414000  1.0
  H  H19  1  0.49711000  0.92419000  0.65586000  1.0
  H  H20  1  0.61854000  0.06263000  0.26487000  1.0
  H  H21  1  0.38146000  0.93738000  0.73514000  1.0
  H  H22  1  0.57269000  0.82491000  0.16095000  1.0
  H  H23  1  0.42732000  0.17510000  0.83905000  1.0
  H  H24  1  0.51770000  0.60137000  0.19402000  1.0
  H  H25  1  0.48230000  0.39863000  0.80597000  1.0
  H  H26  1  0.40787000  0.54041000  0.34419000  1.0
  H  H27  1  0.59213000  0.45959000  0.65581000  1.0
  H  H28  1  0.39814000  0.90486000  0.42388000  1.0
  H  H29  1  0.60186000  0.09514000  0.57612000  1.0
  H  H30  1  0.48668000  0.63328000  0.73505000  1.0
  H  H31  1  0.51332000  0.36672000  0.26496000  1.0
  H  H32  1  0.07714000  0.62077000  0.61438000  1.0
  H  H33  1  0.92286000  0.37922000  0.38562000  1.0
  H  H34  1  0.97671000  0.52109000  0.75343000  1.0
  H  H35  1  0.02329000  0.47891000  0.24657000  1.0
  H  H36  1  0.07537000  0.44326000  0.83229000  1.0
  H  H37  1  0.92463000  0.55674000  0.16771000  1.0
  H  H38  1  0.21916000  0.55404000  0.02635000  1.0
  H  H39  1  0.78083000  0.44596000  0.97364000  1.0
  H  H40  1  0.21706000  0.69494000  0.19140000  1.0
  H  H41  1  0.78293000  0.30506000  0.80860000  1.0
  H  H42  1  0.07247000  0.83393000  0.16905000  1.0
  H  H43  1  0.92752000  0.16608000  0.83095000  1.0
  H  H44  1  0.94302000  0.70861000  0.83525000  1.0
  H  H45  1  0.05698000  0.29139000  0.16475000  1.0
  C  C46  1  0.31373000  0.99292000  0.01333000  1.0
  C  C47  1  0.68627000  0.00708000  0.98667000  1.0
  C  C48  1  0.31604000  0.07526000  0.17296000  1.0
  C  C49  1  0.68396000  0.92474000  0.82704000  1.0
  C  C50  1  0.51424000  0.01811000  0.27458000  1.0
  C  C51  1  0.48576000  0.98189000  0.72543000  1.0
  C  C52  1  0.48844000  0.88250000  0.28997000  1.0
  C  C53  1  0.51156000  0.11750000  0.71003000  1.0
  C  C54  1  0.52310000  0.79590000  0.22489000  1.0
  C  C55  1  0.47691000  0.20410000  0.77511000  1.0
  C  C56  1  0.49286000  0.67159000  0.24335000  1.0
  C  C57  1  0.50715000  0.32841000  0.75665000  1.0
  C  C58  1  0.43091000  0.63635000  0.32606000  1.0
  C  C59  1  0.56910000  0.36365000  0.67394000  1.0
  C  C60  1  0.42675000  0.84096000  0.37104000  1.0
  C  C61  1  0.57326000  0.15904000  0.62896000  1.0
  C  C62  1  0.37962000  0.62297000  0.72859000  1.0
  C  C63  1  0.62039000  0.37702000  0.27141000  1.0
  C  C64  1  0.17185000  0.61707000  0.66467000  1.0
  C  C65  1  0.82815000  0.38293000  0.33533000  1.0
  C  C66  1  0.07236000  0.53607000  0.81522000  1.0
  C  C67  1  0.92764000  0.46393000  0.18478000  1.0
  C  C68  1  0.08275000  0.62235000  0.91742000  1.0
  C  C69  1  0.91725000  0.37764000  0.08258000  1.0
  C  C70  1  0.16040000  0.61873000  0.01906000  1.0
  C  C71  1  0.83959000  0.38127000  0.98094000  1.0
  C  C72  1  0.15924000  0.69628000  0.11088000  1.0
  C  C73  1  0.84075000  0.30371000  0.88912000  1.0
  C  C74  1  0.07977000  0.77401000  0.09958000  1.0
  C  C75  1  0.92023000  0.22598000  0.90042000  1.0
  C  C76  1  0.00619000  0.70335000  0.91247000  1.0
  C  C77  1  0.99381000  0.29664000  0.08753000  1.0
  N  N78  1  0.24936000  0.05730000  0.06808000  1.0
  N  N79  1  0.75064000  0.94270000  0.93192000  1.0
  N  N80  1  0.41521000  0.97063000  0.07878000  1.0
  N  N81  1  0.58479000  0.02938000  0.92122000  1.0
  N  N82  1  0.41536000  0.02391000  0.17886000  1.0
  N  N83  1  0.58464000  0.97609000  0.82115000  1.0
  N  N84  1  0.39840000  0.72029000  0.38968000  1.0
  N  N85  1  0.60161000  0.27971000  0.61032000  1.0
  N  N86  1  0.29431000  0.64144000  0.64089000  1.0
  N  N87  1  0.70569000  0.35856000  0.35911000  1.0
  N  N88  1  0.31487000  0.58746000  0.80456000  1.0
  N  N89  1  0.68512000  0.41254000  0.19544000  1.0
  N  N90  1  0.18308000  0.58467000  0.76257000  1.0
  N  N91  1  0.81692000  0.41533000  0.23743000  1.0
  N  N92  1  0.00421000  0.77780000  0.00162000  1.0
  N  N93  1  0.99579000  0.22220000  0.99838000  1.0
  Cl  Cl94  1  0.36345000  0.38698000  0.04222000  1.0
  Cl  Cl95  1  0.63656000  0.61302000  0.95778000  1.0
  O  O96  1  0.14360000  0.39478000  0.38484000  1.0
  O  O97  1  0.85640000  0.60522000  0.61516000  1.0
  O  O98  1  0.38556000  0.35104000  0.39334000  1.0
  O  O99  1  0.61444000  0.64896000  0.60666000  1.0
  O  O100  1  0.24995000  0.31692000  0.56973000  1.0
  O  O101  1  0.75005000  0.68308000  0.43027000  1.0
  O  O102  1  0.28217000  0.11558000  0.46142000  1.0
  O  O103  1  0.71783000  0.88442000  0.53859000  1.0
  O  O104  1  0.17651000  0.30580000  0.76658000  1.0
  O  O105  1  0.82350000  0.69420000  0.23342000  1.0
  O  O106  1  0.18528000  0.07506000  0.64642000  1.0
  O  O107  1  0.81472000  0.92494000  0.35358000  1.0
  O  O108  1  0.25912000  0.88701000  0.53150000  1.0
  O  O109  1  0.74088000  0.11298000  0.46850000  1.0
  O  O110  1  0.00130000  0.34455000  0.59496000  1.0
  O  O111  1  0.99870000  0.65544000  0.40504000  1.0
  O  O112  1  0.05438000  0.90283000  0.35786000  1.0
  O  O113  1  0.94562000  0.09717000  0.64214000  1.0
  O  O114  1  0.02117000  0.11615000  0.46361000  1.0
  O  O115  1  0.97883000  0.88384000  0.53639000  1.0
  O  O116  1  0.11976000  0.15576000  0.29083000  1.0
  O  O117  1  0.88024000  0.84424000  0.70918000  1.0
  O  O118  1  0.15975000  0.86297000  0.74864000  1.0
  O  O119  1  0.84025000  0.13704000  0.25136000  1.0
  O  O120  1  0.09321000  0.05826000  0.83862000  1.0
  O  O121  1  0.90679000  0.94174000  0.16138000  1.0
