# generated using pymatgen
data_Cu2H24C25N6O11
_symmetry_space_group_name_H-M   'P 1'
_cell_length_a   7.81455000
_cell_length_b   12.18610000
_cell_length_c   16.71130000
_cell_angle_alpha   90.52530000
_cell_angle_beta   94.06170000
_cell_angle_gamma   106.42500000
_symmetry_Int_Tables_number   1
_chemical_formula_structural   Cu2H24C25N6O11
_chemical_formula_sum   'Cu4 H48 C50 N12 O22'
_cell_volume   1521.91164980
_cell_formula_units_Z   2
loop_
 _symmetry_equiv_pos_site_id
 _symmetry_equiv_pos_as_xyz
  1  'x, y, z'
loop_
 _atom_site_type_symbol
 _atom_site_label
 _atom_site_symmetry_multiplicity
 _atom_site_fract_x
 _atom_site_fract_y
 _atom_site_fract_z
 _atom_site_occupancy
  Cu  Cu0  1  0.38055000  0.50874000  0.04544000  1.0
  Cu  Cu1  1  0.61946000  0.49127000  0.95455000  1.0
  Cu  Cu2  1  0.00000000  0.00000000  0.50000000  1.0
  Cu  Cu3  1  0.49999000  0.00000000  0.50000000  1.0
  H  H4  1  0.65050000  0.85918000  0.54066000  1.0
  H  H5  1  0.34948000  0.14082000  0.45933000  1.0
  H  H6  1  0.68386000  0.87203000  0.43894000  1.0
  H  H7  1  0.31613000  0.12798000  0.56106000  1.0
  H  H8  1  0.31632000  0.25697000  0.77550000  1.0
  H  H9  1  0.68368000  0.74304000  0.22450000  1.0
  H  H10  1  0.77725000  0.04926000  0.71418000  1.0
  H  H11  1  0.22276000  0.95073000  0.28583000  1.0
  H  H12  1  0.90919000  0.24693000  0.93778000  1.0
  H  H13  1  0.09084000  0.75307000  0.06222000  1.0
  H  H14  1  0.64426000  0.09863000  0.96619000  1.0
  H  H15  1  0.35578000  0.90137000  0.03382000  1.0
  H  H16  1  0.43795000  0.08856000  0.90785000  1.0
  H  H17  1  0.56207000  0.91144000  0.09216000  1.0
  H  H18  1  0.60854000  0.22258000  0.91829000  1.0
  H  H19  1  0.39150000  0.77742000  0.08172000  1.0
  H  H20  1  0.57691000  0.73023000  0.76448000  1.0
  H  H21  1  0.42308000  0.26977000  0.23552000  1.0
  H  H22  1  0.25441000  0.95744000  0.70899000  1.0
  H  H23  1  0.74556000  0.04256000  0.29101000  1.0
  H  H24  1  0.18172000  0.75928000  0.92350000  1.0
  H  H25  1  0.81827000  0.24073000  0.07651000  1.0
  H  H26  1  0.89445000  0.77452000  0.88800000  1.0
  H  H27  1  0.10555000  0.22547000  0.11202000  1.0
  H  H28  1  0.84354000  0.90892000  0.88654000  1.0
  H  H29  1  0.15644000  0.09108000  0.11347000  1.0
  H  H30  1  0.02561000  0.89171000  0.95228000  1.0
  H  H31  1  0.97439000  0.10829000  0.04772000  1.0
  H  H32  1  0.37062000  0.63085000  0.22729000  1.0
  H  H33  1  0.62938000  0.36915000  0.77271000  1.0
  H  H34  1  0.94055000  0.44410000  0.07060000  1.0
  H  H35  1  0.05946000  0.55590000  0.92940000  1.0
  H  H36  1  0.93547000  0.61281000  0.32171000  1.0
  H  H37  1  0.06454000  0.38719000  0.67829000  1.0
  H  H38  1  0.17095000  0.66967000  0.34094000  1.0
  H  H39  1  0.82905000  0.33033000  0.65906000  1.0
  H  H40  1  0.20336000  0.48166000  0.38026000  1.0
  H  H41  1  0.79663000  0.51834000  0.61973000  1.0
  H  H42  1  0.04575000  0.51965000  0.43731000  1.0
  H  H43  1  0.95424000  0.48034000  0.56268000  1.0
  H  H44  1  0.95735000  0.34890000  0.29216000  1.0
  H  H45  1  0.04265000  0.65110000  0.70784000  1.0
  H  H46  1  0.79461000  0.39280000  0.34171000  1.0
  H  H47  1  0.20539000  0.60719000  0.65829000  1.0
  H  H48  1  0.81560000  0.17763000  0.57206000  1.0
  H  H49  1  0.18441000  0.82238000  0.42794000  1.0
  H  H50  1  0.06844000  0.18513000  0.35754000  1.0
  H  H51  1  0.93155000  0.81486000  0.64246000  1.0
  C  C52  1  0.12579000  0.25759000  0.86286000  1.0
  C  C53  1  0.87423000  0.74241000  0.13714000  1.0
  C  C54  1  0.17872000  0.22398000  0.79076000  1.0
  C  C55  1  0.82130000  0.77602000  0.20924000  1.0
  C  C56  1  0.05280000  0.14955000  0.73694000  1.0
  C  C57  1  0.94722000  0.85045000  0.26306000  1.0
  C  C58  1  0.87546000  0.10746000  0.75584000  1.0
  C  C59  1  0.12455000  0.89253000  0.24416000  1.0
  C  C60  1  0.82230000  0.14062000  0.82859000  1.0
  C  C61  1  0.17771000  0.85938000  0.17142000  1.0
  C  C62  1  0.94751000  0.21621000  0.88240000  1.0
  C  C63  1  0.05250000  0.78379000  0.11760000  1.0
  C  C64  1  0.26020000  0.34368000  0.91681000  1.0
  C  C65  1  0.73981000  0.65632000  0.08319000  1.0
  C  C66  1  0.10904000  0.11821000  0.65774000  1.0
  C  C67  1  0.89097000  0.88179000  0.34226000  1.0
  C  C68  1  0.58258000  0.12932000  0.91282000  1.0
  C  C69  1  0.41745000  0.87068000  0.08719000  1.0
  C  C70  1  0.38786000  0.74004000  0.85064000  1.0
  C  C71  1  0.61214000  0.25997000  0.14936000  1.0
  C  C72  1  0.47420000  0.76927000  0.78021000  1.0
  C  C73  1  0.52578000  0.23073000  0.21979000  1.0
  C  C74  1  0.42448000  0.84738000  0.72906000  1.0
  C  C75  1  0.57550000  0.15262000  0.27094000  1.0
  C  C76  1  0.29079000  0.89611000  0.74871000  1.0
  C  C77  1  0.70919000  0.10389000  0.25129000  1.0
  C  C78  1  0.20003000  0.86373000  0.81798000  1.0
  C  C79  1  0.79995000  0.13626000  0.18202000  1.0
  C  C80  1  0.24986000  0.78645000  0.86952000  1.0
  C  C81  1  0.75013000  0.21356000  0.13048000  1.0
  C  C82  1  0.43515000  0.65406000  0.90505000  1.0
  C  C83  1  0.56486000  0.34594000  0.09495000  1.0
  C  C84  1  0.50572000  0.87347000  0.64997000  1.0
  C  C85  1  0.49426000  0.12653000  0.35004000  1.0
  C  C86  1  0.95164000  0.86805000  0.89311000  1.0
  C  C87  1  0.04835000  0.13194000  0.10690000  1.0
  C  C88  1  0.23866000  0.58439000  0.20115000  1.0
  C  C89  1  0.76134000  0.41562000  0.79885000  1.0
  C  C90  1  0.01849000  0.48924000  0.12326000  1.0
  C  C91  1  0.98152000  0.51077000  0.87673000  1.0
  C  C92  1  0.06368000  0.59248000  0.32171000  1.0
  C  C93  1  0.93632000  0.40752000  0.67829000  1.0
  C  C94  1  0.06898000  0.49413000  0.37680000  1.0
  C  C95  1  0.93101000  0.50586000  0.62320000  1.0
  C  C96  1  0.92962000  0.38228000  0.34948000  1.0
  C  C97  1  0.07037000  0.61771000  0.65052000  1.0
  C  C98  1  0.86578000  0.20456000  0.51441000  1.0
  C  C99  1  0.13421000  0.79544000  0.48559000  1.0
  C  C100  1  0.99466000  0.20544000  0.40546000  1.0
  C  C101  1  0.00532000  0.79455000  0.59453000  1.0
  N  N102  1  0.19899000  0.53698000  0.12743000  1.0
  N  N103  1  0.80102000  0.46302000  0.87256000  1.0
  N  N104  1  0.08686000  0.56594000  0.23890000  1.0
  N  N105  1  0.91315000  0.43406000  0.76110000  1.0
  N  N106  1  0.94428000  0.50451000  0.19005000  1.0
  N  N107  1  0.05572000  0.49549000  0.80995000  1.0
  N  N108  1  0.92501000  0.29417000  0.40803000  1.0
  N  N109  1  0.07497000  0.70583000  0.59196000  1.0
  N  N110  1  0.84285000  0.29545000  0.47714000  1.0
  N  N111  1  0.15715000  0.70455000  0.52285000  1.0
  N  N112  1  0.95884000  0.14706000  0.47249000  1.0
  N  N113  1  0.04115000  0.85294000  0.52750000  1.0
  O  O114  1  0.20642000  0.38321000  0.97834000  1.0
  O  O115  1  0.79360000  0.61680000  0.02166000  1.0
  O  O116  1  0.42038000  0.37278000  0.89598000  1.0
  O  O117  1  0.57962000  0.62723000  0.10402000  1.0
  O  O118  1  0.26159000  0.17273000  0.63681000  1.0
  O  O119  1  0.73842000  0.82728000  0.36319000  1.0
  O  O120  1  0.99255000  0.03754000  0.61656000  1.0
  O  O121  1  0.00746000  0.96246000  0.38344000  1.0
  O  O122  1  0.64572000  0.09576000  0.84066000  1.0
  O  O123  1  0.35431000  0.90424000  0.15935000  1.0
  O  O124  1  0.34606000  0.62801000  0.96693000  1.0
  O  O125  1  0.65395000  0.37200000  0.03307000  1.0
  O  O126  1  0.55929000  0.61246000  0.88587000  1.0
  O  O127  1  0.44072000  0.38754000  0.11413000  1.0
  O  O128  1  0.60356000  0.81523000  0.62595000  1.0
  O  O129  1  0.39642000  0.18477000  0.37405000  1.0
  O  O130  1  0.46265000  0.95465000  0.61136000  1.0
  O  O131  1  0.53734000  0.04535000  0.38864000  1.0
  O  O132  1  0.06350000  0.91035000  0.82922000  1.0
  O  O133  1  0.93648000  0.08964000  0.17079000  1.0
  O  O134  1  0.66811000  0.91104000  0.49224000  1.0
  O  O135  1  0.33188000  0.08897000  0.50776000  1.0
