# generated using pymatgen
data_CdH10C10N4O5
_symmetry_space_group_name_H-M   'P 1'
_cell_length_a   7.98940000
_cell_length_b   10.68080000
_cell_length_c   14.80340000
_cell_angle_alpha   93.29240000
_cell_angle_beta   90.00000000
_cell_angle_gamma   90.00000000
_symmetry_Int_Tables_number   1
_chemical_formula_structural   CdH10C10N4O5
_chemical_formula_sum   'Cd4 H40 C40 N16 O20'
_cell_volume   1261.13623077
_cell_formula_units_Z   4
loop_
 _symmetry_equiv_pos_site_id
 _symmetry_equiv_pos_as_xyz
  1  'x, y, z'
loop_
 _atom_site_type_symbol
 _atom_site_label
 _atom_site_symmetry_multiplicity
 _atom_site_fract_x
 _atom_site_fract_y
 _atom_site_fract_z
 _atom_site_occupancy
  Cd  Cd0  1  0.00620000  0.09561000  0.62353000  1.0
  Cd  Cd1  1  0.50620000  0.40439000  0.37647000  1.0
  Cd  Cd2  1  0.99380000  0.90439000  0.37648000  1.0
  Cd  Cd3  1  0.49380000  0.59561000  0.62352000  1.0
  H  H4  1  0.71816000  0.91815000  0.67487000  1.0
  H  H5  1  0.21816000  0.58185000  0.32513000  1.0
  H  H6  1  0.28184000  0.08185000  0.32513000  1.0
  H  H7  1  0.78184000  0.41815000  0.67487000  1.0
  H  H8  1  0.21688000  0.66509000  0.46095000  1.0
  H  H9  1  0.71688000  0.83491000  0.53905000  1.0
  H  H10  1  0.78312000  0.33492000  0.53905000  1.0
  H  H11  1  0.28312000  0.16509000  0.46095000  1.0
  H  H12  1  0.24472000  0.86080000  0.71514000  1.0
  H  H13  1  0.74472000  0.63921000  0.28486000  1.0
  H  H14  1  0.75528000  0.13921000  0.28486000  1.0
  H  H15  1  0.25528000  0.36080000  0.71514000  1.0
  H  H16  1  0.67634000  0.43053000  0.81506000  1.0
  H  H17  1  0.17634000  0.06947000  0.18494000  1.0
  H  H18  1  0.32365000  0.56947000  0.18494000  1.0
  H  H19  1  0.82366000  0.93053000  0.81506000  1.0
  H  H20  1  0.62406000  0.54517000  0.96300000  1.0
  H  H21  1  0.12406000  0.95483000  0.03700000  1.0
  H  H22  1  0.37594000  0.45483000  0.03700000  1.0
  H  H23  1  0.87594000  0.04517000  0.96300000  1.0
  H  H24  1  0.99355000  0.31996000  0.08953000  1.0
  H  H25  1  0.49355000  0.18003000  0.91047000  1.0
  H  H26  1  0.00645000  0.68004000  0.91047000  1.0
  H  H27  1  0.50645000  0.81996000  0.08953000  1.0
  H  H28  1  0.05251000  0.20798000  0.93903000  1.0
  H  H29  1  0.55251000  0.29202000  0.06097000  1.0
  H  H30  1  0.94749000  0.79202000  0.06097000  1.0
  H  H31  1  0.44749000  0.70798000  0.93903000  1.0
  H  H32  1  0.55361000  0.11276000  0.69799000  1.0
  H  H33  1  0.05361000  0.38724000  0.30201000  1.0
  H  H34  1  0.44639000  0.88724000  0.30201000  1.0
  H  H35  1  0.94639000  0.61276000  0.69799000  1.0
  H  H36  1  0.48070000  0.99562000  0.61603000  1.0
  H  H37  1  0.98070000  0.50438000  0.38397000  1.0
  H  H38  1  0.51930000  0.00438000  0.38397000  1.0
  H  H39  1  0.01930000  0.49563000  0.61603000  1.0
  H  H40  1  0.59641000  0.12744000  0.58067000  1.0
  H  H41  1  0.09641000  0.37256000  0.41933000  1.0
  H  H42  1  0.40359000  0.87256000  0.41933000  1.0
  H  H43  1  0.90359000  0.62745000  0.58067000  1.0
  C  C44  1  0.19998000  0.73550000  0.51619000  1.0
  C  C45  1  0.69998000  0.76450000  0.48381000  1.0
  C  C46  1  0.80002000  0.26450000  0.48381000  1.0
  C  C47  1  0.30002000  0.23550000  0.51619000  1.0
  C  C48  1  0.21480000  0.83357000  0.64525000  1.0
  C  C49  1  0.71480000  0.66643000  0.35475000  1.0
  C  C50  1  0.78520000  0.16643000  0.35475000  1.0
  C  C51  1  0.28520000  0.33357000  0.64525000  1.0
  C  C52  1  0.90528000  0.24108000  0.77924000  1.0
  C  C53  1  0.40528000  0.25892000  0.22076000  1.0
  C  C54  1  0.09472000  0.75892000  0.22076000  1.0
  C  C55  1  0.59472000  0.74108000  0.77924000  1.0
  C  C56  1  0.86788000  0.31067000  0.86815000  1.0
  C  C57  1  0.36789000  0.18933000  0.13185000  1.0
  C  C58  1  0.13212000  0.68933000  0.13185000  1.0
  C  C59  1  0.63212000  0.81067000  0.86815000  1.0
  C  C60  1  0.74665000  0.40580000  0.87445000  1.0
  C  C61  1  0.24665000  0.09420000  0.12555000  1.0
  C  C62  1  0.25335000  0.59420000  0.12555000  1.0
  C  C63  1  0.75335000  0.90580000  0.87445000  1.0
  C  C64  1  0.71566000  0.47009000  0.95712000  1.0
  C  C65  1  0.21567000  0.02991000  0.04288000  1.0
  C  C66  1  0.28433000  0.52991000  0.04288000  1.0
  C  C67  1  0.78433000  0.97009000  0.95712000  1.0
  C  C68  1  0.80571000  0.43753000  0.03311000  1.0
  C  C69  1  0.30571000  0.06247000  0.96690000  1.0
  C  C70  1  0.19429000  0.56247000  0.96689000  1.0
  C  C71  1  0.69429000  0.93753000  0.03311000  1.0
  C  C72  1  0.92632000  0.34294000  0.02886000  1.0
  C  C73  1  0.42632000  0.15706000  0.97114000  1.0
  C  C74  1  0.07368000  0.65706000  0.97114000  1.0
  C  C75  1  0.57368000  0.84294000  0.02886000  1.0
  C  C76  1  0.95695000  0.28039000  0.94559000  1.0
  C  C77  1  0.45695000  0.21961000  0.05441000  1.0
  C  C78  1  0.04305000  0.71961000  0.05441000  1.0
  C  C79  1  0.54305000  0.78039000  0.94559000  1.0
  C  C80  1  0.58349000  0.06090000  0.63379000  1.0
  C  C81  1  0.08350000  0.43910000  0.36621000  1.0
  C  C82  1  0.41650000  0.93910000  0.36621000  1.0
  C  C83  1  0.91651000  0.56090000  0.63379000  1.0
  N  N84  1  0.11971000  0.90316000  0.59339000  1.0
  N  N85  1  0.61971000  0.59685000  0.40661000  1.0
  N  N86  1  0.88030000  0.09685000  0.40661000  1.0
  N  N87  1  0.38029000  0.40315000  0.59339000  1.0
  N  N88  1  0.10993000  0.83968000  0.51003000  1.0
  N  N89  1  0.60993000  0.66032000  0.48997000  1.0
  N  N90  1  0.89008000  0.16033000  0.48997000  1.0
  N  N91  1  0.39007000  0.33967000  0.51003000  1.0
  N  N92  1  0.26818000  0.72778000  0.59951000  1.0
  N  N93  1  0.76818000  0.77222000  0.40049000  1.0
  N  N94  1  0.73182000  0.27222000  0.40049000  1.0
  N  N95  1  0.23182000  0.22778000  0.59951000  1.0
  N  N96  1  0.77526000  0.50674000  0.11993000  1.0
  N  N97  1  0.27526000  0.99326000  0.88007000  1.0
  N  N98  1  0.22474000  0.49326000  0.88007000  1.0
  N  N99  1  0.72474000  0.00673000  0.11993000  1.0
  O  O100  1  0.99723000  0.14362000  0.78018000  1.0
  O  O101  1  0.49724000  0.35638000  0.21982000  1.0
  O  O102  1  0.00276000  0.85638000  0.21982000  1.0
  O  O103  1  0.50276000  0.64362000  0.78018000  1.0
  O  O104  1  0.84484000  0.28099000  0.70657000  1.0
  O  O105  1  0.34483000  0.21901000  0.29343000  1.0
  O  O106  1  0.15517000  0.71901000  0.29343000  1.0
  O  O107  1  0.65517000  0.78099000  0.70657000  1.0
  O  O108  1  0.67011000  0.59266000  0.12230000  1.0
  O  O109  1  0.17011000  0.90734000  0.87770000  1.0
  O  O110  1  0.32989000  0.40734000  0.87770000  1.0
  O  O111  1  0.82989000  0.09266000  0.12230000  1.0
  O  O112  1  0.85800000  0.47735000  0.18643000  1.0
  O  O113  1  0.35800000  0.02265000  0.81357000  1.0
  O  O114  1  0.14200000  0.52265000  0.81357000  1.0
  O  O115  1  0.64200000  0.97735000  0.18643000  1.0
  O  O116  1  0.73872000  0.99376000  0.63929000  1.0
  O  O117  1  0.23872000  0.50624000  0.36071000  1.0
  O  O118  1  0.26128000  0.00624000  0.36071000  1.0
  O  O119  1  0.76129000  0.49376000  0.63929000  1.0
