# generated using pymatgen
data_KH8C8NO2
_symmetry_space_group_name_H-M   'P 1'
_cell_length_a   6.98402000
_cell_length_b   8.65800000
_cell_length_c   14.43810000
_cell_angle_alpha   76.82700000
_cell_angle_beta   89.99970000
_cell_angle_gamma   89.99980000
_symmetry_Int_Tables_number   1
_chemical_formula_structural   KH8C8NO2
_chemical_formula_sum   'K4 H32 C32 N4 O8'
_cell_volume   850.06513954
_cell_formula_units_Z   4
loop_
 _symmetry_equiv_pos_site_id
 _symmetry_equiv_pos_as_xyz
  1  'x, y, z'
loop_
 _atom_site_type_symbol
 _atom_site_label
 _atom_site_symmetry_multiplicity
 _atom_site_fract_x
 _atom_site_fract_y
 _atom_site_fract_z
 _atom_site_occupancy
  K  K0  1  0.63744000  0.20419000  0.44388000  1.0
  K  K1  1  0.13743000  0.29581000  0.55612000  1.0
  K  K2  1  0.36256000  0.79581000  0.55612000  1.0
  K  K3  1  0.86257000  0.70419000  0.44389000  1.0
  H  H4  1  0.47323000  0.57274000  0.77639000  1.0
  H  H5  1  0.97323000  0.92725000  0.22361000  1.0
  H  H6  1  0.52677000  0.42726000  0.22361000  1.0
  H  H7  1  0.02677000  0.07274000  0.77639000  1.0
  H  H8  1  0.38233000  0.44338000  0.71898000  1.0
  H  H9  1  0.88233000  0.05662000  0.28102000  1.0
  H  H10  1  0.61767000  0.55662000  0.28102000  1.0
  H  H11  1  0.11767000  0.94338000  0.71899000  1.0
  H  H12  1  0.74506000  0.59990000  0.65699000  1.0
  H  H13  1  0.24506000  0.90010000  0.34301000  1.0
  H  H14  1  0.25494000  0.40010000  0.34301000  1.0
  H  H15  1  0.75494000  0.09990000  0.65699000  1.0
  H  H16  1  0.54178000  0.24062000  0.82594000  1.0
  H  H17  1  0.04178000  0.25938000  0.17406000  1.0
  H  H18  1  0.45822000  0.75938000  0.17406000  1.0
  H  H19  1  0.95822000  0.74061000  0.82594000  1.0
  H  H20  1  0.72822000  0.07770000  0.95796000  1.0
  H  H21  1  0.22821000  0.42230000  0.04204000  1.0
  H  H22  1  0.27179000  0.92229000  0.04204000  1.0
  H  H23  1  0.77177000  0.57770000  0.95796000  1.0
  H  H24  1  0.07216000  0.14328000  0.98060000  1.0
  H  H25  1  0.57216000  0.35672000  0.01939000  1.0
  H  H26  1  0.92785000  0.85671000  0.01939000  1.0
  H  H27  1  0.42784000  0.64329000  0.98061000  1.0
  H  H28  1  0.22655000  0.36588000  0.86612000  1.0
  H  H29  1  0.72654000  0.13413000  0.13387000  1.0
  H  H30  1  0.77346000  0.63412000  0.13387000  1.0
  H  H31  1  0.27345000  0.86588000  0.86613000  1.0
  H  H32  1  0.03738000  0.52801000  0.73104000  1.0
  H  H33  1  0.53737000  0.97200000  0.26895000  1.0
  H  H34  1  0.96263000  0.47199000  0.26896000  1.0
  H  H35  1  0.46262000  0.02801000  0.73105000  1.0
  C  C36  1  0.64286000  0.39550000  0.61059000  1.0
  C  C37  1  0.14286000  0.10451000  0.38941000  1.0
  C  C38  1  0.35715000  0.60450000  0.38941000  1.0
  C  C39  1  0.85714000  0.89550000  0.61059000  1.0
  C  C40  1  0.66156000  0.49317000  0.68788000  1.0
  C  C41  1  0.16156000  0.00683000  0.31212000  1.0
  C  C42  1  0.33844000  0.50683000  0.31212000  1.0
  C  C43  1  0.83844000  0.99317000  0.68788000  1.0
  C  C44  1  0.77734000  0.39470000  0.76961000  1.0
  C  C45  1  0.27734000  0.10530000  0.23038000  1.0
  C  C46  1  0.22266000  0.60530000  0.23038000  1.0
  C  C47  1  0.72265000  0.89470000  0.76962000  1.0
  C  C48  1  0.69216000  0.26825000  0.83442000  1.0
  C  C49  1  0.19216000  0.23175000  0.16558000  1.0
  C  C50  1  0.30784000  0.73175000  0.16558000  1.0
  C  C51  1  0.80784000  0.76825000  0.83442000  1.0
  C  C52  1  0.79769000  0.17645000  0.90906000  1.0
  C  C53  1  0.29768000  0.32356000  0.09094000  1.0
  C  C54  1  0.20232000  0.82355000  0.09094000  1.0
  C  C55  1  0.70232000  0.67644000  0.90906000  1.0
  C  C56  1  0.99022000  0.21158000  0.92088000  1.0
  C  C57  1  0.49021000  0.28843000  0.07911000  1.0
  C  C58  1  0.00979000  0.78842000  0.07911000  1.0
  C  C59  1  0.50978000  0.71157000  0.92089000  1.0
  C  C60  1  0.07670000  0.33759000  0.85638000  1.0
  C  C61  1  0.57669000  0.16242000  0.14362000  1.0
  C  C62  1  0.92331000  0.66241000  0.14362000  1.0
  C  C63  1  0.42330000  0.83759000  0.85638000  1.0
  C  C64  1  0.97152000  0.42797000  0.78085000  1.0
  C  C65  1  0.47151000  0.07203000  0.21914000  1.0
  C  C66  1  0.02849000  0.57203000  0.21915000  1.0
  C  C67  1  0.52848000  0.92797000  0.78086000  1.0
  N  N68  1  0.47009000  0.53975000  0.71279000  1.0
  N  N69  1  0.97009000  0.96024000  0.28721000  1.0
  N  N70  1  0.52991000  0.46025000  0.28721000  1.0
  N  N71  1  0.02991000  0.03975000  0.71279000  1.0
  O  O72  1  0.78071000  0.40573000  0.55198000  1.0
  O  O73  1  0.28070000  0.09427000  0.44802000  1.0
  O  O74  1  0.21929000  0.59427000  0.44802000  1.0
  O  O75  1  0.71929000  0.90573000  0.55198000  1.0
  O  O76  1  0.49605000  0.30885000  0.61335000  1.0
  O  O77  1  0.99605000  0.19116000  0.38665000  1.0
  O  O78  1  0.50395000  0.69115000  0.38665000  1.0
  O  O79  1  0.00395000  0.80884000  0.61335000  1.0
