# generated using pymatgen
data_KH6C8N5O
_symmetry_space_group_name_H-M   'P 1'
_cell_length_a   3.94391000
_cell_length_b   12.38230000
_cell_length_c   20.06345228
_cell_angle_alpha   75.52510448
_cell_angle_beta   84.35292242
_cell_angle_gamma   90.02350000
_symmetry_Int_Tables_number   1
_chemical_formula_structural   KH6C8N5O
_chemical_formula_sum   'K4 H24 C32 N20 O4'
_cell_volume   943.76883457
_cell_formula_units_Z   4
loop_
 _symmetry_equiv_pos_site_id
 _symmetry_equiv_pos_as_xyz
  1  'x, y, z'
loop_
 _atom_site_type_symbol
 _atom_site_label
 _atom_site_symmetry_multiplicity
 _atom_site_fract_x
 _atom_site_fract_y
 _atom_site_fract_z
 _atom_site_occupancy
  K  K0  1  0.09663000  0.89583000  0.92512000  1.0
  K  K1  1  0.02225000  0.60403000  0.07502000  1.0
  K  K2  1  0.90337000  0.10417000  0.07488000  1.0
  K  K3  1  0.97777000  0.39598000  0.92498000  1.0
  H  H4  1  0.82001000  0.52440000  0.59987000  1.0
  H  H5  1  0.41958000  0.97548000  0.39988000  1.0
  H  H6  1  0.18001000  0.47560000  0.40012000  1.0
  H  H7  1  0.58042000  0.02452000  0.60012000  1.0
  H  H8  1  0.66530000  0.41915000  0.51582000  1.0
  H  H9  1  0.18083000  0.08031000  0.48420000  1.0
  H  H10  1  0.33469000  0.58085000  0.48418000  1.0
  H  H11  1  0.81917000  0.91969000  0.51580000  1.0
  H  H12  1  0.75391000  0.21527000  0.53822000  1.0
  H  H13  1  0.29174000  0.28426000  0.46198000  1.0
  H  H14  1  0.24607000  0.78472000  0.46178000  1.0
  H  H15  1  0.70827000  0.71574000  0.53802000  1.0
  H  H16  1  0.00681000  0.11543000  0.64641000  1.0
  H  H17  1  0.65299000  0.38443000  0.35387000  1.0
  H  H18  1  0.99318000  0.88457000  0.35359000  1.0
  H  H19  1  0.34701000  0.61557000  0.64613000  1.0
  H  H20  1  0.24900000  0.11468000  0.75005000  1.0
  H  H21  1  0.99975000  0.38549000  0.25010000  1.0
  H  H22  1  0.75101000  0.88532000  0.24995000  1.0
  H  H23  1  0.00026000  0.61451000  0.74990000  1.0
  H  H24  1  0.17867000  0.38138000  0.75425000  1.0
  H  H25  1  0.93229000  0.11902000  0.24560000  1.0
  H  H26  1  0.82133000  0.61862000  0.24575000  1.0
  H  H27  1  0.06771000  0.88098000  0.75440000  1.0
  C  C28  1  0.99707000  0.37976000  0.67009000  1.0
  C  C29  1  0.66694000  0.12031000  0.32986000  1.0
  C  C30  1  0.00293000  0.62024000  0.32991000  1.0
  C  C31  1  0.33306000  0.87969000  0.67014000  1.0
  C  C32  1  0.85864000  0.43496000  0.60929000  1.0
  C  C33  1  0.46778000  0.06490000  0.39064000  1.0
  C  C34  1  0.14136000  0.56504000  0.39071000  1.0
  C  C35  1  0.53221000  0.93510000  0.60936000  1.0
  C  C36  1  0.77440000  0.37536000  0.56271000  1.0
  C  C37  1  0.33684000  0.12425000  0.43734000  1.0
  C  C38  1  0.22559000  0.62464000  0.43729000  1.0
  C  C39  1  0.66315000  0.87574000  0.56266000  1.0
  C  C40  1  0.82595000  0.26014000  0.57520000  1.0
  C  C41  1  0.40080000  0.23951000  0.42494000  1.0
  C  C42  1  0.17404000  0.73986000  0.42480000  1.0
  C  C43  1  0.59920000  0.76049000  0.57506000  1.0
  C  C44  1  0.96478000  0.20498000  0.63489000  1.0
  C  C45  1  0.59951000  0.29485000  0.36530000  1.0
  C  C46  1  0.03522000  0.79501000  0.36511000  1.0
  C  C47  1  0.40049000  0.70515000  0.63469000  1.0
  C  C48  1  0.05318000  0.26288000  0.68320000  1.0
  C  C49  1  0.73644000  0.23718000  0.31689000  1.0
  C  C50  1  0.94682000  0.73712000  0.31680000  1.0
  C  C51  1  0.26355000  0.76282000  0.68311000  1.0
  C  C52  1  0.20244000  0.20384000  0.74399000  1.0
  C  C53  1  0.94661000  0.29635000  0.25611000  1.0
  C  C54  1  0.79756000  0.79616000  0.25601000  1.0
  C  C55  1  0.05339000  0.70365000  0.74389000  1.0
  C  C56  1  0.43357000  0.19738000  0.84714000  1.0
  C  C57  1  0.28046000  0.30275000  0.15287000  1.0
  C  C58  1  0.56645000  0.80262000  0.15285000  1.0
  C  C59  1  0.71954000  0.69725000  0.84713000  1.0
  N  N60  1  0.28279000  0.25523000  0.78996000  1.0
  N  N61  1  0.07234000  0.24501000  0.21009000  1.0
  N  N62  1  0.71722000  0.74478000  0.21004000  1.0
  N  N63  1  0.92766000  0.75499000  0.78991000  1.0
  N  N64  1  0.53312000  0.09039000  0.86091000  1.0
  N  N65  1  0.39397000  0.40976000  0.13904000  1.0
  N  N66  1  0.46689000  0.90961000  0.13909000  1.0
  N  N67  1  0.60603000  0.59024000  0.86096000  1.0
  N  N68  1  0.66505000  0.07418000  0.92176000  1.0
  N  N69  1  0.58674000  0.42590000  0.07818000  1.0
  N  N70  1  0.33495000  0.92582000  0.07824000  1.0
  N  N71  1  0.41326000  0.57410000  0.92182000  1.0
  N  N72  1  0.64474000  0.16665000  0.94388000  1.0
  N  N73  1  0.58841000  0.33338000  0.05612000  1.0
  N  N74  1  0.35526000  0.83335000  0.05612000  1.0
  N  N75  1  0.41159000  0.66666667  0.94388000  1.0
  N  N76  1  0.50010000  0.24629000  0.89763000  1.0
  N  N77  1  0.39741000  0.25376000  0.10242000  1.0
  N  N78  1  0.49991000  0.75371000  0.10237000  1.0
  N  N79  1  0.60259000  0.74624000  0.89758000  1.0
  O  O80  1  0.07741000  0.43798000  0.71501000  1.0
  O  O81  1  0.79177000  0.06229000  0.28482000  1.0
  O  O82  1  0.92259000  0.56202000  0.28499000  1.0
  O  O83  1  0.20823000  0.93771000  0.71518000  1.0
