# generated using pymatgen
data_ZnH8C6(N3O2)3
_symmetry_space_group_name_H-M   'P 1'
_cell_length_a   8.59515518
_cell_length_b   9.02164000
_cell_length_c   9.92879333
_cell_angle_alpha   78.73609947
_cell_angle_beta   69.57154638
_cell_angle_gamma   65.46636194
_symmetry_Int_Tables_number   1
_chemical_formula_structural   ZnH8C6(N3O2)3
_chemical_formula_sum   'Zn2 H16 C12 N18 O12'
_cell_volume   655.19724655
_cell_formula_units_Z   2
loop_
 _symmetry_equiv_pos_site_id
 _symmetry_equiv_pos_as_xyz
  1  'x, y, z'
loop_
 _atom_site_type_symbol
 _atom_site_label
 _atom_site_symmetry_multiplicity
 _atom_site_fract_x
 _atom_site_fract_y
 _atom_site_fract_z
 _atom_site_occupancy
  Zn  Zn0  1  0.25248000  0.14643000  0.70499000  1.0
  Zn  Zn1  1  0.74752000  0.85358000  0.29501000  1.0
  H  H2  1  0.57900000  0.09373000  0.53937000  1.0
  H  H3  1  0.42100000  0.90626000  0.46063000  1.0
  H  H4  1  0.59710000  0.03658000  0.69888000  1.0
  H  H5  1  0.40289000  0.96342000  0.30112000  1.0
  H  H6  1  0.11809000  0.34197000  0.52029000  1.0
  H  H7  1  0.88191000  0.65803000  0.47970000  1.0
  H  H8  1  0.32775000  0.31531000  0.44581000  1.0
  H  H9  1  0.67225000  0.68468000  0.55418000  1.0
  H  H10  1  0.60095000  0.38912000  0.88136000  1.0
  H  H11  1  0.39905000  0.61089000  0.11863000  1.0
  H  H12  1  0.60874000  0.30012000  0.73097000  1.0
  H  H13  1  0.39126000  0.69987000  0.26903000  1.0
  H  H14  1  0.93825000  0.18154000  0.28706000  1.0
  H  H15  1  0.06174000  0.81845000  0.71295000  1.0
  H  H16  1  0.89742000  0.15601000  0.12928000  1.0
  H  H17  1  0.10259000  0.84398000  0.87072000  1.0
  C  C18  1  0.78003000  0.62268000  0.05915000  1.0
  C  C19  1  0.21998000  0.37731000  0.94086000  1.0
  C  C20  1  0.72064000  0.89066000  0.96348000  1.0
  C  C21  1  0.27936000  0.10932000  0.03653000  1.0
  C  C22  1  0.67475000  0.28605000  0.81176000  1.0
  C  C23  1  0.32525000  0.71397000  0.18823000  1.0
  C  C24  1  0.86922000  0.28021000  0.73602000  1.0
  C  C25  1  0.13078000  0.71980000  0.26396000  1.0
  C  C26  1  0.66058000  0.22866000  0.31524000  1.0
  C  C27  1  0.33946000  0.77131000  0.68475000  1.0
  C  C28  1  0.84645000  0.23068000  0.22134000  1.0
  C  C29  1  0.15356000  0.76930000  0.77866000  1.0
  N  N30  1  0.80991000  0.63343000  0.18558000  1.0
  N  N31  1  0.19010000  0.36657000  0.81444000  1.0
  N  N32  1  0.84480000  0.49056000  0.25319000  1.0
  N  N33  1  0.15522000  0.50943000  0.74683000  1.0
  N  N34  1  0.83734000  0.39353000  0.16926000  1.0
  N  N35  1  0.16267000  0.60645000  0.83074000  1.0
  N  N36  1  0.79754000  0.46699000  0.05085000  1.0
  N  N37  1  0.20246000  0.53302000  0.94915000  1.0
  N  N38  1  0.74404000  0.73698000  0.95480000  1.0
  N  N39  1  0.25595000  0.26303000  0.04522000  1.0
  N  N40  1  0.69855000  0.00276000  0.85076000  1.0
  N  N41  1  0.30144000  0.99724000  0.14924000  1.0
  N  N42  1  0.67532000  0.13816000  0.90054000  1.0
  N  N43  1  0.32468000  0.86185000  0.09945000  1.0
  N  N44  1  0.68201000  0.11940000  0.03660000  1.0
  N  N45  1  0.31798000  0.88062000  0.96342000  1.0
  N  N46  1  0.71010000  0.96654000  0.07739000  1.0
  N  N47  1  0.28988000  0.03349000  0.92265000  1.0
  O  O48  1  0.88566000  0.38558000  0.63664000  1.0
  O  O49  1  0.11432000  0.61442000  0.36335000  1.0
  O  O50  1  0.98984000  0.16726000  0.78565000  1.0
  O  O51  1  0.01017000  0.83275000  0.21433000  1.0
  O  O52  1  0.52056000  0.11864000  0.64393000  1.0
  O  O53  1  0.47944000  0.88134000  0.35607000  1.0
  O  O54  1  0.24255000  0.26151000  0.50344000  1.0
  O  O55  1  0.75746000  0.73849000  0.49655000  1.0
  O  O56  1  0.66806000  0.08511000  0.36966000  1.0
  O  O57  1  0.33193000  0.91490000  0.63034000  1.0
  O  O58  1  0.52621000  0.35740000  0.33636000  1.0
  O  O59  1  0.47378000  0.64261000  0.66363000  1.0
