# generated using pymatgen
data_CdH20C18(NO)6
_symmetry_space_group_name_H-M   'P 1'
_cell_length_a   8.98014000
_cell_length_b   9.21953000
_cell_length_c   12.82050000
_cell_angle_alpha   90.00000000
_cell_angle_beta   90.00010000
_cell_angle_gamma   107.08800000
_symmetry_Int_Tables_number   1
_chemical_formula_structural   CdH20C18(NO)6
_chemical_formula_sum   'Cd2 H40 C36 N12 O12'
_cell_volume   1014.58555889
_cell_formula_units_Z   2
loop_
 _symmetry_equiv_pos_site_id
 _symmetry_equiv_pos_as_xyz
  1  'x, y, z'
loop_
 _atom_site_type_symbol
 _atom_site_label
 _atom_site_symmetry_multiplicity
 _atom_site_fract_x
 _atom_site_fract_y
 _atom_site_fract_z
 _atom_site_occupancy
  Cd  Cd0  1  0.00000000  0.00000000  0.00000000  1.0
  Cd  Cd1  1  0.50000000  0.00000000  0.50000000  1.0
  H  H2  1  0.37100000  0.44947000  0.16304000  1.0
  H  H3  1  0.12900000  0.55052000  0.66304000  1.0
  H  H4  1  0.62900000  0.55052000  0.83696000  1.0
  H  H5  1  0.87100000  0.44948000  0.33696000  1.0
  H  H6  1  0.53227000  0.27448000  0.17837000  1.0
  H  H7  1  0.96774000  0.72553000  0.67837000  1.0
  H  H8  1  0.46773000  0.72552000  0.82163000  1.0
  H  H9  1  0.03227000  0.27448000  0.32163000  1.0
  H  H10  1  0.81331000  0.35413000  0.13382000  1.0
  H  H11  1  0.68669000  0.64587000  0.63382000  1.0
  H  H12  1  0.18669000  0.64587000  0.86618000  1.0
  H  H13  1  0.31331000  0.35413000  0.36618000  1.0
  H  H14  1  0.94440000  0.61753000  0.06816000  1.0
  H  H15  1  0.55559000  0.38247000  0.56816000  1.0
  H  H16  1  0.05560000  0.38247000  0.93185000  1.0
  H  H17  1  0.44441000  0.61753000  0.43184000  1.0
  H  H18  1  0.28502000  0.67216000  0.11711000  1.0
  H  H19  1  0.21498000  0.32783000  0.61711000  1.0
  H  H20  1  0.71498000  0.32784000  0.88289000  1.0
  H  H21  1  0.78502000  0.67216000  0.38289000  1.0
  H  H22  1  0.33388000  0.81769000  0.02181000  1.0
  H  H23  1  0.16612000  0.18231000  0.52181000  1.0
  H  H24  1  0.66612000  0.18231000  0.97819000  1.0
  H  H25  1  0.83388000  0.81769000  0.47819000  1.0
  H  H26  1  0.48085000  0.99817000  0.16645000  1.0
  H  H27  1  0.01914000  0.00182000  0.66645000  1.0
  H  H28  1  0.51914000  0.00183000  0.83355000  1.0
  H  H29  1  0.98086000  0.99818000  0.33355000  1.0
  H  H30  1  0.38788000  0.86040000  0.25811000  1.0
  H  H31  1  0.11211000  0.13959000  0.75812000  1.0
  H  H32  1  0.61212000  0.13960000  0.74189000  1.0
  H  H33  1  0.88788000  0.86040000  0.24189000  1.0
  H  H34  1  0.89487000  0.13309000  0.18687000  1.0
  H  H35  1  0.60513000  0.86691000  0.68687000  1.0
  H  H36  1  0.10513000  0.86691000  0.81313000  1.0
  H  H37  1  0.39487000  0.13309000  0.31313000  1.0
  H  H38  1  0.07601000  0.14634000  0.17898000  1.0
  H  H39  1  0.42399000  0.85366000  0.67898000  1.0
  H  H40  1  0.92399000  0.85366000  0.82102000  1.0
  H  H41  1  0.57601000  0.14634000  0.32102000  1.0
  C  C42  1  0.56918000  0.63278000  0.10574000  1.0
  C  C43  1  0.93082000  0.36722000  0.60574000  1.0
  C  C44  1  0.43082000  0.36722000  0.89426000  1.0
  C  C45  1  0.06918000  0.63278000  0.39426000  1.0
  C  C46  1  0.49422000  0.48649000  0.14280000  1.0
  C  C47  1  0.00578000  0.51351000  0.64280000  1.0
  C  C48  1  0.50578000  0.51351000  0.85720000  1.0
  C  C49  1  0.99422000  0.48649000  0.35720000  1.0
  C  C50  1  0.58624000  0.38963000  0.15109000  1.0
  C  C51  1  0.91376000  0.61037000  0.65109000  1.0
  C  C52  1  0.41376000  0.61037000  0.84891000  1.0
  C  C53  1  0.08624000  0.38963000  0.34891000  1.0
  C  C54  1  0.74688000  0.43518000  0.12496000  1.0
  C  C55  1  0.75313000  0.56482000  0.62496000  1.0
  C  C56  1  0.25313000  0.56482000  0.87504000  1.0
  C  C57  1  0.24687000  0.43518000  0.37504000  1.0
  C  C58  1  0.82105000  0.57982000  0.08809000  1.0
  C  C59  1  0.67895000  0.42018000  0.58809000  1.0
  C  C60  1  0.17895000  0.42018000  0.91191000  1.0
  C  C61  1  0.32105000  0.57982000  0.41191000  1.0
  C  C62  1  0.72883000  0.67852000  0.07807000  1.0
  C  C63  1  0.77117000  0.32149000  0.57807000  1.0
  C  C64  1  0.27117000  0.32148000  0.92193000  1.0
  C  C65  1  0.22883000  0.67852000  0.42193000  1.0
  C  C66  1  0.36848000  0.78151000  0.09712000  1.0
  C  C67  1  0.13152000  0.21849000  0.59712000  1.0
  C  C68  1  0.63152000  0.21849000  0.90288000  1.0
  C  C69  1  0.86848000  0.78151000  0.40288000  1.0
  C  C70  1  0.37567000  0.90264000  0.17936000  1.0
  C  C71  1  0.12433000  0.09735000  0.67936000  1.0
  C  C72  1  0.62433000  0.09736000  0.82064000  1.0
  C  C73  1  0.87567000  0.90264000  0.32064000  1.0
  C  C74  1  0.23454000  0.96149000  0.17423000  1.0
  C  C75  1  0.26546000  0.03851000  0.67423000  1.0
  C  C76  1  0.76546000  0.03852000  0.82577000  1.0
  C  C77  1  0.73454000  0.96149000  0.32577000  1.0
  N  N78  1  0.52065000  0.75711000  0.08400000  1.0
  N  N79  1  0.97935000  0.24288000  0.58400000  1.0
  N  N80  1  0.47935000  0.24289000  0.91600000  1.0
  N  N81  1  0.02065000  0.75712000  0.41600000  1.0
  N  N82  1  0.63840000  0.87083000  0.04594000  1.0
  N  N83  1  0.86160000  0.12917000  0.54594000  1.0
  N  N84  1  0.36160000  0.12917000  0.95406000  1.0
  N  N85  1  0.13840000  0.87083000  0.45406000  1.0
  N  N86  1  0.76351000  0.82532000  0.04229000  1.0
  N  N87  1  0.73649000  0.17468000  0.54229000  1.0
  N  N88  1  0.23649000  0.17468000  0.95771000  1.0
  N  N89  1  0.26351000  0.82532000  0.45771000  1.0
  O  O90  1  0.12082000  0.88555000  0.11847000  1.0
  O  O91  1  0.37918000  0.11445000  0.61847000  1.0
  O  O92  1  0.87918000  0.11446000  0.88153000  1.0
  O  O93  1  0.62082000  0.88555000  0.38153000  1.0
  O  O94  1  0.23924000  0.08252000  0.22416000  1.0
  O  O95  1  0.26076000  0.91748000  0.72416000  1.0
  O  O96  1  0.76076000  0.91748000  0.77584000  1.0
  O  O97  1  0.73924000  0.08252000  0.27585000  1.0
  O  O98  1  0.98793000  0.16627000  0.13992000  1.0
  O  O99  1  0.51207000  0.83373000  0.63992000  1.0
  O  O100  1  0.01207000  0.83373000  0.86008000  1.0
  O  O101  1  0.48793000  0.16627000  0.36008000  1.0
