# generated using pymatgen
data_CuH13C16N7O8
_symmetry_space_group_name_H-M   'P 1'
_cell_length_a   5.20006000
_cell_length_b   18.77220000
_cell_length_c   20.32960000
_cell_angle_alpha   89.99780000
_cell_angle_beta   89.99870000
_cell_angle_gamma   89.99740000
_symmetry_Int_Tables_number   1
_chemical_formula_structural   CuH13C16N7O8
_chemical_formula_sum   'Cu4 H52 C64 N28 O32'
_cell_volume   1984.50574289
_cell_formula_units_Z   4
loop_
 _symmetry_equiv_pos_site_id
 _symmetry_equiv_pos_as_xyz
  1  'x, y, z'
loop_
 _atom_site_type_symbol
 _atom_site_label
 _atom_site_symmetry_multiplicity
 _atom_site_fract_x
 _atom_site_fract_y
 _atom_site_fract_z
 _atom_site_occupancy
  Cu  Cu0  1  0.36871000  0.99217000  0.20128000  1.0
  Cu  Cu1  1  0.13128000  0.00783000  0.70128000  1.0
  Cu  Cu2  1  0.63129000  0.49218000  0.29872000  1.0
  Cu  Cu3  1  0.86871000  0.50782000  0.79872000  1.0
  H  H4  1  0.80201000  0.92433000  0.45259000  1.0
  H  H5  1  0.69799000  0.07567000  0.95259000  1.0
  H  H6  1  0.19805000  0.42433000  0.04742000  1.0
  H  H7  1  0.30198000  0.57567000  0.54741000  1.0
  H  H8  1  0.57066000  0.14338000  0.56472000  1.0
  H  H9  1  0.92935000  0.85661000  0.06472000  1.0
  H  H10  1  0.42936000  0.64338000  0.93527000  1.0
  H  H11  1  0.07062000  0.35661000  0.43528000  1.0
  H  H12  1  0.69880000  0.12707000  0.35588000  1.0
  H  H13  1  0.80121000  0.87292000  0.85588000  1.0
  H  H14  1  0.30120000  0.62707000  0.14412000  1.0
  H  H15  1  0.19878000  0.37292000  0.64412000  1.0
  H  H16  1  0.56481000  0.83917000  0.13795000  1.0
  H  H17  1  0.93516000  0.16083000  0.63794000  1.0
  H  H18  1  0.43517000  0.33917000  0.36206000  1.0
  H  H19  1  0.06483000  0.66083000  0.86205000  1.0
  H  H20  1  0.80222000  0.94940000  0.30830000  1.0
  H  H21  1  0.69776000  0.05059000  0.80830000  1.0
  H  H22  1  0.19781000  0.44941000  0.19170000  1.0
  H  H23  1  0.30222000  0.55060000  0.69170000  1.0
  H  H24  1  0.87473000  0.76630000  0.34752000  1.0
  H  H25  1  0.62526000  0.23370000  0.84752000  1.0
  H  H26  1  0.12528000  0.26631000  0.15248000  1.0
  H  H27  1  0.37472000  0.73371000  0.65248000  1.0
  H  H28  1  0.01117000  0.85063000  0.36732000  1.0
  H  H29  1  0.48879000  0.14937000  0.86732000  1.0
  H  H30  1  0.98883000  0.35064000  0.13268000  1.0
  H  H31  1  0.51118000  0.64937000  0.63268000  1.0
  H  H32  1  0.37305000  0.82854000  0.29121000  1.0
  H  H33  1  0.12693000  0.17146000  0.79120000  1.0
  H  H34  1  0.62695000  0.32855000  0.20880000  1.0
  H  H35  1  0.87305000  0.67145000  0.70880000  1.0
  H  H36  1  0.35886000  0.76916000  0.35880000  1.0
  H  H37  1  0.14116000  0.23084000  0.85880000  1.0
  H  H38  1  0.64115000  0.26917000  0.14120000  1.0
  H  H39  1  0.85885000  0.73084000  0.64120000  1.0
  H  H40  1  0.18150000  0.73267000  0.21816000  1.0
  H  H41  1  0.31852000  0.26735000  0.71816000  1.0
  H  H42  1  0.81851000  0.23267000  0.28183000  1.0
  H  H43  1  0.68149000  0.76733000  0.78184000  1.0
  H  H44  1  0.47643000  0.70596000  0.25531000  1.0
  H  H45  1  0.02357000  0.29405000  0.75530000  1.0
  H  H46  1  0.52358000  0.20596000  0.24469000  1.0
  H  H47  1  0.97643000  0.79404000  0.74469000  1.0
  H  H48  1  0.84784000  0.63435000  0.22389000  1.0
  H  H49  1  0.65217000  0.36565000  0.72389000  1.0
  H  H50  1  0.15217000  0.13435000  0.27610000  1.0
  H  H51  1  0.34784000  0.86565000  0.77611000  1.0
  H  H52  1  0.09676000  0.53890000  0.40065000  1.0
  H  H53  1  0.40326000  0.46110000  0.90065000  1.0
  H  H54  1  0.90323000  0.03891000  0.09935000  1.0
  H  H55  1  0.59676000  0.96110000  0.59935000  1.0
  C  C56  1  0.41898000  0.05471000  0.39612000  1.0
  C  C57  1  0.08102000  0.94529000  0.89612000  1.0
  C  C58  1  0.58103000  0.55471000  0.10388000  1.0
  C  C59  1  0.91897000  0.44529000  0.60389000  1.0
  C  C60  1  0.29374000  0.03055000  0.45341000  1.0
  C  C61  1  0.20626000  0.96945000  0.95341000  1.0
  C  C62  1  0.70629000  0.53056000  0.04659000  1.0
  C  C63  1  0.79373000  0.46945000  0.54659000  1.0
  C  C64  1  0.34357000  0.06477000  0.51393000  1.0
  C  C65  1  0.15643000  0.93522000  0.01393000  1.0
  C  C66  1  0.65646000  0.56478000  0.98607000  1.0
  C  C67  1  0.84356000  0.43522000  0.48607000  1.0
  C  C68  1  0.52895000  0.11833000  0.51773000  1.0
  C  C69  1  0.97107000  0.88165000  0.01772000  1.0
  C  C70  1  0.47108000  0.61834000  0.98227000  1.0
  C  C71  1  0.02892000  0.38166000  0.48228000  1.0
  C  C72  1  0.65655000  0.13921000  0.46080000  1.0
  C  C73  1  0.84347000  0.86078000  0.96080000  1.0
  C  C74  1  0.34347000  0.63922000  0.03919000  1.0
  C  C75  1  0.15653000  0.36078000  0.53920000  1.0
  C  C76  1  0.59825000  0.10988000  0.39995000  1.0
  C  C77  1  0.90176000  0.89011000  0.89995000  1.0
  C  C78  1  0.40176000  0.60989000  0.10004000  1.0
  C  C79  1  0.09824000  0.39011000  0.60005000  1.0
  C  C80  1  0.37545000  0.01880000  0.33114000  1.0
  C  C81  1  0.12455000  0.98120000  0.83114000  1.0
  C  C82  1  0.62456000  0.51881000  0.16886000  1.0
  C  C83  1  0.87544000  0.48119000  0.66886000  1.0
  C  C84  1  0.14237000  0.96172000  0.45360000  1.0
  C  C85  1  0.35762000  0.03827000  0.95360000  1.0
  C  C86  1  0.85766000  0.46173000  0.04641000  1.0
  C  C87  1  0.64235000  0.53827000  0.54641000  1.0
  C  C88  1  0.20537000  0.04143000  0.57537000  1.0
  C  C89  1  0.29461000  0.95856000  0.07537000  1.0
  C  C90  1  0.79465000  0.54144000  0.92463000  1.0
  C  C91  1  0.70536000  0.45857000  0.42464000  1.0
  C  C92  1  0.65308000  0.85184000  0.18485000  1.0
  C  C93  1  0.84691000  0.14816000  0.68485000  1.0
  C  C94  1  0.34692000  0.35184000  0.31515000  1.0
  C  C95  1  0.15307000  0.64816000  0.81514000  1.0
  C  C96  1  0.76660000  0.90928000  0.27121000  1.0
  C  C97  1  0.73338000  0.09072000  0.77121000  1.0
  C  C98  1  0.23340000  0.40928000  0.22879000  1.0
  C  C99  1  0.26659000  0.59072000  0.72879000  1.0
  C  C100  1  0.99618000  0.80989000  0.32898000  1.0
  C  C101  1  0.50381000  0.19010000  0.82897000  1.0
  C  C102  1  0.00383000  0.30990000  0.17102000  1.0
  C  C103  1  0.49617000  0.69011000  0.67102000  1.0
  C  C104  1  0.26543000  0.78392000  0.31222000  1.0
  C  C105  1  0.23457000  0.21609000  0.81222000  1.0
  C  C106  1  0.73457000  0.28393000  0.18778000  1.0
  C  C107  1  0.76542000  0.71608000  0.68778000  1.0
  C  C108  1  0.27599000  0.72070000  0.26512000  1.0
  C  C109  1  0.22402000  0.27930000  0.76512000  1.0
  C  C110  1  0.72402000  0.22071000  0.23488000  1.0
  C  C111  1  0.77598000  0.77930000  0.73488000  1.0
  C  C112  1  0.94809000  0.62161000  0.26905000  1.0
  C  C113  1  0.55192000  0.37839000  0.76905000  1.0
  C  C114  1  0.05191000  0.12161000  0.23094000  1.0
  C  C115  1  0.44810000  0.87839000  0.73095000  1.0
  C  C116  1  0.07603000  0.57483000  0.35940000  1.0
  C  C117  1  0.42398000  0.42517000  0.85940000  1.0
  C  C118  1  0.92396000  0.07483000  0.14059000  1.0
  C  C119  1  0.57604000  0.92518000  0.64060000  1.0
  N  N120  1  0.86623000  0.19108000  0.46532000  1.0
  N  N121  1  0.63378000  0.80891000  0.96532000  1.0
  N  N122  1  0.13378000  0.69109000  0.03468000  1.0
  N  N123  1  0.36622000  0.30891000  0.53469000  1.0
  N  N124  1  0.63023000  0.91647000  0.21566000  1.0
  N  N125  1  0.86975000  0.08353000  0.71566000  1.0
  N  N126  1  0.36977000  0.41647000  0.28433000  1.0
  N  N127  1  0.13023000  0.58353000  0.78433000  1.0
  N  N128  1  0.86189000  0.84308000  0.27378000  1.0
  N  N129  1  0.63809000  0.15691000  0.77378000  1.0
  N  N130  1  0.13811000  0.34309000  0.22622000  1.0
  N  N131  1  0.36189000  0.65692000  0.72621000  1.0
  N  N132  1  0.79181000  0.80546000  0.21900000  1.0
  N  N133  1  0.70817000  0.19454000  0.71900000  1.0
  N  N134  1  0.20818000  0.30546000  0.28101000  1.0
  N  N135  1  0.29182000  0.69454000  0.78100000  1.0
  N  N136  1  0.14669000  0.65883000  0.29299000  1.0
  N  N137  1  0.35332000  0.34117000  0.79299000  1.0
  N  N138  1  0.85332000  0.15883000  0.20700000  1.0
  N  N139  1  0.64669000  0.84117000  0.70701000  1.0
  N  N140  1  0.23096000  0.63003000  0.35055000  1.0
  N  N141  1  0.26905000  0.36997000  0.85054000  1.0
  N  N142  1  0.76905000  0.13004000  0.14945000  1.0
  N  N143  1  0.73097000  0.86997000  0.64946000  1.0
  N  N144  1  0.89760000  0.56749000  0.31023000  1.0
  N  N145  1  0.60242000  0.43251000  0.81023000  1.0
  N  N146  1  0.10240000  0.06749000  0.18977000  1.0
  N  N147  1  0.39760000  0.93251000  0.68977000  1.0
  O  O148  1  0.49486000  0.04607000  0.28103000  1.0
  O  O149  1  0.00514000  0.95393000  0.78102000  1.0
  O  O150  1  0.50515000  0.54607000  0.21897000  1.0
  O  O151  1  0.99487000  0.45393000  0.71897000  1.0
  O  O152  1  0.23187000  0.96544000  0.32781000  1.0
  O  O153  1  0.26811000  0.03456000  0.82781000  1.0
  O  O154  1  0.76813000  0.46544000  0.17219000  1.0
  O  O155  1  0.73187000  0.53456000  0.67219000  1.0
  O  O156  1  0.24966000  0.90516000  0.46549000  1.0
  O  O157  1  0.25030000  0.09483000  0.96549000  1.0
  O  O158  1  0.75037000  0.40517000  0.03451000  1.0
  O  O159  1  0.74963000  0.59484000  0.53451000  1.0
  O  O160  1  0.88918000  0.96878000  0.44035000  1.0
  O  O161  1  0.61082000  0.03122000  0.94035000  1.0
  O  O162  1  0.11087000  0.46878000  0.05965000  1.0
  O  O163  1  0.38915000  0.53122000  0.55966000  1.0
  O  O164  1  0.01961000  0.99964000  0.57123000  1.0
  O  O165  1  0.48040000  0.00034000  0.07123000  1.0
  O  O166  1  0.98044000  0.49965000  0.92877000  1.0
  O  O167  1  0.51959000  0.50036000  0.42878000  1.0
  O  O168  1  0.29739000  0.06553000  0.63042000  1.0
  O  O169  1  0.20256000  0.93447000  0.13042000  1.0
  O  O170  1  0.70260000  0.56553000  0.86958000  1.0
  O  O171  1  0.79740000  0.43447000  0.36958000  1.0
  O  O172  1  0.95437000  0.20418000  0.52079000  1.0
  O  O173  1  0.54563000  0.79582000  0.02079000  1.0
  O  O174  1  0.04563000  0.70418000  0.97921000  1.0
  O  O175  1  0.45439000  0.29581000  0.47922000  1.0
  O  O176  1  0.94818000  0.21789000  0.41350000  1.0
  O  O177  1  0.55182000  0.78210000  0.91350000  1.0
  O  O178  1  0.05182000  0.71790000  0.08650000  1.0
  O  O179  1  0.44818000  0.28210000  0.58651000  1.0
