# generated using pymatgen
data_RbH8C14SO6
_symmetry_space_group_name_H-M   'P 1'
_cell_length_a   4.65460000
_cell_length_b   11.60400000
_cell_length_c   13.58330000
_cell_angle_alpha   73.58500000
_cell_angle_beta   90.02810000
_cell_angle_gamma   90.05000000
_symmetry_Int_Tables_number   1
_chemical_formula_structural   RbH8C14SO6
_chemical_formula_sum   'Rb2 H16 C28 S2 O12'
_cell_volume   703.75661519
_cell_formula_units_Z   2
loop_
 _symmetry_equiv_pos_site_id
 _symmetry_equiv_pos_as_xyz
  1  'x, y, z'
loop_
 _atom_site_type_symbol
 _atom_site_label
 _atom_site_symmetry_multiplicity
 _atom_site_fract_x
 _atom_site_fract_y
 _atom_site_fract_z
 _atom_site_occupancy
  Rb  Rb0  1  0.88152000  0.75014000  0.50006000  1.0
  Rb  Rb1  1  0.11847000  0.24986000  0.49992000  1.0
  H  H2  1  0.47668000  0.42082000  0.19479000  1.0
  H  H3  1  0.47653000  0.07931000  0.80518000  1.0
  H  H4  1  0.52330000  0.57918000  0.80521000  1.0
  H  H5  1  0.52348000  0.92070000  0.19482000  1.0
  H  H6  1  0.17786000  0.52526000  0.04634000  1.0
  H  H7  1  0.17768000  0.97484000  0.95358000  1.0
  H  H8  1  0.82213000  0.47473000  0.95365000  1.0
  H  H9  1  0.82232000  0.02518000  0.04642000  1.0
  H  H10  1  0.05420000  0.82090000  0.17684000  1.0
  H  H11  1  0.05446000  0.67878000  0.82344000  1.0
  H  H12  1  0.94583000  0.17910000  0.82315000  1.0
  H  H13  1  0.94554000  0.32123000  0.17657000  1.0
  H  H14  1  0.36870000  0.71775000  0.32439000  1.0
  H  H15  1  0.36911000  0.78190000  0.67595000  1.0
  H  H16  1  0.63136000  0.28225000  0.67559000  1.0
  H  H17  1  0.63088000  0.21811000  0.32405000  1.0
  C  C18  1  0.62597000  0.49968000  0.35856000  1.0
  C  C19  1  0.62612000  0.00028000  0.64162000  1.0
  C  C20  1  0.37405000  0.50031000  0.64142000  1.0
  C  C21  1  0.37388000  0.99972000  0.35839000  1.0
  C  C22  1  0.44147000  0.56257000  0.26922000  1.0
  C  C23  1  0.44156000  0.93734000  0.73094000  1.0
  C  C24  1  0.55852000  0.43741000  0.73078000  1.0
  C  C25  1  0.55843000  0.06267000  0.26906000  1.0
  C  C26  1  0.38595000  0.50842000  0.19083000  1.0
  C  C27  1  0.38596000  0.99158000  0.80923000  1.0
  C  C28  1  0.61403000  0.49157000  0.80916000  1.0
  C  C29  1  0.61405000  0.00843000  0.19077000  1.0
  C  C30  1  0.21564000  0.56657000  0.10772000  1.0
  C  C31  1  0.21558000  0.93339000  0.89232000  1.0
  C  C32  1  0.78436000  0.43342000  0.89227000  1.0
  C  C33  1  0.78440000  0.06663000  0.10768000  1.0
  C  C34  1  0.09782000  0.67866000  0.10401000  1.0
  C  C35  1  0.09785000  0.82117000  0.89611000  1.0
  C  C36  1  0.90216000  0.32132000  0.89600000  1.0
  C  C37  1  0.90214000  0.17883000  0.10390000  1.0
  C  C38  1  0.15113000  0.73423000  0.18121000  1.0
  C  C39  1  0.15135000  0.76552000  0.81902000  1.0
  C  C40  1  0.84891000  0.26577000  0.81879000  1.0
  C  C41  1  0.84865000  0.23449000  0.18100000  1.0
  C  C42  1  0.32435000  0.67601000  0.26357000  1.0
  C  C43  1  0.32451000  0.82378000  0.73665000  1.0
  C  C44  1  0.67568000  0.32398000  0.73643000  1.0
  C  C45  1  0.67547000  0.17623000  0.26335000  1.0
  S  S46  1  0.86927000  0.74990000  0.00005000  1.0
  S  S47  1  0.13072000  0.25009000  0.99995000  1.0
  O  O48  1  0.78843000  0.56242000  0.39774000  1.0
  O  O49  1  0.78900000  0.93762000  0.60264000  1.0
  O  O50  1  0.21160000  0.43757000  0.60224000  1.0
  O  O51  1  0.21101000  0.06237000  0.39739000  1.0
  O  O52  1  0.61575000  0.38548000  0.39115000  1.0
  O  O53  1  0.61550000  0.11445000  0.60882000  1.0
  O  O54  1  0.38423000  0.61451000  0.60884000  1.0
  O  O55  1  0.38451000  0.88555000  0.39118000  1.0
  O  O56  1  0.71371000  0.65719000  0.96941000  1.0
  O  O57  1  0.71397000  0.84260000  0.03069000  1.0
  O  O58  1  0.28626000  0.34284000  0.03059000  1.0
  O  O59  1  0.28603000  0.15741000  0.96933000  1.0
