# generated using pymatgen
data_CuH6(C3O)2
_symmetry_space_group_name_H-M   'P 1'
_cell_length_a   6.58190000
_cell_length_b   9.79372000
_cell_length_c   10.84710000
_cell_angle_alpha   116.81400000
_cell_angle_beta   103.74400000
_cell_angle_gamma   90.00090000
_symmetry_Int_Tables_number   1
_chemical_formula_structural   CuH6(C3O)2
_chemical_formula_sum   'Cu4 H24 C24 O8'
_cell_volume   601.51573287
_cell_formula_units_Z   4
loop_
 _symmetry_equiv_pos_site_id
 _symmetry_equiv_pos_as_xyz
  1  'x, y, z'
loop_
 _atom_site_type_symbol
 _atom_site_label
 _atom_site_symmetry_multiplicity
 _atom_site_fract_x
 _atom_site_fract_y
 _atom_site_fract_z
 _atom_site_occupancy
  Cu  Cu0  1  0.74999000  0.77920000  0.99997000  1.0
  Cu  Cu1  1  0.25000000  0.22079000  0.00002000  1.0
  Cu  Cu2  1  0.00002000  0.99999000  0.00001000  1.0
  Cu  Cu3  1  0.49999000  0.00000000  0.00000000  1.0
  H  H4  1  0.60365000  0.72432000  0.61116000  1.0
  H  H5  1  0.89655000  0.11265000  0.38848000  1.0
  H  H6  1  0.39636000  0.27568000  0.38884000  1.0
  H  H7  1  0.10345000  0.88735000  0.61153000  1.0
  H  H8  1  0.66556000  0.76212000  0.47885000  1.0
  H  H9  1  0.83487000  0.28281000  0.52083000  1.0
  H  H10  1  0.33446000  0.23788000  0.52115000  1.0
  H  H11  1  0.16514000  0.71720000  0.47917000  1.0
  H  H12  1  0.49158000  0.59700000  0.42660000  1.0
  H  H13  1  0.00863000  0.16980000  0.57304000  1.0
  H  H14  1  0.50843000  0.40301000  0.57341000  1.0
  H  H15  1  0.99136000  0.83020000  0.42696000  1.0
  H  H16  1  0.44385000  0.56984000  0.78105000  1.0
  H  H17  1  0.05606000  0.78879000  0.21920000  1.0
  H  H18  1  0.55616000  0.43015000  0.21894000  1.0
  H  H19  1  0.94394000  0.21121000  0.78080000  1.0
  H  H20  1  0.22987000  0.60876000  0.86101000  1.0
  H  H21  1  0.26990000  0.74766000  0.13918000  1.0
  H  H22  1  0.77014000  0.39123000  0.13899000  1.0
  H  H23  1  0.73009000  0.25234000  0.86083000  1.0
  H  H24  1  0.28082000  0.41620000  0.76466000  1.0
  H  H25  1  0.21916000  0.65165000  0.23574000  1.0
  H  H26  1  0.71918000  0.58379000  0.23534000  1.0
  H  H27  1  0.78084000  0.34837000  0.76427000  1.0
  C  C28  1  0.92509000  0.70720000  0.76948000  1.0
  C  C29  1  0.57495000  0.93743000  0.23051000  1.0
  C  C30  1  0.07494000  0.29280000  0.23054000  1.0
  C  C31  1  0.42504000  0.06258000  0.76949000  1.0
  C  C32  1  0.96000000  0.59527000  0.62890000  1.0
  C  C33  1  0.54010000  0.96618000  0.37110000  1.0
  C  C34  1  0.04001000  0.40473000  0.37110000  1.0
  C  C35  1  0.45988000  0.03383000  0.62889000  1.0
  C  C36  1  0.81961000  0.57916000  0.50211000  1.0
  C  C37  1  0.68051000  0.07682000  0.49774000  1.0
  C  C38  1  0.18039000  0.42084000  0.49788000  1.0
  C  C39  1  0.31947000  0.92317000  0.50226000  1.0
  C  C40  1  0.63573000  0.66970000  0.50578000  1.0
  C  C41  1  0.86450000  0.16343000  0.49389000  1.0
  C  C42  1  0.36428000  0.33031000  0.49422000  1.0
  C  C43  1  0.13549000  0.83657000  0.50611000  1.0
  C  C44  1  0.13909000  0.51761000  0.62975000  1.0
  C  C45  1  0.36092000  0.88789000  0.37037000  1.0
  C  C46  1  0.86091000  0.48237000  0.37024000  1.0
  C  C47  1  0.63906000  0.11212000  0.62963000  1.0
  C  C48  1  0.27976000  0.52960000  0.76650000  1.0
  C  C49  1  0.22017000  0.76318000  0.23381000  1.0
  C  C50  1  0.72025000  0.47039000  0.23350000  1.0
  C  C51  1  0.77983000  0.23683000  0.76620000  1.0
  O  O52  1  0.80659000  0.66014000  0.82398000  1.0
  O  O53  1  0.69333000  0.83581000  0.17597000  1.0
  O  O54  1  0.19339000  0.33986000  0.17602000  1.0
  O  O55  1  0.30664000  0.16418000  0.82402000  1.0
  O  O56  1  0.02036000  0.84355000  0.82609000  1.0
  O  O57  1  0.47998000  0.01735000  0.17398000  1.0
  O  O58  1  0.97966000  0.15645000  0.17393000  1.0
  O  O59  1  0.52001000  0.98266000  0.82601000  1.0
