# generated using pymatgen
data_CuSiH16C24Br4(N2F3)2
_symmetry_space_group_name_H-M   'P 1'
_cell_length_a   8.07856000
_cell_length_b   13.78650000
_cell_length_c   13.78670000
_cell_angle_alpha   89.79600000
_cell_angle_beta   85.88120000
_cell_angle_gamma   85.88150000
_symmetry_Int_Tables_number   1
_chemical_formula_structural   CuSiH16C24Br4(N2F3)2
_chemical_formula_sum   'Cu1 Si1 H16 C24 Br4 N4 F6'
_cell_volume   1527.57195204
_cell_formula_units_Z   1
loop_
 _symmetry_equiv_pos_site_id
 _symmetry_equiv_pos_as_xyz
  1  'x, y, z'
loop_
 _atom_site_type_symbol
 _atom_site_label
 _atom_site_symmetry_multiplicity
 _atom_site_fract_x
 _atom_site_fract_y
 _atom_site_fract_z
 _atom_site_occupancy
  Cu  Cu0  1  0.49999000  0.50000000  0.50000000  1.0
  Si  Si1  1  0.99999000  0.50000000  0.50000000  1.0
  H  H2  1  0.26201000  0.50008000  0.34544000  1.0
  H  H3  1  0.26617000  0.50003000  0.17125000  1.0
  H  H4  1  0.80330000  0.49994000  0.16421000  1.0
  H  H5  1  0.77711000  0.49988000  0.34042000  1.0
  H  H6  1  0.19668000  0.50007000  0.83579000  1.0
  H  H7  1  0.73382000  0.49996000  0.82875000  1.0
  H  H8  1  0.73798000  0.49991000  0.65456000  1.0
  H  H9  1  0.22288000  0.50013000  0.65958000  1.0
  H  H10  1  0.26201000  0.34544000  0.50008000  1.0
  H  H11  1  0.26617000  0.17125000  0.50003000  1.0
  H  H12  1  0.80330000  0.16421000  0.49994000  1.0
  H  H13  1  0.77710000  0.34043000  0.49987000  1.0
  H  H14  1  0.19668000  0.83578000  0.50007000  1.0
  H  H15  1  0.73382000  0.82875000  0.49997000  1.0
  H  H16  1  0.73798000  0.65455000  0.49991000  1.0
  H  H17  1  0.22288000  0.65957000  0.50013000  1.0
  C  C18  1  0.38077000  0.50005000  0.30274000  1.0
  C  C19  1  0.38526000  0.50004000  0.20183000  1.0
  C  C20  1  0.53710000  0.50003000  0.14406000  1.0
  C  C21  1  0.67860000  0.49997000  0.19898000  1.0
  C  C22  1  0.66603000  0.49993000  0.29994000  1.0
  C  C23  1  0.55610000  0.49993000  0.03532000  1.0
  C  C24  1  0.44389000  0.50007000  0.96467000  1.0
  C  C25  1  0.32139000  0.50003000  0.80102000  1.0
  C  C26  1  0.46289000  0.49997000  0.85594000  1.0
  C  C27  1  0.61473000  0.49996000  0.79817000  1.0
  C  C28  1  0.61922000  0.49995000  0.69726000  1.0
  C  C29  1  0.33395000  0.50007000  0.70006000  1.0
  C  C30  1  0.38076000  0.30274000  0.50005000  1.0
  C  C31  1  0.38525000  0.20183000  0.50004000  1.0
  C  C32  1  0.53710000  0.14406000  0.50002000  1.0
  C  C33  1  0.67860000  0.19898000  0.49997000  1.0
  C  C34  1  0.66602000  0.29994000  0.49993000  1.0
  C  C35  1  0.55610000  0.03532000  0.49993000  1.0
  C  C36  1  0.44390000  0.96467000  0.50007000  1.0
  C  C37  1  0.32139000  0.80102000  0.50003000  1.0
  C  C38  1  0.46290000  0.85593000  0.49997000  1.0
  C  C39  1  0.61474000  0.79817000  0.49996000  1.0
  C  C40  1  0.61922000  0.69725000  0.49995000  1.0
  C  C41  1  0.33396000  0.70005000  0.50007000  1.0
  Br  Br42  1  0.78867000  0.49949000  0.99013000  1.0
  Br  Br43  1  0.21132000  0.50051000  0.00987000  1.0
  Br  Br44  1  0.78867000  0.99013000  0.49949000  1.0
  Br  Br45  1  0.21133000  0.00987000  0.50051000  1.0
  N  N46  1  0.51846000  0.49997000  0.35195000  1.0
  N  N47  1  0.48153000  0.50003000  0.64805000  1.0
  N  N48  1  0.51845000  0.35195000  0.49997000  1.0
  N  N49  1  0.48153000  0.64805000  0.50003000  1.0
  F  F50  1  0.21475000  0.50144000  0.50145000  1.0
  F  F51  1  0.78523000  0.49856000  0.49856000  1.0
  F  F52  1  0.99999000  0.58792000  0.41208000  1.0
  F  F53  1  0.99999000  0.41208000  0.58792000  1.0
  F  F54  1  0.02483000  0.41195000  0.41195000  1.0
  F  F55  1  0.97516000  0.58805000  0.58805000  1.0
