# generated using pymatgen
data_ZnH17C18N2O5
_symmetry_space_group_name_H-M   'P 1'
_cell_length_a   8.47789000
_cell_length_b   9.77187000
_cell_length_c   11.49820000
_cell_angle_alpha   69.23870000
_cell_angle_beta   69.61960000
_cell_angle_gamma   65.48880000
_symmetry_Int_Tables_number   1
_chemical_formula_structural   ZnH17C18N2O5
_chemical_formula_sum   'Zn2 H34 C36 N4 O10'
_cell_volume   787.45564724
_cell_formula_units_Z   2
loop_
 _symmetry_equiv_pos_site_id
 _symmetry_equiv_pos_as_xyz
  1  'x, y, z'
loop_
 _atom_site_type_symbol
 _atom_site_label
 _atom_site_symmetry_multiplicity
 _atom_site_fract_x
 _atom_site_fract_y
 _atom_site_fract_z
 _atom_site_occupancy
  Zn  Zn0  1  0.66114000  0.09149000  0.56006000  1.0
  Zn  Zn1  1  0.33886000  0.90851000  0.43994000  1.0
  H  H2  1  0.87410000  0.63251000  0.77622000  1.0
  H  H3  1  0.12589000  0.36749000  0.22378000  1.0
  H  H4  1  0.75864000  0.42240000  0.80384000  1.0
  H  H5  1  0.24136000  0.57760000  0.19616000  1.0
  H  H6  1  0.93899000  0.21833000  0.68554000  1.0
  H  H7  1  0.06100000  0.78167000  0.31446000  1.0
  H  H8  1  0.35034000  0.42900000  0.51465000  1.0
  H  H9  1  0.64966000  0.57100000  0.48536000  1.0
  H  H10  1  0.58341000  0.36853000  0.66218000  1.0
  H  H11  1  0.41659000  0.63146000  0.33782000  1.0
  H  H12  1  0.14666000  0.26168000  0.08547000  1.0
  H  H13  1  0.85334000  0.73832000  0.91453000  1.0
  H  H14  1  0.24076000  0.96678000  0.13154000  1.0
  H  H15  1  0.75924000  0.03323000  0.86846000  1.0
  H  H16  1  0.27553000  0.82995000  0.05028000  1.0
  H  H17  1  0.72447000  0.17005000  0.94972000  1.0
  H  H18  1  0.55024000  0.80877000  0.72258000  1.0
  H  H19  1  0.44977000  0.19123000  0.27742000  1.0
  H  H20  1  0.32240000  0.83683000  0.79285000  1.0
  H  H21  1  0.67760000  0.16316000  0.20715000  1.0
  H  H22  1  0.47826000  0.73879000  0.89179000  1.0
  H  H23  1  0.52175000  0.26121000  0.10821000  1.0
  H  H24  1  0.22090000  0.50632000  0.00595000  1.0
  H  H25  1  0.77909000  0.49368000  0.99404000  1.0
  H  H26  1  0.43757000  0.55697000  0.80002000  1.0
  H  H27  1  0.56243000  0.44303000  0.19998000  1.0
  H  H28  1  0.95350000  0.96101000  0.14727000  1.0
  H  H29  1  0.04650000  0.03899000  0.85274000  1.0
  H  H30  1  0.96861000  0.14149000  0.04593000  1.0
  H  H31  1  0.03138000  0.85851000  0.95407000  1.0
  H  H32  1  0.95956000  0.92625000  0.66859000  1.0
  H  H33  1  0.04044000  0.07374000  0.33141000  1.0
  H  H34  1  0.98213000  0.08204000  0.58045000  1.0
  H  H35  1  0.01788000  0.91796000  0.41955000  1.0
  C  C36  1  0.17636000  0.67769000  0.62606000  1.0
  C  C37  1  0.82364000  0.32230000  0.37394000  1.0
  C  C38  1  0.11763000  0.54475000  0.64363000  1.0
  C  C39  1  0.88237000  0.45525000  0.35637000  1.0
  C  C40  1  0.95242000  0.54057000  0.72630000  1.0
  C  C41  1  0.04757000  0.45944000  0.27370000  1.0
  C  C42  1  0.88898000  0.42337000  0.74128000  1.0
  C  C43  1  0.11101000  0.57663000  0.25873000  1.0
  C  C44  1  0.99067000  0.30830000  0.67457000  1.0
  C  C45  1  0.00933000  0.69170000  0.32544000  1.0
  C  C46  1  0.15860000  0.30860000  0.59385000  1.0
  C  C47  1  0.84140000  0.69140000  0.40615000  1.0
  C  C48  1  0.22037000  0.42833000  0.57784000  1.0
  C  C49  1  0.77963000  0.57166000  0.42217000  1.0
  C  C50  1  0.27510000  0.18371000  0.52427000  1.0
  C  C51  1  0.72490000  0.81629000  0.47573000  1.0
  C  C52  1  0.49181000  0.34477000  0.75460000  1.0
  C  C53  1  0.50819000  0.65523000  0.24540000  1.0
  C  C54  1  0.44774000  0.20929000  0.79782000  1.0
  C  C55  1  0.55226000  0.79072000  0.20218000  1.0
  C  C56  1  0.24378000  0.28351000  0.99539000  1.0
  C  C57  1  0.75622000  0.71649000  0.00460000  1.0
  C  C58  1  0.42522000  0.98321000  0.82567000  1.0
  C  C59  1  0.57479000  0.01679000  0.17433000  1.0
  C  C60  1  0.32894000  0.17891000  0.91773000  1.0
  C  C61  1  0.67106000  0.82109000  0.08226000  1.0
  C  C62  1  0.21894000  0.95405000  0.04784000  1.0
  C  C63  1  0.78106000  0.04595000  0.95216000  1.0
  C  C64  1  0.44540000  0.83355000  0.80784000  1.0
  C  C65  1  0.55460000  0.16645000  0.19216000  1.0
  C  C66  1  0.28667000  0.41948000  0.95006000  1.0
  C  C67  1  0.71332000  0.58052000  0.04994000  1.0
  C  C68  1  0.41015000  0.44825000  0.83283000  1.0
  C  C69  1  0.58985000  0.55175000  0.16717000  1.0
  C  C70  1  0.02046000  0.01601000  0.05234000  1.0
  C  C71  1  0.97954000  0.98399000  0.94766000  1.0
  N  N72  1  0.50365000  0.08594000  0.74222000  1.0
  N  N73  1  0.49635000  0.91406000  0.25779000  1.0
  N  N74  1  0.32029000  0.03452000  0.93325000  1.0
  N  N75  1  0.67971000  0.96548000  0.06675000  1.0
  O  O76  1  0.09987000  0.75836000  0.70769000  1.0
  O  O77  1  0.90014000  0.24163000  0.29231000  1.0
  O  O78  1  0.29946000  0.70241000  0.52554000  1.0
  O  O79  1  0.70053000  0.29759000  0.47445000  1.0
  O  O80  1  0.43809000  0.16814000  0.47714000  1.0
  O  O81  1  0.56191000  0.83187000  0.52286000  1.0
  O  O82  1  0.20119000  0.09821000  0.51264000  1.0
  O  O83  1  0.79881000  0.90179000  0.48736000  1.0
  O  O84  1  0.88739000  0.03754000  0.63679000  1.0
  O  O85  1  0.11261000  0.96246000  0.36320000  1.0
