# generated using pymatgen
data_ZnH18C24(N2O3)2
_symmetry_space_group_name_H-M   'P 1'
_cell_length_a   9.60058000
_cell_length_b   11.72070000
_cell_length_c   12.11330000
_cell_angle_alpha   109.51700000
_cell_angle_beta   111.68800000
_cell_angle_gamma   101.56600000
_symmetry_Int_Tables_number   1
_chemical_formula_structural   ZnH18C24(N2O3)2
_chemical_formula_sum   'Zn2 H36 C48 N8 O12'
_cell_volume   1109.12085933
_cell_formula_units_Z   2
loop_
 _symmetry_equiv_pos_site_id
 _symmetry_equiv_pos_as_xyz
  1  'x, y, z'
loop_
 _atom_site_type_symbol
 _atom_site_label
 _atom_site_symmetry_multiplicity
 _atom_site_fract_x
 _atom_site_fract_y
 _atom_site_fract_z
 _atom_site_occupancy
  Zn  Zn0  1  0.20268000  0.53926000  0.87092000  1.0
  Zn  Zn1  1  0.79732000  0.46073000  0.12908000  1.0
  H  H2  1  0.44587000  0.08654000  0.90897000  1.0
  H  H3  1  0.55414000  0.91346000  0.09103000  1.0
  H  H4  1  0.51300000  0.23529000  0.14116000  1.0
  H  H5  1  0.48701000  0.76471000  0.85884000  1.0
  H  H6  1  0.10469000  0.96421000  0.10595000  1.0
  H  H7  1  0.89531000  0.03580000  0.89405000  1.0
  H  H8  1  0.03503000  0.81759000  0.87394000  1.0
  H  H9  1  0.96497000  0.18242000  0.12606000  1.0
  H  H10  1  0.77156000  0.41137000  0.53854000  1.0
  H  H11  1  0.22844000  0.58862000  0.46146000  1.0
  H  H12  1  0.63151000  0.56572000  0.84016000  1.0
  H  H13  1  0.36849000  0.43429000  0.15984000  1.0
  H  H14  1  0.26917000  0.30339000  0.43795000  1.0
  H  H15  1  0.73083000  0.69662000  0.56205000  1.0
  H  H16  1  0.53750000  0.61503000  0.04567000  1.0
  H  H17  1  0.46250000  0.38497000  0.95433000  1.0
  H  H18  1  0.74832000  0.77537000  0.27370000  1.0
  H  H19  1  0.25168000  0.22463000  0.72630000  1.0
  H  H20  1  0.39285000  0.93490000  0.31930000  1.0
  H  H21  1  0.60715000  0.06510000  0.68070000  1.0
  H  H22  1  0.18982000  0.75678000  0.09170000  1.0
  H  H23  1  0.81018000  0.24322000  0.90830000  1.0
  H  H24  1  0.04302000  0.02492000  0.72512000  1.0
  H  H25  1  0.95698000  0.97508000  0.27488000  1.0
  H  H26  1  0.83170000  0.84433000  0.50377000  1.0
  H  H27  1  0.16831000  0.15567000  0.49623000  1.0
  H  H28  1  0.64223000  0.13034000  0.42409000  1.0
  H  H29  1  0.35775000  0.86965000  0.57591000  1.0
  H  H30  1  0.86938000  0.29919000  0.64466000  1.0
  H  H31  1  0.13061000  0.70080000  0.35534000  1.0
  H  H32  1  0.11741000  0.78709000  0.71030000  1.0
  H  H33  1  0.88259000  0.21291000  0.28970000  1.0
  H  H34  1  0.09532000  0.29585000  0.82726000  1.0
  H  H35  1  0.90468000  0.70415000  0.17273000  1.0
  H  H36  1  0.14203000  0.39062000  0.97922000  1.0
  H  H37  1  0.85798000  0.60937000  0.02078000  1.0
  C  C38  1  0.23754000  0.94396000  0.87818000  1.0
  C  C39  1  0.76246000  0.05605000  0.12181000  1.0
  C  C40  1  0.37182000  0.06205000  0.95345000  1.0
  C  C41  1  0.62818000  0.93795000  0.04655000  1.0
  C  C42  1  0.41019000  0.14302000  0.08215000  1.0
  C  C43  1  0.58981000  0.85699000  0.91785000  1.0
  C  C44  1  0.31458000  0.10655000  0.13852000  1.0
  C  C45  1  0.68541000  0.89345000  0.86148000  1.0
  C  C46  1  0.17874000  0.99001000  0.06172000  1.0
  C  C47  1  0.82126000  0.01000000  0.93827000  1.0
  C  C48  1  0.14007000  0.90833000  0.93244000  1.0
  C  C49  1  0.85992000  0.09167000  0.06755000  1.0
  C  C50  1  0.51603000  0.34499000  0.47458000  1.0
  C  C51  1  0.48397000  0.65501000  0.52542000  1.0
  C  C52  1  0.67854000  0.41660000  0.56900000  1.0
  C  C53  1  0.32146000  0.58339000  0.43100000  1.0
  C  C54  1  0.72156000  0.49292000  0.70195000  1.0
  C  C55  1  0.27845000  0.50708000  0.29805000  1.0
  C  C56  1  0.60047000  0.50408000  0.73812000  1.0
  C  C57  1  0.39953000  0.49592000  0.26188000  1.0
  C  C58  1  0.43745000  0.43644000  0.64294000  1.0
  C  C59  1  0.56254000  0.56356000  0.35706000  1.0
  C  C60  1  0.39558000  0.35590000  0.51194000  1.0
  C  C61  1  0.60442000  0.64410000  0.48806000  1.0
  C  C62  1  0.30597000  0.44575000  0.68098000  1.0
  C  C63  1  0.69403000  0.55425000  0.31902000  1.0
  C  C64  1  0.89601000  0.55560000  0.80437000  1.0
  C  C65  1  0.10400000  0.44440000  0.19562000  1.0
  C  C66  1  0.50879000  0.68482000  0.11062000  1.0
  C  C67  1  0.49121000  0.31517000  0.88938000  1.0
  C  C68  1  0.62674000  0.77595000  0.23756000  1.0
  C  C69  1  0.37326000  0.22405000  0.76244000  1.0
  C  C70  1  0.58884000  0.86987000  0.31580000  1.0
  C  C71  1  0.41116000  0.13012000  0.68420000  1.0
  C  C72  1  0.42945000  0.86467000  0.26276000  1.0
  C  C73  1  0.57055000  0.13533000  0.73725000  1.0
  C  C74  1  0.31611000  0.76754000  0.13636000  1.0
  C  C75  1  0.68389000  0.23246000  0.86364000  1.0
  C  C76  1  0.95119000  0.04375000  0.65548000  1.0
  C  C77  1  0.04881000  0.95625000  0.34452000  1.0
  C  C78  1  0.83263000  0.94338000  0.53278000  1.0
  C  C79  1  0.16737000  0.05662000  0.46722000  1.0
  C  C80  1  0.71563000  0.97234000  0.44772000  1.0
  C  C81  1  0.28437000  0.02766000  0.55228000  1.0
  C  C82  1  0.72604000  0.10202000  0.48888000  1.0
  C  C83  1  0.27395000  0.89797000  0.51113000  1.0
  C  C84  1  0.85217000  0.19644000  0.61141000  1.0
  C  C85  1  0.14783000  0.80356000  0.38860000  1.0
  N  N86  1  0.34566000  0.17988000  0.26919000  1.0
  N  N87  1  0.65433000  0.82012000  0.73081000  1.0
  N  N88  1  0.48635000  0.26737000  0.34471000  1.0
  N  N89  1  0.51364000  0.73263000  0.65529000  1.0
  N  N90  1  0.35569000  0.68037000  0.06051000  1.0
  N  N91  1  0.64431000  0.31963000  0.93949000  1.0
  N  N92  1  0.96166000  0.16812000  0.69420000  1.0
  N  N93  1  0.03834000  0.83188000  0.30580000  1.0
  O  O94  1  0.20785000  0.86946000  0.75208000  1.0
  O  O95  1  0.79216000  0.13054000  0.24792000  1.0
  O  O96  1  0.99722000  0.54220000  0.75849000  1.0
  O  O97  1  0.00278000  0.45779000  0.24150000  1.0
  O  O98  1  0.93871000  0.61365000  0.92647000  1.0
  O  O99  1  0.06129000  0.38635000  0.07353000  1.0
  O  O100  1  0.16436000  0.36665000  0.60324000  1.0
  O  O101  1  0.83565000  0.63335000  0.39677000  1.0
  O  O102  1  0.35498000  0.53720000  0.79936000  1.0
  O  O103  1  0.64502000  0.46281000  0.20064000  1.0
  O  O104  1  0.17532000  0.38375000  0.90823000  1.0
  O  O105  1  0.82468000  0.61625000  0.09177000  1.0
