# generated using pymatgen
data_CdH14C21(NO3)2
_symmetry_space_group_name_H-M   'P 1'
_cell_length_a   8.92551000
_cell_length_b   9.86923000
_cell_length_c   12.28150000
_cell_angle_alpha   91.66270000
_cell_angle_beta   103.88700000
_cell_angle_gamma   115.42800000
_symmetry_Int_Tables_number   1
_chemical_formula_structural   CdH14C21(NO3)2
_chemical_formula_sum   'Cd2 H28 C42 N4 O12'
_cell_volume   937.66640778
_cell_formula_units_Z   2
loop_
 _symmetry_equiv_pos_site_id
 _symmetry_equiv_pos_as_xyz
  1  'x, y, z'
loop_
 _atom_site_type_symbol
 _atom_site_label
 _atom_site_symmetry_multiplicity
 _atom_site_fract_x
 _atom_site_fract_y
 _atom_site_fract_z
 _atom_site_occupancy
  Cd  Cd0  1  0.18710000  0.47282000  0.02622000  1.0
  Cd  Cd1  1  0.81289000  0.52718000  0.97378000  1.0
  H  H2  1  0.11204000  0.62486000  0.43636000  1.0
  H  H3  1  0.88797000  0.37515000  0.56364000  1.0
  H  H4  1  0.27867000  0.18207000  0.04143000  1.0
  H  H5  1  0.72132000  0.81794000  0.95857000  1.0
  H  H6  1  0.29249000  0.00260000  0.17834000  1.0
  H  H7  1  0.70751000  0.99739000  0.82166000  1.0
  H  H8  1  0.29781000  0.06553000  0.37830000  1.0
  H  H9  1  0.70219000  0.93446000  0.62169000  1.0
  H  H10  1  0.26933000  0.47594000  0.28314000  1.0
  H  H11  1  0.73067000  0.52406000  0.71686000  1.0
  H  H12  1  0.28929000  0.43696000  0.47477000  1.0
  H  H13  1  0.71071000  0.56303000  0.52522000  1.0
  H  H14  1  0.19828000  0.10976000  0.52175000  1.0
  H  H15  1  0.80172000  0.89024000  0.47825000  1.0
  H  H16  1  0.06667000  0.05347000  0.68128000  1.0
  H  H17  1  0.93333000  0.94653000  0.31873000  1.0
  H  H18  1  0.04603000  0.14698000  0.86608000  1.0
  H  H19  1  0.95397000  0.85303000  0.13392000  1.0
  H  H20  1  0.34551000  0.59410000  0.83879000  1.0
  H  H21  1  0.65449000  0.40590000  0.16121000  1.0
  H  H22  1  0.36810000  0.52294000  0.65028000  1.0
  H  H23  1  0.63189000  0.47706000  0.34972000  1.0
  H  H24  1  0.09254000  0.65972000  0.70729000  1.0
  H  H25  1  0.90746000  0.34028000  0.29271000  1.0
  H  H26  1  0.47661000  0.08215000  0.64889000  1.0
  H  H27  1  0.52339000  0.91785000  0.35112000  1.0
  H  H28  1  0.36935000  0.04259000  0.97229000  1.0
  H  H29  1  0.63064000  0.95742000  0.02771000  1.0
  C  C30  1  0.27998000  0.20544000  0.12894000  1.0
  C  C31  1  0.72002000  0.79456000  0.87106000  1.0
  C  C32  1  0.28887000  0.10651000  0.20625000  1.0
  C  C33  1  0.71113000  0.89349000  0.79375000  1.0
  C  C34  1  0.28925000  0.14136000  0.31685000  1.0
  C  C35  1  0.71075000  0.85864000  0.68315000  1.0
  C  C36  1  0.27886000  0.27500000  0.34785000  1.0
  C  C37  1  0.72114000  0.72500000  0.65215000  1.0
  C  C38  1  0.27411000  0.36909000  0.26479000  1.0
  C  C39  1  0.72589000  0.63091000  0.73521000  1.0
  C  C40  1  0.26889000  0.31978000  0.45878000  1.0
  C  C41  1  0.73111000  0.68022000  0.54122000  1.0
  C  C42  1  0.22814000  0.22936000  0.53846000  1.0
  C  C43  1  0.77186000  0.77064000  0.46154000  1.0
  C  C44  1  0.21691000  0.28028000  0.64748000  1.0
  C  C45  1  0.78309000  0.71972000  0.35252000  1.0
  C  C46  1  0.12809000  0.17487000  0.71195000  1.0
  C  C47  1  0.87191000  0.82513000  0.28805000  1.0
  C  C48  1  0.11821000  0.22524000  0.81560000  1.0
  C  C49  1  0.88180000  0.77476000  0.18440000  1.0
  C  C50  1  0.28290000  0.47587000  0.79916000  1.0
  C  C51  1  0.71710000  0.52413000  0.20084000  1.0
  C  C52  1  0.29456000  0.43473000  0.69401000  1.0
  C  C53  1  0.70544000  0.56527000  0.30599000  1.0
  C  C54  1  0.22169000  0.84081000  0.84820000  1.0
  C  C55  1  0.77830000  0.15919000  0.15180000  1.0
  C  C56  1  0.18937000  0.77684000  0.73697000  1.0
  C  C57  1  0.81063000  0.22316000  0.26302000  1.0
  C  C58  1  0.27839000  0.86458000  0.66435000  1.0
  C  C59  1  0.72161000  0.13542000  0.33565000  1.0
  C  C60  1  0.40442000  0.01494000  0.70432000  1.0
  C  C61  1  0.59558000  0.98505000  0.29568000  1.0
  C  C62  1  0.43801000  0.07867000  0.81582000  1.0
  C  C63  1  0.56199000  0.92134000  0.18418000  1.0
  C  C64  1  0.34475000  0.99171000  0.88622000  1.0
  C  C65  1  0.65524000  0.00828000  0.11378000  1.0
  C  C66  1  0.11908000  0.75358000  0.92515000  1.0
  C  C67  1  0.88092000  0.24641000  0.07485000  1.0
  C  C68  1  0.56980000  0.24050000  0.86006000  1.0
  C  C69  1  0.43020000  0.75950000  0.13995000  1.0
  C  C70  1  0.23912000  0.80435000  0.54369000  1.0
  C  C71  1  0.76088000  0.19564000  0.45632000  1.0
  N  N72  1  0.27418000  0.33495000  0.15842000  1.0
  N  N73  1  0.72581000  0.66505000  0.84158000  1.0
  N  N74  1  0.19572000  0.37330000  0.85920000  1.0
  N  N75  1  0.80429000  0.62670000  0.14080000  1.0
  O  O76  1  0.04703000  0.60602000  0.90146000  1.0
  O  O77  1  0.95297000  0.39398000  0.09854000  1.0
  O  O78  1  0.10110000  0.82453000  0.00305000  1.0
  O  O79  1  0.89889000  0.17547000  0.99696000  1.0
  O  O80  1  0.57233000  0.29744000  0.95650000  1.0
  O  O81  1  0.42767000  0.70256000  0.04350000  1.0
  O  O82  1  0.67091000  0.31234000  0.80278000  1.0
  O  O83  1  0.32908000  0.68766000  0.19722000  1.0
  O  O84  1  0.28682000  0.88135000  0.47087000  1.0
  O  O85  1  0.71320000  0.11865000  0.52913000  1.0
  O  O86  1  0.13988000  0.65096000  0.51877000  1.0
  O  O87  1  0.86013000  0.34904000  0.48122000  1.0
