# generated using pymatgen
data_Cd3H16C20(NO6)2
_symmetry_space_group_name_H-M   'P 1'
_cell_length_a   7.13991000
_cell_length_b   9.47525000
_cell_length_c   9.51440000
_cell_angle_alpha   108.02700000
_cell_angle_beta   111.33600000
_cell_angle_gamma   93.09440000
_symmetry_Int_Tables_number   1
_chemical_formula_structural   Cd3H16C20(NO6)2
_chemical_formula_sum   'Cd3 H16 C20 N2 O12'
_cell_volume   559.95210607
_cell_formula_units_Z   1
loop_
 _symmetry_equiv_pos_site_id
 _symmetry_equiv_pos_as_xyz
  1  'x, y, z'
loop_
 _atom_site_type_symbol
 _atom_site_label
 _atom_site_symmetry_multiplicity
 _atom_site_fract_x
 _atom_site_fract_y
 _atom_site_fract_z
 _atom_site_occupancy
  Cd  Cd0  1  0.22991000  0.51342000  0.44649000  1.0
  Cd  Cd1  1  0.77009000  0.48658000  0.55351000  1.0
  Cd  Cd2  1  0.00000000  0.50000000  0.00000000  1.0
  H  H3  1  0.12441000  0.90282000  0.13814000  1.0
  H  H4  1  0.87559000  0.09718000  0.86186000  1.0
  H  H5  1  0.28996000  0.04239000  0.64905000  1.0
  H  H6  1  0.71004000  0.95761000  0.35095000  1.0
  H  H7  1  0.28480000  0.31047000  0.65725000  1.0
  H  H8  1  0.71520000  0.68953000  0.34275000  1.0
  H  H9  1  0.12981000  0.17747000  0.16575000  1.0
  H  H10  1  0.87019000  0.82253000  0.83425000  1.0
  H  H11  1  0.58289000  0.21554000  0.21725000  1.0
  H  H12  1  0.41711000  0.78446000  0.78275000  1.0
  H  H13  1  0.46937000  0.23927000  0.88138000  1.0
  H  H14  1  0.53063000  0.76073000  0.11862000  1.0
  H  H15  1  0.32191000  0.11582000  0.92613000  1.0
  H  H16  1  0.67809000  0.88418000  0.07387000  1.0
  H  H17  1  0.57305000  0.09018000  0.93949000  1.0
  H  H18  1  0.42695000  0.90982000  0.06051000  1.0
  C  C19  1  0.20371000  0.79274000  0.38532000  1.0
  C  C20  1  0.79629000  0.20726000  0.61468000  1.0
  C  C21  1  0.20710000  0.95382000  0.39304000  1.0
  C  C22  1  0.79290000  0.04618000  0.60696000  1.0
  C  C23  1  0.16099000  0.99123000  0.25463000  1.0
  C  C24  1  0.83901000  0.00877000  0.74537000  1.0
  C  C25  1  0.25405000  0.06947000  0.54040000  1.0
  C  C26  1  0.74595000  0.93053000  0.45960000  1.0
  C  C27  1  0.25210000  0.21731000  0.54502000  1.0
  C  C28  1  0.74790000  0.78269000  0.45498000  1.0
  C  C29  1  0.16526000  0.14251000  0.27004000  1.0
  C  C30  1  0.83475000  0.85749000  0.72996000  1.0
  C  C31  1  0.42782000  0.39139000  0.17180000  1.0
  C  C32  1  0.57218000  0.60861000  0.82819000  1.0
  C  C33  1  0.78511000  0.36295000  0.18851000  1.0
  C  C34  1  0.21489000  0.63705000  0.81150000  1.0
  C  C35  1  0.56701000  0.27934000  0.13548000  1.0
  C  C36  1  0.43299000  0.72066000  0.86452000  1.0
  C  C37  1  0.47739000  0.17440000  0.95999000  1.0
  C  C38  1  0.52261000  0.82560000  0.04001000  1.0
  N  N39  1  0.20898000  0.25375000  0.41225000  1.0
  N  N40  1  0.79102000  0.74625000  0.58775000  1.0
  O  O41  1  0.27845000  0.77076000  0.51910000  1.0
  O  O42  1  0.72155000  0.22924000  0.48090000  1.0
  O  O43  1  0.12615000  0.68810000  0.24911000  1.0
  O  O44  1  0.87385000  0.31190000  0.75089000  1.0
  O  O45  1  0.45639000  0.45645000  0.31999000  1.0
  O  O46  1  0.54360000  0.54355000  0.68001000  1.0
  O  O47  1  0.29319000  0.40907000  0.05219000  1.0
  O  O48  1  0.70680000  0.59092000  0.94780000  1.0
  O  O49  1  0.87011000  0.33159000  0.09008000  1.0
  O  O50  1  0.12989000  0.66841000  0.90992000  1.0
  O  O51  1  0.87298000  0.45801000  0.33329000  1.0
  O  O52  1  0.12702000  0.54199000  0.66666667  1.0
