# generated using pymatgen
data_CoH32C38S2(N3O2)2
_symmetry_space_group_name_H-M   'P 1'
_cell_length_a   9.27691000
_cell_length_b   9.45181000
_cell_length_c   11.80240000
_cell_angle_alpha   107.09500000
_cell_angle_beta   104.69100000
_cell_angle_gamma   94.27020000
_symmetry_Int_Tables_number   1
_chemical_formula_structural   CoH32C38S2(N3O2)2
_chemical_formula_sum   'Co1 H32 C38 S2 N6 O4'
_cell_volume   944.30858347
_cell_formula_units_Z   1
loop_
 _symmetry_equiv_pos_site_id
 _symmetry_equiv_pos_as_xyz
  1  'x, y, z'
loop_
 _atom_site_type_symbol
 _atom_site_label
 _atom_site_symmetry_multiplicity
 _atom_site_fract_x
 _atom_site_fract_y
 _atom_site_fract_z
 _atom_site_occupancy
  Co  Co0  1  0.99999000  0.00000000  0.00000000  1.0
  H  H1  1  0.71396000  0.83802000  0.04074000  1.0
  H  H2  1  0.28603000  0.16198000  0.95926000  1.0
  H  H3  1  0.44967000  0.72464000  0.91246000  1.0
  H  H4  1  0.55032000  0.27538000  0.08754000  1.0
  H  H5  1  0.46644000  0.05099000  0.72425000  1.0
  H  H6  1  0.53358000  0.94902000  0.27576000  1.0
  H  H7  1  0.73281000  0.14258000  0.85255000  1.0
  H  H8  1  0.26720000  0.85741000  0.14745000  1.0
  H  H9  1  0.25711000  0.85640000  0.64541000  1.0
  H  H10  1  0.74289000  0.14363000  0.35458000  1.0
  H  H11  1  0.19670000  0.86192000  0.77797000  1.0
  H  H12  1  0.80329000  0.13808000  0.22203000  1.0
  H  H13  1  0.19982000  0.37480000  0.59512000  1.0
  H  H14  1  0.80017000  0.62521000  0.40486000  1.0
  H  H15  1  0.02070000  0.77860000  0.57672000  1.0
  H  H16  1  0.97930000  0.22142000  0.42326000  1.0
  H  H17  1  0.88762000  0.27908000  0.99571000  1.0
  H  H18  1  0.11236000  0.72092000  0.00431000  1.0
  H  H19  1  0.96599000  0.54985000  0.11679000  1.0
  H  H20  1  0.03402000  0.45014000  0.88324000  1.0
  H  H21  1  0.31924000  0.42731000  0.36955000  1.0
  H  H22  1  0.68078000  0.57268000  0.63045000  1.0
  H  H23  1  0.21727000  0.16061000  0.24497000  1.0
  H  H24  1  0.78273000  0.83939000  0.75503000  1.0
  H  H25  1  0.13923000  0.70996000  0.39074000  1.0
  H  H26  1  0.86078000  0.29004000  0.60927000  1.0
  H  H27  1  0.17732000  0.74202000  0.26016000  1.0
  H  H28  1  0.82269000  0.25798000  0.73984000  1.0
  H  H29  1  0.64686000  0.78977000  0.47328000  1.0
  H  H30  1  0.35314000  0.21024000  0.52673000  1.0
  H  H31  1  0.21854000  0.95015000  0.42468000  1.0
  H  H32  1  0.78146000  0.04985000  0.57533000  1.0
  C  C33  1  0.65533000  0.88223000  0.96940000  1.0
  C  C34  1  0.34466000  0.11776000  0.03060000  1.0
  C  C35  1  0.50771000  0.81958000  0.89811000  1.0
  C  C36  1  0.49229000  0.18042000  0.10188000  1.0
  C  C37  1  0.43601000  0.87894000  0.80729000  1.0
  C  C38  1  0.56399000  0.12105000  0.19272000  1.0
  C  C39  1  0.51713000  0.00044000  0.79359000  1.0
  C  C40  1  0.48289000  0.99956000  0.20642000  1.0
  C  C41  1  0.66525000  0.05371000  0.86728000  1.0
  C  C42  1  0.33476000  0.94629000  0.13273000  1.0
  C  C43  1  0.27742000  0.81847000  0.72692000  1.0
  C  C44  1  0.72258000  0.18153000  0.27307000  1.0
  C  C45  1  0.12661000  0.58508000  0.59636000  1.0
  C  C46  1  0.87339000  0.41493000  0.40361000  1.0
  C  C47  1  0.11195000  0.42873000  0.55199000  1.0
  C  C48  1  0.88804000  0.57127000  0.44799000  1.0
  C  C49  1  0.01348000  0.65697000  0.54392000  1.0
  C  C50  1  0.98652000  0.34303000  0.45605000  1.0
  C  C51  1  0.98118000  0.31621000  0.07995000  1.0
  C  C52  1  0.01880000  0.68379000  0.92006000  1.0
  C  C53  1  0.02696000  0.46723000  0.14745000  1.0
  C  C54  1  0.97303000  0.53276000  0.85257000  1.0
  C  C55  1  0.15276000  0.51201000  0.25221000  1.0
  C  C56  1  0.84724000  0.48798000  0.74780000  1.0
  C  C57  1  0.22216000  0.39951000  0.28790000  1.0
  C  C58  1  0.77785000  0.60049000  0.71211000  1.0
  C  C59  1  0.16692000  0.25027000  0.21783000  1.0
  C  C60  1  0.83307000  0.74972000  0.78216000  1.0
  C  C61  1  0.20365000  0.67516000  0.32309000  1.0
  C  C62  1  0.79636000  0.32483000  0.67692000  1.0
  C  C63  1  0.42531000  0.85150000  0.44182000  1.0
  C  C64  1  0.57470000  0.14849000  0.55820000  1.0
  C  C65  1  0.58301000  0.88254000  0.48598000  1.0
  C  C66  1  0.41700000  0.11746000  0.51403000  1.0
  C  C67  1  0.34170000  0.97019000  0.45635000  1.0
  C  C68  1  0.65831000  0.02981000  0.54367000  1.0
  C  C69  1  0.04673000  0.09008000  0.78507000  1.0
  C  C70  1  0.95327000  0.90993000  0.21493000  1.0
  S  S71  1  0.10155000  0.12270000  0.67460000  1.0
  S  S72  1  0.89845000  0.87732000  0.32542000  1.0
  N  N73  1  0.00517000  0.06584000  0.86615000  1.0
  N  N74  1  0.99482000  0.93416000  0.13387000  1.0
  N  N75  1  0.05107000  0.20768000  0.11239000  1.0
  N  N76  1  0.94891000  0.79232000  0.88760000  1.0
  N  N77  1  0.73571000  0.99632000  0.95399000  1.0
  N  N78  1  0.26430000  0.00367000  0.04601000  1.0
  O  O79  1  0.25539000  0.65817000  0.69029000  1.0
  O  O80  1  0.74461000  0.34183000  0.30968000  1.0
  O  O81  1  0.36213000  0.70283000  0.38399000  1.0
  O  O82  1  0.63787000  0.29717000  0.61601000  1.0
