# generated using pymatgen
data_Yb2MnH28(C8O9)2
_symmetry_space_group_name_H-M   'P 1'
_cell_length_a   8.79921000
_cell_length_b   9.19894000
_cell_length_c   10.53060000
_cell_angle_alpha   81.65490000
_cell_angle_beta   71.51260000
_cell_angle_gamma   77.72620000
_symmetry_Int_Tables_number   1
_chemical_formula_structural   Yb2MnH28(C8O9)2
_chemical_formula_sum   'Yb2 Mn1 H28 C16 O18'
_cell_volume   787.13325420
_cell_formula_units_Z   1
loop_
 _symmetry_equiv_pos_site_id
 _symmetry_equiv_pos_as_xyz
  1  'x, y, z'
loop_
 _atom_site_type_symbol
 _atom_site_label
 _atom_site_symmetry_multiplicity
 _atom_site_fract_x
 _atom_site_fract_y
 _atom_site_fract_z
 _atom_site_occupancy
  Yb  Yb0  1  0.90858000  0.07414000  0.68556000  1.0
  Yb  Yb1  1  0.09142000  0.92587000  0.31444000  1.0
  Mn  Mn2  1  0.99999000  0.99998000  0.00000000  1.0
  H  H3  1  0.82575000  0.35868000  0.05061000  1.0
  H  H4  1  0.17428000  0.64130000  0.94938000  1.0
  H  H5  1  0.62340000  0.39858000  0.03364000  1.0
  H  H6  1  0.37662000  0.60141000  0.96637000  1.0
  H  H7  1  0.77156000  0.50292000  0.93116000  1.0
  H  H8  1  0.22845000  0.49708000  0.06883000  1.0
  H  H9  1  0.73527000  0.72780000  0.07329000  1.0
  H  H10  1  0.26472000  0.27219000  0.92671000  1.0
  H  H11  1  0.58714000  0.73702000  0.98553000  1.0
  H  H12  1  0.41284000  0.26299000  0.01446000  1.0
  H  H13  1  0.56500000  0.87870000  0.08852000  1.0
  H  H14  1  0.43499000  0.12131000  0.91148000  1.0
  H  H15  1  0.48717000  0.87561000  0.56429000  1.0
  H  H16  1  0.51282000  0.12442000  0.43570000  1.0
  H  H17  1  0.46333000  0.74138000  0.70670000  1.0
  H  H18  1  0.53671000  0.25862000  0.29328000  1.0
  H  H19  1  0.52941000  0.90864000  0.71329000  1.0
  H  H20  1  0.47057000  0.09139000  0.28671000  1.0
  H  H21  1  0.10983000  0.47339000  0.37125000  1.0
  H  H22  1  0.89018000  0.52661000  0.62875000  1.0
  H  H23  1  0.08239000  0.35715000  0.25961000  1.0
  H  H24  1  0.91761000  0.64285000  0.74040000  1.0
  H  H25  1  0.26790000  0.32347000  0.29946000  1.0
  H  H26  1  0.73211000  0.67652000  0.70055000  1.0
  H  H27  1  0.75070000  0.11443000  0.47769000  1.0
  H  H28  1  0.24931000  0.88556000  0.52231000  1.0
  H  H29  1  0.67432000  0.25968000  0.56417000  1.0
  H  H30  1  0.32569000  0.74031000  0.43583000  1.0
  C  C31  1  0.80411000  0.28365000  0.87353000  1.0
  C  C32  1  0.19587000  0.71631000  0.12649000  1.0
  C  C33  1  0.27512000  0.93201000  0.73630000  1.0
  C  C34  1  0.72488000  0.06802000  0.26369000  1.0
  C  C35  1  0.75360000  0.39146000  0.98003000  1.0
  C  C36  1  0.24640000  0.60854000  0.01998000  1.0
  C  C37  1  0.07038000  0.25191000  0.45553000  1.0
  C  C38  1  0.92961000  0.74809000  0.54448000  1.0
  C  C39  1  0.75063000  0.89120000  0.90302000  1.0
  C  C40  1  0.24936000  0.10879000  0.09698000  1.0
  C  C41  1  0.65610000  0.80147000  0.01987000  1.0
  C  C42  1  0.34388000  0.19852000  0.98012000  1.0
  C  C43  1  0.45009000  0.86153000  0.67430000  1.0
  C  C44  1  0.54990000  0.13846000  0.32570000  1.0
  C  C45  1  0.13587000  0.36003000  0.34016000  1.0
  C  C46  1  0.86415000  0.63997000  0.65984000  1.0
  O  O47  1  0.23098000  0.95085000  0.86002000  1.0
  O  O48  1  0.76901000  0.04914000  0.13998000  1.0
  O  O49  1  0.18000000  0.96642000  0.66096000  1.0
  O  O50  1  0.81999000  0.03358000  0.33904000  1.0
  O  O51  1  0.01724000  0.28840000  0.57526000  1.0
  O  O52  1  0.98276000  0.71161000  0.42475000  1.0
  O  O53  1  0.90554000  0.88577000  0.88062000  1.0
  O  O54  1  0.09445000  0.11423000  0.11940000  1.0
  O  O55  1  0.68105000  0.97557000  0.82344000  1.0
  O  O56  1  0.31896000  0.02444000  0.17656000  1.0
  O  O57  1  0.93585000  0.18386000  0.86343000  1.0
  O  O58  1  0.06417000  0.81614000  0.13656000  1.0
  O  O59  1  0.71861000  0.15378000  0.56929000  1.0
  O  O60  1  0.28140000  0.84621000  0.43071000  1.0
  O  O61  1  0.72376000  0.28835000  0.79234000  1.0
  O  O62  1  0.27625000  0.71165000  0.20765000  1.0
  O  O63  1  0.06544000  0.11893000  0.43344000  1.0
  O  O64  1  0.93456000  0.88108000  0.56658000  1.0
