# generated using pymatgen
data_ZnH6C11(NO2)2
_symmetry_space_group_name_H-M   'P 1'
_cell_length_a   11.00960000
_cell_length_b   11.00960000
_cell_length_c   17.43720000
_cell_angle_alpha   71.88360000
_cell_angle_beta   71.88350000
_cell_angle_gamma   87.53410000
_symmetry_Int_Tables_number   1
_chemical_formula_structural   ZnH6C11(NO2)2
_chemical_formula_sum   'Zn4 H24 C44 N8 O16'
_cell_volume   1905.85185939
_cell_formula_units_Z   4
loop_
 _symmetry_equiv_pos_site_id
 _symmetry_equiv_pos_as_xyz
  1  'x, y, z'
loop_
 _atom_site_type_symbol
 _atom_site_label
 _atom_site_symmetry_multiplicity
 _atom_site_fract_x
 _atom_site_fract_y
 _atom_site_fract_z
 _atom_site_occupancy
  Zn  Zn0  1  0.99421000  0.09216000  0.65719000  1.0
  Zn  Zn1  1  0.90784000  0.00579000  0.84281000  1.0
  Zn  Zn2  1  0.00579000  0.90784000  0.34281000  1.0
  Zn  Zn3  1  0.09216000  0.99421000  0.15719000  1.0
  H  H4  1  0.93188000  0.29684000  0.49640000  1.0
  H  H5  1  0.70316000  0.06812000  0.00360000  1.0
  H  H6  1  0.06812000  0.70316000  0.50360000  1.0
  H  H7  1  0.29684000  0.93188000  0.99640000  1.0
  H  H8  1  0.20894000  0.02083000  0.50723000  1.0
  H  H9  1  0.97917000  0.79106000  0.99277000  1.0
  H  H10  1  0.79106000  0.97917000  0.49277000  1.0
  H  H11  1  0.02083000  0.20894000  0.00722000  1.0
  H  H12  1  0.24163000  0.15797000  0.33751000  1.0
  H  H13  1  0.84203000  0.75837000  0.16249000  1.0
  H  H14  1  0.75837000  0.84203000  0.66249000  1.0
  H  H15  1  0.15798000  0.24163000  0.83751000  1.0
  H  H16  1  0.07422000  0.50062000  0.37780000  1.0
  H  H17  1  0.49939000  0.92578000  0.12220000  1.0
  H  H18  1  0.92578000  0.49939000  0.62220000  1.0
  H  H19  1  0.50062000  0.07422000  0.87780000  1.0
  H  H20  1  0.05377000  0.62726000  0.12362000  1.0
  H  H21  1  0.37274000  0.94623000  0.37638000  1.0
  H  H22  1  0.94623000  0.37274000  0.87638000  1.0
  H  H23  1  0.62727000  0.05377000  0.62362000  1.0
  H  H24  1  0.05476000  0.39889000  0.12377000  1.0
  H  H25  1  0.60111000  0.94523000  0.37623000  1.0
  H  H26  1  0.94524000  0.60111000  0.87623000  1.0
  H  H27  1  0.39889000  0.05476000  0.62377000  1.0
  C  C28  1  0.01217000  0.24037000  0.47761000  1.0
  C  C29  1  0.75963000  0.98783000  0.02239000  1.0
  C  C30  1  0.98783000  0.75963000  0.52239000  1.0
  C  C31  1  0.24037000  0.01217000  0.97761000  1.0
  C  C32  1  0.15729000  0.09929000  0.47941000  1.0
  C  C33  1  0.90071000  0.84271000  0.02059000  1.0
  C  C34  1  0.84271000  0.90071000  0.52059000  1.0
  C  C35  1  0.09929000  0.15729000  0.97941000  1.0
  C  C36  1  0.17478000  0.16625000  0.39580000  1.0
  C  C37  1  0.83375000  0.82522000  0.10420000  1.0
  C  C38  1  0.82522000  0.83375000  0.60420000  1.0
  C  C39  1  0.16625000  0.17478000  0.89580000  1.0
  C  C40  1  0.06755000  0.35162000  0.32257000  1.0
  C  C41  1  0.64838000  0.93245000  0.17743000  1.0
  C  C42  1  0.93245000  0.64838000  0.67743000  1.0
  C  C43  1  0.35162000  0.06755000  0.82257000  1.0
  C  C44  1  0.06644000  0.47808000  0.32285000  1.0
  C  C45  1  0.52192000  0.93355000  0.17715000  1.0
  C  C46  1  0.93356000  0.52192000  0.67715000  1.0
  C  C47  1  0.47808000  0.06644000  0.82285000  1.0
  C  C48  1  0.05883000  0.57753000  0.25185000  1.0
  C  C49  1  0.42247000  0.94117000  0.24815000  1.0
  C  C50  1  0.94117000  0.42247000  0.74815000  1.0
  C  C51  1  0.57753000  0.05883000  0.75185000  1.0
  C  C52  1  0.05617000  0.54883000  0.17951000  1.0
  C  C53  1  0.45117000  0.94383000  0.32049000  1.0
  C  C54  1  0.94383000  0.45117000  0.82049000  1.0
  C  C55  1  0.54883000  0.05617000  0.67951000  1.0
  C  C56  1  0.05719000  0.42240000  0.17957000  1.0
  C  C57  1  0.57760000  0.94281000  0.32043000  1.0
  C  C58  1  0.94281000  0.57760000  0.82043000  1.0
  C  C59  1  0.42240000  0.05719000  0.67957000  1.0
  C  C60  1  0.06010000  0.32119000  0.25143000  1.0
  C  C61  1  0.67881000  0.93990000  0.24857000  1.0
  C  C62  1  0.93990000  0.67881000  0.74857000  1.0
  C  C63  1  0.32119000  0.06010000  0.75143000  1.0
  C  C64  1  0.05063000  0.18562000  0.25030000  1.0
  C  C65  1  0.81438000  0.94938000  0.24969000  1.0
  C  C66  1  0.94937000  0.81438000  0.74970000  1.0
  C  C67  1  0.18562000  0.05063000  0.75030000  1.0
  C  C68  1  0.05580000  0.71355000  0.25319000  1.0
  C  C69  1  0.28646000  0.94420000  0.24681000  1.0
  C  C70  1  0.94420000  0.28646000  0.74681000  1.0
  C  C71  1  0.71354000  0.05580000  0.75319000  1.0
  N  N72  1  0.05579000  0.14655000  0.52958000  1.0
  N  N73  1  0.85345000  0.94421000  0.97042000  1.0
  N  N74  1  0.94421000  0.85345000  0.47042000  1.0
  N  N75  1  0.14655000  0.05579000  0.02958000  1.0
  N  N76  1  0.08220000  0.25543000  0.39546000  1.0
  N  N77  1  0.74457000  0.91780000  0.10454000  1.0
  N  N78  1  0.91780000  0.74457000  0.60454000  1.0
  N  N79  1  0.25543000  0.08220000  0.89546000  1.0
  O  O80  1  0.98510000  0.10358000  0.31887000  1.0
  O  O81  1  0.89642000  0.01490000  0.18113000  1.0
  O  O82  1  0.01490000  0.89642000  0.68113000  1.0
  O  O83  1  0.10358000  0.98510000  0.81887000  1.0
  O  O84  1  0.10803000  0.16604000  0.18014000  1.0
  O  O85  1  0.83396000  0.89197000  0.31986000  1.0
  O  O86  1  0.89197000  0.83396000  0.81986000  1.0
  O  O87  1  0.16604000  0.10803000  0.68014000  1.0
  O  O88  1  0.05797000  0.79958000  0.18413000  1.0
  O  O89  1  0.20042000  0.94203000  0.31587000  1.0
  O  O90  1  0.94202000  0.20042000  0.81587000  1.0
  O  O91  1  0.79958000  0.05797000  0.68413000  1.0
  O  O92  1  0.04967000  0.73161000  0.32283000  1.0
  O  O93  1  0.26839000  0.95033000  0.17717000  1.0
  O  O94  1  0.95033000  0.26839000  0.67717000  1.0
  O  O95  1  0.73161000  0.04967000  0.82283000  1.0
