# generated using pymatgen
data_CdH18C20(N6O)2
_symmetry_space_group_name_H-M   'P 1'
_cell_length_a   7.50284000
_cell_length_b   8.22529000
_cell_length_c   9.67527000
_cell_angle_alpha   67.74850000
_cell_angle_beta   78.96180000
_cell_angle_gamma   64.28660000
_symmetry_Int_Tables_number   1
_chemical_formula_structural   CdH18C20(N6O)2
_chemical_formula_sum   'Cd1 H18 C20 N12 O2'
_cell_volume   497.63757261
_cell_formula_units_Z   1
loop_
 _symmetry_equiv_pos_site_id
 _symmetry_equiv_pos_as_xyz
  1  'x, y, z'
loop_
 _atom_site_type_symbol
 _atom_site_label
 _atom_site_symmetry_multiplicity
 _atom_site_fract_x
 _atom_site_fract_y
 _atom_site_fract_z
 _atom_site_occupancy
  Cd  Cd0  1  0.00000000  0.00000000  0.00000000  1.0
  H  H1  1  0.88314000  0.38607000  0.02828000  1.0
  H  H2  1  0.11687000  0.61393000  0.97172000  1.0
  H  H3  1  0.11395000  0.30675000  0.04038000  1.0
  H  H4  1  0.88605000  0.69325000  0.95962000  1.0
  H  H5  1  0.32428000  0.00557000  0.17065000  1.0
  H  H6  1  0.67572000  0.99443000  0.82934000  1.0
  H  H7  1  0.37288000  0.99737000  0.42020000  1.0
  H  H8  1  0.62711000  0.00263000  0.57980000  1.0
  H  H9  1  0.61639000  0.70896000  0.59033000  1.0
  H  H10  1  0.38360000  0.29104000  0.40967000  1.0
  H  H11  1  0.76955000  0.43235000  0.25789000  1.0
  H  H12  1  0.23046000  0.56765000  0.74211000  1.0
  H  H13  1  0.75876000  0.44425000  0.74196000  1.0
  H  H14  1  0.24123000  0.55575000  0.25804000  1.0
  H  H15  1  0.18170000  0.94747000  0.65694000  1.0
  H  H16  1  0.81830000  0.05253000  0.34305000  1.0
  H  H17  1  0.01023000  0.21739000  0.38802000  1.0
  H  H18  1  0.98977000  0.78262000  0.61198000  1.0
  C  C19  1  0.43305000  0.87911000  0.24446000  1.0
  C  C20  1  0.56695000  0.12089000  0.75554000  1.0
  C  C21  1  0.45964000  0.87334000  0.38489000  1.0
  C  C22  1  0.54036000  0.12666000  0.61511000  1.0
  C  C23  1  0.59833000  0.71182000  0.48031000  1.0
  C  C24  1  0.40166000  0.28819000  0.51969000  1.0
  C  C25  1  0.71175000  0.55318000  0.43410000  1.0
  C  C26  1  0.28825000  0.44683000  0.56590000  1.0
  C  C27  1  0.68732000  0.55695000  0.29339000  1.0
  C  C28  1  0.31268000  0.44305000  0.70661000  1.0
  C  C29  1  0.54779000  0.72091000  0.19792000  1.0
  C  C30  1  0.45221000  0.27909000  0.80208000  1.0
  C  C31  1  0.52338000  0.72230000  0.05131000  1.0
  C  C32  1  0.47662000  0.27769000  0.94869000  1.0
  C  C33  1  0.85254000  0.34419000  0.68397000  1.0
  C  C34  1  0.14746000  0.65581000  0.31603000  1.0
  C  C35  1  0.06616000  0.09025000  0.63302000  1.0
  C  C36  1  0.93383000  0.90976000  0.36697000  1.0
  C  C37  1  0.98303000  0.22269000  0.50055000  1.0
  C  C38  1  0.01697000  0.77731000  0.49945000  1.0
  N  N39  1  0.67307000  0.62623000  0.97267000  1.0
  N  N40  1  0.32694000  0.37377000  0.02733000  1.0
  N  N41  1  0.59290000  0.66094000  0.84537000  1.0
  N  N42  1  0.40710000  0.33905000  0.15463000  1.0
  N  N43  1  0.40432000  0.77149000  0.84663000  1.0
  N  N44  1  0.59569000  0.22851000  0.15337000  1.0
  N  N45  1  0.35528000  0.81471000  0.97423000  1.0
  N  N46  1  0.64472000  0.18529000  0.02577000  1.0
  N  N47  1  0.98374000  0.16754000  0.74623000  1.0
  N  N48  1  0.01626000  0.83246000  0.25377000  1.0
  N  N49  1  0.84660000  0.38410000  0.53383000  1.0
  N  N50  1  0.15340000  0.61590000  0.46617000  1.0
  O  O51  1  0.00320000  0.26524000  0.05894000  1.0
  O  O52  1  0.99680000  0.73476000  0.94106000  1.0
