# generated using pymatgen
data_SrCuH4(CO2)4
_symmetry_space_group_name_H-M   'P 1'
_cell_length_a   6.76386000
_cell_length_b   7.41353000
_cell_length_c   8.55028000
_cell_angle_alpha   90.00000000
_cell_angle_beta   89.99990000
_cell_angle_gamma   96.94680000
_symmetry_Int_Tables_number   1
_chemical_formula_structural   SrCuH4(CO2)4
_chemical_formula_sum   'Sr2 Cu2 H8 C8 O16'
_cell_volume   425.59844135
_cell_formula_units_Z   2
loop_
 _symmetry_equiv_pos_site_id
 _symmetry_equiv_pos_as_xyz
  1  'x, y, z'
loop_
 _atom_site_type_symbol
 _atom_site_label
 _atom_site_symmetry_multiplicity
 _atom_site_fract_x
 _atom_site_fract_y
 _atom_site_fract_z
 _atom_site_occupancy
  Sr  Sr0  1  0.25000000  0.00000000  0.13542000  1.0
  Sr  Sr1  1  0.75000000  0.00000000  0.86457000  1.0
  Cu  Cu2  1  0.25000000  0.50000000  0.40778000  1.0
  Cu  Cu3  1  0.75000000  0.50000000  0.59221000  1.0
  H  H4  1  0.92256000  0.44715000  0.16425000  1.0
  H  H5  1  0.57744000  0.55285000  0.16425000  1.0
  H  H6  1  0.07743000  0.55281000  0.83574000  1.0
  H  H7  1  0.42257000  0.44719000  0.83573000  1.0
  H  H8  1  0.77533000  0.15781000  0.44854000  1.0
  H  H9  1  0.72467000  0.84218000  0.44854000  1.0
  H  H10  1  0.22469000  0.84220000  0.55150000  1.0
  H  H11  1  0.27532000  0.15780000  0.55150000  1.0
  C  C12  1  0.00884000  0.33031000  0.15127000  1.0
  C  C13  1  0.49116000  0.66970000  0.15127000  1.0
  C  C14  1  0.99113000  0.66975000  0.84874000  1.0
  C  C15  1  0.50887000  0.33025000  0.84874000  1.0
  C  C16  1  0.63481000  0.19621000  0.39936000  1.0
  C  C17  1  0.86519000  0.80379000  0.39936000  1.0
  C  C18  1  0.36510000  0.80382000  0.60062000  1.0
  C  C19  1  0.13490000  0.19618000  0.60062000  1.0
  O  O20  1  0.15569000  0.32064000  0.24429000  1.0
  O  O21  1  0.34431000  0.67937000  0.24429000  1.0
  O  O22  1  0.84425000  0.67939000  0.75570000  1.0
  O  O23  1  0.65575000  0.32061000  0.75570000  1.0
  O  O24  1  0.96270000  0.21189000  0.04769000  1.0
  O  O25  1  0.53731000  0.78811000  0.04768000  1.0
  O  O26  1  0.03736000  0.78815000  0.95235000  1.0
  O  O27  1  0.46264000  0.21185000  0.95235000  1.0
  O  O28  1  0.52860000  0.08430000  0.31668000  1.0
  O  O29  1  0.97140000  0.91570000  0.31668000  1.0
  O  O30  1  0.47133000  0.91563000  0.68331000  1.0
  O  O31  1  0.02867000  0.08437000  0.68331000  1.0
  O  O32  1  0.59239000  0.35690000  0.43181000  1.0
  O  O33  1  0.90761000  0.64309000  0.43181000  1.0
  O  O34  1  0.40756000  0.64315000  0.56818000  1.0
  O  O35  1  0.09245000  0.35686000  0.56818000  1.0
