# generated using pymatgen
data_Dy2Cu3H30C24(NO4)6
_symmetry_space_group_name_H-M   'P 1'
_cell_length_a   13.38770000
_cell_length_b   13.38770000
_cell_length_c   14.33340000
_cell_angle_alpha   89.99990000
_cell_angle_beta   90.00010000
_cell_angle_gamma   60.00000000
_symmetry_Int_Tables_number   1
_chemical_formula_structural   Dy2Cu3H30C24(NO4)6
_chemical_formula_sum   'Dy4 Cu6 H60 C48 N12 O48'
_cell_volume   2224.80420258
_cell_formula_units_Z   2
loop_
 _symmetry_equiv_pos_site_id
 _symmetry_equiv_pos_as_xyz
  1  'x, y, z'
loop_
 _atom_site_type_symbol
 _atom_site_label
 _atom_site_symmetry_multiplicity
 _atom_site_fract_x
 _atom_site_fract_y
 _atom_site_fract_z
 _atom_site_occupancy
  Dy  Dy0  1  0.66666667  0.66666667  0.83165000  1.0
  Dy  Dy1  1  0.33333333  0.33333333  0.66834000  1.0
  Dy  Dy2  1  0.33333333  0.33333333  0.16835000  1.0
  Dy  Dy3  1  0.66666667  0.66666667  0.33166000  1.0
  Cu  Cu4  1  0.50000000  0.50000000  0.00000000  1.0
  Cu  Cu5  1  0.50000000  0.00000000  1.00000000  1.0
  Cu  Cu6  1  0.00000000  0.50000000  1.00000000  1.0
  Cu  Cu7  1  0.00000000  0.50000000  0.50000000  1.0
  Cu  Cu8  1  0.50000000  0.50000000  0.50000000  1.0
  Cu  Cu9  1  0.50000000  0.00000000  0.50000000  1.0
  H  H10  1  0.32331000  0.63959000  0.08367000  1.0
  H  H11  1  0.63959000  0.03710000  0.08367000  1.0
  H  H12  1  0.03710000  0.32331000  0.08367000  1.0
  H  H13  1  0.96289000  0.36042000  0.41633000  1.0
  H  H14  1  0.36041000  0.67670000  0.41633000  1.0
  H  H15  1  0.67669000  0.96289000  0.41633000  1.0
  H  H16  1  0.67669000  0.36041000  0.91633000  1.0
  H  H17  1  0.36041000  0.96290000  0.91633000  1.0
  H  H18  1  0.96290000  0.67669000  0.91633000  1.0
  H  H19  1  0.03711000  0.63958000  0.58367000  1.0
  H  H20  1  0.63959000  0.32330000  0.58367000  1.0
  H  H21  1  0.32331000  0.03710000  0.58367000  1.0
  H  H22  1  0.30495000  0.83148000  0.02613000  1.0
  H  H23  1  0.83149000  0.86357000  0.02613000  1.0
  H  H24  1  0.86356000  0.30495000  0.02613000  1.0
  H  H25  1  0.13643000  0.16851000  0.47387000  1.0
  H  H26  1  0.16851000  0.69506000  0.47387000  1.0
  H  H27  1  0.69506000  0.13643000  0.47387000  1.0
  H  H28  1  0.69506000  0.16851000  0.97387000  1.0
  H  H29  1  0.16851000  0.13643000  0.97387000  1.0
  H  H30  1  0.13643000  0.69506000  0.97387000  1.0
  H  H31  1  0.86357000  0.83149000  0.52613000  1.0
  H  H32  1  0.83149000  0.30494000  0.52613000  1.0
  H  H33  1  0.30495000  0.86356000  0.52613000  1.0
  H  H34  1  0.28695000  0.74005000  0.94569000  1.0
  H  H35  1  0.74005000  0.97300000  0.94568000  1.0
  H  H36  1  0.97300000  0.28695000  0.94568000  1.0
  H  H37  1  0.02700000  0.25995000  0.55432000  1.0
  H  H38  1  0.25995000  0.71305000  0.55431000  1.0
  H  H39  1  0.71305000  0.02700000  0.55431000  1.0
  H  H40  1  0.71305000  0.25995000  0.05431000  1.0
  H  H41  1  0.25995000  0.02700000  0.05431000  1.0
  H  H42  1  0.02700000  0.71305000  0.05431000  1.0
  H  H43  1  0.97300000  0.74005000  0.44569000  1.0
  H  H44  1  0.74005000  0.28695000  0.44569000  1.0
  H  H45  1  0.28695000  0.97300000  0.44569000  1.0
  H  H46  1  0.39605000  0.68868000  0.20606000  1.0
  H  H47  1  0.68868000  0.91527000  0.20606000  1.0
  H  H48  1  0.91527000  0.39605000  0.20606000  1.0
  H  H49  1  0.08472000  0.31133000  0.29394000  1.0
  H  H50  1  0.31132000  0.60395000  0.29394000  1.0
  H  H51  1  0.60395000  0.08473000  0.29394000  1.0
  H  H52  1  0.60395000  0.31132000  0.79394000  1.0
  H  H53  1  0.31132000  0.08473000  0.79394000  1.0
  H  H54  1  0.08473000  0.60395000  0.79394000  1.0
  H  H55  1  0.91528000  0.68867000  0.70606000  1.0
  H  H56  1  0.68868000  0.39605000  0.70606000  1.0
  H  H57  1  0.39605000  0.91527000  0.70606000  1.0
  H  H58  1  0.46271000  0.74128000  0.13155000  1.0
  H  H59  1  0.74127000  0.79601000  0.13155000  1.0
  H  H60  1  0.79601000  0.46271000  0.13154000  1.0
  H  H61  1  0.20399000  0.25872000  0.36846000  1.0
  H  H62  1  0.25873000  0.53728000  0.36845000  1.0
  H  H63  1  0.53728000  0.20399000  0.36846000  1.0
  H  H64  1  0.53729000  0.25872000  0.86845000  1.0
  H  H65  1  0.25873000  0.20398000  0.86845000  1.0
  H  H66  1  0.20399000  0.53729000  0.86845000  1.0
  H  H67  1  0.79601000  0.74127000  0.63155000  1.0
  H  H68  1  0.74127000  0.46272000  0.63154000  1.0
  H  H69  1  0.46272000  0.79601000  0.63154000  1.0
  C  C70  1  0.44571000  0.73818000  0.93075000  1.0
  C  C71  1  0.73818000  0.81611000  0.93075000  1.0
  C  C72  1  0.81611000  0.44572000  0.93075000  1.0
  C  C73  1  0.18389000  0.26182000  0.56925000  1.0
  C  C74  1  0.26182000  0.55429000  0.56925000  1.0
  C  C75  1  0.55429000  0.18389000  0.56925000  1.0
  C  C76  1  0.55429000  0.26182000  0.06925000  1.0
  C  C77  1  0.26182000  0.18389000  0.06925000  1.0
  C  C78  1  0.18389000  0.55429000  0.06925000  1.0
  C  C79  1  0.81611000  0.73818000  0.43075000  1.0
  C  C80  1  0.73818000  0.44571000  0.43075000  1.0
  C  C81  1  0.44571000  0.81611000  0.43075000  1.0
  C  C82  1  0.34883000  0.74599000  0.99245000  1.0
  C  C83  1  0.74599000  0.90518000  0.99245000  1.0
  C  C84  1  0.90518000  0.34884000  0.99245000  1.0
  C  C85  1  0.09482000  0.25401000  0.50755000  1.0
  C  C86  1  0.25401000  0.65117000  0.50755000  1.0
  C  C87  1  0.65117000  0.09482000  0.50755000  1.0
  C  C88  1  0.65117000  0.25401000  0.00755000  1.0
  C  C89  1  0.25401000  0.09482000  0.00754000  1.0
  C  C90  1  0.09482000  0.65117000  0.00755000  1.0
  C  C91  1  0.90518000  0.74599000  0.49245000  1.0
  C  C92  1  0.74599000  0.34883000  0.49245000  1.0
  C  C93  1  0.34883000  0.90518000  0.49245000  1.0
  C  C94  1  0.56584000  0.56242000  0.16123000  1.0
  C  C95  1  0.56242000  0.87174000  0.16123000  1.0
  C  C96  1  0.87173000  0.56584000  0.16123000  1.0
  C  C97  1  0.12826000  0.43758000  0.33878000  1.0
  C  C98  1  0.43759000  0.43415000  0.33878000  1.0
  C  C99  1  0.43416000  0.12825000  0.33878000  1.0
  C  C100  1  0.43416000  0.43758000  0.83878000  1.0
  C  C101  1  0.43758000  0.12826000  0.83877000  1.0
  C  C102  1  0.12826000  0.43417000  0.83877000  1.0
  C  C103  1  0.87174000  0.56242000  0.66122000  1.0
  C  C104  1  0.56241000  0.56585000  0.66122000  1.0
  C  C105  1  0.56585000  0.87174000  0.66122000  1.0
  C  C106  1  0.44867000  0.66796000  0.14243000  1.0
  C  C107  1  0.66796000  0.88337000  0.14243000  1.0
  C  C108  1  0.88337000  0.44867000  0.14243000  1.0
  C  C109  1  0.11663000  0.33204000  0.35757000  1.0
  C  C110  1  0.33204000  0.55133000  0.35757000  1.0
  C  C111  1  0.55133000  0.11663000  0.35757000  1.0
  C  C112  1  0.55133000  0.33204000  0.85757000  1.0
  C  C113  1  0.33204000  0.11663000  0.85757000  1.0
  C  C114  1  0.11663000  0.55133000  0.85757000  1.0
  C  C115  1  0.88337000  0.66796000  0.64243000  1.0
  C  C116  1  0.66796000  0.44867000  0.64243000  1.0
  C  C117  1  0.44867000  0.88337000  0.64243000  1.0
  N  N118  1  0.38990000  0.65246000  0.06130000  1.0
  N  N119  1  0.65246000  0.95764000  0.06130000  1.0
  N  N120  1  0.95764000  0.38990000  0.06130000  1.0
  N  N121  1  0.04236000  0.34754000  0.43870000  1.0
  N  N122  1  0.34754000  0.61010000  0.43870000  1.0
  N  N123  1  0.61010000  0.04236000  0.43870000  1.0
  N  N124  1  0.61010000  0.34754000  0.93870000  1.0
  N  N125  1  0.34754000  0.04236000  0.93870000  1.0
  N  N126  1  0.04236000  0.61010000  0.93870000  1.0
  N  N127  1  0.95764000  0.65246000  0.56130000  1.0
  N  N128  1  0.65246000  0.38990000  0.56130000  1.0
  N  N129  1  0.38990000  0.95764000  0.56130000  1.0
  O  O130  1  0.54493000  0.64698000  0.93765000  1.0
  O  O131  1  0.64698000  0.80809000  0.93766000  1.0
  O  O132  1  0.80808000  0.54494000  0.93766000  1.0
  O  O133  1  0.19192000  0.35301000  0.56235000  1.0
  O  O134  1  0.35302000  0.45507000  0.56234000  1.0
  O  O135  1  0.45507000  0.19191000  0.56235000  1.0
  O  O136  1  0.45506000  0.35302000  0.06234000  1.0
  O  O137  1  0.35302000  0.19191000  0.06235000  1.0
  O  O138  1  0.19192000  0.45507000  0.06235000  1.0
  O  O139  1  0.80809000  0.64698000  0.43765000  1.0
  O  O140  1  0.64698000  0.54493000  0.43766000  1.0
  O  O141  1  0.54493000  0.80809000  0.43766000  1.0
  O  O142  1  0.42454000  0.81937000  0.87506000  1.0
  O  O143  1  0.81937000  0.75609000  0.87507000  1.0
  O  O144  1  0.75608000  0.42455000  0.87506000  1.0
  O  O145  1  0.24391000  0.18063000  0.62493000  1.0
  O  O146  1  0.18063000  0.57546000  0.62493000  1.0
  O  O147  1  0.57546000  0.24391000  0.62493000  1.0
  O  O148  1  0.57546000  0.18063000  0.12494000  1.0
  O  O149  1  0.18063000  0.24391000  0.12493000  1.0
  O  O150  1  0.24391000  0.57546000  0.12494000  1.0
  O  O151  1  0.75609000  0.81937000  0.37507000  1.0
  O  O152  1  0.81937000  0.42454000  0.37507000  1.0
  O  O153  1  0.42454000  0.75609000  0.37507000  1.0
  O  O154  1  0.62338000  0.56393000  0.23040000  1.0
  O  O155  1  0.56393000  0.81269000  0.23040000  1.0
  O  O156  1  0.81269000  0.62337000  0.23040000  1.0
  O  O157  1  0.18731000  0.43607000  0.26960000  1.0
  O  O158  1  0.43606000  0.37663000  0.26961000  1.0
  O  O159  1  0.37662000  0.18732000  0.26960000  1.0
  O  O160  1  0.37662000  0.43606000  0.76959000  1.0
  O  O161  1  0.43606000  0.18732000  0.76959000  1.0
  O  O162  1  0.18731000  0.37662000  0.76959000  1.0
  O  O163  1  0.81269000  0.56393000  0.73040000  1.0
  O  O164  1  0.56394000  0.62338000  0.73039000  1.0
  O  O165  1  0.62338000  0.81269000  0.73040000  1.0
  O  O166  1  0.60323000  0.47624000  0.10595000  1.0
  O  O167  1  0.47624000  0.92054000  0.10596000  1.0
  O  O168  1  0.92053000  0.60323000  0.10595000  1.0
  O  O169  1  0.07948000  0.52375000  0.39405000  1.0
  O  O170  1  0.52375000  0.39678000  0.39404000  1.0
  O  O171  1  0.39678000  0.07947000  0.39405000  1.0
  O  O172  1  0.39677000  0.52376000  0.89405000  1.0
  O  O173  1  0.52376000  0.07946000  0.89404000  1.0
  O  O174  1  0.07947000  0.39677000  0.89405000  1.0
  O  O175  1  0.92052000  0.47625000  0.60595000  1.0
  O  O176  1  0.47625000  0.60322000  0.60596000  1.0
  O  O177  1  0.60322000  0.92053000  0.60596000  1.0
