# generated using pymatgen
data_ZnH30C18S4(NO4)2
_symmetry_space_group_name_H-M   'P 1'
_cell_length_a   8.11547000
_cell_length_b   8.77706000
_cell_length_c   10.04000000
_cell_angle_alpha   94.08710000
_cell_angle_beta   110.77300000
_cell_angle_gamma   107.97900000
_symmetry_Int_Tables_number   1
_chemical_formula_structural   ZnH30C18S4(NO4)2
_chemical_formula_sum   'Zn1 H30 C18 S4 N2 O8'
_cell_volume   622.73439401
_cell_formula_units_Z   1
loop_
 _symmetry_equiv_pos_site_id
 _symmetry_equiv_pos_as_xyz
  1  'x, y, z'
loop_
 _atom_site_type_symbol
 _atom_site_label
 _atom_site_symmetry_multiplicity
 _atom_site_fract_x
 _atom_site_fract_y
 _atom_site_fract_z
 _atom_site_occupancy
  Zn  Zn0  1  0.00000000  0.00000000  0.00000000  1.0
  H  H1  1  0.04200000  0.61990000  0.43073000  1.0
  H  H2  1  0.95801000  0.38010000  0.56927000  1.0
  H  H3  1  0.12384000  0.59589000  0.29032000  1.0
  H  H4  1  0.87616000  0.40410000  0.70968000  1.0
  H  H5  1  0.32608000  0.89785000  0.36380000  1.0
  H  H6  1  0.67392000  0.10215000  0.63620000  1.0
  H  H7  1  0.38845000  0.80080000  0.51388000  1.0
  H  H8  1  0.61155000  0.19919000  0.48612000  1.0
  H  H9  1  0.24533000  0.92147000  0.50399000  1.0
  H  H10  1  0.75467000  0.07853000  0.49601000  1.0
  H  H11  1  0.54789000  0.84587000  0.09141000  1.0
  H  H12  1  0.45211000  0.15413000  0.90859000  1.0
  H  H13  1  0.40922000  0.62920000  0.04178000  1.0
  H  H14  1  0.59079000  0.37080000  0.95821000  1.0
  H  H15  1  0.39142000  0.75889000  0.17943000  1.0
  H  H16  1  0.60858000  0.24111000  0.82057000  1.0
  H  H17  1  0.20200000  0.82749000  0.71103000  1.0
  H  H18  1  0.79800000  0.17251000  0.28897000  1.0
  H  H19  1  0.28202000  0.66014000  0.75849000  1.0
  H  H20  1  0.71798000  0.33986000  0.24151000  1.0
  H  H21  1  0.44338000  0.87021000  0.83382000  1.0
  H  H22  1  0.55662000  0.12979000  0.16618000  1.0
  H  H23  1  0.05743000  0.07555000  0.31828000  1.0
  H  H24  1  0.94257000  0.92444000  0.68171000  1.0
  H  H25  1  0.26696000  0.28219000  0.53981000  1.0
  H  H26  1  0.73304000  0.71781000  0.46019000  1.0
  H  H27  1  0.55364000  0.54098000  0.28362000  1.0
  H  H28  1  0.44636000  0.45903000  0.71638000  1.0
  H  H29  1  0.32506000  0.32494000  0.07260000  1.0
  H  H30  1  0.67494000  0.67506000  0.92740000  1.0
  C  C31  1  0.09912000  0.68385000  0.35755000  1.0
  C  C32  1  0.90088000  0.31615000  0.64245000  1.0
  C  C33  1  0.27505000  0.83478000  0.43987000  1.0
  C  C34  1  0.72495000  0.16522000  0.56013000  1.0
  C  C35  1  0.41440000  0.75197000  0.07829000  1.0
  C  C36  1  0.58560000  0.24803000  0.92171000  1.0
  C  C37  1  0.29675000  0.78599000  0.79572000  1.0
  C  C38  1  0.70325000  0.21401000  0.20428000  1.0
  C  C39  1  0.16879000  0.18197000  0.31519000  1.0
  C  C40  1  0.83120000  0.81803000  0.68481000  1.0
  C  C41  1  0.28889000  0.30082000  0.44020000  1.0
  C  C42  1  0.71111000  0.69918000  0.55980000  1.0
  C  C43  1  0.43295000  0.43592000  0.43455000  1.0
  C  C44  1  0.56705000  0.56408000  0.56545000  1.0
  C  C45  1  0.44493000  0.44319000  0.29890000  1.0
  C  C46  1  0.55507000  0.55682000  0.70110000  1.0
  C  C47  1  0.31852000  0.31978000  0.17874000  1.0
  C  C48  1  0.68148000  0.68023000  0.82126000  1.0
  S  S49  1  0.91073000  0.73565000  0.23410000  1.0
  S  S50  1  0.08926000  0.26435000  0.76590000  1.0
  S  S51  1  0.22004000  0.78290000  0.94294000  1.0
  S  S52  1  0.77996000  0.21710000  0.05706000  1.0
  N  N53  1  0.18266000  0.19009000  0.18580000  1.0
  N  N54  1  0.81734000  0.80991000  0.81420000  1.0
  O  O55  1  0.99287000  0.81733000  0.13570000  1.0
  O  O56  1  0.00713000  0.18267000  0.86430000  1.0
  O  O57  1  0.75309000  0.58053000  0.15770000  1.0
  O  O58  1  0.24691000  0.41947000  0.84230000  1.0
  O  O59  1  0.86631000  0.84535000  0.32214000  1.0
  O  O60  1  0.13369000  0.15465000  0.67786000  1.0
  O  O61  1  0.24337000  0.96182000  0.99023000  1.0
  O  O62  1  0.75662000  0.03818000  0.00977000  1.0
