# generated using pymatgen
data_Zn2H21C24N9O8
_symmetry_space_group_name_H-M   'P 1'
_cell_length_a   10.03600000
_cell_length_b   10.92360000
_cell_length_c   13.98540000
_cell_angle_alpha   90.10120000
_cell_angle_beta   98.67130000
_cell_angle_gamma   90.97030000
_symmetry_Int_Tables_number   1
_chemical_formula_structural   Zn2H21C24N9O8
_chemical_formula_sum   'Zn2 H21 C24 N9 O8'
_cell_volume   1515.45180254
_cell_formula_units_Z   1
loop_
 _symmetry_equiv_pos_site_id
 _symmetry_equiv_pos_as_xyz
  1  'x, y, z'
loop_
 _atom_site_type_symbol
 _atom_site_label
 _atom_site_symmetry_multiplicity
 _atom_site_fract_x
 _atom_site_fract_y
 _atom_site_fract_z
 _atom_site_occupancy
  Zn  Zn0  1  0.64302000  0.48719000  0.50363000  1.0
  Zn  Zn1  1  0.34314000  0.48082000  0.49605000  1.0
  H  H2  1  0.17473000  0.58335000  0.70310000  1.0
  H  H3  1  0.34819000  0.49869000  0.96587000  1.0
  H  H4  1  0.29977000  0.09115000  0.40268000  1.0
  H  H5  1  0.30048000  0.86402000  0.40829000  1.0
  H  H6  1  0.81635000  0.87330000  0.59144000  1.0
  H  H7  1  0.73328000  0.11622000  0.67164000  1.0
  H  H8  1  0.82148000  0.10120000  0.57053000  1.0
  H  H9  1  0.76745000  0.53685000  0.00260000  1.0
  H  H10  1  0.69002000  0.54025000  0.10599000  1.0
  H  H11  1  0.71716000  0.45935000  0.32618000  1.0
  H  H12  1  0.84125000  0.37419000  0.28336000  1.0
  H  H13  1  0.83075000  0.66205000  0.66212000  1.0
  H  H14  1  0.92719000  0.66389000  0.76882000  1.0
  H  H15  1  0.80326000  0.42768000  0.73513000  1.0
  H  H16  1  0.94551000  0.35006000  0.74975000  1.0
  H  H17  1  0.14935000  0.31321000  0.70997000  1.0
  H  H18  1  0.18376000  0.40213000  0.80737000  1.0
  H  H19  1  0.69082000  0.79210000  0.71318000  1.0
  H  H20  1  0.64450000  0.92919000  0.73807000  1.0
  H  H21  1  0.01922000  0.46028000  0.26679000  1.0
  H  H22  1  0.18637000  0.44212000  0.31922000  1.0
  C  C23  1  0.49477000  0.25163000  0.48740000  1.0
  C  C24  1  0.54445000  0.49655000  0.78951000  1.0
  C  C25  1  0.60393000  0.05103000  0.53676000  1.0
  C  C26  1  0.49684000  0.11534000  0.48696000  1.0
  C  C27  1  0.38671000  0.04421000  0.44128000  1.0
  C  C28  1  0.38654000  0.91659000  0.44498000  1.0
  C  C29  1  0.49501000  0.85211000  0.49656000  1.0
  C  C30  1  0.60198000  0.92365000  0.54266000  1.0
  C  C31  1  0.73201000  0.92124000  0.61577000  1.0
  C  C32  1  0.73682000  0.06530000  0.60420000  1.0
  C  C33  1  0.07921000  0.47792000  0.57527000  1.0
  C  C34  1  0.52718000  0.48594000  0.68523000  1.0
  C  C35  1  0.04520000  0.45202000  0.41226000  1.0
  C  C36  1  0.89993000  0.45643000  0.41367000  1.0
  C  C37  1  0.94345000  0.48780000  0.57580000  1.0
  C  C38  1  0.95790000  0.51697000  0.68458000  1.0
  C  C39  1  0.11895000  0.49721000  0.68322000  1.0
  C  C40  1  0.49330000  0.71602000  0.50103000  1.0
  C  C41  1  0.45804000  0.49697000  0.30685000  1.0
  C  C42  1  0.44672000  0.50330000  0.20393000  1.0
  C  C43  1  0.44169000  0.50611000  0.01651000  1.0
  C  C44  1  0.56164000  0.51200000  0.97875000  1.0
  C  C45  1  0.55687000  0.50453000  0.87726000  1.0
  C  C46  1  0.44021000  0.50531000  0.11563000  1.0
  N  N47  1  0.13582000  0.46497000  0.49367000  1.0
  N  N48  1  0.84905000  0.47997000  0.49553000  1.0
  N  N49  1  0.68553000  0.51927000  0.03481000  1.0
  N  N50  1  0.81840000  0.44296000  0.32678000  1.0
  N  N51  1  0.92511000  0.64406000  0.69721000  1.0
  N  N52  1  0.90613000  0.43547000  0.75222000  1.0
  N  N53  1  0.18694000  0.39650000  0.73496000  1.0
  N  N54  1  0.72070000  0.88218000  0.71426000  1.0
  N  N55  1  0.08501000  0.43381000  0.32505000  1.0
  O  O56  1  0.60326000  0.30730000  0.47436000  1.0
  O  O57  1  0.38571000  0.30066000  0.50279000  1.0
  O  O58  1  0.62975000  0.45055000  0.64904000  1.0
  O  O59  1  0.41280000  0.51335000  0.64023000  1.0
  O  O60  1  0.60557000  0.66482000  0.53242000  1.0
  O  O61  1  0.38146000  0.66082000  0.47310000  1.0
  O  O62  1  0.57331000  0.52482000  0.35545000  1.0
  O  O63  1  0.35488000  0.46340000  0.34392000  1.0
