# generated using pymatgen
data_Zn6H82C73O35
_symmetry_space_group_name_H-M   'P 1'
_cell_length_a   18.57620000
_cell_length_b   18.74650000
_cell_length_c   18.89360000
_cell_angle_alpha   109.06400000
_cell_angle_beta   109.51600000
_cell_angle_gamma   109.16800000
_symmetry_Int_Tables_number   1
_chemical_formula_structural   Zn6H82C73O35
_chemical_formula_sum   'Zn6 H82 C73 O35'
_cell_volume   5106.00800591
_cell_formula_units_Z   1
loop_
 _symmetry_equiv_pos_site_id
 _symmetry_equiv_pos_as_xyz
  1  'x, y, z'
loop_
 _atom_site_type_symbol
 _atom_site_label
 _atom_site_symmetry_multiplicity
 _atom_site_fract_x
 _atom_site_fract_y
 _atom_site_fract_z
 _atom_site_occupancy
  Zn  Zn0  1  0.00221000  0.06482000  0.56522000  1.0
  Zn  Zn1  1  0.00413000  0.93937000  0.44536000  1.0
  Zn  Zn2  1  0.43835000  0.93505000  0.99882000  1.0
  Zn  Zn3  1  0.56442000  0.06712000  0.00992000  1.0
  Zn  Zn4  1  0.41838000  0.48939000  0.42745000  1.0
  Zn  Zn5  1  0.54885000  0.49461000  0.55115000  1.0
  H  H6  1  0.74848000  0.68017000  0.53595000  1.0
  H  H7  1  0.55233000  0.32173000  0.35030000  1.0
  H  H8  1  0.36180000  0.24612000  0.21179000  1.0
  H  H9  1  0.56040000  0.23034000  0.22481000  1.0
  H  H10  1  0.37807000  0.09641000  0.17709000  1.0
  H  H11  1  0.59423000  0.77487000  0.70630000  1.0
  H  H12  1  0.56278000  0.89020000  0.79151000  1.0
  H  H13  1  0.61088000  0.09179000  0.23083000  1.0
  H  H14  1  0.58731000  0.11079000  0.35414000  1.0
  H  H15  1  0.56379000  0.03024000  0.50222000  1.0
  H  H16  1  0.53030000  0.03684000  0.40580000  1.0
  H  H17  1  0.75891000  0.71583000  0.35995000  1.0
  H  H18  1  0.65459000  0.19068000  0.58997000  1.0
  H  H19  1  0.62209000  0.20072000  0.49626000  1.0
  H  H20  1  0.46382000  0.13058000  0.46154000  1.0
  H  H21  1  0.53101000  0.22430000  0.56526000  1.0
  H  H22  1  0.49577000  0.11962000  0.55535000  1.0
  H  H23  1  0.89139000  0.90036000  0.69608000  1.0
  H  H24  1  0.95513000  0.91168000  0.64415000  1.0
  H  H25  1  0.87388000  0.75424000  0.66666667  1.0
  H  H26  1  0.93149000  0.76025000  0.60880000  1.0
  H  H27  1  0.06786000  0.88753000  0.74390000  1.0
  H  H28  1  0.36081000  0.07650000  0.80487000  1.0
  H  H29  1  0.03007000  0.79726000  0.76004000  1.0
  H  H30  1  0.01010000  0.88362000  0.80237000  1.0
  H  H31  1  0.15097000  0.00625000  0.88946000  1.0
  H  H32  1  0.19783000  0.12088000  0.95657000  1.0
  H  H33  1  0.21840000  0.05598000  0.00374000  1.0
  H  H34  1  0.09729000  0.18663000  0.43215000  1.0
  H  H35  1  0.00247000  0.18186000  0.36049000  1.0
  H  H36  1  0.13889000  0.14940000  0.31841000  1.0
  H  H37  1  0.04084000  0.13415000  0.24223000  1.0
  H  H38  1  0.08725000  0.29198000  0.32678000  1.0
  H  H39  1  0.19134000  0.11908000  0.82946000  1.0
  H  H40  1  0.16469000  0.27907000  0.29598000  1.0
  H  H41  1  0.18774000  0.30993000  0.40305000  1.0
  H  H42  1  0.32549000  0.58217000  0.67950000  1.0
  H  H43  1  0.35107000  0.53219000  0.60049000  1.0
  H  H44  1  0.21389000  0.59113000  0.56422000  1.0
  H  H45  1  0.23550000  0.53071000  0.48807000  1.0
  H  H46  1  0.18839000  0.40792000  0.52314000  1.0
  H  H47  1  0.10254000  0.43032000  0.48269000  1.0
  H  H48  1  0.16250000  0.46869000  0.59490000  1.0
  H  H49  1  0.57164000  0.73995000  0.91147000  1.0
  H  H50  1  0.20404000  0.98209000  0.69726000  1.0
  H  H51  1  0.46737000  0.65086000  0.87422000  1.0
  H  H52  1  0.49696000  0.75927000  0.94540000  1.0
  H  H53  1  0.02034000  0.87303000  0.14683000  1.0
  H  H54  1  0.90455000  0.83169000  0.10001000  1.0
  H  H55  1  0.03380000  0.90461000  0.29032000  1.0
  H  H56  1  0.92015000  0.86876000  0.24721000  1.0
  H  H57  1  0.88507000  0.71775000  0.15039000  1.0
  H  H58  1  0.95105000  0.75127000  0.26014000  1.0
  H  H59  1  0.99886000  0.75242000  0.19320000  1.0
  H  H60  1  0.95430000  0.91996000  0.03219000  1.0
  H  H61  1  0.40155000  0.22297000  0.49684000  1.0
  H  H62  1  0.93980000  0.01203000  0.04353000  1.0
  H  H63  1  0.87636000  0.91502000  0.94073000  1.0
  H  H64  1  0.68302000  0.99913000  0.94791000  1.0
  H  H65  1  0.75914000  0.96096000  0.94771000  1.0
  H  H66  1  0.80000000  0.13015000  0.09173000  1.0
  H  H67  1  0.87664000  0.09487000  0.08918000  1.0
  H  H68  1  0.85681000  0.10246000  0.95282000  1.0
  H  H69  1  0.89301000  0.20419000  0.03939000  1.0
  H  H70  1  0.78152000  0.14031000  0.95684000  1.0
  H  H71  1  0.72688000  0.88718000  0.42187000  1.0
  H  H72  1  0.27818000  0.29803000  0.50587000  1.0
  H  H73  1  0.64687000  0.92168000  0.40953000  1.0
  H  H74  1  0.79567000  0.96792000  0.57972000  1.0
  H  H75  1  0.72432000  0.01249000  0.57167000  1.0
  H  H76  1  0.59417000  0.86179000  0.49622000  1.0
  H  H77  1  0.67160000  0.88683000  0.59885000  1.0
  H  H78  1  0.66583000  0.81741000  0.50500000  1.0
  H  H79  1  0.53546000  0.55505000  0.20592000  1.0
  H  H80  1  0.64967000  0.61838000  0.24858000  1.0
  H  H81  1  0.52790000  0.68860000  0.27742000  1.0
  H  H82  1  0.64100000  0.75325000  0.31806000  1.0
  H  H83  1  0.25731000  0.08317000  0.43352000  1.0
  H  H84  1  0.61685000  0.70111000  0.16610000  1.0
  H  H85  1  0.55376000  0.75138000  0.18274000  1.0
  H  H86  1  0.50275000  0.63664000  0.12472000  1.0
  H  H87  1  0.23941000  0.21557000  0.56480000  1.0
  C  C88  1  0.88736000  0.86433000  0.48581000  1.0
  C  C89  1  0.73887000  0.04318000  0.40277000  1.0
  C  C90  1  0.67973000  0.65705000  0.41043000  1.0
  C  C91  1  0.89918000  0.03250000  0.40900000  1.0
  C  C92  1  0.68465000  0.64394000  0.47865000  1.0
  C  C93  1  0.75502000  0.72282000  0.41782000  1.0
  C  C94  1  0.82082000  0.79742000  0.49118000  1.0
  C  C95  1  0.28624000  0.07320000  0.86839000  1.0
  C  C96  1  0.35191000  0.06629000  0.85549000  1.0
  C  C97  1  0.21699000  0.07717000  0.80646000  1.0
  C  C98  1  0.18234000  0.02760000  0.72115000  1.0
  C  C99  1  0.84676000  0.02305000  0.26417000  1.0
  C  C100  1  0.34384000  0.22482000  0.49807000  1.0
  C  C101  1  0.33906000  0.29814000  0.51337000  1.0
  C  C102  1  0.27140000  0.14658000  0.47878000  1.0
  C  C103  1  0.14119000  0.08241000  0.49826000  1.0
  C  C104  1  0.22176000  0.15225000  0.51623000  1.0
  C  C105  1  0.45430000  0.06712000  0.11536000  1.0
  C  C106  1  0.64500000  0.02542000  0.12009000  1.0
  C  C107  1  0.48920000  0.87274000  0.88707000  1.0
  C  C108  1  0.41610000  0.05044000  0.90970000  1.0
  C  C109  1  0.42875000  0.35747000  0.34303000  1.0
  C  C110  1  0.71453000  0.03010000  0.19393000  1.0
  C  C111  1  0.61566000  0.58577000  0.48450000  1.0
  C  C112  1  0.46826000  0.61439000  0.58255000  1.0
  C  C113  1  0.40554000  0.37789000  0.52609000  1.0
  C  C114  1  0.49279000  0.27415000  0.28815000  1.0
  C  C115  1  0.11304000  0.02646000  0.65277000  1.0
  C  C116  1  0.42198000  0.28495000  0.27398000  1.0
  C  C117  1  0.49920000  0.20947000  0.22708000  1.0
  C  C118  1  0.43837000  0.12501000  0.17515000  1.0
  C  C119  1  0.53437000  0.75856000  0.71074000  1.0
  C  C120  1  0.46309000  0.68040000  0.64899000  1.0
  C  C121  1  0.71001000  0.05405000  0.27077000  1.0
  C  C122  1  0.53279000  0.82292000  0.77740000  1.0
  C  C123  1  0.49675000  0.80564000  0.82562000  1.0
  C  C124  1  0.92275000  0.02176000  0.26200000  1.0
  C  C125  1  0.91765000  0.97856000  0.18385000  1.0
  C  C126  1  0.84348000  0.95127000  0.10500000  1.0
  C  C127  1  0.77883000  0.97212000  0.10741000  1.0
  C  C128  1  0.77784000  0.00738000  0.18662000  1.0
  C  C129  1  0.58350000  0.06964000  0.47285000  1.0
  C  C130  1  0.60021000  0.16066000  0.52425000  1.0
  C  C131  1  0.51824000  0.15873000  0.52678000  1.0
  C  C132  1  0.76454000  0.04576000  0.33954000  1.0
  C  C133  1  0.90304000  0.86439000  0.64617000  1.0
  C  C134  1  0.92694000  0.79921000  0.66348000  1.0
  C  C135  1  0.01357000  0.84440000  0.74703000  1.0
  C  C136  1  0.20843000  0.06484000  0.94735000  1.0
  C  C137  1  0.04831000  0.15598000  0.36397000  1.0
  C  C138  1  0.09119000  0.17286000  0.31083000  1.0
  C  C139  1  0.13495000  0.26854000  0.33562000  1.0
  C  C140  1  0.32500000  0.57578000  0.61927000  1.0
  C  C141  1  0.23353000  0.54125000  0.54805000  1.0
  C  C142  1  0.16814000  0.45753000  0.53658000  1.0
  C  C143  1  0.83669000  0.03641000  0.33771000  1.0
  C  C144  1  0.50213000  0.71917000  0.89202000  1.0
  C  C145  1  0.96814000  0.87759000  0.15994000  1.0
  C  C146  1  0.96940000  0.85795000  0.23226000  1.0
  C  C147  1  0.95010000  0.76486000  0.20760000  1.0
  C  C148  1  0.90627000  0.94082000  0.01070000  1.0
  C  C149  1  0.74235000  0.00115000  0.98919000  1.0
  C  C150  1  0.81769000  0.09396000  0.04817000  1.0
  C  C151  1  0.83831000  0.13749000  0.99642000  1.0
  C  C152  1  0.71461000  0.93976000  0.45210000  1.0
  C  C153  1  0.72887000  0.95452000  0.54070000  1.0
  C  C154  1  0.64790000  0.07976000  0.27952000  1.0
  C  C155  1  0.66146000  0.87582000  0.53466000  1.0
  C  C156  1  0.59439000  0.61572000  0.25960000  1.0
  C  C157  1  0.58190000  0.69299000  0.26382000  1.0
  C  C158  1  0.56273000  0.69564000  0.17975000  1.0
  C  C159  1  0.63370000  0.08916000  0.34797000  1.0
  C  C160  1  0.67685000  0.06773000  0.40860000  1.0
  O  O161  1  0.90969000  0.94244000  0.53279000  1.0
  O  O162  1  0.48947000  0.39051000  0.41934000  1.0
  O  O163  1  0.53510000  0.56137000  0.43775000  1.0
  O  O164  1  0.91505000  0.83745000  0.43425000  1.0
  O  O165  1  0.64381000  0.56442000  0.54334000  1.0
  O  O166  1  0.40937000  0.58040000  0.50350000  1.0
  O  O167  1  0.52826000  0.59584000  0.60896000  1.0
  O  O168  1  0.37609000  0.41606000  0.48960000  1.0
  O  O169  1  0.48784000  0.40370000  0.57112000  1.0
  O  O170  1  0.93795000  0.09480000  0.48658000  1.0
  O  O171  1  0.90933000  0.96597000  0.38797000  1.0
  O  O172  1  0.51664000  0.10021000  0.10213000  1.0
  O  O173  1  0.10406000  0.10843000  0.53843000  1.0
  O  O174  1  0.11123000  0.00227000  0.44499000  1.0
  O  O175  1  0.08439000  0.08007000  0.67344000  1.0
  O  O176  1  0.08561000  0.97041000  0.57639000  1.0
  O  O177  1  0.40314000  0.98438000  0.07952000  1.0
  O  O178  1  0.66107000  0.06854000  0.47450000  1.0
  O  O179  1  0.82062000  0.82074000  0.56687000  1.0
  O  O180  1  0.28713000  0.07961000  0.94278000  1.0
  O  O181  1  0.00121000  0.06438000  0.33758000  1.0
  O  O182  1  0.38221000  0.66206000  0.63858000  1.0
  O  O183  1  0.56751000  0.96437000  0.08406000  1.0
  O  O184  1  0.46049000  0.72410000  0.81557000  1.0
  O  O185  1  0.98597000  0.96573000  0.18164000  1.0
  O  O186  1  0.83470000  0.90658000  0.02593000  1.0
  O  O187  1  0.71391000  0.95936000  0.03521000  1.0
  O  O188  1  0.77551000  0.01652000  0.45771000  1.0
  O  O189  1  0.60393000  0.60477000  0.33371000  1.0
  O  O190  1  0.66758000  0.08802000  0.10305000  1.0
  O  O191  1  0.43286000  0.84336000  0.91009000  1.0
  O  O192  1  0.53590000  0.95237000  0.91190000  1.0
  O  O193  1  0.38799000  0.98729000  0.92284000  1.0
  O  O194  1  0.49826000  0.10133000  0.93871000  1.0
  O  O195  1  0.37311000  0.38435000  0.32146000  1.0
