# generated using pymatgen
data_Na3H49C35S7O24
_symmetry_space_group_name_H-M   'P 1'
_cell_length_a   9.82710000
_cell_length_b   16.08120000
_cell_length_c   16.22990000
_cell_angle_alpha   96.17900000
_cell_angle_beta   102.48600000
_cell_angle_gamma   97.34060000
_symmetry_Int_Tables_number   1
_chemical_formula_structural   Na3H49C35S7O24
_chemical_formula_sum   'Na6 H98 C70 S14 O48'
_cell_volume   2459.30340559
_cell_formula_units_Z   2
loop_
 _symmetry_equiv_pos_site_id
 _symmetry_equiv_pos_as_xyz
  1  'x, y, z'
loop_
 _atom_site_type_symbol
 _atom_site_label
 _atom_site_symmetry_multiplicity
 _atom_site_fract_x
 _atom_site_fract_y
 _atom_site_fract_z
 _atom_site_occupancy
  Na  Na0  1  0.89769000  0.05735000  0.54491000  1.0
  Na  Na1  1  0.10230000  0.94266000  0.45509000  1.0
  Na  Na2  1  0.52909000  0.89824000  0.45788000  1.0
  Na  Na3  1  0.47091000  0.10176000  0.54212000  1.0
  Na  Na4  1  0.73075000  0.84709000  0.13934000  1.0
  Na  Na5  1  0.26925000  0.15291000  0.86066000  1.0
  H  H6  1  0.25600000  0.48557000  0.81600000  1.0
  H  H7  1  0.74401000  0.51443000  0.18400000  1.0
  H  H8  1  0.65568000  0.39608000  0.83238000  1.0
  H  H9  1  0.34433000  0.60393000  0.16762000  1.0
  H  H10  1  0.03643000  0.74898000  0.75045000  1.0
  H  H11  1  0.96358000  0.25101000  0.24954000  1.0
  H  H12  1  0.86773000  0.49781000  0.78815000  1.0
  H  H13  1  0.13227000  0.50220000  0.21185000  1.0
  H  H14  1  0.70918000  0.06348000  0.87983000  1.0
  H  H15  1  0.29082000  0.93652000  0.12017000  1.0
  H  H16  1  0.06003000  0.95906000  0.81165000  1.0
  H  H17  1  0.93998000  0.04095000  0.18835000  1.0
  H  H18  1  0.48808000  0.95157000  0.83100000  1.0
  H  H19  1  0.51192000  0.04843000  0.16899000  1.0
  H  H20  1  0.26166000  0.69658000  0.77082000  1.0
  H  H21  1  0.73834000  0.30342000  0.22918000  1.0
  H  H22  1  0.04666000  0.47272000  0.70508000  1.0
  H  H23  1  0.95335000  0.52728000  0.29492000  1.0
  H  H24  1  0.17055000  0.56318000  0.70280000  1.0
  H  H25  1  0.82945000  0.43682000  0.29720000  1.0
  H  H26  1  0.07342000  0.50044000  0.60632000  1.0
  H  H27  1  0.92658000  0.49956000  0.39368000  1.0
  H  H28  1  0.81579000  0.49458000  0.55995000  1.0
  H  H29  1  0.18420000  0.50541000  0.44005000  1.0
  H  H30  1  0.72181000  0.56293000  0.61023000  1.0
  H  H31  1  0.27818000  0.43706000  0.38978000  1.0
  H  H32  1  0.77980000  0.47510000  0.65877000  1.0
  H  H33  1  0.22019000  0.52490000  0.34124000  1.0
  H  H34  1  0.08119000  0.68846000  0.63127000  1.0
  H  H35  1  0.91879000  0.31154000  0.36872000  1.0
  H  H36  1  0.96594000  0.62135000  0.54412000  1.0
  H  H37  1  0.03404000  0.37864000  0.45588000  1.0
  H  H38  1  0.89749000  0.69456000  0.60757000  1.0
  H  H39  1  0.10248000  0.30544000  0.39243000  1.0
  H  H40  1  0.17072000  0.74255000  0.09712000  1.0
  H  H41  1  0.82929000  0.25746000  0.90287000  1.0
  H  H42  1  0.12584000  0.63252000  0.05296000  1.0
  H  H43  1  0.87415000  0.36749000  0.94703000  1.0
  H  H44  1  0.87191000  0.66678000  0.20786000  1.0
  H  H45  1  0.12809000  0.33323000  0.79213000  1.0
  H  H46  1  0.74164000  0.63875000  0.01969000  1.0
  H  H47  1  0.25836000  0.36126000  0.98031000  1.0
  H  H48  1  0.92562000  0.80559000  0.01356000  1.0
  H  H49  1  0.07438000  0.19441000  0.98644000  1.0
  H  H50  1  0.49467000  0.72902000  0.04893000  1.0
  H  H51  1  0.50533000  0.27098000  0.95107000  1.0
  H  H52  1  0.13105000  0.21775000  0.63320000  1.0
  H  H53  1  0.86894000  0.78225000  0.36680000  1.0
  H  H54  1  0.08926000  0.14978000  0.68881000  1.0
  H  H55  1  0.91073000  0.85022000  0.31119000  1.0
  H  H56  1  0.12646000  0.13208000  0.46273000  1.0
  H  H57  1  0.87353000  0.86792000  0.53727000  1.0
  H  H58  1  0.98457000  0.10866000  0.39228000  1.0
  H  H59  1  0.01542000  0.89134000  0.60772000  1.0
  H  H60  1  0.71716000  0.99874000  0.38424000  1.0
  H  H61  1  0.28284000  0.00126000  0.61576000  1.0
  H  H62  1  0.78970000  0.91798000  0.40214000  1.0
  H  H63  1  0.21030000  0.08202000  0.59786000  1.0
  H  H64  1  0.66358000  0.99760000  0.63057000  1.0
  H  H65  1  0.33642000  0.00240000  0.36944000  1.0
  H  H66  1  0.50858000  0.95574000  0.62948000  1.0
  H  H67  1  0.49143000  0.04425000  0.37052000  1.0
  H  H68  1  0.35135000  0.82444000  0.27962000  1.0
  H  H69  1  0.64865000  0.17556000  0.72039000  1.0
  H  H70  1  0.46879000  0.76626000  0.30830000  1.0
  H  H71  1  0.53121000  0.23374000  0.69170000  1.0
  H  H72  1  0.74267000  0.20491000  0.57644000  1.0
  H  H73  1  0.25732000  0.79509000  0.42356000  1.0
  H  H74  1  0.71476000  0.18843000  0.47696000  1.0
  H  H75  1  0.28523000  0.81158000  0.52304000  1.0
  H  H76  1  0.65931000  0.74856000  0.43837000  1.0
  H  H77  1  0.34069000  0.25143000  0.56163000  1.0
  H  H78  1  0.64835000  0.75398000  0.53275000  1.0
  H  H79  1  0.35165000  0.24601000  0.46726000  1.0
  H  H80  1  0.54868000  0.87914000  0.25013000  1.0
  H  H81  1  0.45132000  0.12086000  0.74987000  1.0
  H  H82  1  0.61898000  0.97190000  0.25109000  1.0
  H  H83  1  0.38101000  0.02810000  0.74891000  1.0
  H  H84  1  0.32239000  0.56464000  0.55786000  1.0
  H  H85  1  0.67761000  0.43535000  0.44215000  1.0
  H  H86  1  0.46512000  0.50750000  0.55892000  1.0
  H  H87  1  0.53488000  0.49249000  0.44109000  1.0
  H  H88  1  0.33493000  0.47566000  0.61445000  1.0
  H  H89  1  0.66506000  0.52434000  0.38556000  1.0
  H  H90  1  0.55348000  0.55713000  0.71824000  1.0
  H  H91  1  0.44652000  0.44287000  0.28177000  1.0
  H  H92  1  0.40973000  0.61043000  0.71734000  1.0
  H  H93  1  0.59027000  0.38957000  0.28267000  1.0
  H  H94  1  0.72681000  0.69867000  0.77055000  1.0
  H  H95  1  0.27320000  0.30132000  0.22945000  1.0
  H  H96  1  0.57208000  0.73694000  0.78041000  1.0
  H  H97  1  0.42794000  0.26305000  0.21960000  1.0
  H  H98  1  0.74158000  0.86046000  0.77534000  1.0
  H  H99  1  0.25843000  0.13953000  0.22467000  1.0
  H  H100  1  0.62029000  0.84216000  0.67461000  1.0
  H  H101  1  0.37973000  0.15783000  0.32540000  1.0
  H  H102  1  0.78932000  0.81146000  0.68510000  1.0
  H  H103  1  0.21070000  0.18853000  0.31491000  1.0
  C  C104  1  0.58125000  0.57528000  0.93713000  1.0
  C  C105  1  0.41875000  0.42472000  0.06287000  1.0
  C  C106  1  0.43486000  0.56504000  0.90113000  1.0
  C  C107  1  0.56514000  0.43496000  0.09887000  1.0
  C  C108  1  0.36921000  0.49333000  0.84256000  1.0
  C  C109  1  0.63080000  0.50667000  0.15744000  1.0
  C  C110  1  0.44748000  0.43240000  0.81833000  1.0
  C  C111  1  0.55252000  0.56761000  0.18167000  1.0
  C  C112  1  0.59304000  0.44258000  0.85206000  1.0
  C  C113  1  0.40697000  0.55743000  0.14794000  1.0
  C  C114  1  0.65941000  0.51332000  0.91131000  1.0
  C  C115  1  0.34059000  0.48669000  0.08869000  1.0
  C  C116  1  0.97009000  0.67810000  0.92983000  1.0
  C  C117  1  0.02991000  0.32190000  0.07017000  1.0
  C  C118  1  0.01619000  0.73325000  0.87681000  1.0
  C  C119  1  0.98381000  0.26675000  0.12319000  1.0
  C  C120  1  0.00270000  0.70383000  0.79032000  1.0
  C  C121  1  0.99730000  0.29617000  0.20967000  1.0
  C  C122  1  0.95097000  0.61877000  0.75662000  1.0
  C  C123  1  0.04903000  0.38123000  0.24338000  1.0
  C  C124  1  0.90702000  0.56459000  0.81135000  1.0
  C  C125  1  0.09298000  0.43541000  0.18866000  1.0
  C  C126  1  0.91196000  0.59392000  0.89612000  1.0
  C  C127  1  0.08804000  0.40608000  0.10388000  1.0
  C  C128  1  0.87049000  0.90118000  0.95549000  1.0
  C  C129  1  0.12952000  0.09882000  0.04451000  1.0
  C  C130  1  0.77430000  0.95948000  0.94421000  1.0
  C  C131  1  0.22571000  0.04052000  0.05579000  1.0
  C  C132  1  0.78338000  0.01839000  0.88765000  1.0
  C  C133  1  0.21663000  0.98161000  0.11235000  1.0
  C  C134  1  0.88649000  0.01858000  0.84058000  1.0
  C  C135  1  0.11352000  0.98142000  0.15942000  1.0
  C  C136  1  0.98135000  0.96061000  0.84979000  1.0
  C  C137  1  0.01865000  0.03939000  0.15021000  1.0
  C  C138  1  0.97474000  0.90227000  0.90720000  1.0
  C  C139  1  0.02527000  0.09773000  0.09280000  1.0
  C  C140  1  0.47323000  0.79848000  0.95956000  1.0
  C  C141  1  0.52677000  0.20152000  0.04043000  1.0
  C  C142  1  0.51575000  0.87617000  0.93287000  1.0
  C  C143  1  0.48425000  0.12383000  0.06713000  1.0
  C  C144  1  0.45934000  0.89011000  0.85005000  1.0
  C  C145  1  0.54066000  0.10990000  0.14995000  1.0
  C  C146  1  0.36738000  0.82624000  0.79225000  1.0
  C  C147  1  0.63263000  0.17376000  0.20775000  1.0
  C  C148  1  0.33189000  0.74697000  0.81617000  1.0
  C  C149  1  0.66812000  0.25303000  0.18383000  1.0
  C  C150  1  0.38376000  0.73282000  0.89971000  1.0
  C  C151  1  0.61625000  0.26718000  0.10029000  1.0
  C  C152  1  0.08534000  0.68807000  0.07811000  1.0
  C  C153  1  0.91466000  0.31193000  0.92188000  1.0
  C  C154  1  0.03554000  0.66802000  0.15666000  1.0
  C  C155  1  0.96446000  0.33198000  0.84333000  1.0
  C  C156  1  0.94932000  0.58191000  0.66523000  1.0
  C  C157  1  0.05068000  0.41809000  0.33476000  1.0
  C  C158  1  0.06703000  0.52637000  0.67059000  1.0
  C  C159  1  0.93297000  0.47363000  0.32941000  1.0
  C  C160  1  0.80789000  0.52541000  0.62207000  1.0
  C  C161  1  0.19210000  0.47458000  0.37794000  1.0
  C  C162  1  0.97543000  0.65101000  0.60979000  1.0
  C  C163  1  0.02456000  0.34899000  0.39020000  1.0
  C  C164  1  0.47901000  0.58952000  0.67678000  1.0
  C  C165  1  0.52099000  0.41048000  0.32323000  1.0
  C  C166  1  0.56295000  0.66847000  0.65965000  1.0
  C  C167  1  0.43706000  0.33152000  0.34033000  1.0
  C  C168  1  0.64245000  0.73026000  0.73662000  1.0
  C  C169  1  0.35757000  0.26973000  0.26339000  1.0
  C  C170  1  0.39551000  0.53079000  0.59759000  1.0
  C  C171  1  0.60448000  0.46920000  0.40242000  1.0
  C  C172  1  0.70183000  0.81572000  0.71670000  1.0
  C  C173  1  0.29819000  0.18428000  0.28331000  1.0
  S  S174  1  0.84159000  0.52563000  0.96143000  1.0
  S  S175  1  0.15842000  0.47438000  0.03858000  1.0
  S  S176  1  0.10719000  0.83654000  0.92342000  1.0
  S  S177  1  0.89282000  0.16346000  0.07657000  1.0
  S  S178  1  0.64100000  0.95763000  0.00273000  1.0
  S  S179  1  0.35901000  0.04237000  0.99727000  1.0
  S  S180  1  0.32768000  0.63622000  0.93537000  1.0
  S  S181  1  0.67233000  0.36378000  0.06463000  1.0
  S  S182  1  0.89334000  0.09057000  0.76567000  1.0
  S  S183  1  0.10665000  0.90943000  0.23432000  1.0
  S  S184  1  0.28554000  0.84868000  0.69026000  1.0
  S  S185  1  0.71446000  0.15132000  0.30974000  1.0
  S  S186  1  0.36278000  0.33595000  0.75168000  1.0
  S  S187  1  0.63722000  0.66405000  0.24832000  1.0
  O  O188  1  0.64177000  0.64346000  0.99510000  1.0
  O  O189  1  0.35823000  0.35655000  0.00490000  1.0
  O  O190  1  0.97291000  0.70842000  0.01341000  1.0
  O  O191  1  0.02709000  0.29158000  0.98658000  1.0
  O  O192  1  0.85729000  0.84689000  0.01178000  1.0
  O  O193  1  0.14272000  0.15312000  0.98822000  1.0
  O  O194  1  0.51888000  0.78897000  0.04170000  1.0
  O  O195  1  0.48113000  0.21103000  0.95829000  1.0
  O  O196  1  0.11566000  0.64505000  0.21595000  1.0
  O  O197  1  0.88435000  0.35495000  0.78403000  1.0
  O  O198  1  0.90195000  0.67741000  0.15301000  1.0
  O  O199  1  0.09805000  0.32260000  0.84698000  1.0
  O  O200  1  0.04443000  0.12566000  0.77963000  1.0
  O  O201  1  0.95557000  0.87434000  0.22037000  1.0
  O  O202  1  0.84030000  0.04142000  0.68009000  1.0
  O  O203  1  0.15970000  0.95858000  0.31991000  1.0
  O  O204  1  0.80670000  0.15435000  0.78494000  1.0
  O  O205  1  0.19329000  0.84565000  0.21506000  1.0
  O  O206  1  0.36801000  0.93006000  0.68065000  1.0
  O  O207  1  0.63200000  0.06994000  0.31934000  1.0
  O  O208  1  0.29680000  0.77873000  0.62750000  1.0
  O  O209  1  0.70320000  0.22127000  0.37250000  1.0
  O  O210  1  0.14046000  0.85876000  0.69387000  1.0
  O  O211  1  0.85954000  0.14124000  0.30613000  1.0
  O  O212  1  0.21339000  0.34615000  0.71896000  1.0
  O  O213  1  0.78662000  0.65386000  0.28103000  1.0
  O  O214  1  0.43642000  0.32396000  0.68243000  1.0
  O  O215  1  0.56359000  0.67604000  0.31758000  1.0
  O  O216  1  0.37735000  0.27137000  0.80883000  1.0
  O  O217  1  0.62263000  0.72863000  0.19117000  1.0
  O  O218  1  0.10314000  0.15691000  0.63097000  1.0
  O  O219  1  0.89684000  0.84309000  0.36903000  1.0
  O  O220  1  0.04068000  0.08972000  0.44283000  1.0
  O  O221  1  0.95931000  0.91028000  0.55717000  1.0
  O  O222  1  0.74614000  0.96308000  0.42838000  1.0
  O  O223  1  0.25385000  0.03692000  0.57162000  1.0
  O  O224  1  0.56857000  0.97853000  0.59328000  1.0
  O  O225  1  0.43144000  0.02147000  0.40673000  1.0
  O  O226  1  0.44668000  0.82441000  0.31510000  1.0
  O  O227  1  0.55332000  0.17559000  0.68490000  1.0
  O  O228  1  0.71797000  0.15974000  0.52829000  1.0
  O  O229  1  0.28202000  0.84026000  0.47171000  1.0
  O  O230  1  0.68100000  0.78833000  0.49134000  1.0
  O  O231  1  0.31899000  0.21167000  0.50866000  1.0
  O  O232  1  0.59940000  0.91560000  0.21723000  1.0
  O  O233  1  0.40059000  0.08440000  0.78276000  1.0
  O  O234  1  0.56736000  0.68026000  0.58630000  1.0
  O  O235  1  0.43264000  0.31973000  0.41372000  1.0
