# generated using pymatgen
data_ZnH23C25(NO3)2
_symmetry_space_group_name_H-M   'P 1'
_cell_length_a   9.95927000
_cell_length_b   10.87990000
_cell_length_c   11.86820000
_cell_angle_alpha   83.38580000
_cell_angle_beta   77.41060000
_cell_angle_gamma   65.06740000
_symmetry_Int_Tables_number   1
_chemical_formula_structural   ZnH23C25(NO3)2
_chemical_formula_sum   'Zn2 H46 C50 N4 O12'
_cell_volume   1137.70847618
_cell_formula_units_Z   2
loop_
 _symmetry_equiv_pos_site_id
 _symmetry_equiv_pos_as_xyz
  1  'x, y, z'
loop_
 _atom_site_type_symbol
 _atom_site_label
 _atom_site_symmetry_multiplicity
 _atom_site_fract_x
 _atom_site_fract_y
 _atom_site_fract_z
 _atom_site_occupancy
  Zn  Zn0  1  0.63545000  0.25263000  0.49633000  1.0
  Zn  Zn1  1  0.36455000  0.74737000  0.50367000  1.0
  H  H2  1  0.44469000  0.44764000  0.64781000  1.0
  H  H3  1  0.55531000  0.55236000  0.35219000  1.0
  H  H4  1  0.58416000  0.47681000  0.59684000  1.0
  H  H5  1  0.41584000  0.52319000  0.40316000  1.0
  H  H6  1  0.48619000  0.08311000  0.64232000  1.0
  H  H7  1  0.51381000  0.91689000  0.35768000  1.0
  H  H8  1  0.54501000  0.90422000  0.80031000  1.0
  H  H9  1  0.45499000  0.09578000  0.19969000  1.0
  H  H10  1  0.98638000  0.90789000  0.74799000  1.0
  H  H11  1  0.01362000  0.09211000  0.25201000  1.0
  H  H12  1  0.90645000  0.09006000  0.59685000  1.0
  H  H13  1  0.09355000  0.90994000  0.40314000  1.0
  H  H14  1  0.92819000  0.72484000  0.87245000  1.0
  H  H15  1  0.07181000  0.27516000  0.12755000  1.0
  H  H16  1  0.75053000  0.71987000  0.88357000  1.0
  H  H17  1  0.24947000  0.28013000  0.11644000  1.0
  H  H18  1  0.77924000  0.94613000  0.42761000  1.0
  H  H19  1  0.22076000  0.05387000  0.57239000  1.0
  H  H20  1  0.87333000  0.81436000  0.24865000  1.0
  H  H21  1  0.12667000  0.18564000  0.75135000  1.0
  H  H22  1  0.70198000  0.19479000  0.05927000  1.0
  H  H23  1  0.29802000  0.80521000  0.94073000  1.0
  H  H24  1  0.62493000  0.31181000  0.24542000  1.0
  H  H25  1  0.37507000  0.68819000  0.75458000  1.0
  H  H26  1  0.86058000  0.99179000  0.95310000  1.0
  H  H27  1  0.13942000  0.00821000  0.04690000  1.0
  H  H28  1  0.96878000  0.84081000  0.02309000  1.0
  H  H29  1  0.03122000  0.15919000  0.97691000  1.0
  H  H30  1  0.63577000  0.92644000  0.01483000  1.0
  H  H31  1  0.36423000  0.07356000  0.98517000  1.0
  H  H32  1  0.75648000  0.77287000  0.07313000  1.0
  H  H33  1  0.24352000  0.22713000  0.92688000  1.0
  H  H34  1  0.07606000  0.27080000  0.48886000  1.0
  H  H35  1  0.92394000  0.72920000  0.51114000  1.0
  H  H36  1  0.88189000  0.55936000  0.22711000  1.0
  H  H37  1  0.11811000  0.44064000  0.77289000  1.0
  H  H38  1  0.32210000  0.48856000  0.28540000  1.0
  H  H39  1  0.67789000  0.51144000  0.71460000  1.0
  H  H40  1  0.24621000  0.69111000  0.22923000  1.0
  H  H41  1  0.75379000  0.30889000  0.77076000  1.0
  H  H42  1  0.17862000  0.77878000  0.10383000  1.0
  H  H43  1  0.82138000  0.22122000  0.89617000  1.0
  H  H44  1  0.51097000  0.63359000  0.15132000  1.0
  H  H45  1  0.48903000  0.36641000  0.84868000  1.0
  H  H46  1  0.25309000  0.51230000  0.97530000  1.0
  H  H47  1  0.74691000  0.48770000  0.02470000  1.0
  C  C48  1  0.83091000  0.37814000  0.38161000  1.0
  C  C49  1  0.16909000  0.62186000  0.61839000  1.0
  C  C50  1  0.59385000  0.04243000  0.67147000  1.0
  C  C51  1  0.40615000  0.95757000  0.32853000  1.0
  C  C52  1  0.62832000  0.94362000  0.75854000  1.0
  C  C53  1  0.37168000  0.05638000  0.24146000  1.0
  C  C54  1  0.77009000  0.89254000  0.79001000  1.0
  C  C55  1  0.22991000  0.10746000  0.20999000  1.0
  C  C56  1  0.87269000  0.94559000  0.73011000  1.0
  C  C57  1  0.12731000  0.05441000  0.26989000  1.0
  C  C58  1  0.83029000  0.04552000  0.64472000  1.0
  C  C59  1  0.16971000  0.95448000  0.35528000  1.0
  C  C60  1  0.80613000  0.78772000  0.88600000  1.0
  C  C61  1  0.19387000  0.21228000  0.11400000  1.0
  C  C62  1  0.76880000  0.99820000  0.34379000  1.0
  C  C63  1  0.23120000  0.00180000  0.65622000  1.0
  C  C64  1  0.81907000  0.92460000  0.24326000  1.0
  C  C65  1  0.18093000  0.07540000  0.75675000  1.0
  C  C66  1  0.79963000  0.99337000  0.13674000  1.0
  C  C67  1  0.20037000  0.00663000  0.86326000  1.0
  C  C68  1  0.72484000  0.13502000  0.13845000  1.0
  C  C69  1  0.27516000  0.86498000  0.86155000  1.0
  C  C70  1  0.67905000  0.20164000  0.24213000  1.0
  C  C71  1  0.32095000  0.79837000  0.75788000  1.0
  C  C72  1  0.85402000  0.91992000  0.02511000  1.0
  C  C73  1  0.14598000  0.08008000  0.97490000  1.0
  C  C74  1  0.75392000  0.85186000  0.00574000  1.0
  C  C75  1  0.24608000  0.14814000  0.99427000  1.0
  C  C76  1  0.33730000  0.30561000  0.46041000  1.0
  C  C77  1  0.66270000  0.69440000  0.53958000  1.0
  C  C78  1  0.21044000  0.37500000  0.39504000  1.0
  C  C79  1  0.78956000  0.62500000  0.60496000  1.0
  C  C80  1  0.08387000  0.34493000  0.42098000  1.0
  C  C81  1  0.91613000  0.65507000  0.57902000  1.0
  C  C82  1  0.96677000  0.41070000  0.35926000  1.0
  C  C83  1  0.03323000  0.58929000  0.64073000  1.0
  C  C84  1  0.97493000  0.50814000  0.27342000  1.0
  C  C85  1  0.02507000  0.49186000  0.72657000  1.0
  C  C86  1  0.10199000  0.53765000  0.24748000  1.0
  C  C87  1  0.89801000  0.46235000  0.75252000  1.0
  C  C88  1  0.22072000  0.46968000  0.30678000  1.0
  C  C89  1  0.77928000  0.53032000  0.69322000  1.0
  C  C90  1  0.22332000  0.67775000  0.14578000  1.0
  C  C91  1  0.77668000  0.32225000  0.85422000  1.0
  C  C92  1  0.50594000  0.57654000  0.08369000  1.0
  C  C93  1  0.49405000  0.42346000  0.91631000  1.0
  C  C94  1  0.36601000  0.58385000  0.07120000  1.0
  C  C95  1  0.63399000  0.41615000  0.92879000  1.0
  C  C96  1  0.36138000  0.50647000  0.98676000  1.0
  C  C97  1  0.63862000  0.49353000  0.01323000  1.0
  N  N98  1  0.70215000  0.13445000  0.34363000  1.0
  N  N99  1  0.29785000  0.86555000  0.65637000  1.0
  N  N100  1  0.69307000  0.09367000  0.61579000  1.0
  N  N101  1  0.30693000  0.90633000  0.38421000  1.0
  O  O102  1  0.43377000  0.36070000  0.44643000  1.0
  O  O103  1  0.56623000  0.63930000  0.55357000  1.0
  O  O104  1  0.34644000  0.20236000  0.52166000  1.0
  O  O105  1  0.65357000  0.79764000  0.47833000  1.0
  O  O106  1  0.10158000  0.63558000  0.16269000  1.0
  O  O107  1  0.89842000  0.36442000  0.83731000  1.0
  O  O108  1  0.82575000  0.28891000  0.46168000  1.0
  O  O109  1  0.17425000  0.71109000  0.53832000  1.0
  O  O110  1  0.55705000  0.39981000  0.62955000  1.0
  O  O111  1  0.44295000  0.60019000  0.37045000  1.0
  O  O112  1  0.73192000  0.43755000  0.31979000  1.0
  O  O113  1  0.26808000  0.56245000  0.68021000  1.0
