# generated using pymatgen
data_NiH20C22(N2O3)2
_symmetry_space_group_name_H-M   'P 1'
_cell_length_a   7.54607000
_cell_length_b   8.05682000
_cell_length_c   8.90202000
_cell_angle_alpha   90.00580000
_cell_angle_beta   97.00400000
_cell_angle_gamma   96.03960000
_symmetry_Int_Tables_number   1
_chemical_formula_structural   NiH20C22(N2O3)2
_chemical_formula_sum   'Ni1 H20 C22 N4 O6'
_cell_volume   534.15274457
_cell_formula_units_Z   1
loop_
 _symmetry_equiv_pos_site_id
 _symmetry_equiv_pos_as_xyz
  1  'x, y, z'
loop_
 _atom_site_type_symbol
 _atom_site_label
 _atom_site_symmetry_multiplicity
 _atom_site_fract_x
 _atom_site_fract_y
 _atom_site_fract_z
 _atom_site_occupancy
  Ni  Ni0  1  0.00000000  0.99999000  0.99999000  1.0
  H  H1  1  0.80305000  0.68654000  0.84787000  1.0
  H  H2  1  0.19695000  0.31344000  0.15212000  1.0
  H  H3  1  0.62494000  0.92943000  0.32688000  1.0
  H  H4  1  0.37506000  0.07058000  0.67312000  1.0
  H  H5  1  0.72875000  0.22708000  0.28527000  1.0
  H  H6  1  0.27125000  0.77293000  0.71475000  1.0
  H  H7  1  0.90507000  0.40171000  0.48782000  1.0
  H  H8  1  0.09493000  0.59829000  0.51219000  1.0
  H  H9  1  0.99611000  0.28302000  0.74439000  1.0
  H  H10  1  0.00388000  0.71697000  0.25562000  1.0
  H  H11  1  0.68026000  0.67331000  0.33021000  1.0
  H  H12  1  0.31974000  0.32668000  0.66978000  1.0
  H  H13  1  0.48310000  0.43049000  0.22697000  1.0
  H  H14  1  0.51689000  0.56951000  0.77302000  1.0
  H  H15  1  0.37891000  0.94589000  0.07568000  1.0
  H  H16  1  0.62109000  0.05412000  0.92433000  1.0
  H  H17  1  0.62684000  0.66541000  0.05303000  1.0
  H  H18  1  0.37320000  0.33459000  0.94698000  1.0
  H  H19  1  0.71525000  0.49977000  0.05693000  1.0
  H  H20  1  0.28477000  0.50023000  0.94307000  1.0
  C  C21  1  0.80497000  0.78958000  0.76857000  1.0
  C  C22  1  0.19503000  0.21041000  0.23142000  1.0
  C  C23  1  0.75454000  0.93968000  0.55984000  1.0
  C  C24  1  0.24544000  0.06033000  0.44015000  1.0
  C  C25  1  0.70474000  0.00475000  0.41723000  1.0
  C  C26  1  0.29525000  0.99524000  0.58277000  1.0
  C  C27  1  0.76285000  0.17175000  0.39516000  1.0
  C  C28  1  0.23713000  0.82825000  0.60485000  1.0
  C  C29  1  0.86537000  0.27130000  0.51118000  1.0
  C  C30  1  0.13461000  0.72870000  0.48883000  1.0
  C  C31  1  0.91475000  0.20805000  0.65384000  1.0
  C  C32  1  0.08524000  0.79194000  0.34617000  1.0
  C  C33  1  0.85753000  0.04014000  0.67650000  1.0
  C  C34  1  0.14246000  0.95985000  0.32351000  1.0
  C  C35  1  0.61115000  0.63940000  0.55938000  1.0
  C  C36  1  0.38884000  0.36059000  0.44061000  1.0
  C  C37  1  0.59865000  0.60153000  0.40511000  1.0
  C  C38  1  0.40134000  0.39847000  0.59488000  1.0
  C  C39  1  0.48726000  0.46247000  0.34619000  1.0
  C  C40  1  0.51275000  0.53752000  0.65381000  1.0
  C  C41  1  0.31100000  0.82890000  0.02033000  1.0
  C  C42  1  0.68902000  0.17112000  0.97966000  1.0
  N  N43  1  0.88484000  0.94158000  0.80432000  1.0
  N  N44  1  0.11515000  0.05842000  0.19568000  1.0
  N  N45  1  0.72242000  0.78148000  0.62294000  1.0
  N  N46  1  0.27757000  0.21852000  0.37705000  1.0
  O  O47  1  0.14029000  0.82038000  0.98253000  1.0
  O  O48  1  0.85972000  0.17962000  0.01746000  1.0
  O  O49  1  0.40143000  0.71209000  0.99570000  1.0
  O  O50  1  0.59862000  0.28794000  0.00430000  1.0
  O  O51  1  0.74455000  0.62129000  0.07305000  1.0
  O  O52  1  0.25548000  0.37871000  0.92696000  1.0
