# generated using pymatgen
data_Zn3H52C64(N2O9)2
_symmetry_space_group_name_H-M   'P 1'
_cell_length_a   10.53300000
_cell_length_b   14.61590000
_cell_length_c   16.15310000
_cell_angle_alpha   99.66160000
_cell_angle_beta   102.52500000
_cell_angle_gamma   101.04300000
_symmetry_Int_Tables_number   1
_chemical_formula_structural   Zn3H52C64(N2O9)2
_chemical_formula_sum   'Zn3 H52 C64 N4 O18'
_cell_volume   2325.04563195
_cell_formula_units_Z   1
loop_
 _symmetry_equiv_pos_site_id
 _symmetry_equiv_pos_as_xyz
  1  'x, y, z'
loop_
 _atom_site_type_symbol
 _atom_site_label
 _atom_site_symmetry_multiplicity
 _atom_site_fract_x
 _atom_site_fract_y
 _atom_site_fract_z
 _atom_site_occupancy
  Zn  Zn0  1  0.00000000  0.50000000  0.50000000  1.0
  Zn  Zn1  1  0.78345000  0.62604000  0.53044000  1.0
  Zn  Zn2  1  0.21655000  0.37396000  0.46956000  1.0
  H  H3  1  0.91597000  0.33911000  0.68580000  1.0
  H  H4  1  0.08403000  0.66090000  0.31420000  1.0
  H  H5  1  0.56927000  0.45708000  0.66256000  1.0
  H  H6  1  0.43073000  0.54292000  0.33744000  1.0
  H  H7  1  0.92560000  0.49728000  0.29947000  1.0
  H  H8  1  0.07440000  0.50272000  0.70053000  1.0
  H  H9  1  0.90563000  0.39969000  0.15210000  1.0
  H  H10  1  0.09437000  0.60031000  0.84790000  1.0
  H  H11  1  0.47529000  0.33151000  0.10568000  1.0
  H  H12  1  0.52471000  0.66849000  0.89432000  1.0
  H  H13  1  0.49780000  0.42504000  0.25315000  1.0
  H  H14  1  0.50220000  0.57496000  0.74685000  1.0
  H  H15  1  0.61048000  0.91605000  0.39954000  1.0
  H  H16  1  0.38952000  0.08395000  0.60046000  1.0
  H  H17  1  0.41754000  0.92047000  0.60966000  1.0
  H  H18  1  0.58246000  0.07953000  0.39034000  1.0
  H  H19  1  0.34648000  0.74447000  0.52737000  1.0
  H  H20  1  0.65352000  0.25553000  0.47263000  1.0
  H  H21  1  0.74381000  0.83595000  0.50680000  1.0
  H  H22  1  0.25619000  0.16405000  0.49320000  1.0
  H  H23  1  0.47983000  0.59973000  0.54592000  1.0
  H  H24  1  0.52016000  0.40026000  0.45408000  1.0
  H  H25  1  0.48199000  0.35392000  0.75575000  1.0
  H  H26  1  0.51801000  0.64608000  0.24425000  1.0
  H  H27  1  0.23205000  0.02361000  0.77692000  1.0
  H  H28  1  0.76795000  0.97639000  0.22308000  1.0
  H  H29  1  0.49754000  0.83202000  0.77815000  1.0
  H  H30  1  0.50246000  0.16798000  0.22185000  1.0
  H  H31  1  0.05067000  0.89601000  0.67219000  1.0
  H  H32  1  0.94933000  0.10399000  0.32781000  1.0
  H  H33  1  0.31197000  0.70432000  0.67466000  1.0
  H  H34  1  0.68802000  0.29568000  0.32533000  1.0
  H  H35  1  0.39533000  0.07101000  0.92789000  1.0
  H  H36  1  0.60467000  0.92899000  0.07211000  1.0
  H  H37  1  0.41454000  0.12416000  0.83771000  1.0
  H  H38  1  0.58546000  0.87584000  0.16229000  1.0
  H  H39  1  0.77305000  0.23708000  0.91464000  1.0
  H  H40  1  0.22695000  0.76292000  0.08536000  1.0
  H  H41  1  0.69531000  0.12819000  0.83433000  1.0
  H  H42  1  0.30469000  0.87181000  0.16567000  1.0
  H  H43  1  0.83302000  0.23842000  0.78197000  1.0
  H  H44  1  0.16698000  0.76158000  0.21803000  1.0
  H  H45  1  0.50109000  0.27027000  0.95836000  1.0
  H  H46  1  0.49891000  0.72972000  0.04163000  1.0
  H  H47  1  0.51446000  0.20397000  0.04271000  1.0
  H  H48  1  0.48554000  0.79603000  0.95729000  1.0
  H  H49  1  0.70236000  0.03768000  0.95578000  1.0
  H  H50  1  0.29764000  0.96232000  0.04422000  1.0
  H  H51  1  0.62229000  0.06998000  0.03908000  1.0
  H  H52  1  0.37771000  0.93002000  0.96092000  1.0
  H  H53  1  0.77313000  0.14624000  0.03626000  1.0
  H  H54  1  0.22687000  0.85376000  0.96373000  1.0
  C  C55  1  0.80086000  0.46878000  0.61488000  1.0
  C  C56  1  0.19914000  0.53121000  0.38512000  1.0
  C  C57  1  0.75013000  0.40622000  0.67037000  1.0
  C  C58  1  0.24987000  0.59378000  0.32963000  1.0
  C  C59  1  0.82198000  0.34296000  0.70255000  1.0
  C  C60  1  0.17802000  0.65704000  0.29745000  1.0
  C  C61  1  0.62721000  0.40991000  0.68968000  1.0
  C  C62  1  0.37278000  0.59009000  0.31032000  1.0
  C  C63  1  0.72132000  0.51446000  0.37586000  1.0
  C  C64  1  0.27868000  0.48555000  0.62414000  1.0
  C  C65  1  0.71285000  0.46549000  0.28607000  1.0
  C  C66  1  0.28715000  0.53451000  0.71393000  1.0
  C  C67  1  0.82782000  0.46061000  0.25636000  1.0
  C  C68  1  0.17218000  0.53939000  0.74364000  1.0
  C  C69  1  0.81700000  0.40655000  0.17480000  1.0
  C  C70  1  0.18300000  0.59345000  0.82520000  1.0
  C  C71  1  0.69038000  0.35684000  0.12123000  1.0
  C  C72  1  0.30962000  0.64316000  0.87877000  1.0
  C  C73  1  0.57438000  0.36611000  0.14791000  1.0
  C  C74  1  0.42562000  0.63390000  0.85210000  1.0
  C  C75  1  0.58672000  0.41956000  0.23034000  1.0
  C  C76  1  0.41328000  0.58043000  0.76966000  1.0
  C  C77  1  0.56420000  0.95371000  0.44444000  1.0
  C  C78  1  0.43581000  0.04630000  0.55556000  1.0
  C  C79  1  0.45171000  0.95493000  0.56093000  1.0
  C  C80  1  0.54829000  0.04507000  0.43906000  1.0
  C  C81  1  0.51643000  0.90895000  0.50546000  1.0
  C  C82  1  0.48357000  0.09105000  0.49454000  1.0
  C  C83  1  0.44844000  0.74180000  0.52720000  1.0
  C  C84  1  0.55156000  0.25820000  0.47280000  1.0
  C  C85  1  0.65427000  0.78986000  0.51303000  1.0
  C  C86  1  0.34573000  0.21014000  0.48697000  1.0
  C  C87  1  0.51491000  0.67045000  0.53489000  1.0
  C  C88  1  0.48508000  0.32956000  0.46511000  1.0
  C  C89  1  0.57763000  0.35196000  0.74064000  1.0
  C  C90  1  0.42237000  0.64804000  0.25936000  1.0
  C  C91  1  0.37717000  0.93566000  0.78387000  1.0
  C  C92  1  0.62283000  0.06434000  0.21613000  1.0
  C  C93  1  0.25140000  0.95449000  0.75415000  1.0
  C  C94  1  0.74860000  0.04551000  0.24585000  1.0
  C  C95  1  0.39954000  0.84571000  0.75406000  1.0
  C  C96  1  0.60046000  0.15429000  0.24594000  1.0
  C  C97  1  0.05849000  0.71354000  0.60735000  1.0
  C  C98  1  0.94152000  0.28646000  0.39266000  1.0
  C  C99  1  0.17001000  0.79243000  0.66612000  1.0
  C  C100  1  0.82999000  0.20757000  0.33388000  1.0
  C  C101  1  0.14930000  0.88281000  0.69527000  1.0
  C  C102  1  0.85070000  0.11719000  0.30473000  1.0
  C  C103  1  0.29659000  0.77503000  0.69627000  1.0
  C  C104  1  0.70341000  0.22497000  0.30373000  1.0
  C  C105  1  0.46198000  0.08713000  0.88536000  1.0
  C  C106  1  0.53802000  0.91287000  0.11464000  1.0
  C  C107  1  0.59775000  0.15129000  0.93875000  1.0
  C  C108  1  0.40225000  0.84871000  0.06125000  1.0
  C  C109  1  0.67661000  0.18866000  0.87711000  1.0
  C  C110  1  0.32340000  0.81134000  0.12289000  1.0
  C  C111  1  0.65250000  0.29108000  0.77514000  1.0
  C  C112  1  0.34750000  0.70892000  0.22486000  1.0
  C  C113  1  0.77487000  0.28598000  0.75589000  1.0
  C  C114  1  0.22514000  0.71402000  0.24411000  1.0
  C  C115  1  0.56612000  0.23356000  0.99710000  1.0
  C  C116  1  0.43388000  0.76644000  0.00290000  1.0
  C  C117  1  0.67934000  0.09777000  0.99556000  1.0
  C  C118  1  0.32066000  0.90223000  0.00444000  1.0
  N  N119  1  0.64288000  0.70181000  0.52625000  1.0
  N  N120  1  0.35712000  0.29819000  0.47375000  1.0
  N  N121  1  0.53748000  0.81723000  0.51300000  1.0
  N  N122  1  0.46252000  0.18277000  0.48700000  1.0
  O  O123  1  0.75309000  0.54279000  0.61082000  1.0
  O  O124  1  0.24691000  0.45721000  0.38917000  1.0
  O  O125  1  0.61769000  0.51332000  0.40259000  1.0
  O  O126  1  0.38231000  0.48668000  0.59741000  1.0
  O  O127  1  0.83928000  0.56061000  0.42685000  1.0
  O  O128  1  0.16072000  0.43939000  0.57315000  1.0
  O  O129  1  0.08354000  0.63257000  0.58729000  1.0
  O  O130  1  0.91645000  0.36742000  0.41271000  1.0
  O  O131  1  0.88600000  0.44429000  0.57623000  1.0
  O  O132  1  0.11400000  0.55571000  0.42377000  1.0
  O  O133  1  0.68940000  0.29971000  0.04468000  1.0
  O  O134  1  0.31060000  0.70030000  0.95532000  1.0
  O  O135  1  0.59711000  0.23922000  0.82691000  1.0
  O  O136  1  0.40289000  0.76078000  0.17309000  1.0
  O  O137  1  0.48405000  0.99986000  0.84216000  1.0
  O  O138  1  0.51595000  0.00014000  0.15784000  1.0
  O  O139  1  0.94463000  0.73399000  0.58350000  1.0
  O  O140  1  0.05537000  0.26601000  0.41650000  1.0
