# generated using pymatgen
data_HgH8C16(N6Cl)2
_symmetry_space_group_name_H-M   'P 1'
_cell_length_a   6.90262000
_cell_length_b   17.06410000
_cell_length_c   17.06460000
_cell_angle_alpha   89.99860000
_cell_angle_beta   89.99890000
_cell_angle_gamma   89.99780000
_symmetry_Int_Tables_number   1
_chemical_formula_structural   HgH8C16(N6Cl)2
_chemical_formula_sum   'Hg4 H32 C64 N48 Cl8'
_cell_volume   2009.98800263
_cell_formula_units_Z   4
loop_
 _symmetry_equiv_pos_site_id
 _symmetry_equiv_pos_as_xyz
  1  'x, y, z'
loop_
 _atom_site_type_symbol
 _atom_site_label
 _atom_site_symmetry_multiplicity
 _atom_site_fract_x
 _atom_site_fract_y
 _atom_site_fract_z
 _atom_site_occupancy
  Hg  Hg0  1  0.25000000  0.32950000  0.67049000  1.0
  Hg  Hg1  1  0.75001000  0.67050000  0.32952000  1.0
  Hg  Hg2  1  0.00002000  0.82956000  0.82956000  1.0
  Hg  Hg3  1  0.49998000  0.17044000  0.17043000  1.0
  H  H4  1  0.09808000  0.49155000  0.87107000  1.0
  H  H5  1  0.59810000  0.50845000  0.12893000  1.0
  H  H6  1  0.84822000  0.62895000  0.99164000  1.0
  H  H7  1  0.34817000  0.37103000  0.00838000  1.0
  H  H8  1  0.65173000  0.00837000  0.37100000  1.0
  H  H9  1  0.15181000  0.99164000  0.62899000  1.0
  H  H10  1  0.90193000  0.87105000  0.49157000  1.0
  H  H11  1  0.40195000  0.12896000  0.50843000  1.0
  H  H12  1  0.28591000  0.61299000  0.91297000  1.0
  H  H13  1  0.78589000  0.38701000  0.08702000  1.0
  H  H14  1  0.03603000  0.58710000  0.11312000  1.0
  H  H15  1  0.53600000  0.41289000  0.88690000  1.0
  H  H16  1  0.46397000  0.88688000  0.41287000  1.0
  H  H17  1  0.96397000  0.11312000  0.58714000  1.0
  H  H18  1  0.71411000  0.91297000  0.61301000  1.0
  H  H19  1  0.21408000  0.08705000  0.38701000  1.0
  H  H20  1  0.35884000  0.71431000  0.81177000  1.0
  H  H21  1  0.85880000  0.28567000  0.18821000  1.0
  H  H22  1  0.10883000  0.68836000  0.21437000  1.0
  H  H23  1  0.60885000  0.31163000  0.78564000  1.0
  H  H24  1  0.39118000  0.78562000  0.31162000  1.0
  H  H25  1  0.89111000  0.21437000  0.68838000  1.0
  H  H26  1  0.64114000  0.81178000  0.71434000  1.0
  H  H27  1  0.14114000  0.18823000  0.28566000  1.0
  H  H28  1  0.23213000  0.69711000  0.67587000  1.0
  H  H29  1  0.73212000  0.30289000  0.32412000  1.0
  H  H30  1  0.98228000  0.82426000  0.19708000  1.0
  H  H31  1  0.48228000  0.17574000  0.80291000  1.0
  H  H32  1  0.51775000  0.80289000  0.17573000  1.0
  H  H33  1  0.01769000  0.19710000  0.82427000  1.0
  H  H34  1  0.76785000  0.67586000  0.69714000  1.0
  H  H35  1  0.26789000  0.32415000  0.30285000  1.0
  C  C36  1  0.13398000  0.53831000  0.82979000  1.0
  C  C37  1  0.63398000  0.46169000  0.17021000  1.0
  C  C38  1  0.88411000  0.67024000  0.03838000  1.0
  C  C39  1  0.38406000  0.32975000  0.96164000  1.0
  C  C40  1  0.61585000  0.96163000  0.32972000  1.0
  C  C41  1  0.11591000  0.03838000  0.67027000  1.0
  C  C42  1  0.86603000  0.82979000  0.53834000  1.0
  C  C43  1  0.36606000  0.17022000  0.46166000  1.0
  C  C44  1  0.23809000  0.60519000  0.85263000  1.0
  C  C45  1  0.73806000  0.39480000  0.14736000  1.0
  C  C46  1  0.98810000  0.64742000  0.10529000  1.0
  C  C47  1  0.48809000  0.35256000  0.89473000  1.0
  C  C48  1  0.51191000  0.89471000  0.35254000  1.0
  C  C49  1  0.01192000  0.10528000  0.64745000  1.0
  C  C50  1  0.76191000  0.85263000  0.60522000  1.0
  C  C51  1  0.26192000  0.14739000  0.39478000  1.0
  C  C52  1  0.27337000  0.66281000  0.79678000  1.0
  C  C53  1  0.77333000  0.33719000  0.20321000  1.0
  C  C54  1  0.02329000  0.70332000  0.16286000  1.0
  C  C55  1  0.52330000  0.29668000  0.83716000  1.0
  C  C56  1  0.47672000  0.83713000  0.29666000  1.0
  C  C57  1  0.97668000  0.16286000  0.70334000  1.0
  C  C58  1  0.72664000  0.79678000  0.66283000  1.0
  C  C59  1  0.22665000  0.20324000  0.33717000  1.0
  C  C60  1  0.97621000  0.38696000  0.51418000  1.0
  C  C61  1  0.47620000  0.61304000  0.48583000  1.0
  C  C62  1  0.72625000  0.98588000  0.88686000  1.0
  C  C63  1  0.22624000  0.01412000  0.11313000  1.0
  C  C64  1  0.77376000  0.11313000  0.01412000  1.0
  C  C65  1  0.27376000  0.88686000  0.98587000  1.0
  C  C66  1  0.02380000  0.51418000  0.38697000  1.0
  C  C67  1  0.52380000  0.48582000  0.61303000  1.0
  C  C68  1  0.00649000  0.46887000  0.52879000  1.0
  C  C69  1  0.50648000  0.53114000  0.47121000  1.0
  C  C70  1  0.75657000  0.97131000  0.96877000  1.0
  C  C71  1  0.25656000  0.02868000  0.03123000  1.0
  C  C72  1  0.74344000  0.03121000  0.02867000  1.0
  C  C73  1  0.24344000  0.96878000  0.97132000  1.0
  C  C74  1  0.99350000  0.52879000  0.46888000  1.0
  C  C75  1  0.49351000  0.47122000  0.53112000  1.0
  C  C76  1  0.03538000  0.56591000  0.62283000  1.0
  C  C77  1  0.53539000  0.43411000  0.37717000  1.0
  C  C78  1  0.78556000  0.87727000  0.06583000  1.0
  C  C79  1  0.28555000  0.12271000  0.93417000  1.0
  C  C80  1  0.71445000  0.93415000  0.12271000  1.0
  C  C81  1  0.21444000  0.06584000  0.87728000  1.0
  C  C82  1  0.96463000  0.62282000  0.56593000  1.0
  C  C83  1  0.46464000  0.37718000  0.43408000  1.0
  C  C84  1  0.20065000  0.65384000  0.72119000  1.0
  C  C85  1  0.70065000  0.34616000  0.27880000  1.0
  C  C86  1  0.95080000  0.77892000  0.15383000  1.0
  C  C87  1  0.45078000  0.22108000  0.84616000  1.0
  C  C88  1  0.54922000  0.84615000  0.22106000  1.0
  C  C89  1  0.04918000  0.15385000  0.77894000  1.0
  C  C90  1  0.79931000  0.72119000  0.65387000  1.0
  C  C91  1  0.29935000  0.27882000  0.34613000  1.0
  C  C92  1  0.09884000  0.58455000  0.70271000  1.0
  C  C93  1  0.59886000  0.41546000  0.29728000  1.0
  C  C94  1  0.84917000  0.79741000  0.08450000  1.0
  C  C95  1  0.34914000  0.20258000  0.91550000  1.0
  C  C96  1  0.65081000  0.91547000  0.20258000  1.0
  C  C97  1  0.15081000  0.08452000  0.79741000  1.0
  C  C98  1  0.90114000  0.70269000  0.58458000  1.0
  C  C99  1  0.40116000  0.29730000  0.41543000  1.0
  N  N100  1  0.97957000  0.26164000  0.52786000  1.0
  N  N101  1  0.47956000  0.73837000  0.47214000  1.0
  N  N102  1  0.72953000  0.97213000  0.76155000  1.0
  N  N103  1  0.22949000  0.02789000  0.23844000  1.0
  N  N104  1  0.77047000  0.23844000  0.02790000  1.0
  N  N105  1  0.27052000  0.76155000  0.97212000  1.0
  N  N106  1  0.02047000  0.52786000  0.26165000  1.0
  N  N107  1  0.52044000  0.47213000  0.73835000  1.0
  N  N108  1  0.87828000  0.27980000  0.46241000  1.0
  N  N109  1  0.37824000  0.72021000  0.53760000  1.0
  N  N110  1  0.62821000  0.03757000  0.77968000  1.0
  N  N111  1  0.12820000  0.96245000  0.22032000  1.0
  N  N112  1  0.87179000  0.22032000  0.96245000  1.0
  N  N113  1  0.37181000  0.77967000  0.03755000  1.0
  N  N114  1  0.12177000  0.46241000  0.27981000  1.0
  N  N115  1  0.62175000  0.53759000  0.72019000  1.0
  N  N116  1  0.03837000  0.32755000  0.56104000  1.0
  N  N117  1  0.53835000  0.67246000  0.43897000  1.0
  N  N118  1  0.78842000  0.93899000  0.82748000  1.0
  N  N119  1  0.28838000  0.06102000  0.17251000  1.0
  N  N120  1  0.71159000  0.17251000  0.06102000  1.0
  N  N121  1  0.21163000  0.82748000  0.93898000  1.0
  N  N122  1  0.96165000  0.56104000  0.32756000  1.0
  N  N123  1  0.46166000  0.43895000  0.67244000  1.0
  N  N124  1  0.87678000  0.35664000  0.45259000  1.0
  N  N125  1  0.37677000  0.64336000  0.54742000  1.0
  N  N126  1  0.62676000  0.04744000  0.85652000  1.0
  N  N127  1  0.12677000  0.95256000  0.14348000  1.0
  N  N128  1  0.87325000  0.14348000  0.95257000  1.0
  N  N129  1  0.37323000  0.85652000  0.04744000  1.0
  N  N130  1  0.12325000  0.45259000  0.35665000  1.0
  N  N131  1  0.62322000  0.54741000  0.64335000  1.0
  N  N132  1  0.04302000  0.49077000  0.60248000  1.0
  N  N133  1  0.54303000  0.50924000  0.39751000  1.0
  N  N134  1  0.79324000  0.89762000  0.99070000  1.0
  N  N135  1  0.29322000  0.10236000  0.00930000  1.0
  N  N136  1  0.70678000  0.00927000  0.10235000  1.0
  N  N137  1  0.20677000  0.99071000  0.89764000  1.0
  N  N138  1  0.95698000  0.60248000  0.49079000  1.0
  N  N139  1  0.45699000  0.39752000  0.50922000  1.0
  N  N140  1  0.07046000  0.52877000  0.75737000  1.0
  N  N141  1  0.57046000  0.47125000  0.24263000  1.0
  N  N142  1  0.82074000  0.74270000  0.02878000  1.0
  N  N143  1  0.32071000  0.25729000  0.97123000  1.0
  N  N144  1  0.67925000  0.97122000  0.25726000  1.0
  N  N145  1  0.17929000  0.02879000  0.74273000  1.0
  N  N146  1  0.92954000  0.75735000  0.52879000  1.0
  N  N147  1  0.42958000  0.24265000  0.47121000  1.0
  Cl  Cl148  1  0.01541000  0.35255000  0.77645000  1.0
  Cl  Cl149  1  0.51539000  0.64746000  0.22357000  1.0
  Cl  Cl150  1  0.76532000  0.72362000  0.85256000  1.0
  Cl  Cl151  1  0.26532000  0.27639000  0.14742000  1.0
  Cl  Cl152  1  0.73467000  0.14744000  0.27637000  1.0
  Cl  Cl153  1  0.23471000  0.85253000  0.72361000  1.0
  Cl  Cl154  1  0.98459000  0.77646000  0.35250000  1.0
  Cl  Cl155  1  0.48462000  0.22355000  0.64750000  1.0
