# generated using pymatgen
data_AlH36(C6O)6
_symmetry_space_group_name_H-M   'P 1'
_cell_length_a   3.94855000
_cell_length_b   29.07570000
_cell_length_c   29.07613948
_cell_angle_alpha   59.99950000
_cell_angle_beta   89.99070014
_cell_angle_gamma   89.98960000
_symmetry_Int_Tables_number   1
_chemical_formula_structural   AlH36(C6O)6
_chemical_formula_sum   'Al2 H72 C72 O12'
_cell_volume   2890.89953604
_cell_formula_units_Z   2
loop_
 _symmetry_equiv_pos_site_id
 _symmetry_equiv_pos_as_xyz
  1  'x, y, z'
loop_
 _atom_site_type_symbol
 _atom_site_label
 _atom_site_symmetry_multiplicity
 _atom_site_fract_x
 _atom_site_fract_y
 _atom_site_fract_z
 _atom_site_occupancy
  Al  Al0  1  0.00005000  1.00000000  0.50000000  1.0
  Al  Al1  1  0.99887000  0.66668000  0.16665000  1.0
  H  H2  1  0.30795000  0.53282000  0.33765000  1.0
  H  H3  1  0.66371000  0.56676000  0.29836000  1.0
  H  H4  1  0.71855000  0.50553000  0.35807000  1.0
  H  H5  1  0.69140000  0.53280000  0.12955000  1.0
  H  H6  1  0.33542000  0.56671000  0.13485000  1.0
  H  H7  1  0.28109000  0.50548000  0.13639000  1.0
  H  H8  1  0.24002000  0.41101000  0.19168000  1.0
  H  H9  1  0.57735000  0.37118000  0.23236000  1.0
  H  H10  1  0.66354000  0.43104000  0.17220000  1.0
  H  H11  1  0.75989000  0.41105000  0.39728000  1.0
  H  H12  1  0.42278000  0.37122000  0.39645000  1.0
  H  H13  1  0.33637000  0.43107000  0.39674000  1.0
  H  H14  1  0.24430000  0.25574000  0.47514000  1.0
  H  H15  1  0.58191000  0.29534000  0.43438000  1.0
  H  H16  1  0.66767000  0.23541000  0.49446000  1.0
  H  H17  1  0.75602000  0.25575000  0.26915000  1.0
  H  H18  1  0.41839000  0.29535000  0.27030000  1.0
  H  H19  1  0.33276000  0.23543000  0.27012000  1.0
  H  H20  1  0.30691000  0.13383000  0.32909000  1.0
  H  H21  1  0.66332000  0.09995000  0.36823000  1.0
  H  H22  1  0.71716000  0.16122000  0.30849000  1.0
  H  H23  1  0.69326000  0.13383000  0.53708000  1.0
  H  H24  1  0.33690000  0.09995000  0.53184000  1.0
  H  H25  1  0.28310000  0.16121000  0.53031000  1.0
  H  H26  1  0.30769000  0.83766000  0.12956000  1.0
  H  H27  1  0.66354000  0.79838000  0.13488000  1.0
  H  H28  1  0.71825000  0.85811000  0.13639000  1.0
  H  H29  1  0.69125000  0.62955000  0.33763000  1.0
  H  H30  1  0.33529000  0.63485000  0.29843000  1.0
  H  H31  1  0.28094000  0.63638000  0.35814000  1.0
  H  H32  1  0.24005000  0.69164000  0.39735000  1.0
  H  H33  1  0.57727000  0.73233000  0.39646000  1.0
  H  H34  1  0.66357000  0.67218000  0.39674000  1.0
  H  H35  1  0.75974000  0.89728000  0.19170000  1.0
  H  H36  1  0.42249000  0.89645000  0.23236000  1.0
  H  H37  1  0.33629000  0.89676000  0.17221000  1.0
  H  H38  1  0.24418000  0.97511000  0.26914000  1.0
  H  H39  1  0.58197000  0.93438000  0.27029000  1.0
  H  H40  1  0.66745000  0.99448000  0.27012000  1.0
  H  H41  1  0.75608000  0.76915000  0.47509000  1.0
  H  H42  1  0.41856000  0.77029000  0.43436000  1.0
  H  H43  1  0.33280000  0.77012000  0.49445000  1.0
  H  H44  1  0.30709000  0.82909000  0.53709000  1.0
  H  H45  1  0.66351000  0.86822000  0.53181000  1.0
  H  H46  1  0.71731000  0.80849000  0.53027000  1.0
  H  H47  1  0.69324000  0.03710000  0.32908000  1.0
  H  H48  1  0.33689000  0.03183000  0.36823000  1.0
  H  H49  1  0.28307000  0.03031000  0.30850000  1.0
  H  H50  1  0.30795000  0.62955000  0.03281000  1.0
  H  H51  1  0.66369000  0.63489000  0.06674000  1.0
  H  H52  1  0.71855000  0.63638000  0.00553000  1.0
  H  H53  1  0.69149000  0.83765000  0.03279000  1.0
  H  H54  1  0.33539000  0.79846000  0.06669000  1.0
  H  H55  1  0.28108000  0.85817000  0.00545000  1.0
  H  H56  1  0.24006000  0.89735000  0.91096000  1.0
  H  H57  1  0.57743000  0.89645000  0.87118000  1.0
  H  H58  1  0.66350000  0.89676000  0.93102000  1.0
  H  H59  1  0.76009000  0.69165000  0.91106000  1.0
  H  H60  1  0.42303000  0.73233000  0.87121000  1.0
  H  H61  1  0.33652000  0.67220000  0.93105000  1.0
  H  H62  1  0.24399000  0.76915000  0.75573000  1.0
  H  H63  1  0.58145000  0.77029000  0.79534000  1.0
  H  H64  1  0.66732000  0.77011000  0.73543000  1.0
  H  H65  1  0.75603000  0.97508000  0.75577000  1.0
  H  H66  1  0.41830000  0.93437000  0.79534000  1.0
  H  H67  1  0.33283000  0.99447000  0.73543000  1.0
  H  H68  1  0.30697000  0.03711000  0.63382000  1.0
  H  H69  1  0.66343000  0.03182000  0.59995000  1.0
  H  H70  1  0.71721000  0.03028000  0.66122000  1.0
  H  H71  1  0.69323000  0.82907000  0.63382000  1.0
  H  H72  1  0.33681000  0.86822000  0.59995000  1.0
  H  H73  1  0.28299000  0.80849000  0.66121000  1.0
  C  C74  1  0.50000000  0.95875000  0.58250000  1.0
  C  C75  1  0.49996000  0.08250000  0.45876000  1.0
  C  C76  1  0.50014000  0.95876000  0.45874000  1.0
  C  C77  1  0.49898000  0.58416000  0.20790000  1.0
  C  C78  1  0.49879000  0.70791000  0.20793000  1.0
  C  C79  1  0.49907000  0.70795000  0.08413000  1.0
  C  C80  1  0.49945000  0.52481000  0.23759000  1.0
  C  C81  1  0.51691000  0.49760000  0.29339000  1.0
  C  C82  1  0.50696000  0.44195000  0.32135000  1.0
  C  C83  1  0.49987000  0.41400000  0.29299000  1.0
  C  C84  1  0.49259000  0.44193000  0.23669000  1.0
  C  C85  1  0.48228000  0.49758000  0.20901000  1.0
  C  C86  1  0.49993000  0.35763000  0.32119000  1.0
  C  C87  1  0.50003000  0.30903000  0.34550000  1.0
  C  C88  1  0.49999000  0.25266000  0.37368000  1.0
  C  C89  1  0.49415000  0.22471000  0.42998000  1.0
  C  C90  1  0.48359000  0.16907000  0.45767000  1.0
  C  C91  1  0.49999000  0.14184000  0.42908000  1.0
  C  C92  1  0.51646000  0.16906000  0.37327000  1.0
  C  C93  1  0.50595000  0.22471000  0.34532000  1.0
  C  C94  1  0.49919000  0.73760000  0.23760000  1.0
  C  C95  1  0.51665000  0.79341000  0.20901000  1.0
  C  C96  1  0.50688000  0.82136000  0.23671000  1.0
  C  C97  1  0.49980000  0.79299000  0.29302000  1.0
  C  C98  1  0.49249000  0.73669000  0.32138000  1.0
  C  C99  1  0.48208000  0.70901000  0.29342000  1.0
  C  C100  1  0.49986000  0.82117000  0.32120000  1.0
  C  C101  1  0.50004000  0.84550000  0.34548000  1.0
  C  C102  1  0.50006000  0.87367000  0.37366000  1.0
  C  C103  1  0.49415000  0.92998000  0.34531000  1.0
  C  C104  1  0.48362000  0.95767000  0.37326000  1.0
  C  C105  1  0.50011000  0.92908000  0.42907000  1.0
  C  C106  1  0.51660000  0.87326000  0.45766000  1.0
  C  C107  1  0.50600000  0.84532000  0.42997000  1.0
  C  C108  1  0.49953000  0.73762000  0.02479000  1.0
  C  C109  1  0.51697000  0.70902000  0.99758000  1.0
  C  C110  1  0.50706000  0.73670000  0.94194000  1.0
  C  C111  1  0.49997000  0.79301000  0.91399000  1.0
  C  C112  1  0.49267000  0.82140000  0.94191000  1.0
  C  C113  1  0.48231000  0.79344000  0.99755000  1.0
  C  C114  1  0.49999000  0.82118000  0.85763000  1.0
  C  C115  1  0.49998000  0.84548000  0.80902000  1.0
  C  C116  1  0.49999000  0.87366000  0.75266000  1.0
  C  C117  1  0.49404000  0.84530000  0.72471000  1.0
  C  C118  1  0.48353000  0.87327000  0.66907000  1.0
  C  C119  1  0.50004000  0.92909000  0.64184000  1.0
  C  C120  1  0.51650000  0.95768000  0.66906000  1.0
  C  C121  1  0.50595000  0.92997000  0.72471000  1.0
  C  C122  1  0.55407000  0.52726000  0.32326000  1.0
  C  C123  1  0.44523000  0.52723000  0.14948000  1.0
  C  C124  1  0.49390000  0.41222000  0.20673000  1.0
  C  C125  1  0.50600000  0.41224000  0.38103000  1.0
  C  C126  1  0.49759000  0.25438000  0.45999000  1.0
  C  C127  1  0.50271000  0.25438000  0.28565000  1.0
  C  C128  1  0.55323000  0.13942000  0.34338000  1.0
  C  C129  1  0.44692000  0.13943000  0.51720000  1.0
  C  C130  1  0.55388000  0.82328000  0.14947000  1.0
  C  C131  1  0.44507000  0.64947000  0.32329000  1.0
  C  C132  1  0.49388000  0.70672000  0.38105000  1.0
  C  C133  1  0.50583000  0.88103000  0.20675000  1.0
  C  C134  1  0.49751000  0.96000000  0.28563000  1.0
  C  C135  1  0.50279000  0.78565000  0.45997000  1.0
  C  C136  1  0.55340000  0.84337000  0.51719000  1.0
  C  C137  1  0.44695000  0.01720000  0.34338000  1.0
  C  C138  1  0.55410000  0.64949000  0.02725000  1.0
  C  C139  1  0.44525000  0.82332000  0.02720000  1.0
  C  C140  1  0.49392000  0.88107000  0.91219000  1.0
  C  C141  1  0.50619000  0.70672000  0.91224000  1.0
  C  C142  1  0.49727000  0.78563000  0.75438000  1.0
  C  C143  1  0.50269000  0.95997000  0.75438000  1.0
  C  C144  1  0.55329000  0.01721000  0.63942000  1.0
  C  C145  1  0.44690000  0.84338000  0.63942000  1.0
  O  O146  1  0.73576000  0.99260000  0.44875000  1.0
  O  O147  1  0.73557000  0.94874000  0.55865000  1.0
  O  O148  1  0.73554000  0.05865000  0.49260000  1.0
  O  O149  1  0.26459000  0.94875000  0.49260000  1.0
  O  O150  1  0.26440000  0.05865000  0.44876000  1.0
  O  O151  1  0.26430000  0.99259000  0.55866000  1.0
  O  O152  1  0.73439000  0.71796000  0.10801000  1.0
  O  O153  1  0.73438000  0.60804000  0.17402000  1.0
  O  O154  1  0.73427000  0.67404000  0.21792000  1.0
  O  O155  1  0.26332000  0.67413000  0.10795000  1.0
  O  O156  1  0.26310000  0.71795000  0.17409000  1.0
  O  O157  1  0.26317000  0.60797000  0.21791000  1.0
