# generated using pymatgen
data_NiH12C12N2O5
_symmetry_space_group_name_H-M   'P 1'
_cell_length_a   7.85119000
_cell_length_b   9.70360000
_cell_length_c   11.20070000
_cell_angle_alpha   64.33990000
_cell_angle_beta   87.20450000
_cell_angle_gamma   83.84640000
_symmetry_Int_Tables_number   1
_chemical_formula_structural   NiH12C12N2O5
_chemical_formula_sum   'Ni2 H24 C24 N4 O10'
_cell_volume   764.73291159
_cell_formula_units_Z   2
loop_
 _symmetry_equiv_pos_site_id
 _symmetry_equiv_pos_as_xyz
  1  'x, y, z'
loop_
 _atom_site_type_symbol
 _atom_site_label
 _atom_site_symmetry_multiplicity
 _atom_site_fract_x
 _atom_site_fract_y
 _atom_site_fract_z
 _atom_site_occupancy
  Ni  Ni0  1  0.51133000  0.30464000  0.50442000  1.0
  Ni  Ni1  1  0.01068000  0.80838000  0.49548000  1.0
  H  H2  1  0.38541000  0.37305000  0.23549000  1.0
  H  H3  1  0.88502000  0.60737000  0.76487000  1.0
  H  H4  1  0.64003000  0.61461000  0.38503000  1.0
  H  H5  1  0.13767000  0.00004000  0.61403000  1.0
  H  H6  1  0.38087000  0.58845000  0.00717000  1.0
  H  H7  1  0.88127000  0.59401000  0.99340000  1.0
  H  H8  1  0.64754000  0.83877000  0.16728000  1.0
  H  H9  1  0.14610000  0.00601000  0.83189000  1.0
  H  H10  1  0.50737000  0.73756000  0.81657000  1.0
  H  H11  1  0.00865000  0.55282000  0.18342000  1.0
  H  H12  1  0.51384000  0.03884000  0.01088000  1.0
  H  H13  1  0.01365000  0.04854000  0.98909000  1.0
  H  H14  1  0.49728000  0.96792000  0.60461000  1.0
  H  H15  1  0.99864000  0.57129000  0.39538000  1.0
  H  H16  1  0.51358000  0.25781000  0.78555000  1.0
  H  H17  1  0.01365000  0.04223000  0.21437000  1.0
  H  H18  1  0.31365000  0.63367000  0.43390000  1.0
  H  H19  1  0.81331000  0.06739000  0.56617000  1.0
  H  H20  1  0.14771000  0.28218000  0.59129000  1.0
  H  H21  1  0.64720000  0.87333000  0.40951000  1.0
  H  H22  1  0.84399000  0.34552000  0.51524000  1.0
  H  H23  1  0.34346000  0.86006000  0.48522000  1.0
  H  H24  1  0.74094000  0.45284000  0.57761000  1.0
  H  H25  1  0.24075000  0.02960000  0.42205000  1.0
  C  C26  1  0.44273000  0.47870000  0.21417000  1.0
  C  C27  1  0.94210000  0.69195000  0.78593000  1.0
  C  C28  1  0.58220000  0.61419000  0.29900000  1.0
  C  C29  1  0.08054000  0.91312000  0.70042000  1.0
  C  C30  1  0.44167000  0.59912000  0.08782000  1.0
  C  C31  1  0.94156000  0.68573000  0.91240000  1.0
  C  C32  1  0.58546000  0.73949000  0.17644000  1.0
  C  C33  1  0.08433000  0.91560000  0.82304000  1.0
  C  C34  1  0.51325000  0.73457000  0.06643000  1.0
  C  C35  1  0.01295000  0.80004000  0.93346000  1.0
  C  C36  1  0.51240000  0.86670000  0.93532000  1.0
  C  C37  1  0.01273000  0.80087000  0.06464000  1.0
  C  C38  1  0.50767000  0.84931000  0.81762000  1.0
  C  C39  1  0.00862000  0.66568000  0.18236000  1.0
  C  C40  1  0.51459000  0.01683000  0.92336000  1.0
  C  C41  1  0.01471000  0.93903000  0.07660000  1.0
  C  C42  1  0.50425000  0.97851000  0.69692000  1.0
  C  C43  1  0.00527000  0.67424000  0.30307000  1.0
  C  C44  1  0.51371000  0.13986000  0.79875000  1.0
  C  C45  1  0.01399000  0.93749000  0.20119000  1.0
  C  C46  1  0.27760000  0.55441000  0.53580000  1.0
  C  C47  1  0.77796000  0.09021000  0.46419000  1.0
  C  C48  1  0.14382000  0.27768000  0.49393000  1.0
  C  C49  1  0.64284000  0.77128000  0.50669000  1.0
  N  N50  1  0.51089000  0.48595000  0.31920000  1.0
  N  N51  1  0.00960000  0.80474000  0.68057000  1.0
  N  N52  1  0.50843000  0.12140000  0.68657000  1.0
  N  N53  1  0.00898000  0.80685000  0.31339000  1.0
  O  O54  1  0.36844000  0.42770000  0.59361000  1.0
  O  O55  1  0.86869000  0.02086000  0.40645000  1.0
  O  O56  1  0.14483000  0.59491000  0.58620000  1.0
  O  O57  1  0.64606000  0.18177000  0.41364000  1.0
  O  O58  1  0.28547000  0.23803000  0.45043000  1.0
  O  O59  1  0.78426000  0.68799000  0.54970000  1.0
  O  O60  1  0.00245000  0.31226000  0.43429000  1.0
  O  O61  1  0.50127000  0.74615000  0.56655000  1.0
  O  O62  1  0.73796000  0.35785000  0.56730000  1.0
  O  O63  1  0.23799000  0.92420000  0.43264000  1.0
