# generated using pymatgen
data_NaH14C10ClO8
_symmetry_space_group_name_H-M   'P 1'
_cell_length_a   9.26393000
_cell_length_b   9.66796000
_cell_length_c   16.73800000
_cell_angle_alpha   90.00000000
_cell_angle_beta   90.00000000
_cell_angle_gamma   115.58000000
_symmetry_Int_Tables_number   1
_chemical_formula_structural   NaH14C10ClO8
_chemical_formula_sum   'Na4 H56 C40 Cl4 O32'
_cell_volume   1352.17271720
_cell_formula_units_Z   4
loop_
 _symmetry_equiv_pos_site_id
 _symmetry_equiv_pos_as_xyz
  1  'x, y, z'
loop_
 _atom_site_type_symbol
 _atom_site_label
 _atom_site_symmetry_multiplicity
 _atom_site_fract_x
 _atom_site_fract_y
 _atom_site_fract_z
 _atom_site_occupancy
  Na  Na0  1  0.63557000  0.25566000  0.00752000  1.0
  Na  Na1  1  0.36443000  0.24434000  0.50752000  1.0
  Na  Na2  1  0.36442000  0.74433000  0.99248000  1.0
  Na  Na3  1  0.63557000  0.75566000  0.49248000  1.0
  H  H4  1  0.93366000  0.55247000  0.92656000  1.0
  H  H5  1  0.06633000  0.94752000  0.42656000  1.0
  H  H6  1  0.06632000  0.44752000  0.07343000  1.0
  H  H7  1  0.93368000  0.05248000  0.57343000  1.0
  H  H8  1  0.15256000  0.89124000  0.04793000  1.0
  H  H9  1  0.84742000  0.60876000  0.54792000  1.0
  H  H10  1  0.84744000  0.10876000  0.95208000  1.0
  H  H11  1  0.15257000  0.39124000  0.45208000  1.0
  H  H12  1  0.97417000  0.75763000  0.00340000  1.0
  H  H13  1  0.02582000  0.74237000  0.50340000  1.0
  H  H14  1  0.02583000  0.24237000  0.99660000  1.0
  H  H15  1  0.97418000  0.25763000  0.49661000  1.0
  H  H16  1  0.96451000  0.89459000  0.14714000  1.0
  H  H17  1  0.03547000  0.60540000  0.64714000  1.0
  H  H18  1  0.03549000  0.10541000  0.85286000  1.0
  H  H19  1  0.96452000  0.39460000  0.35286000  1.0
  H  H20  1  0.82344000  0.67701000  0.23328000  1.0
  H  H21  1  0.17656000  0.82298000  0.73328000  1.0
  H  H22  1  0.17656000  0.32299000  0.76672000  1.0
  H  H23  1  0.82345000  0.17702000  0.26672000  1.0
  H  H24  1  0.73355000  0.42095000  0.18073000  1.0
  H  H25  1  0.26645000  0.07904000  0.68073000  1.0
  H  H26  1  0.26645000  0.57905000  0.81927000  1.0
  H  H27  1  0.73355000  0.92096000  0.31927000  1.0
  H  H28  1  0.94019000  0.46885000  0.19088000  1.0
  H  H29  1  0.05981000  0.03115000  0.69088000  1.0
  H  H30  1  0.05980000  0.53114000  0.80911000  1.0
  H  H31  1  0.94020000  0.96886000  0.30911000  1.0
  H  H32  1  0.62892000  0.57934000  0.06523000  1.0
  H  H33  1  0.37108000  0.92066000  0.56523000  1.0
  H  H34  1  0.37108000  0.42066000  0.93477000  1.0
  H  H35  1  0.62893000  0.07935000  0.43477000  1.0
  H  H36  1  0.68137000  0.86403000  0.90609000  1.0
  H  H37  1  0.31864000  0.63598000  0.40610000  1.0
  H  H38  1  0.31864000  0.13597000  0.09391000  1.0
  H  H39  1  0.68136000  0.36403000  0.59391000  1.0
  H  H40  1  0.75628000  0.75693000  0.96411000  1.0
  H  H41  1  0.24373000  0.74308000  0.46412000  1.0
  H  H42  1  0.24373000  0.24306000  0.03588000  1.0
  H  H43  1  0.75627000  0.25694000  0.53589000  1.0
  H  H44  1  0.84665000  0.82724000  0.80564000  1.0
  H  H45  1  0.15334000  0.67276000  0.30564000  1.0
  H  H46  1  0.15334000  0.17274000  0.19435000  1.0
  H  H47  1  0.84666000  0.32725000  0.69436000  1.0
  H  H48  1  0.77756000  0.58122000  0.74620000  1.0
  H  H49  1  0.22244000  0.91879000  0.24620000  1.0
  H  H50  1  0.22242000  0.41877000  0.25380000  1.0
  H  H51  1  0.77758000  0.08123000  0.75380000  1.0
  H  H52  1  0.64991000  0.34878000  0.82644000  1.0
  H  H53  1  0.35010000  0.15122000  0.32644000  1.0
  H  H54  1  0.35008000  0.65120000  0.17356000  1.0
  H  H55  1  0.64991000  0.84879000  0.67356000  1.0
  H  H56  1  0.48774000  0.39793000  0.81461000  1.0
  H  H57  1  0.51226000  0.10207000  0.31462000  1.0
  H  H58  1  0.51225000  0.60206000  0.18538000  1.0
  H  H59  1  0.48775000  0.89795000  0.68539000  1.0
  C  C60  1  0.98999000  0.48452000  0.95472000  1.0
  C  C61  1  0.01001000  0.01548000  0.45472000  1.0
  C  C62  1  0.01000000  0.51547000  0.04528000  1.0
  C  C63  1  0.98999000  0.98453000  0.54528000  1.0
  C  C64  1  0.04968000  0.77991000  0.05723000  1.0
  C  C65  1  0.95030000  0.72009000  0.55723000  1.0
  C  C66  1  0.95032000  0.22009000  0.94277000  1.0
  C  C67  1  0.04969000  0.27992000  0.44278000  1.0
  C  C68  1  0.96092000  0.78336000  0.13169000  1.0
  C  C69  1  0.03908000  0.71665000  0.63169000  1.0
  C  C70  1  0.03908000  0.21663000  0.86832000  1.0
  C  C71  1  0.96092000  0.28336000  0.36831000  1.0
  C  C72  1  0.88035000  0.66251000  0.17883000  1.0
  C  C73  1  0.11963000  0.83746000  0.67882000  1.0
  C  C74  1  0.11965000  0.33749000  0.82117000  1.0
  C  C75  1  0.88037000  0.16254000  0.32118000  1.0
  C  C76  1  0.85314000  0.50117000  0.16061000  1.0
  C  C77  1  0.14686000  0.99883000  0.66061000  1.0
  C  C78  1  0.14686000  0.49882000  0.83939000  1.0
  C  C79  1  0.85314000  0.00118000  0.33939000  1.0
  C  C80  1  0.50624000  0.50189000  0.04615000  1.0
  C  C81  1  0.49375000  0.99811000  0.54615000  1.0
  C  C82  1  0.49375000  0.49810000  0.95385000  1.0
  C  C83  1  0.50625000  0.00190000  0.45386000  1.0
  C  C84  1  0.68613000  0.75274000  0.91025000  1.0
  C  C85  1  0.31387000  0.74726000  0.41025000  1.0
  C  C86  1  0.31387000  0.24725000  0.08975000  1.0
  C  C87  1  0.68613000  0.25275000  0.58975000  1.0
  C  C88  1  0.75952000  0.72479000  0.83570000  1.0
  C  C89  1  0.24048000  0.77522000  0.33570000  1.0
  C  C90  1  0.24048000  0.27521000  0.16430000  1.0
  C  C91  1  0.75952000  0.22479000  0.66431000  1.0
  C  C92  1  0.72258000  0.58753000  0.80296000  1.0
  C  C93  1  0.27742000  0.91247000  0.30297000  1.0
  C  C94  1  0.27741000  0.41244000  0.19703000  1.0
  C  C95  1  0.72259000  0.08756000  0.69704000  1.0
  C  C96  1  0.60983000  0.43811000  0.83899000  1.0
  C  C97  1  0.39018000  0.06189000  0.33898000  1.0
  C  C98  1  0.39016000  0.56187000  0.16102000  1.0
  C  C99  1  0.60984000  0.93813000  0.66102000  1.0
  Cl  Cl100  1  0.60858000  0.97894000  0.12181000  1.0
  Cl  Cl101  1  0.39142000  0.52106000  0.62181000  1.0
  Cl  Cl102  1  0.39141000  0.02106000  0.87819000  1.0
  Cl  Cl103  1  0.60859000  0.47894000  0.37819000  1.0
  O  O104  1  0.59603000  0.92769000  0.20386000  1.0
  O  O105  1  0.40398000  0.57233000  0.70386000  1.0
  O  O106  1  0.40397000  0.07231000  0.79614000  1.0
  O  O107  1  0.59602000  0.42768000  0.29614000  1.0
  O  O108  1  0.71434000  0.14379000  0.11705000  1.0
  O  O109  1  0.28567000  0.35621000  0.61706000  1.0
  O  O110  1  0.28566000  0.85621000  0.88295000  1.0
  O  O111  1  0.71434000  0.64379000  0.38294000  1.0
  O  O112  1  0.44908000  0.95325000  0.09159000  1.0
  O  O113  1  0.55093000  0.54675000  0.59159000  1.0
  O  O114  1  0.55091000  0.04676000  0.90841000  1.0
  O  O115  1  0.44909000  0.45325000  0.40841000  1.0
  O  O116  1  0.67132000  0.89469000  0.07102000  1.0
  O  O117  1  0.32869000  0.60531000  0.57102000  1.0
  O  O118  1  0.32868000  0.10531000  0.92898000  1.0
  O  O119  1  0.67133000  0.39469000  0.42898000  1.0
  O  O120  1  0.14356000  0.52407000  0.92443000  1.0
  O  O121  1  0.85644000  0.97594000  0.42444000  1.0
  O  O122  1  0.85643000  0.47593000  0.07557000  1.0
  O  O123  1  0.14356000  0.02406000  0.57556000  1.0
  O  O124  1  0.88229000  0.32947000  0.93755000  1.0
  O  O125  1  0.11771000  0.17052000  0.43756000  1.0
  O  O126  1  0.11770000  0.67052000  0.06244000  1.0
  O  O127  1  0.88229000  0.82948000  0.56244000  1.0
  O  O128  1  0.39452000  0.55237000  0.07446000  1.0
  O  O129  1  0.60548000  0.94763000  0.57446000  1.0
  O  O130  1  0.60547000  0.44762000  0.92554000  1.0
  O  O131  1  0.39453000  0.05238000  0.42554000  1.0
  O  O132  1  0.47967000  0.35613000  0.07856000  1.0
  O  O133  1  0.52033000  0.14387000  0.57856000  1.0
  O  O134  1  0.52034000  0.64387000  0.92145000  1.0
  O  O135  1  0.47967000  0.85614000  0.42145000  1.0
