# generated using pymatgen
data_CuH16C16N2O5
_symmetry_space_group_name_H-M   'P 1'
_cell_length_a   7.22813000
_cell_length_b   10.61890000
_cell_length_c   10.85730000
_cell_angle_alpha   94.03930000
_cell_angle_beta   106.26300000
_cell_angle_gamma   102.55200000
_symmetry_Int_Tables_number   1
_chemical_formula_structural   CuH16C16N2O5
_chemical_formula_sum   'Cu2 H32 C32 N4 O10'
_cell_volume   773.17940778
_cell_formula_units_Z   2
loop_
 _symmetry_equiv_pos_site_id
 _symmetry_equiv_pos_as_xyz
  1  'x, y, z'
loop_
 _atom_site_type_symbol
 _atom_site_label
 _atom_site_symmetry_multiplicity
 _atom_site_fract_x
 _atom_site_fract_y
 _atom_site_fract_z
 _atom_site_occupancy
  Cu  Cu0  1  0.12978000  0.26596000  0.69647000  1.0
  Cu  Cu1  1  0.87022000  0.73405000  0.30353000  1.0
  H  H2  1  0.88997000  0.10956000  0.99687000  1.0
  H  H3  1  0.11004000  0.89044000  0.00314000  1.0
  H  H4  1  0.63734000  0.90714000  0.50132000  1.0
  H  H5  1  0.36267000  0.09285000  0.49867000  1.0
  H  H6  1  0.26514000  0.46434000  0.94023000  1.0
  H  H7  1  0.73487000  0.53566000  0.05978000  1.0
  H  H8  1  0.41353000  0.70563000  0.99281000  1.0
  H  H9  1  0.58648000  0.29437000  0.00719000  1.0
  H  H10  1  0.37728000  0.70730000  0.58836000  1.0
  H  H11  1  0.62272000  0.29271000  0.41165000  1.0
  H  H12  1  0.28893000  0.59078000  0.40712000  1.0
  H  H13  1  0.71107000  0.40922000  0.59288000  1.0
  H  H14  1  0.04627000  0.19601000  0.21101000  1.0
  H  H15  1  0.95373000  0.80400000  0.78899000  1.0
  H  H16  1  0.02281000  0.12594000  0.42067000  1.0
  H  H17  1  0.97720000  0.87406000  0.57933000  1.0
  H  H18  1  0.54028000  0.91136000  0.91738000  1.0
  H  H19  1  0.45971000  0.08865000  0.08262000  1.0
  H  H20  1  0.37832000  0.91934000  0.76362000  1.0
  H  H21  1  0.62168000  0.08066000  0.23639000  1.0
  H  H22  1  0.61741000  0.89574000  0.77551000  1.0
  H  H23  1  0.38258000  0.10426000  0.22450000  1.0
  H  H24  1  0.24415000  0.55482000  0.18109000  1.0
  H  H25  1  0.75584000  0.44518000  0.81890000  1.0
  H  H26  1  0.05193000  0.41542000  0.09121000  1.0
  H  H27  1  0.94806000  0.58458000  0.90879000  1.0
  H  H28  1  0.30136000  0.40617000  0.13725000  1.0
  H  H29  1  0.69863000  0.59384000  0.86275000  1.0
  H  H30  1  0.53557000  0.21132000  0.71512000  1.0
  H  H31  1  0.46442000  0.78867000  0.28487000  1.0
  H  H32  1  0.39215000  0.14949000  0.79883000  1.0
  H  H33  1  0.60786000  0.85051000  0.20117000  1.0
  C  C34  1  0.11702000  0.11332000  0.89540000  1.0
  C  C35  1  0.88298000  0.88668000  0.10460000  1.0
  C  C36  1  0.99446000  0.05661000  0.97715000  1.0
  C  C37  1  0.00554000  0.94340000  0.02285000  1.0
  C  C38  1  0.59514000  0.99710000  0.52163000  1.0
  C  C39  1  0.40487000  0.00289000  0.47837000  1.0
  C  C40  1  0.75602000  0.11253000  0.59415000  1.0
  C  C41  1  0.24398000  0.88746000  0.40585000  1.0
  C  C42  1  0.29274000  0.52328000  0.86610000  1.0
  C  C43  1  0.70727000  0.47672000  0.13390000  1.0
  C  C44  1  0.37422000  0.65743000  0.89347000  1.0
  C  C45  1  0.62578000  0.34257000  0.10654000  1.0
  C  C46  1  0.40651000  0.72716000  0.79318000  1.0
  C  C47  1  0.59349000  0.27284000  0.20683000  1.0
  C  C48  1  0.35480000  0.65681000  0.66903000  1.0
  C  C49  1  0.64520000  0.34319000  0.33098000  1.0
  C  C50  1  0.27403000  0.52280000  0.64854000  1.0
  C  C51  1  0.72597000  0.47720000  0.35146000  1.0
  C  C52  1  0.21596000  0.44029000  0.52222000  1.0
  C  C53  1  0.78403000  0.55971000  0.47778000  1.0
  C  C54  1  0.23384000  0.48692000  0.40808000  1.0
  C  C55  1  0.76615000  0.51308000  0.59192000  1.0
  C  C56  1  0.17435000  0.40070000  0.29257000  1.0
  C  C57  1  0.82564000  0.59930000  0.70743000  1.0
  C  C58  1  0.09739000  0.26854000  0.29729000  1.0
  C  C59  1  0.90261000  0.73146000  0.70271000  1.0
  C  C60  1  0.08229000  0.22798000  0.41382000  1.0
  C  C61  1  0.91771000  0.77202000  0.58618000  1.0
  C  C62  1  0.49142000  0.87110000  0.81463000  1.0
  C  C63  1  0.50858000  0.12890000  0.18537000  1.0
  C  C64  1  0.19370000  0.44836000  0.16922000  1.0
  C  C65  1  0.80630000  0.55164000  0.83078000  1.0
  N  N66  1  0.24345000  0.45776000  0.74710000  1.0
  N  N67  1  0.75655000  0.54225000  0.25290000  1.0
  N  N68  1  0.14074000  0.31207000  0.52378000  1.0
  N  N69  1  0.85926000  0.68793000  0.47622000  1.0
  O  O70  1  0.09621000  0.22650000  0.86503000  1.0
  O  O71  1  0.90378000  0.77350000  0.13497000  1.0
  O  O72  1  0.45380000  0.23088000  0.76992000  1.0
  O  O73  1  0.54620000  0.76911000  0.23008000  1.0
  O  O74  1  0.22749000  0.05044000  0.86107000  1.0
  O  O75  1  0.77251000  0.94957000  0.13894000  1.0
  O  O76  1  0.93421000  0.09750000  0.61330000  1.0
  O  O77  1  0.06581000  0.90249000  0.38670000  1.0
  O  O78  1  0.71501000  0.21611000  0.62952000  1.0
  O  O79  1  0.28497000  0.78387000  0.37046000  1.0
