# generated using pymatgen
data_Cu3MoH16C20S7IN4O
_symmetry_space_group_name_H-M   'P 1'
_cell_length_a   10.39460000
_cell_length_b   19.28510000
_cell_length_c   19.82650000
_cell_angle_alpha   90.00000000
_cell_angle_beta   90.00010000
_cell_angle_gamma   89.50350000
_symmetry_Int_Tables_number   1
_chemical_formula_structural   Cu3MoH16C20S7IN4O
_chemical_formula_sum   'Cu12 Mo4 H64 C80 S28 I4 N16 O4'
_cell_volume   3974.28881980
_cell_formula_units_Z   4
loop_
 _symmetry_equiv_pos_site_id
 _symmetry_equiv_pos_as_xyz
  1  'x, y, z'
loop_
 _atom_site_type_symbol
 _atom_site_label
 _atom_site_symmetry_multiplicity
 _atom_site_fract_x
 _atom_site_fract_y
 _atom_site_fract_z
 _atom_site_occupancy
  Cu  Cu0  1  0.24614000  0.87065000  0.74149000  1.0
  Cu  Cu1  1  0.75386000  0.62935000  0.24149000  1.0
  Cu  Cu2  1  0.75386000  0.12935000  0.25851000  1.0
  Cu  Cu3  1  0.24614000  0.37065000  0.75851000  1.0
  Cu  Cu4  1  0.22497000  0.88665000  0.55839000  1.0
  Cu  Cu5  1  0.77503000  0.61336000  0.05839000  1.0
  Cu  Cu6  1  0.77503000  0.11336000  0.44161000  1.0
  Cu  Cu7  1  0.22497000  0.38665000  0.94161000  1.0
  Cu  Cu8  1  0.28182000  0.03663000  0.65629000  1.0
  Cu  Cu9  1  0.71818000  0.46337000  0.15629000  1.0
  Cu  Cu10  1  0.71818000  0.96337000  0.34371000  1.0
  Cu  Cu11  1  0.28182000  0.53663000  0.84371000  1.0
  Mo  Mo12  1  0.09229000  0.94472000  0.66088000  1.0
  Mo  Mo13  1  0.90771000  0.55528000  0.16088000  1.0
  Mo  Mo14  1  0.90771000  0.05528000  0.33912000  1.0
  Mo  Mo15  1  0.09229000  0.44472000  0.83912000  1.0
  H  H16  1  0.11228000  0.92250000  0.86446000  1.0
  H  H17  1  0.88772000  0.57750000  0.36446000  1.0
  H  H18  1  0.88772000  0.07750000  0.13554000  1.0
  H  H19  1  0.11227000  0.42250000  0.63554000  1.0
  H  H20  1  0.06343000  0.88083000  0.98064000  1.0
  H  H21  1  0.93657000  0.61917000  0.48065000  1.0
  H  H22  1  0.93657000  0.11917000  0.01936000  1.0
  H  H23  1  0.06342000  0.38083000  0.51935000  1.0
  H  H24  1  0.19147000  0.67661000  0.91659000  1.0
  H  H25  1  0.80853000  0.82338000  0.41660000  1.0
  H  H26  1  0.80853000  0.32339000  0.08340000  1.0
  H  H27  1  0.19147000  0.17661000  0.58340000  1.0
  H  H28  1  0.22762000  0.72586000  0.80357000  1.0
  H  H29  1  0.77238000  0.77414000  0.30357000  1.0
  H  H30  1  0.77238000  0.27414000  0.19643000  1.0
  H  H31  1  0.22762000  0.22586000  0.69643000  1.0
  H  H32  1  0.30757000  0.52904000  0.05201000  1.0
  H  H33  1  0.69243000  0.97097000  0.55201000  1.0
  H  H34  1  0.69243000  0.47096000  0.94799000  1.0
  H  H35  1  0.30757000  0.02904000  0.44799000  1.0
  H  H36  1  0.54467000  0.51957000  0.05777000  1.0
  H  H37  1  0.45533000  0.98043000  0.55777000  1.0
  H  H38  1  0.45533000  0.48043000  0.94223000  1.0
  H  H39  1  0.54467000  0.01957000  0.44223000  1.0
  H  H40  1  0.58602000  0.73305000  0.06226000  1.0
  H  H41  1  0.41398000  0.76695000  0.56227000  1.0
  H  H42  1  0.41398000  0.26695000  0.93773000  1.0
  H  H43  1  0.58602000  0.23305000  0.43774000  1.0
  H  H44  1  0.34962000  0.75234000  0.05345000  1.0
  H  H45  1  0.65038000  0.74766000  0.55345000  1.0
  H  H46  1  0.65038000  0.24766000  0.94655000  1.0
  H  H47  1  0.34962000  0.25234000  0.44655000  1.0
  H  H48  1  0.41385000  0.74477000  0.76209000  1.0
  H  H49  1  0.58616000  0.75522000  0.26209000  1.0
  H  H50  1  0.58616000  0.25523000  0.23791000  1.0
  H  H51  1  0.41384000  0.24477000  0.73791000  1.0
  H  H52  1  0.64342000  0.71548000  0.75984000  1.0
  H  H53  1  0.35659000  0.78452000  0.25984000  1.0
  H  H54  1  0.35659000  0.28452000  0.24016000  1.0
  H  H55  1  0.64341000  0.21548000  0.74016000  1.0
  H  H56  1  0.71929000  0.93086000  0.71169000  1.0
  H  H57  1  0.28070000  0.56914000  0.21169000  1.0
  H  H58  1  0.28070000  0.06914000  0.28831000  1.0
  H  H59  1  0.71930000  0.43086000  0.78831000  1.0
  H  H60  1  0.48238000  0.95204000  0.71739000  1.0
  H  H61  1  0.51762000  0.54796000  0.21739000  1.0
  H  H62  1  0.51762000  0.04796000  0.28261000  1.0
  H  H63  1  0.48238000  0.45204000  0.78261000  1.0
  H  H64  1  0.81204000  0.79087000  0.86791000  1.0
  H  H65  1  0.18796000  0.70913000  0.36791000  1.0
  H  H66  1  0.18795000  0.20913000  0.13209000  1.0
  H  H67  1  0.81205000  0.29087000  0.63209000  1.0
  H  H68  1  0.77400000  0.74917000  0.98502000  1.0
  H  H69  1  0.22600000  0.75083000  0.48503000  1.0
  H  H70  1  0.22600000  0.25083000  0.01498000  1.0
  H  H71  1  0.77400000  0.24917000  0.51498000  1.0
  H  H72  1  0.88651000  0.54864000  0.93554000  1.0
  H  H73  1  0.11349000  0.95136000  0.43555000  1.0
  H  H74  1  0.11350000  0.45136000  0.06445000  1.0
  H  H75  1  0.88650000  0.04864000  0.56446000  1.0
  H  H76  1  0.92541000  0.58041000  0.81703000  1.0
  H  H77  1  0.07459000  0.91959000  0.31703000  1.0
  H  H78  1  0.07459000  0.41959000  0.18297000  1.0
  H  H79  1  0.92541000  0.08041000  0.68297000  1.0
  C  C80  1  0.12773000  0.86827000  0.87828000  1.0
  C  C81  1  0.87228000  0.63173000  0.37828000  1.0
  C  C82  1  0.87227000  0.13173000  0.12172000  1.0
  C  C83  1  0.12772000  0.36827000  0.62172000  1.0
  C  C84  1  0.10108000  0.84484000  0.94290000  1.0
  C  C85  1  0.89892000  0.65516000  0.44290000  1.0
  C  C86  1  0.89892000  0.15516000  0.05710000  1.0
  C  C87  1  0.10108000  0.34484000  0.55710000  1.0
  C  C88  1  0.12521000  0.77489000  0.95866000  1.0
  C  C89  1  0.87479000  0.72511000  0.45866000  1.0
  C  C90  1  0.87479000  0.22511000  0.04134000  1.0
  C  C91  1  0.12521000  0.27489000  0.54134000  1.0
  C  C92  1  0.17143000  0.73142000  0.90762000  1.0
  C  C93  1  0.82857000  0.76858000  0.40762000  1.0
  C  C94  1  0.82857000  0.26858000  0.09238000  1.0
  C  C95  1  0.17143000  0.23142000  0.59238000  1.0
  C  C96  1  0.19307000  0.75935000  0.84408000  1.0
  C  C97  1  0.80693000  0.74065000  0.34408000  1.0
  C  C98  1  0.80693000  0.24065000  0.15592000  1.0
  C  C99  1  0.19307000  0.25935000  0.65592000  1.0
  C  C100  1  0.30855000  0.64219000  0.05049000  1.0
  C  C101  1  0.69145000  0.85781000  0.55049000  1.0
  C  C102  1  0.69145000  0.35781000  0.94951000  1.0
  C  C103  1  0.30855000  0.14219000  0.44951000  1.0
  C  C104  1  0.36521000  0.57594000  0.05272000  1.0
  C  C105  1  0.63479000  0.92406000  0.55272000  1.0
  C  C106  1  0.63479000  0.42406000  0.94728000  1.0
  C  C107  1  0.36521000  0.07594000  0.44728000  1.0
  C  C108  1  0.49824000  0.57048000  0.05585000  1.0
  C  C109  1  0.50176000  0.92952000  0.55585000  1.0
  C  C110  1  0.50176000  0.42951000  0.94415000  1.0
  C  C111  1  0.49824000  0.07048000  0.44415000  1.0
  C  C112  1  0.52105000  0.68907000  0.05823000  1.0
  C  C113  1  0.47895000  0.81093000  0.55824000  1.0
  C  C114  1  0.47895000  0.31093000  0.94176000  1.0
  C  C115  1  0.52105000  0.18907000  0.44177000  1.0
  C  C116  1  0.38908000  0.69984000  0.05383000  1.0
  C  C117  1  0.61092000  0.80016000  0.55383000  1.0
  C  C118  1  0.61092000  0.30016000  0.94617000  1.0
  C  C119  1  0.38908000  0.19984000  0.44617000  1.0
  C  C120  1  0.48315000  0.78534000  0.75122000  1.0
  C  C121  1  0.51685000  0.71466000  0.25122000  1.0
  C  C122  1  0.51685000  0.21466000  0.24878000  1.0
  C  C123  1  0.48315000  0.28534000  0.74878000  1.0
  C  C124  1  0.61326000  0.76877000  0.75001000  1.0
  C  C125  1  0.38674000  0.73122000  0.25001000  1.0
  C  C126  1  0.38674000  0.23123000  0.24999000  1.0
  C  C127  1  0.61326000  0.26877000  0.74999000  1.0
  C  C128  1  0.70116000  0.82143000  0.73657000  1.0
  C  C129  1  0.29884000  0.67857000  0.23657000  1.0
  C  C130  1  0.29884000  0.17858000  0.26343000  1.0
  C  C131  1  0.70116000  0.32142000  0.76343000  1.0
  C  C132  1  0.65407000  0.88873000  0.72417000  1.0
  C  C133  1  0.34593000  0.61126000  0.22417000  1.0
  C  C134  1  0.34593000  0.11127000  0.27583000  1.0
  C  C135  1  0.65407000  0.38873000  0.77583000  1.0
  C  C136  1  0.52231000  0.90037000  0.72687000  1.0
  C  C137  1  0.47769000  0.59963000  0.22686000  1.0
  C  C138  1  0.47768000  0.09963000  0.27314000  1.0
  C  C139  1  0.52232000  0.40037000  0.77314000  1.0
  C  C140  1  0.87208000  0.68898000  0.83250000  1.0
  C  C141  1  0.12792000  0.81102000  0.33251000  1.0
  C  C142  1  0.12792000  0.31102000  0.16750000  1.0
  C  C143  1  0.87208000  0.18898000  0.66750000  1.0
  C  C144  1  0.82861000  0.73661000  0.88080000  1.0
  C  C145  1  0.17140000  0.76339000  0.38080000  1.0
  C  C146  1  0.17140000  0.26339000  0.11920000  1.0
  C  C147  1  0.82860000  0.23661000  0.61920000  1.0
  C  C148  1  0.80746000  0.71336000  0.94612000  1.0
  C  C149  1  0.19254000  0.78664000  0.44612000  1.0
  C  C150  1  0.19254000  0.28664000  0.05388000  1.0
  C  C151  1  0.80746000  0.21336000  0.55388000  1.0
  C  C152  1  0.86938000  0.60172000  0.91877000  1.0
  C  C153  1  0.13062000  0.89828000  0.41877000  1.0
  C  C154  1  0.13062000  0.39829000  0.08123000  1.0
  C  C155  1  0.86938000  0.10171000  0.58123000  1.0
  C  C156  1  0.89277000  0.62011000  0.85234000  1.0
  C  C157  1  0.10723000  0.87989000  0.35235000  1.0
  C  C158  1  0.10723000  0.37989000  0.14766000  1.0
  C  C159  1  0.89277000  0.12011000  0.64766000  1.0
  S  S160  1  0.20668000  0.98711000  0.75000000  1.0
  S  S161  1  0.79332000  0.51289000  0.25000000  1.0
  S  S162  1  0.79332000  0.01289000  0.25000000  1.0
  S  S163  1  0.20668000  0.48711000  0.75000000  1.0
  S  S164  1  0.14513000  0.83020000  0.64885000  1.0
  S  S165  1  0.85487000  0.66980000  0.14885000  1.0
  S  S166  1  0.85487000  0.16980000  0.35115000  1.0
  S  S167  1  0.14513000  0.33020000  0.85115000  1.0
  S  S168  1  0.16792000  0.00057000  0.56764000  1.0
  S  S169  1  0.83207000  0.49943000  0.06764000  1.0
  S  S170  1  0.83207000  0.99943000  0.43236000  1.0
  S  S171  1  0.16792000  0.50057000  0.93236000  1.0
  S  S172  1  0.09477000  0.74841000  0.04245000  1.0
  S  S173  1  0.90523000  0.75159000  0.54246000  1.0
  S  S174  1  0.90523000  0.25159000  0.95755000  1.0
  S  S175  1  0.09477000  0.24841000  0.45754000  1.0
  S  S176  1  0.13938000  0.64583000  0.04317000  1.0
  S  S177  1  0.86062000  0.85417000  0.54317000  1.0
  S  S178  1  0.86062000  0.35417000  0.95683000  1.0
  S  S179  1  0.13938000  0.14583000  0.45683000  1.0
  S  S180  1  0.86991000  0.81091000  0.73585000  1.0
  S  S181  1  0.13009000  0.68909000  0.23585000  1.0
  S  S182  1  0.13009000  0.18909000  0.26415000  1.0
  S  S183  1  0.86991000  0.31091000  0.76415000  1.0
  S  S184  1  0.90023000  0.70737000  0.74667000  1.0
  S  S185  1  0.09977000  0.79263000  0.24667000  1.0
  S  S186  1  0.09977000  0.29263000  0.25333000  1.0
  S  S187  1  0.90023000  0.20737000  0.75333000  1.0
  I  I188  1  0.47319000  0.11196000  0.64804000  1.0
  I  I189  1  0.52680000  0.38804000  0.14804000  1.0
  I  I190  1  0.52680000  0.88804000  0.35196000  1.0
  I  I191  1  0.47320000  0.61196000  0.85196000  1.0
  N  N192  1  0.17486000  0.82691000  0.82905000  1.0
  N  N193  1  0.82515000  0.67309000  0.32905000  1.0
  N  N194  1  0.82514000  0.17309000  0.17095000  1.0
  N  N195  1  0.17485000  0.32691000  0.67095000  1.0
  N  N196  1  0.57660000  0.62572000  0.05833000  1.0
  N  N197  1  0.42340000  0.87428000  0.55833000  1.0
  N  N198  1  0.42340000  0.37428000  0.94167000  1.0
  N  N199  1  0.57660000  0.12572000  0.44167000  1.0
  N  N200  1  0.43670000  0.84988000  0.74045000  1.0
  N  N201  1  0.56330000  0.65012000  0.24045000  1.0
  N  N202  1  0.56330000  0.15012000  0.25955000  1.0
  N  N203  1  0.43670000  0.34988000  0.75955000  1.0
  N  N204  1  0.82642000  0.64705000  0.96570000  1.0
  N  N205  1  0.17358000  0.85295000  0.46570000  1.0
  N  N206  1  0.17358000  0.35295000  0.03430000  1.0
  N  N207  1  0.82642000  0.14705000  0.53430000  1.0
  O  O208  1  0.92921000  0.95768000  0.67180000  1.0
  O  O209  1  0.07079000  0.54232000  0.17180000  1.0
  O  O210  1  0.07079000  0.04232000  0.32820000  1.0
  O  O211  1  0.92921000  0.45768000  0.82820000  1.0
