# generated using pymatgen
data_Mn2H20C26N4Cl9O5
_symmetry_space_group_name_H-M   'P 1'
_cell_length_a   9.19659000
_cell_length_b   12.53120000
_cell_length_c   16.13925024
_cell_angle_alpha   67.25340131
_cell_angle_beta   73.87868778
_cell_angle_gamma   89.84610000
_symmetry_Int_Tables_number   1
_chemical_formula_structural   Mn2H20C26N4Cl9O5
_chemical_formula_sum   'Mn4 H40 C52 N8 Cl18 O10'
_cell_volume   1636.30192333
_cell_formula_units_Z   2
loop_
 _symmetry_equiv_pos_site_id
 _symmetry_equiv_pos_as_xyz
  1  'x, y, z'
loop_
 _atom_site_type_symbol
 _atom_site_label
 _atom_site_symmetry_multiplicity
 _atom_site_fract_x
 _atom_site_fract_y
 _atom_site_fract_z
 _atom_site_occupancy
  Mn  Mn0  1  0.49973000  0.13837000  0.00018000  1.0
  Mn  Mn1  1  0.49984000  0.86083000  0.99999000  1.0
  Mn  Mn2  1  0.99968000  0.99982000  0.99993000  1.0
  Mn  Mn3  1  0.99991000  0.50031000  0.00007000  1.0
  H  H4  1  0.72990000  0.29252000  0.99734000  1.0
  H  H5  1  0.27351000  0.70999000  0.99509000  1.0
  H  H6  1  0.72739000  0.70500000  0.00423000  1.0
  H  H7  1  0.26972000  0.29085000  0.00298000  1.0
  H  H8  1  0.53130000  0.10180000  0.32824000  1.0
  H  H9  1  0.14422000  0.57097000  0.32598000  1.0
  H  H10  1  0.85657000  0.89699000  0.67356000  1.0
  H  H11  1  0.46908000  0.43015000  0.67242000  1.0
  H  H12  1  0.29170000  0.96486000  0.43043000  1.0
  H  H13  1  0.28119000  0.60510000  0.43025000  1.0
  H  H14  1  0.71984000  0.03615000  0.56954000  1.0
  H  H15  1  0.70987000  0.39562000  0.57002000  1.0
  H  H16  1  0.12770000  0.90219000  0.35262000  1.0
  H  H17  1  0.52087000  0.74486000  0.35463000  1.0
  H  H18  1  0.47923000  0.10033000  0.64553000  1.0
  H  H19  1  0.87346000  0.25412000  0.64756000  1.0
  H  H20  1  0.21259000  0.97441000  0.17668000  1.0
  H  H21  1  0.61008000  0.84872000  0.17885000  1.0
  H  H22  1  0.38896000  0.02755000  0.82144000  1.0
  H  H23  1  0.78735000  0.14944000  0.82334000  1.0
  H  H24  1  0.67243000  0.24191000  0.16793000  1.0
  H  H25  1  0.16232000  0.59142000  0.16512000  1.0
  H  H26  1  0.83838000  0.75630000  0.83408000  1.0
  H  H27  1  0.32615000  0.40899000  0.83260000  1.0
  H  H28  1  0.73415000  0.13335000  0.12552000  1.0
  H  H29  1  0.14223000  0.74223000  0.12280000  1.0
  H  H30  1  0.85771000  0.86444000  0.87694000  1.0
  H  H31  1  0.26574000  0.25822000  0.87505000  1.0
  H  H32  1  0.42525000  0.31234000  0.10663000  1.0
  H  H33  1  0.46938000  0.58171000  0.10641000  1.0
  H  H34  1  0.53183000  0.68810000  0.89284000  1.0
  H  H35  1  0.57459000  0.41779000  0.89338000  1.0
  H  H36  1  0.58675000  0.41850000  0.05119000  1.0
  H  H37  1  0.36385000  0.53083000  0.04983000  1.0
  H  H38  1  0.63768000  0.58067000  0.94936000  1.0
  H  H39  1  0.41336000  0.46985000  0.94858000  1.0
  H  H40  1  0.98476000  0.22431000  0.05429000  1.0
  H  H41  1  0.96270000  0.72246000  0.05341000  1.0
  H  H42  1  0.03661000  0.77535000  0.94594000  1.0
  H  H43  1  0.01554000  0.27758000  0.94682000  1.0
  C  C44  1  0.49700000  0.10681000  0.20004000  1.0
  C  C45  1  0.30474000  0.69380000  0.19897000  1.0
  C  C46  1  0.69523000  0.89256000  0.80080000  1.0
  C  C47  1  0.50278000  0.30612000  0.80032000  1.0
  C  C48  1  0.45786000  0.07045000  0.29769000  1.0
  C  C49  1  0.24732000  0.63251000  0.29646000  1.0
  C  C50  1  0.75310000  0.92906000  0.70323000  1.0
  C  C51  1  0.54250000  0.36791000  0.70278000  1.0
  C  C52  1  0.32454000  0.99549000  0.35404000  1.0
  C  C53  1  0.32405000  0.65077000  0.35393000  1.0
  C  C54  1  0.67648000  0.00519000  0.64590000  1.0
  C  C55  1  0.67648000  0.34941000  0.64634000  1.0
  C  C56  1  0.23333000  0.95986000  0.31119000  1.0
  C  C57  1  0.45688000  0.72888000  0.31231000  1.0
  C  C58  1  0.54314000  0.04169000  0.68774000  1.0
  C  C59  1  0.76743000  0.27039000  0.68907000  1.0
  C  C60  1  0.27938000  0.99983000  0.21366000  1.0
  C  C61  1  0.50731000  0.78651000  0.21483000  1.0
  C  C62  1  0.49216000  0.00140000  0.78528000  1.0
  C  C63  1  0.72069000  0.21224000  0.78651000  1.0
  C  C64  1  0.64063000  0.18636000  0.13550000  1.0
  C  C65  1  0.22568000  0.67908000  0.13335000  1.0
  C  C66  1  0.77454000  0.81210000  0.86620000  1.0
  C  C67  1  0.35874000  0.32129000  0.86494000  1.0
  C  C68  1  0.52552000  0.34911000  0.04393000  1.0
  C  C69  1  0.43160000  0.60732000  0.04313000  1.0
  C  C70  1  0.56956000  0.65057000  0.95614000  1.0
  C  C71  1  0.47435000  0.39283000  0.95607000  1.0
  C  C72  1  0.91363000  0.96409000  0.18428000  1.0
  C  C73  1  0.90389000  0.85164000  0.18395000  1.0
  C  C74  1  0.09570000  0.03572000  0.81563000  1.0
  C  C75  1  0.08553000  0.14823000  0.81589000  1.0
  C  C76  1  0.82693000  0.87793000  0.35584000  1.0
  C  C77  1  0.81660000  0.76614000  0.35548000  1.0
  C  C78  1  0.18343000  0.12201000  0.64408000  1.0
  C  C79  1  0.17276000  0.23389000  0.64433000  1.0
  C  C80  1  0.87688000  0.97685000  0.26987000  1.0
  C  C81  1  0.85453000  0.75344000  0.26911000  1.0
  C  C82  1  0.14536000  0.02294000  0.73013000  1.0
  C  C83  1  0.12230000  0.24656000  0.73062000  1.0
  C  C84  1  0.98549000  0.40159000  0.18354000  1.0
  C  C85  1  0.83234000  0.41605000  0.18282000  1.0
  C  C86  1  0.16745000  0.59829000  0.81733000  1.0
  C  C87  1  0.01439000  0.58473000  0.81655000  1.0
  C  C88  1  0.01721000  0.34884000  0.26953000  1.0
  C  C89  1  0.71546000  0.38299000  0.26815000  1.0
  C  C90  1  0.28425000  0.65042000  0.73203000  1.0
  C  C91  1  0.98279000  0.61820000  0.73047000  1.0
  C  C92  1  0.89853000  0.31351000  0.35533000  1.0
  C  C93  1  0.74837000  0.33166000  0.35462000  1.0
  C  C94  1  0.25145000  0.68582000  0.64549000  1.0
  C  C95  1  0.10140000  0.66873000  0.64471000  1.0
  N  N96  1  0.40898000  0.07134000  0.15878000  1.0
  N  N97  1  0.43282000  0.77021000  0.15887000  1.0
  N  N98  1  0.56668000  0.92886000  0.84110000  1.0
  N  N99  1  0.59065000  0.22897000  0.84147000  1.0
  N  N100  1  0.62328000  0.25531000  0.04241000  1.0
  N  N101  1  0.33512000  0.70274000  0.04073000  1.0
  N  N102  1  0.66544000  0.74336000  0.95876000  1.0
  N  N103  1  0.37629000  0.29781000  0.95794000  1.0
  Cl  Cl104  1  0.30194000  0.00341000  0.99860000  1.0
  Cl  Cl105  1  0.69738000  0.00125000  0.00161000  1.0
  Cl  Cl106  1  0.90015000  0.11404000  0.26749000  1.0
  Cl  Cl107  1  0.83515000  0.61918000  0.26549000  1.0
  Cl  Cl108  1  0.16523000  0.88537000  0.73297000  1.0
  Cl  Cl109  1  0.09836000  0.38103000  0.73376000  1.0
  Cl  Cl110  1  0.77836000  0.89518000  0.46031000  1.0
  Cl  Cl111  1  0.75727000  0.64468000  0.45948000  1.0
  Cl  Cl112  1  0.24361000  0.10481000  0.53971000  1.0
  Cl  Cl113  1  0.22094000  0.35550000  0.54025000  1.0
  Cl  Cl114  1  0.20208000  0.32505000  0.26830000  1.0
  Cl  Cl115  1  0.53274000  0.40927000  0.26527000  1.0
  Cl  Cl116  1  0.46683000  0.67338000  0.73503000  1.0
  Cl  Cl117  1  0.79816000  0.59330000  0.73155000  1.0
  Cl  Cl118  1  0.93967000  0.24689000  0.45985000  1.0
  Cl  Cl119  1  0.60319000  0.29315000  0.45820000  1.0
  Cl  Cl120  1  0.39646000  0.75097000  0.54201000  1.0
  Cl  Cl121  1  0.06027000  0.70724000  0.54011000  1.0
  O  O122  1  0.95967000  0.05362000  0.09917000  1.0
  O  O123  1  0.94379000  0.84727000  0.09856000  1.0
  O  O124  1  0.05614000  0.94608000  0.90079000  1.0
  O  O125  1  0.03902000  0.15256000  0.90122000  1.0
  O  O126  1  0.09144000  0.43972000  0.09921000  1.0
  O  O127  1  0.81052000  0.46292000  0.09791000  1.0
  O  O128  1  0.18927000  0.56007000  0.90225000  1.0
  O  O129  1  0.90853000  0.53849000  0.90084000  1.0
  O  O130  1  0.00065000  0.29995000  0.00046000  1.0
  O  O131  1  0.99910000  0.69990000  0.99979000  1.0
