# generated using pymatgen
data_Cu2H12C12S(IN)2
_symmetry_space_group_name_H-M   'P 1'
_cell_length_a   7.72845000
_cell_length_b   9.60181000
_cell_length_c   11.34170000
_cell_angle_alpha   78.11810000
_cell_angle_beta   70.21980000
_cell_angle_gamma   69.53150000
_symmetry_Int_Tables_number   1
_chemical_formula_structural   Cu2H12C12S(IN)2
_chemical_formula_sum   'Cu4 H24 C24 S2 I4 N4'
_cell_volume   738.30639805
_cell_formula_units_Z   2
loop_
 _symmetry_equiv_pos_site_id
 _symmetry_equiv_pos_as_xyz
  1  'x, y, z'
loop_
 _atom_site_type_symbol
 _atom_site_label
 _atom_site_symmetry_multiplicity
 _atom_site_fract_x
 _atom_site_fract_y
 _atom_site_fract_z
 _atom_site_occupancy
  Cu  Cu0  1  0.78718000  0.00972000  0.76707000  1.0
  Cu  Cu1  1  0.21282000  0.99028000  0.23293000  1.0
  Cu  Cu2  1  0.32012000  0.04618000  0.85468000  1.0
  Cu  Cu3  1  0.67988000  0.95382000  0.14532000  1.0
  H  H4  1  0.92509000  0.88176000  0.51479000  1.0
  H  H5  1  0.07491000  0.11824000  0.48521000  1.0
  H  H6  1  0.08412000  0.62847000  0.44122000  1.0
  H  H7  1  0.91588000  0.37153000  0.55878000  1.0
  H  H8  1  0.19133000  0.40981000  0.59707000  1.0
  H  H9  1  0.80867000  0.59019000  0.40293000  1.0
  H  H10  1  0.13558000  0.45850000  0.81492000  1.0
  H  H11  1  0.86442000  0.54150000  0.18508000  1.0
  H  H12  1  0.05827000  0.79377000  0.91282000  1.0
  H  H13  1  0.94173000  0.20622000  0.08719000  1.0
  H  H14  1  0.97650000  0.63533000  0.97995000  1.0
  H  H15  1  0.02350000  0.36467000  0.02005000  1.0
  H  H16  1  0.62342000  0.64930000  0.05430000  1.0
  H  H17  1  0.37658000  0.35070000  0.94570000  1.0
  H  H18  1  0.42737000  0.81608000  0.05898000  1.0
  H  H19  1  0.57263000  0.18392000  0.94102000  1.0
  H  H20  1  0.69363000  0.48222000  0.90517000  1.0
  H  H21  1  0.30637000  0.51778000  0.09482000  1.0
  H  H22  1  0.63549000  0.42515000  0.71974000  1.0
  H  H23  1  0.36451000  0.57485000  0.28026000  1.0
  H  H24  1  0.45630000  0.63925000  0.59133000  1.0
  H  H25  1  0.54369000  0.36075000  0.40867000  1.0
  H  H26  1  0.33052000  0.89382000  0.66231000  1.0
  H  H27  1  0.66948000  0.10618000  0.33769000  1.0
  C  C28  1  0.97453000  0.78522000  0.57853000  1.0
  C  C29  1  0.02548000  0.21478000  0.42147000  1.0
  C  C30  1  0.06353000  0.64284000  0.53828000  1.0
  C  C31  1  0.93647000  0.35716000  0.46172000  1.0
  C  C32  1  0.12163000  0.52337000  0.62397000  1.0
  C  C33  1  0.87837000  0.47663000  0.37603000  1.0
  C  C34  1  0.08953000  0.55060000  0.74695000  1.0
  C  C35  1  0.91047000  0.44940000  0.25305000  1.0
  C  C36  1  0.99893000  0.69572000  0.78103000  1.0
  C  C37  1  0.00107000  0.30428000  0.21897000  1.0
  C  C38  1  0.96027000  0.73432000  0.91124000  1.0
  C  C39  1  0.03973000  0.26567000  0.08876000  1.0
  C  C40  1  0.56500000  0.75142000  0.99776000  1.0
  C  C41  1  0.43500000  0.24858000  0.00223000  1.0
  C  C42  1  0.53687000  0.71681000  0.88450000  1.0
  C  C43  1  0.46313000  0.28319000  0.11550000  1.0
  C  C44  1  0.61186000  0.57098000  0.85004000  1.0
  C  C45  1  0.38814000  0.42902000  0.14996000  1.0
  C  C46  1  0.58224000  0.53938000  0.74533000  1.0
  C  C47  1  0.41776000  0.46062000  0.25466000  1.0
  C  C48  1  0.48162000  0.65662000  0.67521000  1.0
  C  C49  1  0.51837000  0.34338000  0.32479000  1.0
  C  C50  1  0.41075000  0.79920000  0.71431000  1.0
  C  C51  1  0.58925000  0.20080000  0.28570000  1.0
  S  S52  1  0.72202000  0.86962000  0.96536000  1.0
  S  S53  1  0.27798000  0.13038000  0.03464000  1.0
  I  I54  1  0.53901000  0.17285000  0.65587000  1.0
  I  I55  1  0.46099000  0.82715000  0.34412000  1.0
  I  I56  1  0.97735000  0.16093000  0.80860000  1.0
  I  I57  1  0.02265000  0.83907000  0.19140000  1.0
  N  N58  1  0.94192000  0.81152000  0.69731000  1.0
  N  N59  1  0.05808000  0.18848000  0.30269000  1.0
  N  N60  1  0.43395000  0.82985000  0.81806000  1.0
  N  N61  1  0.56605000  0.17015000  0.18195000  1.0
