# generated using pymatgen
data_ZnH18C18N4O4F
_symmetry_space_group_name_H-M   'P 1'
_cell_length_a   11.13090000
_cell_length_b   14.04760000
_cell_length_c   15.35030000
_cell_angle_alpha   89.09010000
_cell_angle_beta   88.28450000
_cell_angle_gamma   89.78470000
_symmetry_Int_Tables_number   1
_chemical_formula_structural   ZnH18C18N4O4F
_chemical_formula_sum   'Zn2 H36 C36 N8 O8 F2'
_cell_volume   2398.81898413
_cell_formula_units_Z   2
loop_
 _symmetry_equiv_pos_site_id
 _symmetry_equiv_pos_as_xyz
  1  'x, y, z'
loop_
 _atom_site_type_symbol
 _atom_site_label
 _atom_site_symmetry_multiplicity
 _atom_site_fract_x
 _atom_site_fract_y
 _atom_site_fract_z
 _atom_site_occupancy
  Zn  Zn0  1  0.49081000  0.60050000  0.49949000  1.0
  Zn  Zn1  1  0.48761000  0.39388000  0.50899000  1.0
  H  H2  1  0.88200000  0.35803000  0.51748000  1.0
  H  H3  1  0.10411000  0.35824000  0.48056000  1.0
  H  H4  1  0.62725000  0.75664000  0.57625000  1.0
  H  H5  1  0.34696000  0.74795000  0.40630000  1.0
  H  H6  1  0.89841000  0.56955000  0.46293000  1.0
  H  H7  1  0.08502000  0.56921000  0.52992000  1.0
  H  H8  1  0.39677000  0.61798000  0.95711000  1.0
  H  H9  1  0.61335000  0.61491000  0.05444000  1.0
  H  H10  1  0.60482000  0.38445000  0.76775000  1.0
  H  H11  1  0.40636000  0.36417000  0.23106000  1.0
  H  H12  1  0.62587000  0.93587000  0.57554000  1.0
  H  H13  1  0.33839000  0.92625000  0.39331000  1.0
  H  H14  1  0.30298000  0.67274000  0.83643000  1.0
  H  H15  1  0.47471000  0.77891000  0.81583000  1.0
  H  H16  1  0.36731000  0.79169000  0.73158000  1.0
  H  H17  1  0.49985000  0.72299000  0.71265000  1.0
  H  H18  1  0.70617000  0.65637000  0.18089000  1.0
  H  H19  1  0.53521000  0.76509000  0.19059000  1.0
  H  H20  1  0.63155000  0.77299000  0.28185000  1.0
  H  H21  1  0.49653000  0.70577000  0.29173000  1.0
  H  H22  1  0.26411000  0.09588000  0.62645000  1.0
  H  H23  1  0.19546000  0.94097000  0.52432000  1.0
  H  H24  1  0.20061000  0.04673000  0.45810000  1.0
  H  H25  1  0.11021000  0.04275000  0.55516000  1.0
  H  H26  1  0.64916000  0.98035000  0.39435000  1.0
  H  H27  1  0.83677000  0.98709000  0.43712000  1.0
  H  H28  1  0.80520000  0.09747000  0.48885000  1.0
  H  H29  1  0.85260000  0.09648000  0.37730000  1.0
  H  H30  1  0.24992000  0.24841000  0.59034000  1.0
  H  H31  1  0.30694000  0.30745000  0.72820000  1.0
  H  H32  1  0.45681000  0.27428000  0.70456000  1.0
  H  H33  1  0.34780000  0.18353000  0.72884000  1.0
  H  H34  1  0.68909000  0.31881000  0.44782000  1.0
  H  H35  1  0.70730000  0.17718000  0.30449000  1.0
  H  H36  1  0.80375000  0.27724000  0.31624000  1.0
  H  H37  1  0.64897000  0.29547000  0.29282000  1.0
  C  C38  1  0.49546000  0.51546000  0.67255000  1.0
  C  C39  1  0.49954000  0.49480000  0.33307000  1.0
  C  C40  1  0.50391000  0.49102000  0.95429000  1.0
  C  C41  1  0.51009000  0.48671000  0.05044000  1.0
  C  C42  1  0.39297000  0.10234000  0.53373000  1.0
  C  C43  1  0.58179000  0.09946000  0.44771000  1.0
  C  C44  1  0.41325000  0.19939000  0.54765000  1.0
  C  C45  1  0.59035000  0.20021000  0.45819000  1.0
  C  C46  1  0.48137000  0.05197000  0.48455000  1.0
  C  C47  1  0.56338000  0.89671000  0.53630000  1.0
  C  C48  1  0.40259000  0.89191000  0.43584000  1.0
  C  C49  1  0.56436000  0.79791000  0.53754000  1.0
  C  C50  1  0.40762000  0.79300000  0.44182000  1.0
  C  C51  1  0.48065000  0.94614000  0.48478000  1.0
  C  C52  1  0.25894000  0.50090000  0.50440000  1.0
  C  C53  1  0.72573000  0.50261000  0.49494000  1.0
  C  C54  1  0.92728000  0.42501000  0.50034000  1.0
  C  C55  1  0.05762000  0.42501000  0.49553000  1.0
  C  C56  1  0.85833000  0.50220000  0.48460000  1.0
  C  C57  1  0.12584000  0.50184000  0.51037000  1.0
  C  C58  1  0.44300000  0.56691000  0.91479000  1.0
  C  C59  1  0.56750000  0.55992000  0.09388000  1.0
  C  C60  1  0.43828000  0.58025000  0.82419000  1.0
  C  C61  1  0.56845000  0.56597000  0.18489000  1.0
  C  C62  1  0.49859000  0.51324000  0.77038000  1.0
  C  C63  1  0.50681000  0.49507000  0.23506000  1.0
  C  C64  1  0.55942000  0.43663000  0.80894000  1.0
  C  C65  1  0.45163000  0.41998000  0.19269000  1.0
  C  C66  1  0.56152000  0.42642000  0.89880000  1.0
  C  C67  1  0.45394000  0.41658000  0.10242000  1.0
  C  C68  1  0.43124000  0.74234000  0.76173000  1.0
  C  C69  1  0.57110000  0.72578000  0.24735000  1.0
  C  C70  1  0.19630000  0.01921000  0.52570000  1.0
  C  C71  1  0.79826000  0.05858000  0.42775000  1.0
  C  C72  1  0.36328000  0.25342000  0.69603000  1.0
  C  C73  1  0.71236000  0.25007000  0.32851000  1.0
  N  N74  1  0.50734000  0.24597000  0.50851000  1.0
  N  N75  1  0.48714000  0.74702000  0.49139000  1.0
  N  N76  1  0.36728000  0.65561000  0.79058000  1.0
  N  N77  1  0.63689000  0.63895000  0.22304000  1.0
  N  N78  1  0.29590000  0.05526000  0.57665000  1.0
  N  N79  1  0.67240000  0.04920000  0.40317000  1.0
  N  N80  1  0.33871000  0.25487000  0.60277000  1.0
  N  N81  1  0.68490000  0.25166000  0.42236000  1.0
  O  O82  1  0.51482000  0.59402000  0.63255000  1.0
  O  O83  1  0.47247000  0.57328000  0.36920000  1.0
  O  O84  1  0.47482000  0.43614000  0.63721000  1.0
  O  O85  1  0.51847000  0.41594000  0.37198000  1.0
  O  O86  1  0.30976000  0.58025000  0.51914000  1.0
  O  O87  1  0.67416000  0.58259000  0.48276000  1.0
  O  O88  1  0.31167000  0.42282000  0.48595000  1.0
  O  O89  1  0.67284000  0.42430000  0.51564000  1.0
  F  F90  1  0.62396000  0.35174000  0.93379000  1.0
  F  F91  1  0.39604000  0.34371000  0.06336000  1.0
