# generated using pymatgen
data_MnH7C7NO6
_symmetry_space_group_name_H-M   'P 1'
_cell_length_a   7.30818000
_cell_length_b   7.91971000
_cell_length_c   7.91970000
_cell_angle_alpha   100.00500000
_cell_angle_beta   100.94900000
_cell_angle_gamma   100.94800000
_symmetry_Int_Tables_number   1
_chemical_formula_structural   MnH7C7NO6
_chemical_formula_sum   'Mn2 H14 C14 N2 O12'
_cell_volume   431.25368425
_cell_formula_units_Z   2
loop_
 _symmetry_equiv_pos_site_id
 _symmetry_equiv_pos_as_xyz
  1  'x, y, z'
loop_
 _atom_site_type_symbol
 _atom_site_label
 _atom_site_symmetry_multiplicity
 _atom_site_fract_x
 _atom_site_fract_y
 _atom_site_fract_z
 _atom_site_occupancy
  Mn  Mn0  1  0.75000000  0.15819000  0.84181000  1.0
  Mn  Mn1  1  0.25000000  0.84181000  0.15819000  1.0
  H  H2  1  0.12740000  0.18496000  0.98382000  1.0
  H  H3  1  0.37260000  0.01618000  0.81504000  1.0
  H  H4  1  0.87260000  0.81504000  0.01618000  1.0
  H  H5  1  0.62740000  0.98382000  0.18496000  1.0
  H  H6  1  0.11182000  0.34645000  0.88980000  1.0
  H  H7  1  0.38818000  0.11020000  0.65355000  1.0
  H  H8  1  0.88818000  0.65355000  0.11020000  1.0
  H  H9  1  0.61183000  0.88980000  0.34645000  1.0
  H  H10  1  0.71653000  0.54911000  0.83946000  1.0
  H  H11  1  0.78347000  0.16054000  0.45090000  1.0
  H  H12  1  0.28348000  0.45090000  0.16054000  1.0
  H  H13  1  0.21653000  0.83946000  0.54910000  1.0
  H  H14  1  0.75000000  0.66709000  0.33291000  1.0
  H  H15  1  0.25000000  0.33290000  0.66709000  1.0
  C  C16  1  0.73457000  0.51317000  0.70582000  1.0
  C  C17  1  0.76543000  0.29418000  0.48683000  1.0
  C  C18  1  0.26544000  0.48683000  0.29417000  1.0
  C  C19  1  0.23457000  0.70582000  0.51317000  1.0
  C  C20  1  0.74013000  0.63482000  0.59732000  1.0
  C  C21  1  0.75986000  0.40269000  0.36518000  1.0
  C  C22  1  0.25987000  0.36518000  0.40268000  1.0
  C  C23  1  0.24013000  0.59731000  0.63482000  1.0
  C  C24  1  0.75000000  0.57722000  0.42279000  1.0
  C  C25  1  0.25000000  0.42278000  0.57721000  1.0
  C  C26  1  0.73498000  0.82142000  0.66846000  1.0
  C  C27  1  0.76502000  0.33154000  0.17858000  1.0
  C  C28  1  0.26502000  0.17858000  0.33154000  1.0
  C  C29  1  0.23498000  0.66846000  0.82142000  1.0
  N  N30  1  0.75000000  0.34678000  0.65322000  1.0
  N  N31  1  0.25000000  0.65322000  0.34678000  1.0
  O  O32  1  0.75615000  0.87404000  0.83474000  1.0
  O  O33  1  0.74385000  0.16527000  0.12596000  1.0
  O  O34  1  0.24385000  0.12596000  0.16527000  1.0
  O  O35  1  0.25615000  0.83473000  0.87404000  1.0
  O  O36  1  0.71042000  0.92417000  0.56418000  1.0
  O  O37  1  0.78959000  0.43583000  0.07584000  1.0
  O  O38  1  0.28960000  0.07583000  0.43582000  1.0
  O  O39  1  0.21041000  0.56417000  0.92416000  1.0
  O  O40  1  0.05370000  0.21977000  0.88136000  1.0
  O  O41  1  0.44630000  0.11864000  0.78023000  1.0
  O  O42  1  0.94630000  0.78022000  0.11864000  1.0
  O  O43  1  0.55371000  0.88136000  0.21978000  1.0
