# generated using pymatgen
data_AgH4C6N5O3
_symmetry_space_group_name_H-M   'P 1'
_cell_length_a   5.86541000
_cell_length_b   8.44149000
_cell_length_c   17.89920000
_cell_angle_alpha   89.99870000
_cell_angle_beta   90.72740000
_cell_angle_gamma   89.99980000
_symmetry_Int_Tables_number   1
_chemical_formula_structural   AgH4C6N5O3
_chemical_formula_sum   'Ag4 H16 C24 N20 O12'
_cell_volume   886.16808757
_cell_formula_units_Z   4
loop_
 _symmetry_equiv_pos_site_id
 _symmetry_equiv_pos_as_xyz
  1  'x, y, z'
loop_
 _atom_site_type_symbol
 _atom_site_label
 _atom_site_symmetry_multiplicity
 _atom_site_fract_x
 _atom_site_fract_y
 _atom_site_fract_z
 _atom_site_occupancy
  Ag  Ag0  1  0.47824000  0.94566000  0.15024000  1.0
  Ag  Ag1  1  0.52180000  0.44567000  0.34976000  1.0
  Ag  Ag2  1  0.52177000  0.05433000  0.84977000  1.0
  Ag  Ag3  1  0.47823000  0.55434000  0.65024000  1.0
  H  H4  1  0.82595000  0.63624000  0.21711000  1.0
  H  H5  1  0.17409000  0.13626000  0.28289000  1.0
  H  H6  1  0.17407000  0.36373000  0.78289000  1.0
  H  H7  1  0.82593000  0.86376000  0.71710000  1.0
  H  H8  1  0.15364000  0.45397000  0.20699000  1.0
  H  H9  1  0.84637000  0.95398000  0.29301000  1.0
  H  H10  1  0.84637000  0.54601000  0.79300000  1.0
  H  H11  1  0.15363000  0.04604000  0.70699000  1.0
  H  H12  1  0.37944000  0.53537000  0.15139000  1.0
  H  H13  1  0.62059000  0.03538000  0.34862000  1.0
  H  H14  1  0.62058000  0.46461000  0.84862000  1.0
  H  H15  1  0.37939000  0.96463000  0.65138000  1.0
  H  H16  1  0.19778000  0.38349000  0.11493000  1.0
  H  H17  1  0.80225000  0.88349000  0.38507000  1.0
  H  H18  1  0.80221000  0.61651000  0.88507000  1.0
  H  H19  1  0.19776000  0.11650000  0.61493000  1.0
  C  C20  1  0.86656000  0.66970000  0.16035000  1.0
  C  C21  1  0.13346000  0.16968000  0.33964000  1.0
  C  C22  1  0.13347000  0.33032000  0.83963000  1.0
  C  C23  1  0.86651000  0.83030000  0.66035000  1.0
  C  C24  1  0.86203000  0.78022000  0.05125000  1.0
  C  C25  1  0.13799000  0.28020000  0.44875000  1.0
  C  C26  1  0.13800000  0.21979000  0.94875000  1.0
  C  C27  1  0.86198000  0.71978000  0.55125000  1.0
  C  C28  1  0.79056000  0.87704000  0.99154000  1.0
  C  C29  1  0.20951000  0.37703000  0.50844000  1.0
  C  C30  1  0.20950000  0.12298000  0.00846000  1.0
  C  C31  1  0.79049000  0.62297000  0.49155000  1.0
  C  C32  1  0.04952000  0.67772000  0.05341000  1.0
  C  C33  1  0.95049000  0.17770000  0.44659000  1.0
  C  C34  1  0.95051000  0.32229000  0.94658000  1.0
  C  C35  1  0.04946000  0.82229000  0.55342000  1.0
  C  C36  1  0.21637000  0.64876000  0.99960000  1.0
  C  C37  1  0.78361000  0.14874000  0.50040000  1.0
  C  C38  1  0.78366000  0.35128000  0.00041000  1.0
  C  C39  1  0.21633000  0.85126000  0.49960000  1.0
  C  C40  1  0.20578000  0.48809000  0.15091000  1.0
  C  C41  1  0.79424000  0.98810000  0.34910000  1.0
  C  C42  1  0.79423000  0.51190000  0.84909000  1.0
  C  C43  1  0.20574000  0.01190000  0.65091000  1.0
  N  N44  1  0.75155000  0.77384000  0.11849000  1.0
  N  N45  1  0.24847000  0.27383000  0.38151000  1.0
  N  N46  1  0.24849000  0.22616000  0.88151000  1.0
  N  N47  1  0.75151000  0.72617000  0.61849000  1.0
  N  N48  1  0.35307000  0.62703000  0.95378000  1.0
  N  N49  1  0.64692000  0.12702000  0.54623000  1.0
  N  N50  1  0.64696000  0.37298000  0.04622000  1.0
  N  N51  1  0.35304000  0.87296000  0.45378000  1.0
  N  N52  1  0.73466000  0.95725000  0.94148000  1.0
  N  N53  1  0.26533000  0.45723000  0.55852000  1.0
  N  N54  1  0.26536000  0.04278000  0.05852000  1.0
  N  N55  1  0.73464000  0.54276000  0.44148000  1.0
  N  N56  1  0.04645000  0.60837000  0.12319000  1.0
  N  N57  1  0.95356000  0.10836000  0.37681000  1.0
  N  N58  1  0.95355000  0.39164000  0.87680000  1.0
  N  N59  1  0.04642000  0.89163000  0.62319000  1.0
  N  N60  1  0.71646000  0.24020000  0.21512000  1.0
  N  N61  1  0.28356000  0.74021000  0.28488000  1.0
  N  N62  1  0.28353000  0.75979000  0.78488000  1.0
  N  N63  1  0.71644000  0.25978000  0.71512000  1.0
  O  O64  1  0.78101000  0.36251000  0.25199000  1.0
  O  O65  1  0.21901000  0.86251000  0.24801000  1.0
  O  O66  1  0.21899000  0.63749000  0.74801000  1.0
  O  O67  1  0.78100000  0.13749000  0.75200000  1.0
  O  O68  1  0.50799000  0.19703000  0.21856000  1.0
  O  O69  1  0.49203000  0.69704000  0.28144000  1.0
  O  O70  1  0.49199000  0.80297000  0.78144000  1.0
  O  O71  1  0.50796000  0.30295000  0.71856000  1.0
  O  O72  1  0.85694000  0.16296000  0.17746000  1.0
  O  O73  1  0.14309000  0.66295000  0.32255000  1.0
  O  O74  1  0.14304000  0.83703000  0.82255000  1.0
  O  O75  1  0.85691000  0.33704000  0.67745000  1.0
