# generated using pymatgen
data_Cu3H26C44(N6O19)2
_symmetry_space_group_name_H-M   'P 1'
_cell_length_a   11.59740000
_cell_length_b   11.99960000
_cell_length_c   12.74520000
_cell_angle_alpha   73.29310000
_cell_angle_beta   71.34260000
_cell_angle_gamma   62.37940000
_symmetry_Int_Tables_number   1
_chemical_formula_structural   Cu3H26C44(N6O19)2
_chemical_formula_sum   'Cu3 H26 C44 N12 O38'
_cell_volume   1468.35352813
_cell_formula_units_Z   1
loop_
 _symmetry_equiv_pos_site_id
 _symmetry_equiv_pos_as_xyz
  1  'x, y, z'
loop_
 _atom_site_type_symbol
 _atom_site_label
 _atom_site_symmetry_multiplicity
 _atom_site_fract_x
 _atom_site_fract_y
 _atom_site_fract_z
 _atom_site_occupancy
  Cu  Cu0  1  0.11416000  0.42579000  0.02245000  1.0
  Cu  Cu1  1  0.88584000  0.57422000  0.97755000  1.0
  Cu  Cu2  1  0.50001000  0.00000000  0.00000000  1.0
  H  H3  1  0.80127000  0.90616000  0.10744000  1.0
  H  H4  1  0.19874000  0.09383000  0.89256000  1.0
  H  H5  1  0.03205000  0.07199000  0.16524000  1.0
  H  H6  1  0.96794000  0.92802000  0.83475000  1.0
  H  H7  1  0.22347000  0.68864000  0.09255000  1.0
  H  H8  1  0.77654000  0.31137000  0.90745000  1.0
  H  H9  1  0.39141000  0.03725000  0.32564000  1.0
  H  H10  1  0.60859000  0.96274000  0.67437000  1.0
  H  H11  1  0.19899000  0.30304000  0.55904000  1.0
  H  H12  1  0.80100000  0.69695000  0.44096000  1.0
  H  H13  1  0.22694000  0.44243000  0.20348000  1.0
  H  H14  1  0.77307000  0.55756000  0.79652000  1.0
  H  H15  1  0.37405000  0.52314000  0.72743000  1.0
  H  H16  1  0.62595000  0.47686000  0.27257000  1.0
  H  H17  1  0.34975000  0.78613000  0.41411000  1.0
  H  H18  1  0.65024000  0.21388000  0.58589000  1.0
  H  H19  1  0.64434000  0.77974000  0.04743000  1.0
  H  H20  1  0.35567000  0.22025000  0.95257000  1.0
  H  H21  1  0.99339000  0.75316000  0.63605000  1.0
  H  H22  1  0.00661000  0.24684000  0.36395000  1.0
  H  H23  1  0.66624000  0.71962000  0.23096000  1.0
  H  H24  1  0.33377000  0.28038000  0.76904000  1.0
  H  H25  1  0.49069000  0.80039000  0.23587000  1.0
  H  H26  1  0.50932000  0.19961000  0.76413000  1.0
  H  H27  1  0.57982000  0.88311000  0.24969000  1.0
  H  H28  1  0.42018000  0.11688000  0.75031000  1.0
  C  C29  1  0.00714000  0.67754000  0.06502000  1.0
  C  C30  1  0.99286000  0.32246000  0.93498000  1.0
  C  C31  1  0.01136000  0.78520000  0.09837000  1.0
  C  C32  1  0.98865000  0.21480000  0.90162000  1.0
  C  C33  1  0.89601000  0.89697000  0.11574000  1.0
  C  C34  1  0.10400000  0.10303000  0.88425000  1.0
  C  C35  1  0.90542000  0.99700000  0.14216000  1.0
  C  C36  1  0.09457000  0.00300000  0.85784000  1.0
  C  C37  1  0.02570000  0.99180000  0.14776000  1.0
  C  C38  1  0.97429000  0.00820000  0.85224000  1.0
  C  C39  1  0.13835000  0.87928000  0.12853000  1.0
  C  C40  1  0.86165000  0.12072000  0.87147000  1.0
  C  C41  1  0.13326000  0.77495000  0.10665000  1.0
  C  C42  1  0.86674000  0.22506000  0.89335000  1.0
  C  C43  1  0.35947000  0.20658000  0.13440000  1.0
  C  C44  1  0.64053000  0.79341000  0.86560000  1.0
  C  C45  1  0.31493000  0.23638000  0.25149000  1.0
  C  C46  1  0.68507000  0.76361000  0.74851000  1.0
  C  C47  1  0.33998000  0.13497000  0.34114000  1.0
  C  C48  1  0.66002000  0.86502000  0.65886000  1.0
  C  C49  1  0.29747000  0.16064000  0.45012000  1.0
  C  C50  1  0.70253000  0.83936000  0.54989000  1.0
  C  C51  1  0.23138000  0.28419000  0.47368000  1.0
  C  C52  1  0.76862000  0.71580000  0.52632000  1.0
  C  C53  1  0.20900000  0.38305000  0.38271000  1.0
  C  C54  1  0.79100000  0.61695000  0.61729000  1.0
  C  C55  1  0.24844000  0.36217000  0.27200000  1.0
  C  C56  1  0.75157000  0.63782000  0.72800000  1.0
  C  C57  1  0.11049000  0.57668000  0.80311000  1.0
  C  C58  1  0.88952000  0.42331000  0.19689000  1.0
  C  C59  1  0.17692000  0.63070000  0.69255000  1.0
  C  C60  1  0.82308000  0.36930000  0.30745000  1.0
  C  C61  1  0.31472000  0.59344000  0.66826000  1.0
  C  C62  1  0.68529000  0.40656000  0.33173000  1.0
  C  C63  1  0.37408000  0.65030000  0.56836000  1.0
  C  C64  1  0.62592000  0.34970000  0.43163000  1.0
  C  C65  1  0.30171000  0.74232000  0.49128000  1.0
  C  C66  1  0.69828000  0.25768000  0.50872000  1.0
  C  C67  1  0.16498000  0.77633000  0.51797000  1.0
  C  C68  1  0.83501000  0.22367000  0.48203000  1.0
  C  C69  1  0.10082000  0.72280000  0.61721000  1.0
  C  C70  1  0.89918000  0.27720000  0.38279000  1.0
  C  C71  1  0.58532000  0.81138000  0.20912000  1.0
  C  C72  1  0.41469000  0.18862000  0.79088000  1.0
  N  N73  1  0.26908000  0.87147000  0.12664000  1.0
  N  N74  1  0.73091000  0.12854000  0.87336000  1.0
  N  N75  1  0.78472000  0.11627000  0.15854000  1.0
  N  N76  1  0.21527000  0.88372000  0.84146000  1.0
  N  N77  1  0.32413000  0.05352000  0.54402000  1.0
  N  N78  1  0.67587000  0.94648000  0.45599000  1.0
  N  N79  1  0.14061000  0.51465000  0.40633000  1.0
  N  N80  1  0.85939000  0.48535000  0.59366000  1.0
  N  N81  1  0.08569000  0.87395000  0.43849000  1.0
  N  N82  1  0.91430000  0.12605000  0.56151000  1.0
  N  N83  1  0.51896000  0.61200000  0.54356000  1.0
  N  N84  1  0.48104000  0.38801000  0.45643000  1.0
  O  O85  1  0.10800000  0.57109000  0.07132000  1.0
  O  O86  1  0.89201000  0.42892000  0.92868000  1.0
  O  O87  1  0.09583000  0.29658000  0.96876000  1.0
  O  O88  1  0.90417000  0.70342000  0.03125000  1.0
  O  O89  1  0.36133000  0.76445000  0.13744000  1.0
  O  O90  1  0.63868000  0.23557000  0.86255000  1.0
  O  O91  1  0.27896000  0.97386000  0.11260000  1.0
  O  O92  1  0.72103000  0.02615000  0.88740000  1.0
  O  O93  1  0.79267000  0.19795000  0.19405000  1.0
  O  O94  1  0.20731000  0.80205000  0.80596000  1.0
  O  O95  1  0.68433000  0.12860000  0.13353000  1.0
  O  O96  1  0.31567000  0.87139000  0.86647000  1.0
  O  O97  1  0.31458000  0.29291000  0.05462000  1.0
  O  O98  1  0.68543000  0.70709000  0.94538000  1.0
  O  O99  1  0.44210000  0.09173000  0.12481000  1.0
  O  O100  1  0.55792000  0.90827000  0.87519000  1.0
  O  O101  1  0.38494000  0.94373000  0.52147000  1.0
  O  O102  1  0.61506000  0.05627000  0.47854000  1.0
  O  O103  1  0.28536000  0.07901000  0.64028000  1.0
  O  O104  1  0.71464000  0.92099000  0.35972000  1.0
  O  O105  1  0.10860000  0.52919000  0.50568000  1.0
  O  O106  1  0.89140000  0.47081000  0.49432000  1.0
  O  O107  1  0.11875000  0.60329000  0.32597000  1.0
  O  O108  1  0.88125000  0.39670000  0.67402000  1.0
  O  O109  1  0.18716000  0.48997000  0.86545000  1.0
  O  O110  1  0.81285000  0.51001000  0.13455000  1.0
  O  O111  1  0.01657000  0.37540000  0.17427000  1.0
  O  O112  1  0.98344000  0.62460000  0.82574000  1.0
  O  O113  1  0.58134000  0.53019000  0.61389000  1.0
  O  O114  1  0.41865000  0.46983000  0.38610000  1.0
  O  O115  1  0.57074000  0.66227000  0.45347000  1.0
  O  O116  1  0.42925000  0.33774000  0.54652000  1.0
  O  O117  1  0.14470000  0.92485000  0.35388000  1.0
  O  O118  1  0.85529000  0.07516000  0.64612000  1.0
  O  O119  1  0.96446000  0.90101000  0.46070000  1.0
  O  O120  1  0.03553000  0.09899000  0.53930000  1.0
  O  O121  1  0.61630000  0.85131000  0.08973000  1.0
  O  O122  1  0.38370000  0.14869000  0.91027000  1.0
