# generated using pymatgen
data_CdH2C8(ClO2)2
_symmetry_space_group_name_H-M   'P 1'
_cell_length_a   7.10402000
_cell_length_b   7.85514000
_cell_length_c   16.77570000
_cell_angle_alpha   96.70880000
_cell_angle_beta   89.99980000
_cell_angle_gamma   89.99990000
_symmetry_Int_Tables_number   1
_chemical_formula_structural   CdH2C8(ClO2)2
_chemical_formula_sum   'Cd4 H8 C32 Cl8 O16'
_cell_volume   929.72560537
_cell_formula_units_Z   4
loop_
 _symmetry_equiv_pos_site_id
 _symmetry_equiv_pos_as_xyz
  1  'x, y, z'
loop_
 _atom_site_type_symbol
 _atom_site_label
 _atom_site_symmetry_multiplicity
 _atom_site_fract_x
 _atom_site_fract_y
 _atom_site_fract_z
 _atom_site_occupancy
  Cd  Cd0  1  0.88466000  0.20099000  0.56163000  1.0
  Cd  Cd1  1  0.38466000  0.29902000  0.43837000  1.0
  Cd  Cd2  1  0.11534000  0.79901000  0.43837000  1.0
  Cd  Cd3  1  0.61534000  0.70098000  0.56163000  1.0
  H  H4  1  0.52251000  0.44362000  0.71890000  1.0
  H  H5  1  0.02251000  0.05639000  0.28110000  1.0
  H  H6  1  0.47749000  0.55638000  0.28110000  1.0
  H  H7  1  0.97749000  0.94361000  0.71890000  1.0
  H  H8  1  0.89097000  0.64250000  0.81145000  1.0
  H  H9  1  0.39097000  0.85750000  0.18855000  1.0
  H  H10  1  0.10903000  0.35750000  0.18855000  1.0
  H  H11  1  0.60903000  0.14250000  0.81145000  1.0
  C  C12  1  0.89487000  0.57651000  0.65560000  1.0
  C  C13  1  0.39487000  0.92349000  0.34440000  1.0
  C  C14  1  0.10513000  0.42349000  0.34440000  1.0
  C  C15  1  0.60513000  0.07651000  0.65560000  1.0
  C  C16  1  0.05458000  0.53877000  0.70968000  1.0
  C  C17  1  0.55457000  0.96123000  0.29032000  1.0
  C  C18  1  0.94543000  0.46123000  0.29032000  1.0
  C  C19  1  0.44542000  0.03877000  0.70968000  1.0
  C  C20  1  0.17362000  0.59148000  0.84714000  1.0
  C  C21  1  0.67362000  0.90852000  0.15286000  1.0
  C  C22  1  0.82638000  0.40851000  0.15286000  1.0
  C  C23  1  0.32638000  0.09148000  0.84714000  1.0
  C  C24  1  0.38263000  0.48547000  0.73909000  1.0
  C  C25  1  0.88263000  0.01454000  0.26091000  1.0
  C  C26  1  0.61737000  0.51453000  0.26091000  1.0
  C  C27  1  0.11737000  0.98546000  0.73909000  1.0
  C  C28  1  0.28978000  0.40088000  0.60068000  1.0
  C  C29  1  0.78978000  0.09912000  0.39932000  1.0
  C  C30  1  0.71022000  0.59912000  0.39932000  1.0
  C  C31  1  0.21021000  0.90088000  0.60068000  1.0
  C  C32  1  0.02834000  0.59334000  0.79146000  1.0
  C  C33  1  0.52833000  0.90667000  0.20854000  1.0
  C  C34  1  0.97166000  0.40666000  0.20854000  1.0
  C  C35  1  0.47166000  0.09334000  0.79146000  1.0
  C  C36  1  0.23426000  0.47645000  0.68359000  1.0
  C  C37  1  0.73427000  0.02356000  0.31641000  1.0
  C  C38  1  0.76574000  0.52355000  0.31641000  1.0
  C  C39  1  0.26574000  0.97644000  0.68359000  1.0
  C  C40  1  0.35509000  0.54281000  0.81991000  1.0
  C  C41  1  0.85509000  0.95720000  0.18009000  1.0
  C  C42  1  0.64491000  0.45719000  0.18009000  1.0
  C  C43  1  0.14491000  0.04281000  0.81991000  1.0
  Cl  Cl44  1  0.13024000  0.65538000  0.94671000  1.0
  Cl  Cl45  1  0.63024000  0.84462000  0.05329000  1.0
  Cl  Cl46  1  0.86976000  0.34461000  0.05329000  1.0
  Cl  Cl47  1  0.36976000  0.15539000  0.94671000  1.0
  Cl  Cl48  1  0.54386000  0.55340000  0.88433000  1.0
  Cl  Cl49  1  0.04386000  0.94661000  0.11566000  1.0
  Cl  Cl50  1  0.45614000  0.44660000  0.11567000  1.0
  Cl  Cl51  1  0.95614000  0.05339000  0.88434000  1.0
  O  O52  1  0.87414000  0.49631000  0.58510000  1.0
  O  O53  1  0.37414000  0.00369000  0.41490000  1.0
  O  O54  1  0.12585000  0.50369000  0.41490000  1.0
  O  O55  1  0.62585000  0.99631000  0.58510000  1.0
  O  O56  1  0.44865000  0.44193000  0.57326000  1.0
  O  O57  1  0.94865000  0.05808000  0.42674000  1.0
  O  O58  1  0.55135000  0.55807000  0.42674000  1.0
  O  O59  1  0.05135000  0.94193000  0.57326000  1.0
  O  O60  1  0.19142000  0.28703000  0.55901000  1.0
  O  O61  1  0.69143000  0.21298000  0.44099000  1.0
  O  O62  1  0.80857000  0.71297000  0.44099000  1.0
  O  O63  1  0.30857000  0.78703000  0.55901000  1.0
  O  O64  1  0.78448000  0.69866000  0.68109000  1.0
  O  O65  1  0.28448000  0.80134000  0.31891000  1.0
  O  O66  1  0.21552000  0.30134000  0.31891000  1.0
  O  O67  1  0.71552000  0.19866000  0.68109000  1.0
