# generated using pymatgen
data_Zn4H33C45N3O13
_symmetry_space_group_name_H-M   'P 1'
_cell_length_a   19.20749259
_cell_length_b   19.21150000
_cell_length_c   25.20725462
_cell_angle_alpha   67.60979443
_cell_angle_beta   67.60489651
_cell_angle_gamma   60.00690000
_symmetry_Int_Tables_number   1
_chemical_formula_structural   Zn4H33C45N3O13
_chemical_formula_sum   'Zn16 H132 C180 N12 O52'
_cell_volume   7234.64343557
_cell_formula_units_Z   4
loop_
 _symmetry_equiv_pos_site_id
 _symmetry_equiv_pos_as_xyz
  1  'x, y, z'
loop_
 _atom_site_type_symbol
 _atom_site_label
 _atom_site_symmetry_multiplicity
 _atom_site_fract_x
 _atom_site_fract_y
 _atom_site_fract_z
 _atom_site_occupancy
  Zn  Zn0  1  0.55941000  0.69110000  0.00234000  1.0
  Zn  Zn1  1  0.13415000  0.25548000  0.54573000  1.0
  Zn  Zn2  1  0.69103000  0.74709000  0.00245000  1.0
  Zn  Zn3  1  0.25554000  0.06458000  0.54584000  1.0
  Zn  Zn4  1  0.74701000  0.55946000  0.00240000  1.0
  Zn  Zn5  1  0.06476000  0.13390000  0.54575000  1.0
  Zn  Zn6  1  0.62738000  0.62738000  0.11784000  1.0
  Zn  Zn7  1  0.18937000  0.18922000  0.43209000  1.0
  Zn  Zn8  1  0.44056000  0.25291000  0.99755000  1.0
  Zn  Zn9  1  0.86595000  0.93543000  0.45416000  1.0
  Zn  Zn10  1  0.30887000  0.44054000  0.99760000  1.0
  Zn  Zn11  1  0.74441000  0.86610000  0.45425000  1.0
  Zn  Zn12  1  0.25285000  0.30890000  0.99766000  1.0
  Zn  Zn13  1  0.93536000  0.74453000  0.45427000  1.0
  Zn  Zn14  1  0.37260000  0.37262000  0.88216000  1.0
  Zn  Zn15  1  0.81067000  0.81079000  0.56791000  1.0
  H  H16  1  0.30513000  0.76598000  0.09657000  1.0
  H  H17  1  0.16813000  0.77020000  0.15912000  1.0
  H  H18  1  0.28707000  0.57267000  0.29459000  1.0
  H  H19  1  0.42138000  0.57805000  0.23426000  1.0
  H  H20  1  0.07017000  0.79865000  0.25129000  1.0
  H  H21  1  0.01654000  0.73601000  0.30099000  1.0
  H  H22  1  0.04365000  0.74380000  0.22363000  1.0
  H  H23  1  0.08427000  0.51051000  0.45426000  1.0
  H  H24  1  0.08182000  0.64471000  0.38494000  1.0
  H  H25  1  0.20075000  0.52891000  0.23867000  1.0
  H  H26  1  0.20414000  0.39419000  0.30826000  1.0
  H  H27  1  0.82638000  0.23849000  0.65173000  1.0
  H  H28  1  0.69622000  0.30785000  0.71842000  1.0
  H  H29  1  0.79030000  0.47299000  0.71398000  1.0
  H  H30  1  0.92223000  0.40013000  0.64914000  1.0
  H  H31  1  0.59331000  0.41560000  0.72013000  1.0
  H  H32  1  0.53613000  0.50366000  0.74974000  1.0
  H  H33  1  0.55523000  0.40349000  0.79822000  1.0
  H  H34  1  0.52362000  0.61248000  0.88323000  1.0
  H  H35  1  0.52846000  0.55975000  0.80652000  1.0
  H  H36  1  0.77838000  0.37835000  0.81442000  1.0
  H  H37  1  0.77217000  0.43399000  0.89090000  1.0
  H  H38  1  0.76558000  0.83279000  0.09647000  1.0
  H  H39  1  0.76985000  0.90290000  0.15907000  1.0
  H  H40  1  0.57275000  0.84540000  0.29471000  1.0
  H  H41  1  0.57816000  0.76607000  0.23435000  1.0
  H  H42  1  0.79889000  0.87971000  0.25114000  1.0
  H  H43  1  0.73638000  0.94626000  0.30087000  1.0
  H  H44  1  0.74386000  0.98866000  0.22354000  1.0
  H  H45  1  0.51058000  0.95079000  0.45443000  1.0
  H  H46  1  0.64485000  0.88811000  0.38518000  1.0
  H  H47  1  0.52930000  0.03157000  0.23879000  1.0
  H  H48  1  0.39454000  0.09350000  0.30829000  1.0
  H  H49  1  0.23866000  0.28319000  0.65186000  1.0
  H  H50  1  0.30796000  0.27735000  0.71856000  1.0
  H  H51  1  0.47319000  0.02263000  0.71409000  1.0
  H  H52  1  0.40042000  0.02833000  0.64923000  1.0
  H  H53  1  0.41576000  0.27079000  0.72021000  1.0
  H  H54  1  0.50382000  0.21041000  0.74981000  1.0
  H  H55  1  0.40363000  0.24300000  0.79829000  1.0
  H  H56  1  0.61268000  0.98053000  0.88335000  1.0
  H  H57  1  0.55996000  0.10513000  0.80661000  1.0
  H  H58  1  0.37849000  0.02879000  0.81451000  1.0
  H  H59  1  0.43421000  0.90283000  0.89096000  1.0
  H  H60  1  0.83238000  0.30534000  0.09649000  1.0
  H  H61  1  0.90259000  0.16832000  0.15901000  1.0
  H  H62  1  0.84554000  0.28705000  0.29464000  1.0
  H  H63  1  0.76619000  0.42143000  0.23435000  1.0
  H  H64  1  0.87953000  0.07035000  0.25126000  1.0
  H  H65  1  0.94612000  0.01667000  0.30095000  1.0
  H  H66  1  0.98855000  0.04382000  0.22361000  1.0
  H  H67  1  0.95098000  0.08416000  0.45424000  1.0
  H  H68  1  0.88825000  0.08193000  0.38500000  1.0
  H  H69  1  0.03147000  0.20070000  0.23869000  1.0
  H  H70  1  0.09348000  0.20393000  0.30820000  1.0
  H  H71  1  0.28329000  0.82617000  0.65175000  1.0
  H  H72  1  0.27734000  0.69610000  0.71852000  1.0
  H  H73  1  0.02249000  0.79023000  0.71414000  1.0
  H  H74  1  0.02830000  0.92212000  0.64931000  1.0
  H  H75  1  0.27080000  0.59329000  0.72023000  1.0
  H  H76  1  0.21032000  0.53606000  0.74982000  1.0
  H  H77  1  0.24292000  0.55514000  0.79830000  1.0
  H  H78  1  0.98042000  0.52366000  0.88339000  1.0
  H  H79  1  0.10512000  0.52841000  0.80673000  1.0
  H  H80  1  0.02879000  0.77832000  0.81453000  1.0
  H  H81  1  0.90277000  0.77217000  0.89096000  1.0
  H  H82  1  0.69485000  0.16720000  0.90353000  1.0
  H  H83  1  0.83183000  0.09709000  0.84093000  1.0
  H  H84  1  0.71286000  0.15460000  0.70529000  1.0
  H  H85  1  0.57858000  0.23392000  0.76565000  1.0
  H  H86  1  0.92974000  0.12029000  0.74886000  1.0
  H  H87  1  0.98351000  0.05373000  0.69914000  1.0
  H  H88  1  0.95606000  0.01134000  0.77646000  1.0
  H  H89  1  0.91580000  0.04921000  0.54557000  1.0
  H  H90  1  0.91814000  0.11189000  0.61482000  1.0
  H  H91  1  0.79966000  0.96843000  0.76121000  1.0
  H  H92  1  0.79633000  0.90650000  0.69171000  1.0
  H  H93  1  0.17371000  0.71682000  0.34814000  1.0
  H  H94  1  0.30387000  0.72265000  0.28144000  1.0
  H  H95  1  0.20991000  0.97736000  0.28591000  1.0
  H  H96  1  0.07798000  0.97166000  0.35077000  1.0
  H  H97  1  0.40676000  0.72921000  0.27979000  1.0
  H  H98  1  0.46404000  0.78960000  0.25018000  1.0
  H  H99  1  0.44492000  0.75699000  0.20172000  1.0
  H  H100  1  0.47656000  0.01947000  0.11665000  1.0
  H  H101  1  0.47170000  0.89488000  0.19339000  1.0
  H  H102  1  0.22179000  0.97121000  0.18549000  1.0
  H  H103  1  0.22801000  0.09716000  0.10904000  1.0
  H  H104  1  0.23420000  0.69467000  0.90351000  1.0
  H  H105  1  0.22992000  0.83168000  0.84099000  1.0
  H  H106  1  0.42723000  0.71295000  0.70536000  1.0
  H  H107  1  0.42197000  0.57857000  0.76565000  1.0
  H  H108  1  0.20114000  0.92965000  0.74874000  1.0
  H  H109  1  0.26374000  0.98333000  0.69905000  1.0
  H  H110  1  0.25598000  0.95619000  0.77639000  1.0
  H  H111  1  0.48938000  0.91585000  0.54576000  1.0
  H  H112  1  0.35518000  0.91807000  0.61500000  1.0
  H  H113  1  0.47086000  0.79930000  0.76131000  1.0
  H  H114  1  0.60561000  0.79607000  0.69180000  1.0
  H  H115  1  0.76121000  0.17383000  0.34825000  1.0
  H  H116  1  0.69196000  0.30390000  0.28148000  1.0
  H  H117  1  0.52686000  0.20977000  0.28586000  1.0
  H  H118  1  0.59973000  0.07787000  0.35070000  1.0
  H  H119  1  0.58432000  0.40672000  0.27977000  1.0
  H  H120  1  0.49621000  0.46393000  0.25018000  1.0
  H  H121  1  0.59636000  0.44486000  0.20170000  1.0
  H  H122  1  0.38748000  0.47633000  0.11661000  1.0
  H  H123  1  0.44026000  0.47159000  0.19327000  1.0
  H  H124  1  0.62164000  0.22169000  0.18547000  1.0
  H  H125  1  0.56590000  0.22783000  0.10904000  1.0
  H  H126  1  0.16768000  0.23402000  0.90343000  1.0
  H  H127  1  0.09745000  0.22981000  0.84088000  1.0
  H  H128  1  0.15433000  0.42733000  0.70541000  1.0
  H  H129  1  0.23369000  0.42196000  0.76574000  1.0
  H  H130  1  0.12011000  0.20136000  0.74871000  1.0
  H  H131  1  0.05354000  0.26400000  0.69901000  1.0
  H  H132  1  0.01108000  0.25622000  0.77636000  1.0
  H  H133  1  0.04904000  0.48949000  0.54574000  1.0
  H  H134  1  0.11147000  0.35529000  0.61506000  1.0
  H  H135  1  0.96833000  0.47109000  0.76133000  1.0
  H  H136  1  0.90659000  0.60582000  0.69174000  1.0
  H  H137  1  0.71660000  0.76150000  0.34828000  1.0
  H  H138  1  0.72248000  0.69216000  0.28158000  1.0
  H  H139  1  0.97727000  0.52701000  0.28602000  1.0
  H  H140  1  0.97150000  0.59988000  0.35085000  1.0
  H  H141  1  0.72904000  0.58440000  0.27987000  1.0
  H  H142  1  0.78953000  0.49634000  0.25026000  1.0
  H  H143  1  0.75694000  0.59651000  0.20178000  1.0
  H  H144  1  0.01933000  0.38752000  0.11677000  1.0
  H  H145  1  0.89473000  0.44026000  0.19347000  1.0
  H  H146  1  0.97115000  0.62165000  0.18558000  1.0
  H  H147  1  0.09706000  0.56601000  0.10910000  1.0
  C  C148  1  0.45521000  0.66695000  0.12338000  1.0
  C  C149  1  0.37289000  0.67037000  0.16064000  1.0
  C  C150  1  0.30037000  0.72480000  0.14048000  1.0
  C  C151  1  0.22357000  0.72657000  0.17551000  1.0
  C  C152  1  0.21742000  0.67035000  0.23113000  1.0
  C  C153  1  0.29087000  0.61494000  0.25108000  1.0
  C  C154  1  0.36603000  0.61715000  0.21717000  1.0
  C  C155  1  0.06419000  0.74103000  0.26011000  1.0
  C  C156  1  0.15138000  0.36168000  0.42607000  1.0
  C  C157  1  0.14530000  0.44361000  0.38562000  1.0
  C  C158  1  0.10958000  0.51459000  0.40708000  1.0
  C  C159  1  0.10734000  0.58987000  0.36843000  1.0
  C  C160  1  0.14095000  0.59493000  0.30775000  1.0
  C  C161  1  0.17539000  0.52427000  0.28601000  1.0
  C  C162  1  0.17746000  0.44941000  0.32459000  1.0
  C  C163  1  0.96429000  0.26768000  0.60968000  1.0
  C  C164  1  0.88429000  0.31294000  0.64682000  1.0
  C  C165  1  0.81840000  0.28990000  0.66539000  1.0
  C  C166  1  0.74453000  0.32987000  0.70245000  1.0
  C  C167  1  0.73330000  0.39523000  0.72199000  1.0
  C  C168  1  0.79860000  0.42049000  0.70144000  1.0
  C  C169  1  0.87263000  0.37965000  0.66499000  1.0
  C  C170  1  0.58187000  0.43918000  0.75720000  1.0
  C  C171  1  0.64704000  0.56222000  0.93551000  1.0
  C  C172  1  0.64815000  0.52808000  0.89126000  1.0
  C  C173  1  0.57960000  0.56155000  0.86759000  1.0
  C  C174  1  0.58268000  0.53137000  0.82423000  1.0
  C  C175  1  0.65519000  0.46638000  0.80291000  1.0
  C  C176  1  0.72309000  0.43093000  0.82840000  1.0
  C  C177  1  0.71960000  0.46162000  0.87138000  1.0
  C  C178  1  0.66698000  0.75437000  0.12345000  1.0
  C  C179  1  0.67036000  0.79606000  0.16068000  1.0
  C  C180  1  0.72454000  0.83461000  0.14045000  1.0
  C  C181  1  0.72632000  0.87457000  0.17549000  1.0
  C  C182  1  0.67029000  0.88102000  0.23122000  1.0
  C  C183  1  0.61492000  0.84301000  0.25115000  1.0
  C  C184  1  0.61718000  0.79954000  0.21723000  1.0
  C  C185  1  0.74125000  0.93442000  0.26005000  1.0
  C  C186  1  0.36182000  0.06083000  0.42613000  1.0
  C  C187  1  0.44382000  0.02539000  0.38574000  1.0
  C  C188  1  0.51476000  0.96859000  0.40723000  1.0
  C  C189  1  0.59006000  0.93405000  0.36863000  1.0
  C  C190  1  0.59518000  0.95610000  0.30793000  1.0
  C  C191  1  0.52461000  0.01424000  0.28614000  1.0
  C  C192  1  0.44970000  0.04854000  0.32469000  1.0
  C  C193  1  0.26786000  0.15817000  0.60978000  1.0
  C  C194  1  0.31319000  0.15579000  0.64688000  1.0
  C  C195  1  0.29013000  0.22612000  0.66549000  1.0
  C  C196  1  0.33007000  0.22299000  0.70256000  1.0
  C  C197  1  0.39543000  0.14934000  0.72211000  1.0
  C  C198  1  0.42069000  0.07936000  0.70154000  1.0
  C  C199  1  0.37991000  0.08260000  0.66505000  1.0
  C  C200  1  0.43933000  0.22164000  0.75729000  1.0
  C  C201  1  0.56231000  0.85520000  0.93558000  1.0
  C  C202  1  0.52821000  0.93248000  0.89134000  1.0
  C  C203  1  0.56172000  0.99119000  0.86770000  1.0
  C  C204  1  0.53156000  0.06161000  0.82434000  1.0
  C  C205  1  0.46653000  0.07542000  0.80305000  1.0
  C  C206  1  0.43107000  0.01749000  0.82851000  1.0
  C  C207  1  0.46178000  0.94732000  0.87146000  1.0
  C  C208  1  0.75429000  0.45528000  0.12348000  1.0
  C  C209  1  0.79594000  0.37298000  0.16070000  1.0
  C  C210  1  0.83430000  0.30053000  0.14046000  1.0
  C  C211  1  0.87432000  0.22373000  0.17544000  1.0
  C  C212  1  0.88095000  0.21753000  0.23112000  1.0
  C  C213  1  0.84299000  0.29093000  0.25111000  1.0
  C  C214  1  0.79952000  0.36609000  0.21723000  1.0
  C  C215  1  0.93431000  0.06436000  0.26009000  1.0
  C  C216  1  0.06096000  0.15117000  0.42605000  1.0
  C  C217  1  0.02550000  0.14513000  0.38560000  1.0
  C  C218  1  0.96873000  0.10947000  0.40707000  1.0
  C  C219  1  0.93417000  0.10736000  0.36846000  1.0
  C  C220  1  0.95614000  0.14098000  0.30777000  1.0
  C  C221  1  0.01417000  0.17533000  0.28603000  1.0
  C  C222  1  0.04853000  0.17733000  0.32457000  1.0
  C  C223  1  0.15834000  0.96405000  0.60972000  1.0
  C  C224  1  0.15584000  0.88410000  0.64687000  1.0
  C  C225  1  0.22619000  0.81819000  0.66542000  1.0
  C  C226  1  0.22298000  0.74439000  0.70252000  1.0
  C  C227  1  0.14929000  0.73317000  0.72209000  1.0
  C  C228  1  0.07928000  0.79848000  0.70154000  1.0
  C  C229  1  0.08256000  0.87249000  0.66509000  1.0
  C  C230  1  0.22160000  0.58181000  0.75729000  1.0
  C  C231  1  0.85507000  0.64708000  0.93560000  1.0
  C  C232  1  0.93234000  0.64819000  0.89134000  1.0
  C  C233  1  0.99109000  0.57959000  0.86773000  1.0
  C  C234  1  0.06156000  0.58264000  0.82440000  1.0
  C  C235  1  0.07537000  0.65514000  0.80307000  1.0
  C  C236  1  0.01747000  0.72306000  0.82853000  1.0
  C  C237  1  0.94724000  0.71962000  0.87145000  1.0
  C  C238  1  0.54480000  0.24564000  0.87654000  1.0
  C  C239  1  0.62710000  0.20394000  0.83932000  1.0
  C  C240  1  0.69960000  0.16540000  0.85954000  1.0
  C  C241  1  0.77638000  0.12544000  0.82450000  1.0
  C  C242  1  0.78253000  0.11898000  0.76878000  1.0
  C  C243  1  0.70908000  0.15699000  0.74885000  1.0
  C  C244  1  0.63395000  0.20046000  0.78277000  1.0
  C  C245  1  0.93572000  0.06556000  0.73996000  1.0
  C  C246  1  0.84878000  0.93917000  0.57387000  1.0
  C  C247  1  0.85495000  0.97461000  0.61426000  1.0
  C  C248  1  0.89058000  0.03141000  0.59277000  1.0
  C  C249  1  0.89274000  0.06595000  0.63137000  1.0
  C  C250  1  0.85921000  0.04390000  0.69207000  1.0
  C  C251  1  0.82499000  0.98576000  0.71386000  1.0
  C  C252  1  0.82293000  0.95146000  0.67531000  1.0
  C  C253  1  0.03581000  0.84182000  0.39022000  1.0
  C  C254  1  0.11586000  0.84420000  0.35312000  1.0
  C  C255  1  0.18174000  0.77388000  0.33451000  1.0
  C  C256  1  0.25562000  0.77701000  0.29744000  1.0
  C  C257  1  0.26688000  0.85066000  0.27789000  1.0
  C  C258  1  0.20159000  0.92064000  0.29846000  1.0
  C  C259  1  0.12755000  0.91741000  0.33495000  1.0
  C  C260  1  0.41826000  0.77837000  0.24271000  1.0
  C  C261  1  0.35309000  0.14480000  0.06442000  1.0
  C  C262  1  0.35203000  0.06752000  0.10866000  1.0
  C  C263  1  0.42061000  0.00881000  0.13230000  1.0
  C  C264  1  0.41751000  0.93839000  0.17566000  1.0
  C  C265  1  0.34500000  0.92457000  0.19696000  1.0
  C  C266  1  0.27707000  0.98251000  0.17149000  1.0
  C  C267  1  0.28056000  0.05268000  0.12854000  1.0
  C  C268  1  0.33305000  0.54472000  0.87652000  1.0
  C  C269  1  0.32962000  0.62702000  0.83930000  1.0
  C  C270  1  0.27528000  0.69947000  0.85954000  1.0
  C  C271  1  0.27348000  0.77627000  0.82456000  1.0
  C  C272  1  0.32960000  0.78247000  0.76888000  1.0
  C  C273  1  0.38502000  0.70907000  0.74889000  1.0
  C  C274  1  0.38284000  0.63391000  0.78277000  1.0
  C  C275  1  0.25876000  0.93564000  0.73991000  1.0
  C  C276  1  0.63819000  0.84882000  0.57395000  1.0
  C  C277  1  0.55623000  0.85488000  0.61440000  1.0
  C  C278  1  0.48527000  0.89053000  0.59293000  1.0
  C  C279  1  0.40999000  0.89264000  0.63154000  1.0
  C  C280  1  0.40489000  0.85902000  0.69223000  1.0
  C  C281  1  0.47553000  0.82468000  0.71397000  1.0
  C  C282  1  0.55043000  0.82268000  0.67543000  1.0
  C  C283  1  0.73211000  0.03595000  0.39028000  1.0
  C  C284  1  0.68681000  0.11590000  0.35313000  1.0
  C  C285  1  0.70980000  0.18181000  0.33458000  1.0
  C  C286  1  0.66989000  0.25561000  0.29748000  1.0
  C  C287  1  0.60455000  0.26683000  0.27791000  1.0
  C  C288  1  0.57930000  0.20152000  0.29846000  1.0
  C  C289  1  0.62014000  0.12751000  0.33491000  1.0
  C  C290  1  0.56070000  0.41820000  0.24271000  1.0
  C  C291  1  0.43775000  0.35292000  0.06440000  1.0
  C  C292  1  0.47187000  0.35181000  0.10866000  1.0
  C  C293  1  0.43841000  0.42041000  0.13227000  1.0
  C  C294  1  0.46860000  0.41736000  0.17560000  1.0
  C  C295  1  0.53358000  0.34486000  0.19693000  1.0
  C  C296  1  0.56907000  0.27693000  0.17147000  1.0
  C  C297  1  0.53832000  0.28038000  0.12854000  1.0
  C  C298  1  0.24554000  0.33307000  0.87661000  1.0
  C  C299  1  0.20390000  0.32963000  0.83936000  1.0
  C  C300  1  0.16565000  0.27521000  0.85951000  1.0
  C  C301  1  0.12565000  0.27343000  0.82449000  1.0
  C  C302  1  0.11890000  0.32965000  0.76887000  1.0
  C  C303  1  0.15689000  0.38506000  0.74892000  1.0
  C  C304  1  0.20035000  0.38285000  0.78283000  1.0
  C  C305  1  0.06533000  0.25898000  0.73989000  1.0
  C  C306  1  0.93913000  0.63831000  0.57393000  1.0
  C  C307  1  0.97453000  0.55639000  0.61438000  1.0
  C  C308  1  0.03125000  0.48541000  0.59292000  1.0
  C  C309  1  0.06564000  0.41014000  0.63156000  1.0
  C  C310  1  0.04363000  0.40508000  0.69225000  1.0
  C  C311  1  0.98568000  0.47572000  0.71399000  1.0
  C  C312  1  0.95146000  0.55059000  0.67541000  1.0
  C  C313  1  0.84165000  0.73232000  0.39032000  1.0
  C  C314  1  0.84405000  0.68706000  0.35318000  1.0
  C  C315  1  0.77369000  0.71010000  0.33461000  1.0
  C  C316  1  0.77685000  0.67012000  0.29756000  1.0
  C  C317  1  0.85052000  0.60476000  0.27801000  1.0
  C  C318  1  0.92053000  0.57952000  0.29855000  1.0
  C  C319  1  0.91727000  0.62035000  0.33501000  1.0
  C  C320  1  0.77825000  0.56082000  0.24280000  1.0
  C  C321  1  0.14477000  0.43779000  0.06449000  1.0
  C  C322  1  0.06748000  0.47193000  0.10874000  1.0
  C  C323  1  0.00874000  0.43845000  0.13241000  1.0
  C  C324  1  0.93828000  0.46863000  0.17577000  1.0
  C  C325  1  0.92447000  0.53363000  0.19709000  1.0
  C  C326  1  0.98242000  0.56908000  0.17159000  1.0
  C  C327  1  0.05259000  0.53839000  0.12862000  1.0
  N  N328  1  0.14232000  0.67021000  0.26774000  1.0
  N  N329  1  0.65871000  0.43496000  0.75955000  1.0
  N  N330  1  0.67039000  0.91936000  0.26791000  1.0
  N  N331  1  0.43515000  0.14665000  0.75967000  1.0
  N  N332  1  0.91943000  0.14244000  0.26776000  1.0
  N  N333  1  0.14663000  0.65861000  0.75968000  1.0
  N  N334  1  0.85766000  0.08064000  0.73209000  1.0
  N  N335  1  0.34147000  0.85335000  0.24033000  1.0
  N  N336  1  0.32963000  0.85756000  0.73224000  1.0
  N  N337  1  0.56492000  0.34139000  0.24032000  1.0
  N  N338  1  0.08027000  0.32980000  0.73226000  1.0
  N  N339  1  0.85322000  0.56504000  0.24045000  1.0
  O  O340  1  0.51514000  0.62937000  0.14931000  1.0
  O  O341  1  0.46054000  0.70102000  0.06833000  1.0
  O  O342  1  0.18060000  0.30246000  0.40136000  1.0
  O  O343  1  0.12811000  0.35625000  0.48179000  1.0
  O  O344  1  0.02504000  0.28422000  0.60163000  1.0
  O  O345  1  0.96797000  0.21428000  0.58866000  1.0
  O  O346  1  0.71535000  0.53243000  0.94995000  1.0
  O  O347  1  0.57881000  0.61898000  0.95532000  1.0
  O  O348  1  0.62955000  0.70597000  0.14939000  1.0
  O  O349  1  0.70093000  0.77014000  0.06839000  1.0
  O  O350  1  0.30261000  0.11541000  0.40138000  1.0
  O  O351  1  0.35632000  0.03396000  0.48185000  1.0
  O  O352  1  0.28438000  0.08892000  0.60177000  1.0
  O  O353  1  0.21444000  0.22888000  0.58877000  1.0
  O  O354  1  0.53259000  0.80221000  0.94991000  1.0
  O  O355  1  0.61901000  0.84685000  0.95546000  1.0
  O  O356  1  0.70592000  0.51513000  0.14945000  1.0
  O  O357  1  0.77004000  0.46065000  0.06841000  1.0
  O  O358  1  0.11563000  0.18046000  0.40134000  1.0
  O  O359  1  0.03401000  0.12785000  0.48177000  1.0
  O  O360  1  0.08911000  0.02483000  0.60170000  1.0
  O  O361  1  0.22908000  0.96772000  0.58867000  1.0
  O  O362  1  0.80213000  0.71537000  0.95005000  1.0
  O  O363  1  0.84672000  0.57887000  0.95539000  1.0
  O  O364  1  0.65610000  0.65616000  0.03155000  1.0
  O  O365  1  0.16062000  0.16045000  0.51838000  1.0
  O  O366  1  0.48491000  0.29404000  0.85060000  1.0
  O  O367  1  0.53946000  0.22985000  0.93161000  1.0
  O  O368  1  0.81940000  0.88459000  0.59862000  1.0
  O  O369  1  0.87212000  0.96605000  0.51815000  1.0
  O  O370  1  0.97507000  0.91107000  0.39823000  1.0
  O  O371  1  0.03209000  0.77112000  0.41123000  1.0
  O  O372  1  0.28472000  0.19778000  0.05009000  1.0
  O  O373  1  0.42132000  0.15315000  0.04454000  1.0
  O  O374  1  0.37051000  0.48486000  0.85055000  1.0
  O  O375  1  0.29910000  0.53934000  0.93159000  1.0
  O  O376  1  0.69743000  0.81954000  0.59866000  1.0
  O  O377  1  0.64364000  0.87214000  0.51823000  1.0
  O  O378  1  0.71564000  0.97517000  0.39830000  1.0
  O  O379  1  0.78547000  0.03229000  0.41133000  1.0
  O  O380  1  0.46755000  0.28462000  0.04996000  1.0
  O  O381  1  0.38098000  0.42113000  0.04461000  1.0
  O  O382  1  0.29381000  0.37064000  0.85069000  1.0
  O  O383  1  0.22989000  0.29898000  0.93167000  1.0
  O  O384  1  0.88442000  0.69755000  0.59863000  1.0
  O  O385  1  0.96615000  0.64374000  0.51821000  1.0
  O  O386  1  0.91089000  0.71577000  0.39838000  1.0
  O  O387  1  0.77091000  0.78571000  0.41134000  1.0
  O  O388  1  0.19773000  0.46757000  0.05005000  1.0
  O  O389  1  0.15311000  0.38103000  0.04468000  1.0
  O  O390  1  0.34382000  0.34383000  0.96845000  1.0
  O  O391  1  0.83945000  0.83955000  0.48162000  1.0
