# generated using pymatgen
data_CuH11C11(NO2)2
_symmetry_space_group_name_H-M   'P 1'
_cell_length_a   8.59458000
_cell_length_b   13.22180000
_cell_length_c   15.34248182
_cell_angle_alpha   64.47132124
_cell_angle_beta   84.90472059
_cell_angle_gamma   90.00450000
_symmetry_Int_Tables_number   1
_chemical_formula_structural   CuH11C11(NO2)2
_chemical_formula_sum   'Cu4 H44 C44 N8 O16'
_cell_volume   1565.59720394
_cell_formula_units_Z   4
loop_
 _symmetry_equiv_pos_site_id
 _symmetry_equiv_pos_as_xyz
  1  'x, y, z'
loop_
 _atom_site_type_symbol
 _atom_site_label
 _atom_site_symmetry_multiplicity
 _atom_site_fract_x
 _atom_site_fract_y
 _atom_site_fract_z
 _atom_site_occupancy
  Cu  Cu0  1  0.03904000  0.91654000  0.57765000  1.0
  Cu  Cu1  1  0.46089000  0.49422000  0.42234000  1.0
  Cu  Cu2  1  0.96096000  0.08346000  0.42235000  1.0
  Cu  Cu3  1  0.53911000  0.50577000  0.57767000  1.0
  H  H4  1  0.16748000  0.87790000  0.76999000  1.0
  H  H5  1  0.33259000  0.64803000  0.22995000  1.0
  H  H6  1  0.83251000  0.12210000  0.23001000  1.0
  H  H7  1  0.66741000  0.35197000  0.77005000  1.0
  H  H8  1  0.32582000  0.73702000  0.89486000  1.0
  H  H9  1  0.17435000  0.63211000  0.10499000  1.0
  H  H10  1  0.67418000  0.26298000  0.10514000  1.0
  H  H11  1  0.82566000  0.36790000  0.89500000  1.0
  H  H12  1  0.27541000  0.52324000  0.74982000  1.0
  H  H13  1  0.22443000  0.27322000  0.25010000  1.0
  H  H14  1  0.72460000  0.47677000  0.25017000  1.0
  H  H15  1  0.77557000  0.72678000  0.74990000  1.0
  H  H16  1  0.12087000  0.67189000  0.63318000  1.0
  H  H17  1  0.37900000  0.30517000  0.36674000  1.0
  H  H18  1  0.87914000  0.32810000  0.36682000  1.0
  H  H19  1  0.62099000  0.69483000  0.63326000  1.0
  H  H20  1  0.40988000  0.45091000  0.89806000  1.0
  H  H21  1  0.09025000  0.34905000  0.10193000  1.0
  H  H22  1  0.59012000  0.54910000  0.10193000  1.0
  H  H23  1  0.90976000  0.65094000  0.89808000  1.0
  H  H24  1  0.28178000  0.83313000  0.41231000  1.0
  H  H25  1  0.21839000  0.24548000  0.58783000  1.0
  H  H26  1  0.71822000  0.16686000  0.58770000  1.0
  H  H27  1  0.78161000  0.75452000  0.41217000  1.0
  H  H28  1  0.39808000  0.86222000  0.30219000  1.0
  H  H29  1  0.10204000  0.16441000  0.69793000  1.0
  H  H30  1  0.60193000  0.13778000  0.69781000  1.0
  H  H31  1  0.89795000  0.83558000  0.30208000  1.0
  H  H32  1  0.51598000  0.87472000  0.48100000  1.0
  H  H33  1  0.98423000  0.35571000  0.51904000  1.0
  H  H34  1  0.48402000  0.12528000  0.51900000  1.0
  H  H35  1  0.01576000  0.64430000  0.48096000  1.0
  H  H36  1  0.62616000  0.91845000  0.36716000  1.0
  H  H37  1  0.87396000  0.28561000  0.63285000  1.0
  H  H38  1  0.37384000  0.08156000  0.63284000  1.0
  H  H39  1  0.12603000  0.71439000  0.36715000  1.0
  H  H40  1  0.52158000  0.08072000  0.38767000  1.0
  H  H41  1  0.97828000  0.46842000  0.61228000  1.0
  H  H42  1  0.47841000  0.91928000  0.61233000  1.0
  H  H43  1  0.02171000  0.53157000  0.38773000  1.0
  H  H44  1  0.43852000  0.07020000  0.29007000  1.0
  H  H45  1  0.06139000  0.36043000  0.70996000  1.0
  H  H46  1  0.56148000  0.92980000  0.70993000  1.0
  H  H47  1  0.93860000  0.63957000  0.29004000  1.0
  C  C48  1  0.19425000  0.79745000  0.76953000  1.0
  C  C49  1  0.30579000  0.56714000  0.23038000  1.0
  C  C50  1  0.80575000  0.20254000  0.23047000  1.0
  C  C51  1  0.69422000  0.43286000  0.76962000  1.0
  C  C52  1  0.28207000  0.72027000  0.83769000  1.0
  C  C53  1  0.21803000  0.55816000  0.16219000  1.0
  C  C54  1  0.71793000  0.27973000  0.16231000  1.0
  C  C55  1  0.78197000  0.44184000  0.83781000  1.0
  C  C56  1  0.31241000  0.61824000  0.83288000  1.0
  C  C57  1  0.18764000  0.45130000  0.16702000  1.0
  C  C58  1  0.68760000  0.38176000  0.16712000  1.0
  C  C59  1  0.81237000  0.54870000  0.83298000  1.0
  C  C60  1  0.25364000  0.59988000  0.75829000  1.0
  C  C61  1  0.24628000  0.35833000  0.24163000  1.0
  C  C62  1  0.74636000  0.40013000  0.24170000  1.0
  C  C63  1  0.75372000  0.64167000  0.75837000  1.0
  C  C64  1  0.16768000  0.68249000  0.69266000  1.0
  C  C65  1  0.33225000  0.37527000  0.30726000  1.0
  C  C66  1  0.83232000  0.31751000  0.30733000  1.0
  C  C67  1  0.66775000  0.62473000  0.69274000  1.0
  C  C68  1  0.39939000  0.53117000  0.90304000  1.0
  C  C69  1  0.10070000  0.43435000  0.09688000  1.0
  C  C70  1  0.60060000  0.46883000  0.09695000  1.0
  C  C71  1  0.89929000  0.56566000  0.90311000  1.0
  C  C72  1  0.44353000  0.71065000  0.42400000  1.0
  C  C73  1  0.05675000  0.13462000  0.57608000  1.0
  C  C74  1  0.55647000  0.28936000  0.57599000  1.0
  C  C75  1  0.94325000  0.86538000  0.42392000  1.0
  C  C76  1  0.40222000  0.83323000  0.38063000  1.0
  C  C77  1  0.09795000  0.21386000  0.61948000  1.0
  C  C78  1  0.59779000  0.16677000  0.61937000  1.0
  C  C79  1  0.90204000  0.78613000  0.38053000  1.0
  C  C80  1  0.50714000  0.91098000  0.40260000  1.0
  C  C81  1  0.99301000  0.31359000  0.59745000  1.0
  C  C82  1  0.49286000  0.08902000  0.59740000  1.0
  C  C83  1  0.00698000  0.68641000  0.40255000  1.0
  C  C84  1  0.44333000  0.02854000  0.36907000  1.0
  C  C85  1  0.05666000  0.39771000  0.63095000  1.0
  C  C86  1  0.55667000  0.97146000  0.63093000  1.0
  C  C87  1  0.94333000  0.60229000  0.36905000  1.0
  C  C88  1  0.28031000  0.02642000  0.41761000  1.0
  C  C89  1  0.21965000  0.44424000  0.58241000  1.0
  C  C90  1  0.71969000  0.97358000  0.58239000  1.0
  C  C91  1  0.78034000  0.55576000  0.41759000  1.0
  N  N92  1  0.13691000  0.77934000  0.69814000  1.0
  N  N93  1  0.36305000  0.47762000  0.30178000  1.0
  N  N94  1  0.86309000  0.22066000  0.30185000  1.0
  N  N95  1  0.63695000  0.52239000  0.69821000  1.0
  N  N96  1  0.46251000  0.54692000  0.96996000  1.0
  N  N97  1  0.03752000  0.51693000  0.03000000  1.0
  N  N98  1  0.53750000  0.45308000  0.03004000  1.0
  N  N99  1  0.96249000  0.48306000  0.97001000  1.0
  O  O100  1  0.48965000  0.66883000  0.50873000  1.0
  O  O101  1  0.01069000  0.17754000  0.49135000  1.0
  O  O102  1  0.51036000  0.33117000  0.49128000  1.0
  O  O103  1  0.98931000  0.82245000  0.50866000  1.0
  O  O104  1  0.25214000  0.95332000  0.50516000  1.0
  O  O105  1  0.24780000  0.45877000  0.49485000  1.0
  O  O106  1  0.74786000  0.04668000  0.49484000  1.0
  O  O107  1  0.75219000  0.54123000  0.50515000  1.0
  O  O108  1  0.42373000  0.65846000  0.37241000  1.0
  O  O109  1  0.07658000  0.03084000  0.62765000  1.0
  O  O110  1  0.57627000  0.34153000  0.62760000  1.0
  O  O111  1  0.92342000  0.96916000  0.37236000  1.0
  O  O112  1  0.18426000  0.09578000  0.36711000  1.0
  O  O113  1  0.31574000  0.46307000  0.63293000  1.0
  O  O114  1  0.81574000  0.90421000  0.63289000  1.0
  O  O115  1  0.68426000  0.53692000  0.36708000  1.0
