# generated using pymatgen
data_ZnH18C17NO4
_symmetry_space_group_name_H-M   'P 1'
_cell_length_a   9.66090000
_cell_length_b   11.03600000
_cell_length_c   16.02290000
_cell_angle_alpha   90.94230000
_cell_angle_beta   91.52470000
_cell_angle_gamma   91.49000000
_symmetry_Int_Tables_number   1
_chemical_formula_structural   ZnH18C17NO4
_chemical_formula_sum   'Zn2 H36 C34 N2 O8'
_cell_volume   1706.89131925
_cell_formula_units_Z   2
loop_
 _symmetry_equiv_pos_site_id
 _symmetry_equiv_pos_as_xyz
  1  'x, y, z'
loop_
 _atom_site_type_symbol
 _atom_site_label
 _atom_site_symmetry_multiplicity
 _atom_site_fract_x
 _atom_site_fract_y
 _atom_site_fract_z
 _atom_site_occupancy
  Zn  Zn0  1  0.36471000  0.50192000  0.49352000  1.0
  Zn  Zn1  1  0.64568000  0.48960000  0.50033000  1.0
  H  H2  1  0.29123000  0.45042000  0.08122000  1.0
  H  H3  1  0.90943000  0.40985000  0.49687000  1.0
  H  H4  1  0.72120000  0.54213000  0.05372000  1.0
  H  H5  1  0.61062000  0.33822000  0.94230000  1.0
  H  H6  1  0.36783000  0.65727000  0.05165000  1.0
  H  H7  1  0.30592000  0.31169000  0.84817000  1.0
  H  H8  1  0.41323000  0.24381000  0.92512000  1.0
  H  H9  1  0.23685000  0.26804000  0.94559000  1.0
  H  H10  1  0.71794000  0.93702000  0.34120000  1.0
  H  H11  1  0.82304000  0.90749000  0.43018000  1.0
  H  H12  1  0.70980000  0.79103000  0.38892000  1.0
  H  H13  1  0.27667000  0.49085000  0.93971000  1.0
  H  H14  1  0.28094000  0.12957000  0.38801000  1.0
  H  H15  1  0.33538000  0.98094000  0.41551000  1.0
  H  H16  1  0.26595000  0.08066000  0.49137000  1.0
  H  H17  1  0.59031000  0.21572000  0.03154000  1.0
  H  H18  1  0.68080000  0.05520000  0.12052000  1.0
  H  H19  1  0.84823000  0.10590000  0.23789000  1.0
  H  H20  1  0.92353000  0.32163000  0.26408000  1.0
  H  H21  1  0.83048000  0.48351000  0.17551000  1.0
  H  H22  1  0.78491000  0.56757000  0.90933000  1.0
  H  H23  1  0.84879000  0.42342000  0.93533000  1.0
  H  H24  1  0.60277000  0.66859000  0.93224000  1.0
  H  H25  1  0.75412000  0.44224000  0.83961000  1.0
  H  H26  1  0.53996000  0.83046000  0.04902000  1.0
  H  H27  1  0.54151000  0.75674000  0.14704000  1.0
  H  H28  1  0.67528000  0.73138000  0.07519000  1.0
  H  H29  1  0.41598000  0.71462000  0.83142000  1.0
  H  H30  1  0.28774000  0.67776000  0.90515000  1.0
  H  H31  1  0.40092000  0.80493000  0.92360000  1.0
  H  H32  1  0.44784000  0.90867000  0.54092000  1.0
  H  H33  1  0.68885000  0.12050000  0.46513000  1.0
  H  H34  1  0.14271000  0.61574000  0.59743000  1.0
  H  H35  1  0.09706000  0.48353000  0.43868000  1.0
  H  H36  1  0.88064000  0.65709000  0.56166000  1.0
  H  H37  1  0.41049000  0.33406000  0.06858000  1.0
  C  C38  1  0.48627000  0.26279000  0.47015000  1.0
  C  C39  1  0.52696000  0.86495000  0.50460000  1.0
  C  C40  1  0.59275000  0.06585000  0.45908000  1.0
  C  C41  1  0.51319000  0.52282000  0.33544000  1.0
  C  C42  1  0.47428000  0.12841000  0.45542000  1.0
  C  C43  1  0.08555000  0.57175000  0.54468000  1.0
  C  C44  1  0.93259000  0.57524000  0.54073000  1.0
  C  C45  1  0.52686000  0.73176000  0.51121000  1.0
  C  C46  1  0.49045000  0.47900000  0.65950000  1.0
  C  C47  1  0.38628000  0.42645000  0.04929000  1.0
  C  C48  1  0.64599000  0.46576000  0.04582000  1.0
  C  C49  1  0.36455000  0.43219000  0.95358000  1.0
  C  C50  1  0.62839000  0.43642000  0.95114000  1.0
  C  C51  1  0.48770000  0.48187000  0.74959000  1.0
  C  C52  1  0.50568000  0.51381000  0.07937000  1.0
  C  C53  1  0.32837000  0.30712000  0.91555000  1.0
  C  C54  1  0.72007000  0.88882000  0.40076000  1.0
  C  C55  1  0.33191000  0.07583000  0.43648000  1.0
  C  C56  1  0.70355000  0.36271000  0.09654000  1.0
  C  C57  1  0.66304000  0.24086000  0.08251000  1.0
  C  C58  1  0.71434000  0.14917000  0.13289000  1.0
  C  C59  1  0.80802000  0.17741000  0.19857000  1.0
  C  C60  1  0.49454000  0.49659000  0.91597000  1.0
  C  C61  1  0.85007000  0.29814000  0.21310000  1.0
  C  C62  1  0.79826000  0.38932000  0.16271000  1.0
  C  C63  1  0.76110000  0.46948000  0.90581000  1.0
  C  C64  1  0.56349000  0.74533000  0.08053000  1.0
  C  C65  1  0.39489000  0.71163000  0.89835000  1.0
  C  C66  1  0.49800000  0.63279000  0.94500000  1.0
  C  C67  1  0.47797000  0.64022000  0.04056000  1.0
  C  C68  1  0.48941000  0.48802000  0.82548000  1.0
  C  C69  1  0.50858000  0.52247000  0.16971000  1.0
  C  C70  1  0.51100000  0.52720000  0.24555000  1.0
  C  C71  1  0.60847000  0.93456000  0.45606000  1.0
  N  N72  1  0.15489000  0.51949000  0.48831000  1.0
  N  N73  1  0.85667000  0.48596000  0.51330000  1.0
  O  O74  1  0.37454000  0.32169000  0.46313000  1.0
  O  O75  1  0.60518000  0.30917000  0.49049000  1.0
  O  O76  1  0.39916000  0.54310000  0.37101000  1.0
  O  O77  1  0.62813000  0.49796000  0.37116000  1.0
  O  O78  1  0.40990000  0.68102000  0.52634000  1.0
  O  O79  1  0.63990000  0.67593000  0.50170000  1.0
  O  O80  1  0.37448000  0.46540000  0.61993000  1.0
  O  O81  1  0.60922000  0.49129000  0.62746000  1.0
