# generated using pymatgen
data_LaP2H13C6(NO3)2
_symmetry_space_group_name_H-M   'P 1'
_cell_length_a   5.78351000
_cell_length_b   10.07740000
_cell_length_c   11.44990000
_cell_angle_alpha   85.04580000
_cell_angle_beta   89.06330000
_cell_angle_gamma   81.82880000
_symmetry_Int_Tables_number   1
_chemical_formula_structural   LaP2H13C6(NO3)2
_chemical_formula_sum   'La2 P4 H26 C12 N4 O12'
_cell_volume   658.08328058
_cell_formula_units_Z   2
loop_
 _symmetry_equiv_pos_site_id
 _symmetry_equiv_pos_as_xyz
  1  'x, y, z'
loop_
 _atom_site_type_symbol
 _atom_site_label
 _atom_site_symmetry_multiplicity
 _atom_site_fract_x
 _atom_site_fract_y
 _atom_site_fract_z
 _atom_site_occupancy
  La  La0  1  0.21496000  0.14721000  0.47127000  1.0
  La  La1  1  0.78504000  0.85279000  0.52873000  1.0
  P  P2  1  0.71550000  0.17526000  0.66617000  1.0
  P  P3  1  0.66430000  0.16351000  0.31166000  1.0
  P  P4  1  0.28450000  0.82474000  0.33383000  1.0
  P  P5  1  0.33570000  0.83649000  0.68834000  1.0
  H  H6  1  0.48759000  0.96914000  0.16737000  1.0
  H  H7  1  0.02702000  0.27472000  0.74143000  1.0
  H  H8  1  0.76587000  0.39233000  0.73154000  1.0
  H  H9  1  0.66607000  0.38517000  0.47754000  1.0
  H  H10  1  0.68075000  0.52823000  0.55696000  1.0
  H  H11  1  0.03010000  0.54853000  0.66116000  1.0
  H  H12  1  0.27579000  0.41922000  0.65598000  1.0
  H  H13  1  0.91835000  0.01720000  0.20089000  1.0
  H  H14  1  0.83311000  0.17277000  0.11601000  1.0
  H  H15  1  0.83613000  0.98664000  0.96967000  1.0
  H  H16  1  0.83940000  0.85542000  0.08624000  1.0
  H  H17  1  0.34654000  0.20108000  0.09885000  1.0
  H  H18  1  0.54755000  0.19126000  0.97728000  1.0
  H  H19  1  0.51241000  0.03086000  0.83263000  1.0
  H  H20  1  0.97297000  0.72527000  0.25857000  1.0
  H  H21  1  0.23413000  0.60767000  0.26846000  1.0
  H  H22  1  0.33393000  0.61483000  0.52246000  1.0
  H  H23  1  0.31924000  0.47177000  0.44304000  1.0
  H  H24  1  0.96991000  0.45147000  0.33884000  1.0
  H  H25  1  0.72421000  0.58078000  0.34403000  1.0
  H  H26  1  0.08165000  0.98280000  0.79911000  1.0
  H  H27  1  0.16689000  0.82723000  0.88399000  1.0
  H  H28  1  0.16387000  0.01336000  0.03033000  1.0
  H  H29  1  0.16060000  0.14458000  0.91376000  1.0
  H  H30  1  0.65346000  0.79892000  0.90115000  1.0
  H  H31  1  0.45245000  0.80874000  0.02272000  1.0
  C  C32  1  0.87821000  0.31587000  0.68399000  1.0
  C  C33  1  0.78214000  0.45400000  0.50311000  1.0
  C  C34  1  0.12677000  0.47426000  0.60607000  1.0
  C  C35  1  0.76878000  0.09352000  0.17447000  1.0
  C  C36  1  0.72780000  0.93169000  0.03034000  1.0
  C  C37  1  0.44052000  0.13427000  0.03754000  1.0
  C  C38  1  0.12178000  0.68413000  0.31601000  1.0
  C  C39  1  0.21786000  0.54600000  0.49689000  1.0
  C  C40  1  0.87323000  0.52574000  0.39393000  1.0
  C  C41  1  0.23122000  0.90648000  0.82553000  1.0
  C  C42  1  0.27220000  0.06831000  0.96966000  1.0
  C  C43  1  0.55948000  0.86573000  0.96246000  1.0
  N  N44  1  0.97311000  0.37703000  0.57537000  1.0
  N  N45  1  0.60111000  0.02964000  0.10849000  1.0
  N  N46  1  0.02689000  0.62298000  0.42463000  1.0
  N  N47  1  0.39889000  0.97035000  0.89151000  1.0
  O  O48  1  0.48847000  0.22716000  0.59984000  1.0
  O  O49  1  0.88577000  0.07451000  0.59847000  1.0
  O  O50  1  0.67886000  0.11708000  0.79287000  1.0
  O  O51  1  0.88029000  0.22145000  0.34621000  1.0
  O  O52  1  0.43543000  0.26042000  0.29763000  1.0
  O  O53  1  0.60716000  0.04091000  0.39306000  1.0
  O  O54  1  0.51153000  0.77284000  0.40016000  1.0
  O  O55  1  0.11423000  0.92549000  0.40153000  1.0
  O  O56  1  0.32114000  0.88292000  0.20713000  1.0
  O  O57  1  0.11971000  0.77855000  0.65379000  1.0
  O  O58  1  0.56456000  0.73958000  0.70237000  1.0
  O  O59  1  0.39284000  0.95909000  0.60694000  1.0
