# generated using pymatgen
data_Cu4SiH16C28(N2O)4
_symmetry_space_group_name_H-M   'P 1'
_cell_length_a   21.74740000
_cell_length_b   22.98480000
_cell_length_c   23.95500000
_cell_angle_alpha   89.89810000
_cell_angle_beta   89.38140000
_cell_angle_gamma   89.15870000
_symmetry_Int_Tables_number   1
_chemical_formula_structural   Cu4SiH16C28(N2O)4
_chemical_formula_sum   'Cu12 Si3 H48 C84 N24 O12'
_cell_volume   11972.13332741
_cell_formula_units_Z   3
loop_
 _symmetry_equiv_pos_site_id
 _symmetry_equiv_pos_as_xyz
  1  'x, y, z'
loop_
 _atom_site_type_symbol
 _atom_site_label
 _atom_site_symmetry_multiplicity
 _atom_site_fract_x
 _atom_site_fract_y
 _atom_site_fract_z
 _atom_site_occupancy
  Cu  Cu0  1  0.18774000  0.20905000  0.13825000  1.0
  Cu  Cu1  1  0.16624000  0.08595000  0.18788000  1.0
  Cu  Cu2  1  0.10017000  0.18705000  0.24881000  1.0
  Cu  Cu3  1  0.80003000  0.27582000  0.86310000  1.0
  Cu  Cu4  1  0.79908000  0.16196000  0.77999000  1.0
  Cu  Cu5  1  0.90259000  0.25600000  0.77646000  1.0
  Cu  Cu6  1  0.29604000  0.74550000  0.85328000  1.0
  Cu  Cu7  1  0.25961000  0.83785000  0.75950000  1.0
  Cu  Cu8  1  0.16828000  0.73738000  0.80156000  1.0
  Cu  Cu9  1  0.73026000  0.80891000  0.14156000  1.0
  Cu  Cu10  1  0.71785000  0.88120000  0.24681000  1.0
  Cu  Cu11  1  0.83373000  0.79420000  0.23838000  1.0
  Si  Si12  1  0.99407000  0.96234000  0.52138000  1.0
  Si  Si13  1  0.48952000  0.03461000  0.95320000  1.0
  Si  Si14  1  0.01820000  0.52139000  0.04764000  1.0
  H  H15  1  0.29672000  0.17649000  0.04663000  1.0
  H  H16  1  0.23160000  0.00732000  0.09853000  1.0
  H  H17  1  0.02636000  0.30524000  0.25027000  1.0
  H  H18  1  0.14531000  0.33595000  0.10738000  1.0
  H  H19  1  0.15127000  0.98309000  0.27333000  1.0
  H  H20  1  0.05908000  0.12198000  0.36516000  1.0
  H  H21  1  0.66690000  0.26901000  0.91233000  1.0
  H  H22  1  0.67318000  0.10686000  0.82054000  1.0
  H  H23  1  0.00148000  0.34659000  0.81361000  1.0
  H  H24  1  0.86320000  0.37272000  0.94327000  1.0
  H  H25  1  0.85426000  0.07144000  0.68553000  1.0
  H  H26  1  0.98204000  0.21414000  0.67588000  1.0
  H  H27  1  0.43166000  0.77802000  0.87561000  1.0
  H  H28  1  0.37112000  0.92740000  0.77923000  1.0
  H  H29  1  0.09798000  0.65712000  0.89197000  1.0
  H  H30  1  0.27800000  0.67275000  0.96604000  1.0
  H  H31  1  0.17689000  0.89348000  0.66171000  1.0
  H  H32  1  0.06584000  0.74711000  0.71213000  1.0
  H  H33  1  0.63829000  0.87914000  0.05822000  1.0
  H  H34  1  0.61911000  0.97742000  0.21189000  1.0
  H  H35  1  0.91444000  0.69007000  0.18337000  1.0
  H  H36  1  0.76676000  0.70685000  0.06422000  1.0
  H  H37  1  0.73518000  0.93412000  0.36326000  1.0
  H  H38  1  0.90735000  0.83783000  0.34847000  1.0
  H  H39  1  0.27158000  0.96786000  0.99560000  1.0
  H  H40  1  0.37661000  0.94327000  0.93653000  1.0
  H  H41  1  0.52978000  0.24908000  0.91124000  1.0
  H  H42  1  0.44155000  0.17334000  0.94752000  1.0
  H  H43  1  0.55702000  0.83935000  0.86832000  1.0
  H  H44  1  0.59681000  0.92895000  0.93335000  1.0
  H  H45  1  0.56233000  0.06485000  0.15208000  1.0
  H  H46  1  0.50455000  0.11319000  0.06205000  1.0
  H  H47  1  0.97504000  0.41754000  0.23259000  1.0
  H  H48  1  0.94540000  0.51183000  0.16773000  1.0
  H  H49  1  0.80957000  0.61633000  0.00830000  1.0
  H  H50  1  0.89505000  0.53525000  0.97380000  1.0
  H  H51  1  0.07733000  0.41620000  0.86719000  1.0
  H  H52  1  0.11423000  0.49162000  0.94763000  1.0
  H  H53  1  0.22697000  0.62060000  0.06442000  1.0
  H  H54  1  0.14339000  0.55319000  0.11990000  1.0
  H  H55  1  0.16333000  0.92509000  0.37561000  1.0
  H  H56  1  0.11052000  0.88519000  0.47248000  1.0
  H  H57  1  0.98918000  0.76944000  0.62674000  1.0
  H  H58  1  0.93088000  0.83957000  0.55082000  1.0
  H  H59  1  0.76879000  0.97507000  0.46220000  1.0
  H  H60  1  0.85206000  0.01157000  0.53899000  1.0
  H  H61  1  0.04269000  0.16413000  0.59527000  1.0
  H  H62  1  0.07702000  0.07779000  0.52243000  1.0
  C  C63  1  0.27418000  0.13969000  0.06595000  1.0
  C  C64  1  0.28127000  0.07994000  0.05488000  1.0
  C  C65  1  0.24006000  0.05324000  0.09202000  1.0
  C  C66  1  0.06066000  0.30391000  0.21706000  1.0
  C  C67  1  0.07305000  0.34494000  0.17503000  1.0
  C  C68  1  0.12146000  0.31943000  0.14397000  1.0
  C  C69  1  0.13087000  0.02356000  0.28833000  1.0
  C  C70  1  0.10160000  0.03579000  0.33957000  1.0
  C  C71  1  0.08333000  0.09457000  0.33513000  1.0
  C  C72  1  0.67802000  0.23207000  0.88576000  1.0
  C  C73  1  0.64361000  0.18222000  0.87508000  1.0
  C  C74  1  0.68168000  0.14882000  0.83938000  1.0
  C  C75  1  0.96115000  0.34656000  0.84067000  1.0
  C  C76  1  0.94961000  0.37715000  0.89048000  1.0
  C  C77  1  0.89034000  0.35992000  0.90696000  1.0
  C  C78  1  0.87995000  0.11119000  0.69028000  1.0
  C  C79  1  0.93288000  0.12987000  0.66152000  1.0
  C  C80  1  0.94521000  0.18422000  0.68525000  1.0
  C  C81  1  0.40854000  0.80879000  0.84825000  1.0
  C  C82  1  0.42570000  0.86533000  0.83325000  1.0
  C  C83  1  0.37716000  0.88561000  0.79972000  1.0
  C  C84  1  0.14538000  0.66623000  0.90203000  1.0
  C  C85  1  0.17875000  0.65141000  0.95010000  1.0
  C  C86  1  0.23742000  0.67426000  0.94013000  1.0
  C  C87  1  0.15711000  0.85519000  0.68088000  1.0
  C  C88  1  0.10216000  0.82672000  0.66840000  1.0
  C  C89  1  0.10044000  0.78018000  0.70642000  1.0
  C  C90  1  0.63990000  0.89612000  0.10038000  1.0
  C  C91  1  0.61188000  0.94648000  0.12286000  1.0
  C  C92  1  0.63009000  0.94655000  0.17893000  1.0
  C  C93  1  0.87396000  0.70177000  0.15953000  1.0
  C  C94  1  0.85212000  0.67771000  0.10970000  1.0
  C  C95  1  0.79839000  0.71022000  0.09873000  1.0
  C  C96  1  0.77358000  0.90584000  0.35164000  1.0
  C  C97  1  0.83013000  0.89709000  0.37825000  1.0
  C  C98  1  0.86177000  0.85686000  0.34381000  1.0
  C  C99  1  0.31987000  0.04811000  0.01606000  1.0
  C  C100  1  0.31212000  0.99458000  0.99181000  1.0
  C  C101  1  0.36668000  0.98209000  0.96077000  1.0
  C  C102  1  0.40545000  0.02849000  0.96688000  1.0
  C  C103  1  0.58335000  0.16865000  0.89681000  1.0
  C  C104  1  0.53324000  0.20198000  0.91319000  1.0
  C  C105  1  0.48708000  0.16250000  0.93126000  1.0
  C  C106  1  0.51082000  0.10701000  0.92510000  1.0
  C  C107  1  0.47628000  0.89656000  0.85737000  1.0
  C  C108  1  0.53346000  0.88043000  0.87659000  1.0
  C  C109  1  0.55440000  0.92740000  0.90996000  1.0
  C  C110  1  0.50971000  0.97043000  0.90918000  1.0
  C  C111  1  0.57574000  0.99056000  0.09529000  1.0
  C  C112  1  0.55562000  0.04510000  0.11153000  1.0
  C  C113  1  0.52602000  0.07033000  0.06456000  1.0
  C  C114  1  0.52875000  0.03021000  0.02191000  1.0
  C  C115  1  0.04126000  0.39921000  0.16465000  1.0
  C  C116  1  0.99549000  0.42954000  0.19279000  1.0
  C  C117  1  0.98019000  0.47860000  0.15913000  1.0
  C  C118  1  0.01732000  0.47657000  0.11221000  1.0
  C  C119  1  0.87621000  0.63148000  0.07491000  1.0
  C  C120  1  0.85323000  0.60594000  0.02766000  1.0
  C  C121  1  0.89764000  0.56387000  0.00964000  1.0
  C  C122  1  0.94575000  0.56514000  0.04646000  1.0
  C  C123  1  0.99182000  0.41566000  0.91698000  1.0
  C  C124  1  0.05098000  0.43125000  0.90318000  1.0
  C  C125  1  0.07021000  0.47031000  0.94519000  1.0
  C  C126  1  0.02235000  0.47708000  0.98286000  1.0
  C  C127  1  0.15767000  0.61961000  0.99827000  1.0
  C  C128  1  0.18266000  0.60663000  0.04950000  1.0
  C  C129  1  0.13896000  0.57185000  0.07847000  1.0
  C  C130  1  0.08926000  0.56519000  0.04413000  1.0
  C  C131  1  0.09479000  0.99568000  0.38539000  1.0
  C  C132  1  0.12531000  0.94468000  0.39885000  1.0
  C  C133  1  0.09819000  0.92423000  0.44939000  1.0
  C  C134  1  0.05263000  0.96337000  0.46468000  1.0
  C  C135  1  0.05568000  0.84062000  0.62794000  1.0
  C  C136  1  0.00376000  0.81166000  0.61178000  1.0
  C  C137  1  0.97352000  0.84801000  0.57228000  1.0
  C  C138  1  0.00811000  0.89728000  0.56562000  1.0
  C  C139  1  0.84860000  0.92630000  0.42834000  1.0
  C  C140  1  0.81710000  0.96294000  0.46449000  1.0
  C  C141  1  0.86033000  0.98182000  0.50447000  1.0
  C  C142  1  0.91604000  0.95581000  0.49148000  1.0
  C  C143  1  0.96970000  0.10304000  0.61812000  1.0
  C  C144  1  0.02083000  0.12247000  0.58962000  1.0
  C  C145  1  0.03879000  0.07755000  0.55191000  1.0
  C  C146  1  0.99818000  0.03267000  0.55879000  1.0
  N  N147  1  0.21066000  0.09399000  0.12283000  1.0
  N  N148  1  0.23153000  0.14768000  0.10676000  1.0
  N  N149  1  0.13656000  0.26711000  0.16592000  1.0
  N  N150  1  0.09875000  0.25741000  0.21128000  1.0
  N  N151  1  0.10100000  0.11564000  0.28488000  1.0
  N  N152  1  0.13023000  0.07149000  0.25602000  1.0
  N  N153  1  0.73470000  0.17701000  0.82937000  1.0
  N  N154  1  0.73247000  0.22861000  0.85838000  1.0
  N  N155  1  0.86856000  0.32173000  0.86950000  1.0
  N  N156  1  0.91251000  0.31358000  0.82858000  1.0
  N  N157  1  0.90307000  0.19679000  0.72504000  1.0
  N  N158  1  0.86246000  0.15169000  0.72840000  1.0
  N  N159  1  0.33440000  0.84395000  0.79524000  1.0
  N  N160  1  0.35382000  0.79632000  0.82562000  1.0
  N  N161  1  0.23872000  0.70067000  0.88987000  1.0
  N  N162  1  0.18172000  0.69586000  0.86635000  1.0
  N  N163  1  0.15037000  0.78102000  0.73910000  1.0
  N  N164  1  0.18572000  0.82749000  0.72334000  1.0
  N  N165  1  0.66640000  0.89981000  0.18889000  1.0
  N  N166  1  0.67262000  0.86857000  0.14032000  1.0
  N  N167  1  0.78909000  0.75049000  0.13875000  1.0
  N  N168  1  0.83588000  0.74543000  0.17666000  1.0
  N  N169  1  0.82631000  0.84293000  0.29990000  1.0
  N  N170  1  0.77172000  0.87347000  0.30497000  1.0
  O  O171  1  0.37631000  0.06967000  0.00116000  1.0
  O  O172  1  0.57035000  0.11079000  0.90378000  1.0
  O  O173  1  0.46218000  0.95183000  0.87550000  1.0
  O  O174  1  0.55924000  0.98065000  0.04093000  1.0
  O  O175  1  0.05539000  0.42759000  0.11575000  1.0
  O  O176  1  0.93250000  0.60692000  0.08712000  1.0
  O  O177  1  0.97366000  0.44312000  0.96542000  1.0
  O  O178  1  0.10076000  0.59503000  0.99460000  1.0
  O  O179  1  0.05050000  0.00773000  0.42509000  1.0
  O  O180  1  0.05923000  0.89266000  0.59993000  1.0
  O  O181  1  0.90874000  0.92117000  0.44446000  1.0
  O  O182  1  0.95523000  0.04839000  0.59983000  1.0
