# generated using pymatgen
data_CdH18C16(N2O3)2
_symmetry_space_group_name_H-M   'P 1'
_cell_length_a   7.10523000
_cell_length_b   8.28743000
_cell_length_c   8.75336805
_cell_angle_alpha   75.09906328
_cell_angle_beta   70.96418779
_cell_angle_gamma   77.22500000
_symmetry_Int_Tables_number   1
_chemical_formula_structural   CdH18C16(N2O3)2
_chemical_formula_sum   'Cd1 H18 C16 N4 O6'
_cell_volume   465.51759939
_cell_formula_units_Z   1
loop_
 _symmetry_equiv_pos_site_id
 _symmetry_equiv_pos_as_xyz
  1  'x, y, z'
loop_
 _atom_site_type_symbol
 _atom_site_label
 _atom_site_symmetry_multiplicity
 _atom_site_fract_x
 _atom_site_fract_y
 _atom_site_fract_z
 _atom_site_occupancy
  Cd  Cd0  1  0.99998000  0.00001000  1.00000000  1.0
  H  H1  1  0.96131000  0.73446000  0.34674000  1.0
  H  H2  1  0.03868000  0.26555000  0.65324000  1.0
  H  H3  1  0.84184000  0.72682000  0.65347000  1.0
  H  H4  1  0.15819000  0.27317000  0.34651000  1.0
  H  H5  1  0.64519000  0.98954000  0.75363000  1.0
  H  H6  1  0.35483000  0.01043000  0.24637000  1.0
  H  H7  1  0.72860000  0.24068000  0.24345000  1.0
  H  H8  1  0.27136000  0.75932000  0.75657000  1.0
  H  H9  1  0.47796000  0.27855000  0.69313000  1.0
  H  H10  1  0.52202000  0.72144000  0.30690000  1.0
  H  H11  1  0.36549000  0.44000000  0.17432000  1.0
  H  H12  1  0.63451000  0.56002000  0.82568000  1.0
  H  H13  1  0.59009000  0.52589000  0.12831000  1.0
  H  H14  1  0.40992000  0.47412000  0.87168000  1.0
  H  H15  1  0.88127000  0.69865000  0.02607000  1.0
  H  H16  1  0.11873000  0.30135000  0.97392000  1.0
  H  H17  1  0.66931000  0.80960000  0.00506000  1.0
  H  H18  1  0.33068000  0.19041000  0.99494000  1.0
  C  C19  1  0.87782000  0.84534000  0.39744000  1.0
  C  C20  1  0.12218000  0.15466000  0.60255000  1.0
  C  C21  1  0.80967000  0.84178000  0.56631000  1.0
  C  C22  1  0.19035000  0.15820000  0.43366000  1.0
  C  C23  1  0.70211000  0.98776000  0.62215000  1.0
  C  C24  1  0.29790000  0.01222000  0.37786000  1.0
  C  C25  1  0.67103000  0.13561000  0.50588000  1.0
  C  C26  1  0.32897000  0.86438000  0.49414000  1.0
  C  C27  1  0.74783000  0.12854000  0.33782000  1.0
  C  C28  1  0.25215000  0.87146000  0.66220000  1.0
  C  C29  1  0.55997000  0.28992000  0.56157000  1.0
  C  C30  1  0.44002000  0.71007000  0.43846000  1.0
  C  C31  1  0.34247000  0.70488000  0.06507000  1.0
  C  C32  1  0.65753000  0.29513000  0.93492000  1.0
  C  C33  1  0.46218000  0.52803000  0.08340000  1.0
  C  C34  1  0.53782000  0.47198000  0.91660000  1.0
  N  N35  1  0.84668000  0.98670000  0.28526000  1.0
  N  N36  1  0.15331000  0.01331000  0.71474000  1.0
  N  N37  1  0.55918000  0.43505000  0.46096000  1.0
  N  N38  1  0.44081000  0.56494000  0.53907000  1.0
  O  O39  1  0.15756000  0.71758000  0.07065000  1.0
  O  O40  1  0.84244000  0.28244000  0.92934000  1.0
  O  O41  1  0.42930000  0.83117000  0.04038000  1.0
  O  O42  1  0.57071000  0.16884000  0.95962000  1.0
  O  O43  1  0.82134000  0.80291000  0.96675000  1.0
  O  O44  1  0.17865000  0.19710000  0.03325000  1.0
