# generated using pymatgen
data_CdH20C22(N5O4)2
_symmetry_space_group_name_H-M   'P 1'
_cell_length_a   9.67358000
_cell_length_b   10.16740000
_cell_length_c   12.91010000
_cell_angle_alpha   89.99990000
_cell_angle_beta   84.38710000
_cell_angle_gamma   89.99990000
_symmetry_Int_Tables_number   1
_chemical_formula_structural   CdH20C22(N5O4)2
_chemical_formula_sum   'Cd2 H40 C44 N20 O16'
_cell_volume   1263.68685869
_cell_formula_units_Z   2
loop_
 _symmetry_equiv_pos_site_id
 _symmetry_equiv_pos_as_xyz
  1  'x, y, z'
loop_
 _atom_site_type_symbol
 _atom_site_label
 _atom_site_symmetry_multiplicity
 _atom_site_fract_x
 _atom_site_fract_y
 _atom_site_fract_z
 _atom_site_occupancy
  Cd  Cd0  1  0.50000000  0.00000000  0.00000000  1.0
  Cd  Cd1  1  0.00000000  0.50000000  0.50000000  1.0
  H  H2  1  0.51172000  0.73731000  0.88843000  1.0
  H  H3  1  0.98828000  0.23731000  0.61157000  1.0
  H  H4  1  0.48828000  0.26269000  0.11157000  1.0
  H  H5  1  0.01172000  0.76269000  0.38843000  1.0
  H  H6  1  0.20491000  0.46578000  0.02817000  1.0
  H  H7  1  0.29509000  0.96578000  0.47183000  1.0
  H  H8  1  0.79509000  0.53422000  0.97183000  1.0
  H  H9  1  0.70491000  0.03422000  0.52817000  1.0
  H  H10  1  0.17762000  0.61267000  0.18323000  1.0
  H  H11  1  0.32238000  0.11267000  0.31677000  1.0
  H  H12  1  0.82238000  0.38733000  0.81677000  1.0
  H  H13  1  0.67762000  0.88733000  0.68323000  1.0
  H  H14  1  0.31542000  0.82183000  0.18188000  1.0
  H  H15  1  0.18458000  0.32183000  0.31812000  1.0
  H  H16  1  0.68458000  0.17817000  0.81812000  1.0
  H  H17  1  0.81542000  0.67817000  0.68188000  1.0
  H  H18  1  0.29581000  0.44532000  0.85220000  1.0
  H  H19  1  0.20419000  0.94532000  0.64780000  1.0
  H  H20  1  0.70419000  0.55469000  0.14780000  1.0
  H  H21  1  0.79581000  0.05468000  0.35220000  1.0
  H  H22  1  0.36547000  0.37782000  0.70610000  1.0
  H  H23  1  0.13452000  0.87782000  0.79390000  1.0
  H  H24  1  0.63453000  0.62218000  0.29390000  1.0
  H  H25  1  0.86548000  0.12218000  0.20610000  1.0
  H  H26  1  0.73595000  0.48312000  0.66422000  1.0
  H  H27  1  0.76405000  0.98311000  0.83578000  1.0
  H  H28  1  0.26405000  0.51688000  0.33578000  1.0
  H  H29  1  0.23595000  0.01689000  0.16422000  1.0
  H  H30  1  0.79452000  0.33032000  0.36477000  1.0
  H  H31  1  0.70548000  0.83032000  0.13523000  1.0
  H  H32  1  0.20548000  0.66968000  0.63523000  1.0
  H  H33  1  0.29452000  0.16968000  0.86477000  1.0
  H  H34  1  0.55032000  0.24484000  0.37778000  1.0
  H  H35  1  0.94968000  0.74484000  0.12222000  1.0
  H  H36  1  0.44968000  0.75516000  0.62222000  1.0
  H  H37  1  0.05032000  0.25516000  0.87778000  1.0
  H  H38  1  0.39455000  0.28328000  0.54087000  1.0
  H  H39  1  0.10545000  0.78328000  0.95913000  1.0
  H  H40  1  0.60545000  0.71672000  0.45913000  1.0
  H  H41  1  0.89455000  0.21672000  0.04087000  1.0
  C  C42  1  0.43676000  0.70704000  0.95197000  1.0
  C  C43  1  0.06324000  0.20704000  0.54803000  1.0
  C  C44  1  0.56324000  0.29296000  0.04803000  1.0
  C  C45  1  0.93676000  0.79296000  0.45197000  1.0
  C  C46  1  0.36292000  0.58887000  0.94611000  1.0
  C  C47  1  0.13708000  0.08888000  0.55389000  1.0
  C  C48  1  0.63708000  0.41113000  0.05389000  1.0
  C  C49  1  0.86292000  0.91113000  0.44611000  1.0
  C  C50  1  0.26591000  0.55574000  0.03007000  1.0
  C  C51  1  0.23409000  0.05574000  0.46993000  1.0
  C  C52  1  0.73409000  0.44426000  0.96993000  1.0
  C  C53  1  0.76591000  0.94426000  0.53007000  1.0
  C  C54  1  0.24908000  0.63862000  0.11600000  1.0
  C  C55  1  0.25092000  0.13861000  0.38400000  1.0
  C  C56  1  0.75092000  0.36138000  0.88400000  1.0
  C  C57  1  0.74908000  0.86139000  0.61600000  1.0
  C  C58  1  0.32586000  0.75433000  0.11616000  1.0
  C  C59  1  0.17414000  0.25433000  0.38384000  1.0
  C  C60  1  0.67414000  0.24567000  0.88384000  1.0
  C  C61  1  0.82586000  0.74567000  0.61616000  1.0
  C  C62  1  0.48442000  0.50822000  0.78003000  1.0
  C  C63  1  0.01557000  0.00822000  0.71997000  1.0
  C  C64  1  0.51558000  0.49179000  0.21997000  1.0
  C  C65  1  0.98442000  0.99178000  0.28003000  1.0
  C  C66  1  0.55195000  0.38993000  0.61512000  1.0
  C  C67  1  0.94805000  0.88993000  0.88488000  1.0
  C  C68  1  0.44805000  0.61007000  0.38488000  1.0
  C  C69  1  0.05195000  0.11007000  0.11512000  1.0
  C  C70  1  0.69120000  0.43151000  0.60208000  1.0
  C  C71  1  0.80880000  0.93150000  0.89792000  1.0
  C  C72  1  0.30880000  0.56849000  0.39792000  1.0
  C  C73  1  0.19120000  0.06849000  0.10208000  1.0
  C  C74  1  0.72358000  0.34488000  0.43483000  1.0
  C  C75  1  0.77642000  0.84488000  0.06517000  1.0
  C  C76  1  0.27642000  0.65511000  0.56517000  1.0
  C  C77  1  0.22358000  0.15511000  0.93483000  1.0
  C  C78  1  0.58786000  0.29745000  0.44267000  1.0
  C  C79  1  0.91214000  0.79745000  0.05733000  1.0
  C  C80  1  0.41214000  0.70255000  0.55733000  1.0
  C  C81  1  0.08786000  0.20255000  0.94267000  1.0
  C  C82  1  0.50115000  0.31956000  0.53325000  1.0
  C  C83  1  0.99885000  0.81956000  0.96674000  1.0
  C  C84  1  0.49885000  0.68044000  0.46674000  1.0
  C  C85  1  0.00115000  0.18044000  0.03326000  1.0
  N  N86  1  0.41613000  0.78774000  0.03424000  1.0
  N  N87  1  0.08387000  0.28774000  0.46576000  1.0
  N  N88  1  0.58387000  0.21226000  0.96576000  1.0
  N  N89  1  0.91613000  0.71226000  0.53424000  1.0
  N  N90  1  0.37877000  0.50539000  0.86016000  1.0
  N  N91  1  0.12123000  0.00540000  0.63984000  1.0
  N  N92  1  0.62123000  0.49460000  0.13984000  1.0
  N  N93  1  0.87877000  0.99460000  0.36016000  1.0
  N  N94  1  0.46469000  0.41372000  0.70505000  1.0
  N  N95  1  0.03531000  0.91372000  0.79495000  1.0
  N  N96  1  0.53531000  0.58628000  0.29495000  1.0
  N  N97  1  0.96469000  0.08628000  0.20505000  1.0
  N  N98  1  0.77345000  0.40996000  0.51388000  1.0
  N  N99  1  0.72655000  0.90996000  0.98612000  1.0
  N  N100  1  0.22655000  0.59004000  0.48612000  1.0
  N  N101  1  0.27345000  0.09004000  0.01388000  1.0
  N  N102  1  0.57853000  0.04306000  0.24914000  1.0
  N  N103  1  0.92147000  0.54307000  0.25086000  1.0
  N  N104  1  0.42147000  0.95694000  0.75086000  1.0
  N  N105  1  0.07853000  0.45694000  0.74914000  1.0
  O  O106  1  0.58482000  0.58373000  0.77631000  1.0
  O  O107  1  0.91518000  0.08373000  0.72369000  1.0
  O  O108  1  0.41517000  0.41627000  0.22369000  1.0
  O  O109  1  0.08482000  0.91627000  0.27631000  1.0
  O  O110  1  0.48427000  0.01138000  0.19059000  1.0
  O  O111  1  0.01573000  0.51138000  0.30941000  1.0
  O  O112  1  0.51573000  0.98862000  0.80941000  1.0
  O  O113  1  0.98427000  0.48862000  0.69059000  1.0
  O  O114  1  0.67143000  0.12591000  0.21636000  1.0
  O  O115  1  0.82857000  0.62591000  0.28364000  1.0
  O  O116  1  0.32857000  0.87409000  0.78364000  1.0
  O  O117  1  0.17142000  0.37409000  0.71636000  1.0
  O  O118  1  0.57611000  0.99428000  0.33851000  1.0
  O  O119  1  0.92389000  0.49428000  0.16149000  1.0
  O  O120  1  0.42389000  0.00572000  0.66149000  1.0
  O  O121  1  0.07611000  0.50572000  0.83851000  1.0
