# generated using pymatgen
data_CuH6C6N3Cl2
_symmetry_space_group_name_H-M   'P 1'
_cell_length_a   8.09068000
_cell_length_b   8.62004287
_cell_length_c   14.31260000
_cell_angle_alpha   85.60492746
_cell_angle_beta   73.58820000
_cell_angle_gamma   62.02252398
_symmetry_Int_Tables_number   1
_chemical_formula_structural   CuH6C6N3Cl2
_chemical_formula_sum   'Cu4 H24 C24 N12 Cl8'
_cell_volume   843.77197371
_cell_formula_units_Z   4
loop_
 _symmetry_equiv_pos_site_id
 _symmetry_equiv_pos_as_xyz
  1  'x, y, z'
loop_
 _atom_site_type_symbol
 _atom_site_label
 _atom_site_symmetry_multiplicity
 _atom_site_fract_x
 _atom_site_fract_y
 _atom_site_fract_z
 _atom_site_occupancy
  Cu  Cu0  1  0.06027000  0.14169000  0.40708000  1.0
  Cu  Cu1  1  0.89083000  0.64181000  0.90705000  1.0
  Cu  Cu2  1  0.93972000  0.85831000  0.59293000  1.0
  Cu  Cu3  1  0.10917000  0.35819000  0.09295000  1.0
  H  H4  1  0.56004000  0.65605000  0.29791000  1.0
  H  H5  1  0.98589000  0.15615000  0.79779000  1.0
  H  H6  1  0.43995000  0.34395000  0.70209000  1.0
  H  H7  1  0.01412000  0.84384000  0.20221000  1.0
  H  H8  1  0.70952000  0.50066000  0.20042000  1.0
  H  H9  1  0.08945000  0.00065000  0.70033000  1.0
  H  H10  1  0.29048000  0.49933000  0.79958000  1.0
  H  H11  1  0.91056000  0.99934000  0.29967000  1.0
  H  H12  1  0.93399000  0.31373000  0.61060000  1.0
  H  H13  1  0.64119000  0.81398000  0.11050000  1.0
  H  H14  1  0.06599000  0.68627000  0.38941000  1.0
  H  H15  1  0.35881000  0.18602000  0.88950000  1.0
  H  H16  1  0.71204000  0.61683000  0.68793000  1.0
  H  H17  1  0.48320000  0.11696000  0.18778000  1.0
  H  H18  1  0.28796000  0.38317000  0.31207000  1.0
  H  H19  1  0.51681000  0.88304000  0.81222000  1.0
  H  H20  1  0.50812000  0.84871000  0.59000000  1.0
  H  H21  1  0.55330000  0.34878000  0.08989000  1.0
  H  H22  1  0.49190000  0.15129000  0.40999000  1.0
  H  H23  1  0.44670000  0.65122000  0.91011000  1.0
  H  H24  1  0.52785000  0.76195000  0.42529000  1.0
  H  H25  1  0.78483000  0.26215000  0.92513000  1.0
  H  H26  1  0.47217000  0.23805000  0.57470000  1.0
  H  H27  1  0.21519000  0.73784000  0.07486000  1.0
  C  C28  1  0.84108000  0.41672000  0.57240000  1.0
  C  C29  1  0.66940000  0.91690000  0.07223000  1.0
  C  C30  1  0.15891000  0.58328000  0.42760000  1.0
  C  C31  1  0.33060000  0.08310000  0.92777000  1.0
  C  C32  1  0.71515000  0.58710000  0.61470000  1.0
  C  C33  1  0.58284000  0.08726000  0.11450000  1.0
  C  C34  1  0.28484000  0.41290000  0.38530000  1.0
  C  C35  1  0.41717000  0.91274000  0.88550000  1.0
  C  C36  1  0.60344000  0.71286000  0.56101000  1.0
  C  C37  1  0.62259000  0.21299000  0.06082000  1.0
  C  C38  1  0.39655000  0.28715000  0.43899000  1.0
  C  C39  1  0.37740000  0.78702000  0.93918000  1.0
  C  C40  1  0.61622000  0.66395000  0.46749000  1.0
  C  C41  1  0.75220000  0.16415000  0.96731000  1.0
  C  C42  1  0.38378000  0.33606000  0.53251000  1.0
  C  C43  1  0.24780000  0.83585000  0.03269000  1.0
  C  C44  1  0.74617000  0.49182000  0.42948000  1.0
  C  C45  1  0.83231000  0.99199000  0.92935000  1.0
  C  C46  1  0.25382000  0.50818000  0.57052000  1.0
  C  C47  1  0.16769000  0.00801000  0.07065000  1.0
  C  C48  1  0.78279000  0.43050000  0.32868000  1.0
  C  C49  1  0.95793000  0.93057000  0.82858000  1.0
  C  C50  1  0.21721000  0.56950000  0.67132000  1.0
  C  C51  1  0.04208000  0.06942000  0.17142000  1.0
  N  N52  1  0.85888000  0.37108000  0.48135000  1.0
  N  N53  1  0.78837000  0.87127000  0.98121000  1.0
  N  N54  1  0.14111000  0.62892000  0.51865000  1.0
  N  N55  1  0.21164000  0.12873000  0.01878000  1.0
  N  N56  1  0.66884000  0.53096000  0.27402000  1.0
  N  N57  1  0.02603000  0.03104000  0.77392000  1.0
  N  N58  1  0.33115000  0.46904000  0.72598000  1.0
  N  N59  1  0.97399000  0.96895000  0.22609000  1.0
  N  N60  1  0.93421000  0.27190000  0.29911000  1.0
  N  N61  1  0.99477000  0.77190000  0.79904000  1.0
  N  N62  1  0.06579000  0.72810000  0.70090000  1.0
  N  N63  1  0.00523000  0.22810000  0.20096000  1.0
  Cl  Cl64  1  0.33733000  0.94291000  0.30326000  1.0
  Cl  Cl65  1  0.91713000  0.44262000  0.80325000  1.0
  Cl  Cl66  1  0.66267000  0.05710000  0.69675000  1.0
  Cl  Cl67  1  0.08287000  0.55738000  0.19674000  1.0
  Cl  Cl68  1  0.17414000  0.01636000  0.53983000  1.0
  Cl  Cl69  1  0.76975000  0.51636000  0.03978000  1.0
  Cl  Cl70  1  0.82585000  0.98365000  0.46017000  1.0
  Cl  Cl71  1  0.23024000  0.48364000  0.96022000  1.0
