# generated using pymatgen
data_CdH42C38(NO2)4
_symmetry_space_group_name_H-M   'P 1'
_cell_length_a   13.65940000
_cell_length_b   15.08630000
_cell_length_c   19.29870000
_cell_angle_alpha   90.00010000
_cell_angle_beta   90.00010000
_cell_angle_gamma   89.99990000
_symmetry_Int_Tables_number   1
_chemical_formula_structural   CdH42C38(NO2)4
_chemical_formula_sum   'Cd4 H168 C152 N16 O32'
_cell_volume   3976.87936928
_cell_formula_units_Z   4
loop_
 _symmetry_equiv_pos_site_id
 _symmetry_equiv_pos_as_xyz
  1  'x, y, z'
loop_
 _atom_site_type_symbol
 _atom_site_label
 _atom_site_symmetry_multiplicity
 _atom_site_fract_x
 _atom_site_fract_y
 _atom_site_fract_z
 _atom_site_occupancy
  Cd  Cd0  1  0.79994000  0.36153000  0.03616000  1.0
  Cd  Cd1  1  0.70006000  0.63847000  0.53616000  1.0
  Cd  Cd2  1  0.20006000  0.86153000  0.46384000  1.0
  Cd  Cd3  1  0.29994000  0.13847000  0.96384000  1.0
  H  H4  1  0.75870000  0.46395000  0.89560000  1.0
  H  H5  1  0.74130000  0.53605000  0.39560000  1.0
  H  H6  1  0.24130000  0.96395000  0.60440000  1.0
  H  H7  1  0.25870000  0.03605000  0.10440000  1.0
  H  H8  1  0.96066000  0.28063000  0.36493000  1.0
  H  H9  1  0.53934000  0.71937000  0.86493000  1.0
  H  H10  1  0.03934000  0.78063000  0.13507000  1.0
  H  H11  1  0.46066000  0.21937000  0.63507000  1.0
  H  H12  1  0.58350000  0.28092000  0.94550000  1.0
  H  H13  1  0.91650000  0.71908000  0.44550000  1.0
  H  H14  1  0.41650000  0.78092000  0.55450000  1.0
  H  H15  1  0.08350000  0.21908000  0.05450000  1.0
  H  H16  1  0.73832000  0.32153000  0.89557000  1.0
  H  H17  1  0.76168000  0.67847000  0.39557000  1.0
  H  H18  1  0.26168000  0.82153000  0.60442000  1.0
  H  H19  1  0.23832000  0.17847000  0.10442000  1.0
  H  H20  1  0.42340000  0.37870000  0.09365000  1.0
  H  H21  1  0.07660000  0.62130000  0.59365000  1.0
  H  H22  1  0.57660000  0.87870000  0.40635000  1.0
  H  H23  1  0.92340000  0.12130000  0.90634000  1.0
  H  H24  1  0.83749000  0.42002000  0.30311000  1.0
  H  H25  1  0.66251000  0.57998000  0.80311000  1.0
  H  H26  1  0.16251000  0.92002000  0.19689000  1.0
  H  H27  1  0.33749000  0.07998000  0.69689000  1.0
  H  H28  1  0.50864000  0.45428000  0.88800000  1.0
  H  H29  1  0.99136000  0.54572000  0.38800000  1.0
  H  H30  1  0.49136000  0.95428000  0.61200000  1.0
  H  H31  1  0.00864000  0.04572000  0.11200000  1.0
  H  H32  1  0.45059000  0.34949000  0.89450000  1.0
  H  H33  1  0.04942000  0.65051000  0.39450000  1.0
  H  H34  1  0.54942000  0.84949000  0.60550000  1.0
  H  H35  1  0.95058000  0.15051000  0.10550000  1.0
  H  H36  1  0.61858000  0.44639000  0.76441000  1.0
  H  H37  1  0.88142000  0.55362000  0.26441000  1.0
  H  H38  1  0.38142000  0.94638000  0.73559000  1.0
  H  H39  1  0.11858000  0.05361000  0.23559000  1.0
  H  H40  1  0.37424000  0.44491000  0.98271000  1.0
  H  H41  1  0.12576000  0.55509000  0.48271000  1.0
  H  H42  1  0.62576000  0.94491000  0.51729000  1.0
  H  H43  1  0.87424000  0.05509000  0.01729000  1.0
  H  H44  1  0.82557000  0.44799000  0.17566000  1.0
  H  H45  1  0.67443000  0.55201000  0.67566000  1.0
  H  H46  1  0.17443000  0.94799000  0.32434000  1.0
  H  H47  1  0.32557000  0.05201000  0.82434000  1.0
  H  H48  1  0.56778000  0.97457000  0.77336000  1.0
  H  H49  1  0.93221000  0.02543000  0.27336000  1.0
  H  H50  1  0.43221000  0.47457000  0.72664000  1.0
  H  H51  1  0.06779000  0.52543000  0.22664000  1.0
  H  H52  1  0.69799000  0.03464000  0.11043000  1.0
  H  H53  1  0.80201000  0.96536000  0.61043000  1.0
  H  H54  1  0.30201000  0.53464000  0.38957000  1.0
  H  H55  1  0.19799000  0.46536000  0.88957000  1.0
  H  H56  1  0.74254000  0.18457000  0.07164000  1.0
  H  H57  1  0.75746000  0.81543000  0.57164000  1.0
  H  H58  1  0.25746000  0.68457000  0.42836000  1.0
  H  H59  1  0.24254000  0.31543000  0.92836000  1.0
  H  H60  1  0.59141000  0.36280000  0.11194000  1.0
  H  H61  1  0.90859000  0.63720000  0.61194000  1.0
  H  H62  1  0.40859000  0.86280000  0.38806000  1.0
  H  H63  1  0.09141000  0.13721000  0.88806000  1.0
  H  H64  1  0.58575000  0.26660000  0.05873000  1.0
  H  H65  1  0.91426000  0.73340000  0.55873000  1.0
  H  H66  1  0.41426000  0.76660000  0.44127000  1.0
  H  H67  1  0.08574000  0.23340000  0.94128000  1.0
  H  H68  1  0.67512000  0.18301000  0.90505000  1.0
  H  H69  1  0.82488000  0.81700000  0.40505000  1.0
  H  H70  1  0.32488000  0.68300000  0.59495000  1.0
  H  H71  1  0.17512000  0.31699000  0.09495000  1.0
  H  H72  1  0.48540000  0.52554000  0.06903000  1.0
  H  H73  1  0.01460000  0.47446000  0.56903000  1.0
  H  H74  1  0.51460000  0.02554000  0.43097000  1.0
  H  H75  1  0.98540000  0.97446000  0.93097000  1.0
  H  H76  1  0.49930000  0.56466000  0.98268000  1.0
  H  H77  1  0.00070000  0.43534000  0.48268000  1.0
  H  H78  1  0.50070000  0.06466000  0.51732000  1.0
  H  H79  1  0.99930000  0.93534000  0.01732000  1.0
  H  H80  1  0.52383000  0.08542000  0.68219000  1.0
  H  H81  1  0.97617000  0.91458000  0.18219000  1.0
  H  H82  1  0.47617000  0.58542000  0.81781000  1.0
  H  H83  1  0.02383000  0.41458000  0.31781000  1.0
  H  H84  1  0.74577000  0.10893000  0.32268000  1.0
  H  H85  1  0.75423000  0.89107000  0.82268000  1.0
  H  H86  1  0.25423000  0.60893000  0.17732000  1.0
  H  H87  1  0.24577000  0.39107000  0.67732000  1.0
  H  H88  1  0.81490000  0.19551000  0.38294000  1.0
  H  H89  1  0.68509000  0.80449000  0.88294000  1.0
  H  H90  1  0.18509000  0.69551000  0.11706000  1.0
  H  H91  1  0.31491000  0.30449000  0.61706000  1.0
  H  H92  1  0.65697000  0.51249000  0.97306000  1.0
  H  H93  1  0.84303000  0.48752000  0.47306000  1.0
  H  H94  1  0.34303000  0.01249000  0.52694000  1.0
  H  H95  1  0.15697000  0.98752000  0.02694000  1.0
  H  H96  1  0.65629000  0.50071000  0.06441000  1.0
  H  H97  1  0.84371000  0.49930000  0.56441000  1.0
  H  H98  1  0.34371000  0.00070000  0.43559000  1.0
  H  H99  1  0.15629000  0.99930000  0.93559000  1.0
  H  H100  1  0.53967000  0.38521000  0.65790000  1.0
  H  H101  1  0.96033000  0.61479000  0.15790000  1.0
  H  H102  1  0.46033000  0.88521000  0.84210000  1.0
  H  H103  1  0.03967000  0.11479000  0.34210000  1.0
  H  H104  1  0.66781000  0.97178000  0.99088000  1.0
  H  H105  1  0.83219000  0.02822000  0.49088000  1.0
  H  H106  1  0.33219000  0.47178000  0.50912000  1.0
  H  H107  1  0.16781000  0.52822000  0.00912000  1.0
  H  H108  1  0.60110000  0.07451000  0.98383000  1.0
  H  H109  1  0.89890000  0.92549000  0.48383000  1.0
  H  H110  1  0.39890000  0.57451000  0.51617000  1.0
  H  H111  1  0.10110000  0.42549000  0.01617000  1.0
  H  H112  1  0.72954000  0.07121000  0.96340000  1.0
  H  H113  1  0.77046000  0.92880000  0.46340000  1.0
  H  H114  1  0.27046000  0.57121000  0.53660000  1.0
  H  H115  1  0.22954000  0.42880000  0.03660000  1.0
  H  H116  1  0.73964000  0.38405000  0.39829000  1.0
  H  H117  1  0.76036000  0.61595000  0.89829000  1.0
  H  H118  1  0.26036000  0.88405000  0.10171000  1.0
  H  H119  1  0.23964000  0.11595000  0.60171000  1.0
  H  H120  1  0.80013000  0.36279000  0.51065000  1.0
  H  H121  1  0.69987000  0.63721000  0.01065000  1.0
  H  H122  1  0.19987000  0.86279000  0.98935000  1.0
  H  H123  1  0.30013000  0.13721000  0.48935000  1.0
  H  H124  1  0.79616000  0.24655000  0.50506000  1.0
  H  H125  1  0.70384000  0.75345000  0.00506000  1.0
  H  H126  1  0.20384000  0.74655000  0.99494000  1.0
  H  H127  1  0.29616000  0.25346000  0.49494000  1.0
  H  H128  1  0.66232000  0.31509000  0.58442000  1.0
  H  H129  1  0.83768000  0.68491000  0.08442000  1.0
  H  H130  1  0.33768000  0.81509000  0.91558000  1.0
  H  H131  1  0.16232000  0.18491000  0.41558000  1.0
  H  H132  1  0.51803000  0.37626000  0.52725000  1.0
  H  H133  1  0.98197000  0.62373000  0.02725000  1.0
  H  H134  1  0.48197000  0.87627000  0.97275000  1.0
  H  H135  1  0.01803000  0.12374000  0.47275000  1.0
  H  H136  1  0.64897000  0.16210000  0.54014000  1.0
  H  H137  1  0.85103000  0.83790000  0.04014000  1.0
  H  H138  1  0.35103000  0.66210000  0.95986000  1.0
  H  H139  1  0.14897000  0.33790000  0.45986000  1.0
  H  H140  1  0.53266000  0.21272000  0.53117000  1.0
  H  H141  1  0.96733000  0.78728000  0.03117000  1.0
  H  H142  1  0.46734000  0.71273000  0.96883000  1.0
  H  H143  1  0.03266000  0.28728000  0.46883000  1.0
  H  H144  1  0.49300000  0.32651000  0.41394000  1.0
  H  H145  1  0.00700000  0.67350000  0.91394000  1.0
  H  H146  1  0.50700000  0.82651000  0.08606000  1.0
  H  H147  1  0.99300000  0.17349000  0.58606000  1.0
  H  H148  1  0.57605000  0.41134000  0.38763000  1.0
  H  H149  1  0.92396000  0.58866000  0.88763000  1.0
  H  H150  1  0.42395000  0.91134000  0.11237000  1.0
  H  H151  1  0.07605000  0.08866000  0.61237000  1.0
  H  H152  1  0.66937000  0.15111000  0.41914000  1.0
  H  H153  1  0.83063000  0.84889000  0.91914000  1.0
  H  H154  1  0.33063000  0.65111000  0.08086000  1.0
  H  H155  1  0.16937000  0.34889000  0.58086000  1.0
  H  H156  1  0.54349000  0.17576000  0.41254000  1.0
  H  H157  1  0.95651000  0.82424000  0.91254000  1.0
  H  H158  1  0.45651000  0.67576000  0.08746000  1.0
  H  H159  1  0.04349000  0.32424000  0.58746000  1.0
  H  H160  1  0.65981000  0.85396000  0.22978000  1.0
  H  H161  1  0.84019000  0.14604000  0.72978000  1.0
  H  H162  1  0.34019000  0.35396000  0.27022000  1.0
  H  H163  1  0.15981000  0.64604000  0.77022000  1.0
  H  H164  1  0.74334000  0.89969000  0.16779000  1.0
  H  H165  1  0.75667000  0.10031000  0.66779000  1.0
  H  H166  1  0.25667000  0.39969000  0.33221000  1.0
  H  H167  1  0.24334000  0.60031000  0.83221000  1.0
  H  H168  1  0.61432000  0.92564000  0.16308000  1.0
  H  H169  1  0.88568000  0.07436000  0.66308000  1.0
  H  H170  1  0.38568000  0.42564000  0.33692000  1.0
  H  H171  1  0.11432000  0.57436000  0.83692000  1.0
  C  C172  1  0.59690000  0.35209000  0.93854000  1.0
  C  C173  1  0.90310000  0.64791000  0.43854000  1.0
  C  C174  1  0.40310000  0.85209000  0.56146000  1.0
  C  C175  1  0.09690000  0.14791000  0.06146000  1.0
  C  C176  1  0.67351000  0.36039000  0.87987000  1.0
  C  C177  1  0.82649000  0.63960000  0.37987000  1.0
  C  C178  1  0.32649000  0.86040000  0.62013000  1.0
  C  C179  1  0.17351000  0.13960000  0.12013000  1.0
  C  C180  1  0.80005000  0.28240000  0.29465000  1.0
  C  C181  1  0.69995000  0.71760000  0.79465000  1.0
  C  C182  1  0.19995000  0.78240000  0.20535000  1.0
  C  C183  1  0.30005000  0.21760000  0.70535000  1.0
  C  C184  1  0.45988000  0.35424000  0.04657000  1.0
  C  C185  1  0.04012000  0.64576000  0.54657000  1.0
  C  C186  1  0.54012000  0.85424000  0.45343000  1.0
  C  C187  1  0.95988000  0.14576000  0.95343000  1.0
  C  C188  1  0.76721000  0.23590000  0.17485000  1.0
  C  C189  1  0.73278000  0.76409000  0.67485000  1.0
  C  C190  1  0.23279000  0.73590000  0.32515000  1.0
  C  C191  1  0.26722000  0.26410000  0.82515000  1.0
  C  C192  1  0.63130000  0.32025000  0.81425000  1.0
  C  C193  1  0.86870000  0.67975000  0.31425000  1.0
  C  C194  1  0.36870000  0.82025000  0.68575000  1.0
  C  C195  1  0.13130000  0.17975000  0.18575000  1.0
  C  C196  1  0.81724000  0.36614000  0.26837000  1.0
  C  C197  1  0.68276000  0.63386000  0.76836000  1.0
  C  C198  1  0.18276000  0.86614000  0.23163000  1.0
  C  C199  1  0.31724000  0.13386000  0.73164000  1.0
  C  C200  1  0.49795000  0.39653000  0.92209000  1.0
  C  C201  1  0.00205000  0.60347000  0.42209000  1.0
  C  C202  1  0.50205000  0.89653000  0.57791000  1.0
  C  C203  1  0.99795000  0.10347000  0.07791000  1.0
  C  C204  1  0.61483000  0.22705000  0.80647000  1.0
  C  C205  1  0.88517000  0.77295000  0.30647000  1.0
  C  C206  1  0.38517000  0.72705000  0.69353000  1.0
  C  C207  1  0.11483000  0.27295000  0.19353000  1.0
  C  C208  1  0.77048000  0.21440000  0.24747000  1.0
  C  C209  1  0.72952000  0.78560000  0.74747000  1.0
  C  C210  1  0.22952000  0.71440000  0.25253000  1.0
  C  C211  1  0.27048000  0.28560000  0.75253000  1.0
  C  C212  1  0.60528000  0.37560000  0.76010000  1.0
  C  C213  1  0.89472000  0.62439000  0.26010000  1.0
  C  C214  1  0.39472000  0.87560000  0.73990000  1.0
  C  C215  1  0.10528000  0.12440000  0.23990000  1.0
  C  C216  1  0.57155000  0.19800000  0.74256000  1.0
  C  C217  1  0.92845000  0.80200000  0.24256000  1.0
  C  C218  1  0.42845000  0.69799000  0.75744000  1.0
  C  C219  1  0.07155000  0.30200000  0.25744000  1.0
  C  C220  1  0.45157000  0.42765000  0.99041000  1.0
  C  C221  1  0.04843000  0.57235000  0.49041000  1.0
  C  C222  1  0.54843000  0.92765000  0.50959000  1.0
  C  C223  1  0.95157000  0.07235000  0.00958000  1.0
  C  C224  1  0.40388000  0.27296000  0.02245000  1.0
  C  C225  1  0.09612000  0.72704000  0.52245000  1.0
  C  C226  1  0.59612000  0.77296000  0.47755000  1.0
  C  C227  1  0.90388000  0.22705000  0.97755000  1.0
  C  C228  1  0.81041000  0.38245000  0.19701000  1.0
  C  C229  1  0.68959000  0.61755000  0.69701000  1.0
  C  C230  1  0.18959000  0.88245000  0.30299000  1.0
  C  C231  1  0.31041000  0.11755000  0.80299000  1.0
  C  C232  1  0.57909000  0.04525000  0.78161000  1.0
  C  C233  1  0.92091000  0.95476000  0.28161000  1.0
  C  C234  1  0.42091000  0.54524000  0.71839000  1.0
  C  C235  1  0.07909000  0.45475000  0.21839000  1.0
  C  C236  1  0.71749000  0.08470000  0.14860000  1.0
  C  C237  1  0.78250000  0.91530000  0.64860000  1.0
  C  C238  1  0.28251000  0.58470000  0.35140000  1.0
  C  C239  1  0.21749000  0.41530000  0.85140000  1.0
  C  C240  1  0.74170000  0.16900000  0.12685000  1.0
  C  C241  1  0.75830000  0.83100000  0.62685000  1.0
  C  C242  1  0.25830000  0.66900000  0.37315000  1.0
  C  C243  1  0.24170000  0.33100000  0.87315000  1.0
  C  C244  1  0.57000000  0.33785000  0.06066000  1.0
  C  C245  1  0.93000000  0.66215000  0.56066000  1.0
  C  C246  1  0.43000000  0.83785000  0.43934000  1.0
  C  C247  1  0.07000000  0.16215000  0.93934000  1.0
  C  C248  1  0.63882000  0.16267000  0.85751000  1.0
  C  C249  1  0.86118000  0.83732000  0.35751000  1.0
  C  C250  1  0.36118000  0.66268000  0.64249000  1.0
  C  C251  1  0.13882000  0.33732000  0.14249000  1.0
  C  C252  1  0.51008000  0.50722000  0.01671000  1.0
  C  C253  1  0.98992000  0.49278000  0.51671000  1.0
  C  C254  1  0.48992000  0.00722000  0.48329000  1.0
  C  C255  1  0.01008000  0.99278000  0.98329000  1.0
  C  C256  1  0.55591000  0.10601000  0.73139000  1.0
  C  C257  1  0.94409000  0.89399000  0.23139000  1.0
  C  C258  1  0.44409000  0.60601000  0.76861000  1.0
  C  C259  1  0.05591000  0.39399000  0.26861000  1.0
  C  C260  1  0.74470000  0.12779000  0.26831000  1.0
  C  C261  1  0.75530000  0.87221000  0.76831000  1.0
  C  C262  1  0.25530000  0.62779000  0.23169000  1.0
  C  C263  1  0.24470000  0.37221000  0.73169000  1.0
  C  C264  1  0.81559000  0.26734000  0.37156000  1.0
  C  C265  1  0.68441000  0.73266000  0.87156000  1.0
  C  C266  1  0.18440000  0.76734000  0.12844000  1.0
  C  C267  1  0.31559000  0.23266000  0.62844000  1.0
  C  C268  1  0.71731000  0.06410000  0.22022000  1.0
  C  C269  1  0.78269000  0.93590000  0.72022000  1.0
  C  C270  1  0.28269000  0.56410000  0.27978000  1.0
  C  C271  1  0.21731000  0.43590000  0.77978000  1.0
  C  C272  1  0.61909000  0.48098000  0.01636000  1.0
  C  C273  1  0.88090000  0.51903000  0.51636000  1.0
  C  C274  1  0.38091000  0.98098000  0.48364000  1.0
  C  C275  1  0.11909000  0.01903000  0.98364000  1.0
  C  C276  1  0.56131000  0.34103000  0.70010000  1.0
  C  C277  1  0.93869000  0.65898000  0.20010000  1.0
  C  C278  1  0.43869000  0.84102000  0.79990000  1.0
  C  C279  1  0.06131000  0.15897000  0.29990000  1.0
  C  C280  1  0.61914000  0.07385000  0.84566000  1.0
  C  C281  1  0.88086000  0.92615000  0.34566000  1.0
  C  C282  1  0.38086000  0.57385000  0.65434000  1.0
  C  C283  1  0.11914000  0.42615000  0.15434000  1.0
  C  C284  1  0.66038000  0.03379000  0.96168000  1.0
  C  C285  1  0.83962000  0.96621000  0.46168000  1.0
  C  C286  1  0.33962000  0.53379000  0.53832000  1.0
  C  C287  1  0.16038000  0.46621000  0.03832000  1.0
  C  C288  1  0.73611000  0.31398000  0.41386000  1.0
  C  C289  1  0.76389000  0.68602000  0.91386000  1.0
  C  C290  1  0.26389000  0.81398000  0.08614000  1.0
  C  C291  1  0.23611000  0.18602000  0.58614000  1.0
  C  C292  1  0.75499000  0.30744000  0.49267000  1.0
  C  C293  1  0.74501000  0.69256000  0.99267000  1.0
  C  C294  1  0.24501000  0.80744000  0.00733000  1.0
  C  C295  1  0.25499000  0.19257000  0.50733000  1.0
  C  C296  1  0.65489000  0.30483000  0.52851000  1.0
  C  C297  1  0.84511000  0.69517000  0.02851000  1.0
  C  C298  1  0.34511000  0.80483000  0.97149000  1.0
  C  C299  1  0.15489000  0.19517000  0.47149000  1.0
  C  C300  1  0.58690000  0.37729000  0.49749000  1.0
  C  C301  1  0.91310000  0.62271000  0.99749000  1.0
  C  C302  1  0.41310000  0.87729000  0.00251000  1.0
  C  C303  1  0.08690000  0.12271000  0.50251000  1.0
  C  C304  1  0.60856000  0.21454000  0.51256000  1.0
  C  C305  1  0.89144000  0.78546000  0.01256000  1.0
  C  C306  1  0.39144000  0.71454000  0.98744000  1.0
  C  C307  1  0.10856000  0.28546000  0.48744000  1.0
  C  C308  1  0.62969000  0.46967000  0.50833000  1.0
  C  C309  1  0.87031000  0.53033000  0.00833000  1.0
  C  C310  1  0.37031000  0.96967000  0.99167000  1.0
  C  C311  1  0.12969000  0.03033000  0.49167000  1.0
  C  C312  1  0.56782000  0.35235000  0.42047000  1.0
  C  C313  1  0.93218000  0.64766000  0.92047000  1.0
  C  C314  1  0.43217000  0.85235000  0.07953000  1.0
  C  C315  1  0.06783000  0.14765000  0.57953000  1.0
  C  C316  1  0.61351000  0.20050000  0.43288000  1.0
  C  C317  1  0.88649000  0.79950000  0.93288000  1.0
  C  C318  1  0.38649000  0.70050000  0.06712000  1.0
  C  C319  1  0.11351000  0.29950000  0.56712000  1.0
  C  C320  1  0.67632000  0.91221000  0.19803000  1.0
  C  C321  1  0.82368000  0.08778000  0.69803000  1.0
  C  C322  1  0.32368000  0.41222000  0.30197000  1.0
  C  C323  1  0.17633000  0.58779000  0.80197000  1.0
  N  N324  1  0.63244000  0.38319000  0.00816000  1.0
  N  N325  1  0.86756000  0.61681000  0.50816000  1.0
  N  N326  1  0.36756000  0.88319000  0.49184000  1.0
  N  N327  1  0.13244000  0.11682000  0.99184000  1.0
  N  N328  1  0.78810000  0.31967000  0.15122000  1.0
  N  N329  1  0.71190000  0.68033000  0.65122000  1.0
  N  N330  1  0.21190000  0.81967000  0.34878000  1.0
  N  N331  1  0.28810000  0.18033000  0.84878000  1.0
  N  N332  1  0.54441000  0.25527000  0.69136000  1.0
  N  N333  1  0.95559000  0.74473000  0.19136000  1.0
  N  N334  1  0.45559000  0.75527000  0.80864000  1.0
  N  N335  1  0.04441000  0.24473000  0.30864000  1.0
  N  N336  1  0.63643000  0.28372000  0.39635000  1.0
  N  N337  1  0.86357000  0.71628000  0.89635000  1.0
  N  N338  1  0.36357000  0.78372000  0.10366000  1.0
  N  N339  1  0.13643000  0.21628000  0.60365000  1.0
  O  O340  1  0.70126000  0.44981000  0.86634000  1.0
  O  O341  1  0.79874000  0.55019000  0.36634000  1.0
  O  O342  1  0.29874000  0.94981000  0.63366000  1.0
  O  O343  1  0.20126000  0.05019000  0.13366000  1.0
  O  O344  1  0.31027000  0.27571000  0.02726000  1.0
  O  O345  1  0.18973000  0.72429000  0.52726000  1.0
  O  O346  1  0.68973000  0.77571000  0.47273000  1.0
  O  O347  1  0.81027000  0.22429000  0.97273000  1.0
  O  O348  1  0.90548000  0.30528000  0.39445000  1.0
  O  O349  1  0.59452000  0.69472000  0.89445000  1.0
  O  O350  1  0.09452000  0.80528000  0.10555000  1.0
  O  O351  1  0.40548000  0.19472000  0.60555000  1.0
  O  O352  1  0.44873000  0.20790000  0.99507000  1.0
  O  O353  1  0.05127000  0.79210000  0.49507000  1.0
  O  O354  1  0.55127000  0.70790000  0.50493000  1.0
  O  O355  1  0.94873000  0.29210000  0.00493000  1.0
  O  O356  1  0.63638000  0.00748000  0.89229000  1.0
  O  O357  1  0.86362000  0.99252000  0.39229000  1.0
  O  O358  1  0.36362000  0.50748000  0.60771000  1.0
  O  O359  1  0.13638000  0.49252000  0.10771000  1.0
  O  O360  1  0.69098000  0.98330000  0.24604000  1.0
  O  O361  1  0.80901000  0.01670000  0.74604000  1.0
  O  O362  1  0.30901000  0.48330000  0.25396000  1.0
  O  O363  1  0.19099000  0.51670000  0.75396000  1.0
  O  O364  1  0.64261000  0.49572000  0.57054000  1.0
  O  O365  1  0.85739000  0.50428000  0.07054000  1.0
  O  O366  1  0.35739000  0.99572000  0.92946000  1.0
  O  O367  1  0.14261000  0.00428000  0.42946000  1.0
  O  O368  1  0.65096000  0.51910000  0.45653000  1.0
  O  O369  1  0.84904000  0.48090000  0.95653000  1.0
  O  O370  1  0.34903000  0.01910000  0.04347000  1.0
  O  O371  1  0.15096000  0.98090000  0.54347000  1.0
