# generated using pymatgen
data_HgH10C22N6(OF3)2
_symmetry_space_group_name_H-M   'P 1'
_cell_length_a   8.12079000
_cell_length_b   10.26070000
_cell_length_c   12.58370000
_cell_angle_alpha   83.10980000
_cell_angle_beta   89.99980000
_cell_angle_gamma   89.99990000
_symmetry_Int_Tables_number   1
_chemical_formula_structural   HgH10C22N6(OF3)2
_chemical_formula_sum   'Hg2 H20 C44 N12 O4 F12'
_cell_volume   1040.96401405
_cell_formula_units_Z   2
loop_
 _symmetry_equiv_pos_site_id
 _symmetry_equiv_pos_as_xyz
  1  'x, y, z'
loop_
 _atom_site_type_symbol
 _atom_site_label
 _atom_site_symmetry_multiplicity
 _atom_site_fract_x
 _atom_site_fract_y
 _atom_site_fract_z
 _atom_site_occupancy
  Hg  Hg0  1  0.00000000  0.50000000  0.50000000  1.0
  Hg  Hg1  1  0.50000000  0.00000000  0.50000000  1.0
  H  H2  1  0.93994000  0.37143000  0.80200000  1.0
  H  H3  1  0.43995000  0.12857000  0.19800000  1.0
  H  H4  1  0.06005000  0.62857000  0.19800000  1.0
  H  H5  1  0.56006000  0.87143000  0.80200000  1.0
  H  H6  1  0.90708000  0.14304000  0.90022000  1.0
  H  H7  1  0.40709000  0.35696000  0.09978000  1.0
  H  H8  1  0.09292000  0.85696000  0.09978000  1.0
  H  H9  1  0.59292000  0.64304000  0.90022000  1.0
  H  H10  1  0.84754000  0.99601000  0.60885000  1.0
  H  H11  1  0.34755000  0.50399000  0.39116000  1.0
  H  H12  1  0.15245000  0.00399000  0.39116000  1.0
  H  H13  1  0.65245000  0.49601000  0.60884000  1.0
  H  H14  1  0.72911000  0.51649000  0.30624000  1.0
  H  H15  1  0.22912000  0.98351000  0.69376000  1.0
  H  H16  1  0.27089000  0.48351000  0.69376000  1.0
  H  H17  1  0.77089000  0.01649000  0.30624000  1.0
  H  H18  1  0.07683000  0.19862000  0.28694000  1.0
  H  H19  1  0.57683000  0.30138000  0.71306000  1.0
  H  H20  1  0.92317000  0.80138000  0.71306000  1.0
  H  H21  1  0.42317000  0.69862000  0.28694000  1.0
  C  C22  1  0.92053000  0.28678000  0.75902000  1.0
  C  C23  1  0.42054000  0.21322000  0.24098000  1.0
  C  C24  1  0.07947000  0.71322000  0.24099000  1.0
  C  C25  1  0.57946000  0.78678000  0.75902000  1.0
  C  C26  1  0.90174000  0.16027000  0.81302000  1.0
  C  C27  1  0.40175000  0.33973000  0.18698000  1.0
  C  C28  1  0.09826000  0.83973000  0.18698000  1.0
  C  C29  1  0.59825000  0.66027000  0.81302000  1.0
  C  C30  1  0.86754000  0.07925000  0.65367000  1.0
  C  C31  1  0.36755000  0.42075000  0.34633000  1.0
  C  C32  1  0.13246000  0.92075000  0.34633000  1.0
  C  C33  1  0.63245000  0.57925000  0.65367000  1.0
  C  C34  1  0.88463000  0.20559000  0.59848000  1.0
  C  C35  1  0.38463000  0.29441000  0.40152000  1.0
  C  C36  1  0.11537000  0.79441000  0.40152000  1.0
  C  C37  1  0.61537000  0.70559000  0.59848000  1.0
  C  C38  1  0.86812000  0.22300000  0.47841000  1.0
  C  C39  1  0.36813000  0.27700000  0.52159000  1.0
  C  C40  1  0.13188000  0.77700000  0.52159000  1.0
  C  C41  1  0.63187000  0.72300000  0.47841000  1.0
  C  C42  1  0.90288000  0.35443000  0.31043000  1.0
  C  C43  1  0.40289000  0.14557000  0.68956000  1.0
  C  C44  1  0.09712000  0.64557000  0.68957000  1.0
  C  C45  1  0.59711000  0.85443000  0.31043000  1.0
  C  C46  1  0.79931000  0.45229000  0.26005000  1.0
  C  C47  1  0.29931000  0.04771000  0.73994000  1.0
  C  C48  1  0.20069000  0.54771000  0.73995000  1.0
  C  C49  1  0.70069000  0.95228000  0.26005000  1.0
  C  C50  1  0.78985000  0.46797000  0.14917000  1.0
  C  C51  1  0.28985000  0.03203000  0.85083000  1.0
  C  C52  1  0.21015000  0.53203000  0.85084000  1.0
  C  C53  1  0.71015000  0.96796000  0.14917000  1.0
  C  C54  1  0.88032000  0.38996000  0.08734000  1.0
  C  C55  1  0.38032000  0.11004000  0.91266000  1.0
  C  C56  1  0.11968000  0.61005000  0.91266000  1.0
  C  C57  1  0.61968000  0.88995000  0.08734000  1.0
  C  C58  1  0.98529000  0.29532000  0.13890000  1.0
  C  C59  1  0.48528000  0.20468000  0.86109000  1.0
  C  C60  1  0.01471000  0.70468000  0.86110000  1.0
  C  C61  1  0.51471000  0.79532000  0.13890000  1.0
  C  C62  1  0.99624000  0.27533000  0.24965000  1.0
  C  C63  1  0.49624000  0.22467000  0.75035000  1.0
  C  C64  1  0.00376000  0.72467000  0.75035000  1.0
  C  C65  1  0.50376000  0.77533000  0.24965000  1.0
  N  N66  1  0.91205000  0.30881000  0.65221000  1.0
  N  N67  1  0.41205000  0.19119000  0.34779000  1.0
  N  N68  1  0.08795000  0.69119000  0.34779000  1.0
  N  N69  1  0.58795000  0.80881000  0.65221000  1.0
  N  N70  1  0.87561000  0.05608000  0.76035000  1.0
  N  N71  1  0.37562000  0.44393000  0.23964000  1.0
  N  N72  1  0.12439000  0.94392000  0.23965000  1.0
  N  N73  1  0.62439000  0.55608000  0.76035000  1.0
  N  N74  1  0.91606000  0.33814000  0.42416000  1.0
  N  N75  1  0.41606000  0.16186000  0.57584000  1.0
  N  N76  1  0.08394000  0.66186000  0.57584000  1.0
  N  N77  1  0.58394000  0.83814000  0.42416000  1.0
  O  O78  1  0.80969000  0.12869000  0.43548000  1.0
  O  O79  1  0.30969000  0.37131000  0.56452000  1.0
  O  O80  1  0.19031000  0.87131000  0.56452000  1.0
  O  O81  1  0.69030000  0.62869000  0.43548000  1.0
  F  F82  1  0.69275000  0.56240000  0.09685000  1.0
  F  F83  1  0.19276000  0.93760000  0.90315000  1.0
  F  F84  1  0.30725000  0.43760000  0.90315000  1.0
  F  F85  1  0.80725000  0.06239000  0.09685000  1.0
  F  F86  1  0.86963000  0.40828000  0.97934000  1.0
  F  F87  1  0.36964000  0.09172000  0.02065000  1.0
  F  F88  1  0.13036000  0.59172000  0.02066000  1.0
  F  F89  1  0.63036000  0.90828000  0.97934000  1.0
  F  F90  1  0.07845000  0.22485000  0.07717000  1.0
  F  F91  1  0.57845000  0.27515000  0.92283000  1.0
  F  F92  1  0.92154000  0.77515000  0.92284000  1.0
  F  F93  1  0.42154000  0.72485000  0.07717000  1.0
