# generated using pymatgen
data_NaH10C13BrN2O3
_symmetry_space_group_name_H-M   'P 1'
_cell_length_a   6.77718000
_cell_length_b   13.24830000
_cell_length_c   18.26570000
_cell_angle_alpha   89.99660000
_cell_angle_beta   89.99910000
_cell_angle_gamma   84.45990000
_symmetry_Int_Tables_number   1
_chemical_formula_structural   NaH10C13BrN2O3
_chemical_formula_sum   'Na4 H40 C52 Br4 N8 O12'
_cell_volume   1632.34554065
_cell_formula_units_Z   4
loop_
 _symmetry_equiv_pos_site_id
 _symmetry_equiv_pos_as_xyz
  1  'x, y, z'
loop_
 _atom_site_type_symbol
 _atom_site_label
 _atom_site_symmetry_multiplicity
 _atom_site_fract_x
 _atom_site_fract_y
 _atom_site_fract_z
 _atom_site_occupancy
  Na  Na0  1  0.88203000  0.51508000  0.08405000  1.0
  Na  Na1  1  0.61799000  0.48489000  0.58406000  1.0
  Na  Na2  1  0.11803000  0.48495000  0.91595000  1.0
  Na  Na3  1  0.38196000  0.51509000  0.41595000  1.0
  H  H4  1  0.83941000  0.72248000  0.02803000  1.0
  H  H5  1  0.66065000  0.27751000  0.52803000  1.0
  H  H6  1  0.16060000  0.27757000  0.97199000  1.0
  H  H7  1  0.33931000  0.72249000  0.47196000  1.0
  H  H8  1  0.62659000  0.69201000  0.04715000  1.0
  H  H9  1  0.87344000  0.30798000  0.54716000  1.0
  H  H10  1  0.37343000  0.30802000  0.95286000  1.0
  H  H11  1  0.12652000  0.69198000  0.45284000  1.0
  H  H12  1  0.66675000  0.28489000  0.69873000  1.0
  H  H13  1  0.83320000  0.71509000  0.19872000  1.0
  H  H14  1  0.33315000  0.71511000  0.30127000  1.0
  H  H15  1  0.16675000  0.28495000  0.80130000  1.0
  H  H16  1  0.56626000  0.59328000  0.73853000  1.0
  H  H17  1  0.93363000  0.40670000  0.23853000  1.0
  H  H18  1  0.43379000  0.40671000  0.26148000  1.0
  H  H19  1  0.06643000  0.59333000  0.76145000  1.0
  H  H20  1  0.61061000  0.56700000  0.87367000  1.0
  H  H21  1  0.88928000  0.43297000  0.37367000  1.0
  H  H22  1  0.38952000  0.43301000  0.12633000  1.0
  H  H23  1  0.11077000  0.56699000  0.62630000  1.0
  H  H24  1  0.60775000  0.27863000  0.19920000  1.0
  H  H25  1  0.89215000  0.72131000  0.69919000  1.0
  H  H26  1  0.39233000  0.72140000  0.80080000  1.0
  H  H27  1  0.10781000  0.27867000  0.30080000  1.0
  H  H28  1  0.41948000  0.14948000  0.26106000  1.0
  H  H29  1  0.08044000  0.85045000  0.76106000  1.0
  H  H30  1  0.58057000  0.85057000  0.73896000  1.0
  H  H31  1  0.91960000  0.14952000  0.23893000  1.0
  H  H32  1  0.26346000  0.02226000  0.18660000  1.0
  H  H33  1  0.23645000  0.97767000  0.68660000  1.0
  H  H34  1  0.73650000  0.97781000  0.81341000  1.0
  H  H35  1  0.76360000  0.02226000  0.31337000  1.0
  H  H36  1  0.29945000  0.02197000  0.05031000  1.0
  H  H37  1  0.20044000  0.97800000  0.55031000  1.0
  H  H38  1  0.70050000  0.97807000  0.94970000  1.0
  H  H39  1  0.79955000  0.02195000  0.44966000  1.0
  H  H40  1  0.48154000  0.15308000  0.98949000  1.0
  H  H41  1  0.01834000  0.84689000  0.48949000  1.0
  H  H42  1  0.51847000  0.84695000  0.01051000  1.0
  H  H43  1  0.98158000  0.15307000  0.51049000  1.0
  C  C44  1  0.66739000  0.32469000  0.81432000  1.0
  C  C45  1  0.83261000  0.67530000  0.31431000  1.0
  C  C46  1  0.33267000  0.67531000  0.18569000  1.0
  C  C47  1  0.16734000  0.32470000  0.68570000  1.0
  C  C48  1  0.64815000  0.34568000  0.73927000  1.0
  C  C49  1  0.85177000  0.65431000  0.23926000  1.0
  C  C50  1  0.35178000  0.65433000  0.26074000  1.0
  C  C51  1  0.14817000  0.34571000  0.76075000  1.0
  C  C52  1  0.59385000  0.51722000  0.76164000  1.0
  C  C53  1  0.90609000  0.48277000  0.26162000  1.0
  C  C54  1  0.40620000  0.48279000  0.23837000  1.0
  C  C55  1  0.09396000  0.51724000  0.73835000  1.0
  C  C56  1  0.61621000  0.50270000  0.83642000  1.0
  C  C57  1  0.88371000  0.49727000  0.33640000  1.0
  C  C58  1  0.38384000  0.49731000  0.16358000  1.0
  C  C59  1  0.11631000  0.50270000  0.66357000  1.0
  C  C60  1  0.65359000  0.40430000  0.86496000  1.0
  C  C61  1  0.84639000  0.59567000  0.36495000  1.0
  C  C62  1  0.34647000  0.59570000  0.13504000  1.0
  C  C63  1  0.15361000  0.40430000  0.63505000  1.0
  C  C64  1  0.69889000  0.39667000  0.94595000  1.0
  C  C65  1  0.80110000  0.60331000  0.44595000  1.0
  C  C66  1  0.30117000  0.60334000  0.05406000  1.0
  C  C67  1  0.19888000  0.39664000  0.55407000  1.0
  C  C68  1  0.65832000  0.30805000  0.05670000  1.0
  C  C69  1  0.84162000  0.69190000  0.55668000  1.0
  C  C70  1  0.34173000  0.69197000  0.94331000  1.0
  C  C71  1  0.15832000  0.30806000  0.44331000  1.0
  C  C72  1  0.55100000  0.22598000  0.09076000  1.0
  C  C73  1  0.94885000  0.77398000  0.59075000  1.0
  C  C74  1  0.44903000  0.77405000  0.90924000  1.0
  C  C75  1  0.05105000  0.22599000  0.40923000  1.0
  C  C76  1  0.53618000  0.22292000  0.16737000  1.0
  C  C77  1  0.96368000  0.77703000  0.66736000  1.0
  C  C78  1  0.46386000  0.77712000  0.83264000  1.0
  C  C79  1  0.03628000  0.22295000  0.33263000  1.0
  C  C80  1  0.43261000  0.15031000  0.20158000  1.0
  C  C81  1  0.06732000  0.84961000  0.70158000  1.0
  C  C82  1  0.56742000  0.84972000  0.79842000  1.0
  C  C83  1  0.93269000  0.15036000  0.29840000  1.0
  C  C84  1  0.34503000  0.07866000  0.15948000  1.0
  C  C85  1  0.15485000  0.92129000  0.65948000  1.0
  C  C86  1  0.65493000  0.92139000  0.84053000  1.0
  C  C87  1  0.84518000  0.07867000  0.34050000  1.0
  C  C88  1  0.36402000  0.07908000  0.08326000  1.0
  C  C89  1  0.13590000  0.92088000  0.58326000  1.0
  C  C90  1  0.63598000  0.92096000  0.91675000  1.0
  C  C91  1  0.86408000  0.07908000  0.41672000  1.0
  C  C92  1  0.46584000  0.15258000  0.04889000  1.0
  C  C93  1  0.03405000  0.84739000  0.54889000  1.0
  C  C94  1  0.53418000  0.84745000  0.95112000  1.0
  C  C95  1  0.96589000  0.15258000  0.45110000  1.0
  Br  Br96  1  0.73061000  0.18683000  0.84158000  1.0
  Br  Br97  1  0.76938000  0.81315000  0.34156000  1.0
  Br  Br98  1  0.26941000  0.81318000  0.15842000  1.0
  Br  Br99  1  0.23052000  0.18682000  0.65846000  1.0
  N  N100  1  0.61159000  0.44022000  0.71335000  1.0
  N  N101  1  0.88835000  0.55976000  0.21334000  1.0
  N  N102  1  0.38837000  0.55979000  0.28667000  1.0
  N  N103  1  0.11166000  0.44026000  0.78665000  1.0
  N  N104  1  0.61300000  0.32579000  0.98400000  1.0
  N  N105  1  0.88694000  0.67418000  0.48400000  1.0
  N  N106  1  0.38706000  0.67422000  0.01600000  1.0
  N  N107  1  0.11302000  0.32577000  0.51601000  1.0
  O  O108  1  0.81106000  0.46052000  0.96852000  1.0
  O  O109  1  0.68894000  0.53943000  0.46852000  1.0
  O  O110  1  0.18902000  0.53948000  0.03147000  1.0
  O  O111  1  0.31106000  0.46051000  0.53148000  1.0
  O  O112  1  0.77450000  0.35303000  0.09564000  1.0
  O  O113  1  0.72538000  0.64694000  0.59563000  1.0
  O  O114  1  0.22552000  0.64700000  0.90436000  1.0
  O  O115  1  0.27452000  0.35306000  0.40436000  1.0
  O  O116  1  0.76818000  0.68754000  0.06491000  1.0
  O  O117  1  0.73185000  0.31244000  0.56492000  1.0
  O  O118  1  0.23184000  0.31249000  0.93510000  1.0
  O  O119  1  0.26811000  0.68754000  0.43509000  1.0
