# generated using pymatgen
data_ZnH16C18(N3Cl)2
_symmetry_space_group_name_H-M   'P 1'
_cell_length_a   12.22190000
_cell_length_b   13.75440000
_cell_length_c   14.73330000
_cell_angle_alpha   90.00000000
_cell_angle_beta   110.82100000
_cell_angle_gamma   90.00000000
_symmetry_Int_Tables_number   1
_chemical_formula_structural   ZnH16C18(N3Cl)2
_chemical_formula_sum   'Zn4 H64 C72 N24 Cl8'
_cell_volume   2314.99758079
_cell_formula_units_Z   4
loop_
 _symmetry_equiv_pos_site_id
 _symmetry_equiv_pos_as_xyz
  1  'x, y, z'
loop_
 _atom_site_type_symbol
 _atom_site_label
 _atom_site_symmetry_multiplicity
 _atom_site_fract_x
 _atom_site_fract_y
 _atom_site_fract_z
 _atom_site_occupancy
  Zn  Zn0  1  0.03350000  0.74531000  0.49481000  1.0
  Zn  Zn1  1  0.96650000  0.24531000  0.00519000  1.0
  Zn  Zn2  1  0.96650000  0.25469000  0.50519000  1.0
  Zn  Zn3  1  0.03350000  0.75469000  0.99481000  1.0
  H  H4  1  0.58494000  0.44382000  0.77335000  1.0
  H  H5  1  0.41506000  0.94382000  0.72665000  1.0
  H  H6  1  0.41506000  0.55618000  0.22665000  1.0
  H  H7  1  0.58494000  0.05618000  0.27335000  1.0
  H  H8  1  0.74236000  0.35407000  0.70053000  1.0
  H  H9  1  0.25764000  0.85407000  0.79947000  1.0
  H  H10  1  0.25764000  0.64593000  0.29947000  1.0
  H  H11  1  0.74236000  0.14593000  0.20053000  1.0
  H  H12  1  0.63495000  0.38246000  0.43319000  1.0
  H  H13  1  0.36505000  0.88246000  0.06681000  1.0
  H  H14  1  0.36505000  0.61754000  0.56681000  1.0
  H  H15  1  0.63495000  0.11754000  0.93319000  1.0
  H  H16  1  0.74784000  0.33276000  0.53664000  1.0
  H  H17  1  0.25216000  0.83276000  0.96336000  1.0
  H  H18  1  0.25216000  0.66724000  0.46336000  1.0
  H  H19  1  0.74784000  0.16723000  0.03664000  1.0
  H  H20  1  0.88051000  0.47534000  0.65699000  1.0
  H  H21  1  0.11950000  0.97534000  0.84301000  1.0
  H  H22  1  0.11949000  0.52466000  0.34301000  1.0
  H  H23  1  0.88051000  0.02466000  0.15699000  1.0
  H  H24  1  0.75431000  0.16017000  0.53302000  1.0
  H  H25  1  0.24568000  0.66017000  0.96698000  1.0
  H  H26  1  0.24568000  0.83983000  0.46698000  1.0
  H  H27  1  0.75431000  0.33983000  0.03302000  1.0
  H  H28  1  0.64233000  0.11163000  0.42982000  1.0
  H  H29  1  0.35767000  0.61163000  0.07018000  1.0
  H  H30  1  0.35767000  0.88837000  0.57018000  1.0
  H  H31  1  0.64233000  0.38837000  0.92982000  1.0
  H  H32  1  0.79065000  0.95175000  0.64439000  1.0
  H  H33  1  0.20935000  0.45175000  0.85561000  1.0
  H  H34  1  0.20935000  0.04825000  0.35561000  1.0
  H  H35  1  0.79065000  0.54825000  0.14439000  1.0
  H  H36  1  0.55255000  0.10812000  0.75423000  1.0
  H  H37  1  0.44745000  0.60812000  0.74577000  1.0
  H  H38  1  0.44745000  0.89188000  0.24577000  1.0
  H  H39  1  0.55255000  0.39188000  0.25423000  1.0
  H  H40  1  0.72897000  0.16736000  0.68786000  1.0
  H  H41  1  0.27103000  0.66736000  0.81214000  1.0
  H  H42  1  0.27103000  0.83264000  0.31214000  1.0
  H  H43  1  0.72897000  0.33264000  0.18786000  1.0
  H  H44  1  0.92821000  0.81966000  0.63806000  1.0
  H  H45  1  0.07179000  0.31966000  0.86194000  1.0
  H  H46  1  0.07179000  0.18034000  0.36194000  1.0
  H  H47  1  0.92820000  0.68034000  0.13806000  1.0
  H  H48  1  0.01323000  0.61074000  0.64657000  1.0
  H  H49  1  0.98677000  0.11074000  0.85343000  1.0
  H  H50  1  0.98677000  0.38926000  0.35343000  1.0
  H  H51  1  0.01323000  0.88926000  0.14657000  1.0
  H  H52  1  0.84110000  0.63760000  0.34991000  1.0
  H  H53  1  0.15890000  0.13760000  0.15009000  1.0
  H  H54  1  0.15890000  0.36240000  0.65009000  1.0
  H  H55  1  0.84110000  0.86240000  0.84991000  1.0
  H  H56  1  0.92180000  0.90985000  0.36776000  1.0
  H  H57  1  0.07819000  0.40985000  0.13224000  1.0
  H  H58  1  0.07819000  0.09015000  0.63224000  1.0
  H  H59  1  0.92180000  0.59015000  0.86776000  1.0
  H  H60  1  0.79019000  0.05017000  0.36610000  1.0
  H  H61  1  0.20981000  0.55017000  0.13390000  1.0
  H  H62  1  0.20981000  0.94983000  0.63390000  1.0
  H  H63  1  0.79019000  0.44983000  0.86610000  1.0
  H  H64  1  0.69947000  0.50421000  0.34796000  1.0
  H  H65  1  0.30053000  0.00421000  0.15204000  1.0
  H  H66  1  0.30053000  0.49579000  0.65204000  1.0
  H  H67  1  0.69947000  0.99579000  0.84796000  1.0
  C  C68  1  0.58792000  0.44401000  0.70058000  1.0
  C  C69  1  0.41208000  0.94401000  0.79942000  1.0
  C  C70  1  0.41208000  0.55599000  0.29942000  1.0
  C  C71  1  0.58792000  0.05599000  0.20058000  1.0
  C  C72  1  0.66686000  0.40016000  0.66620000  1.0
  C  C73  1  0.33314000  0.90016000  0.83380000  1.0
  C  C74  1  0.33314000  0.59984000  0.33380000  1.0
  C  C75  1  0.66686000  0.09984000  0.16620000  1.0
  C  C76  1  0.69645000  0.39820000  0.50612000  1.0
  C  C77  1  0.30355000  0.89820000  0.99388000  1.0
  C  C78  1  0.30355000  0.60180000  0.49388000  1.0
  C  C79  1  0.69645000  0.10180000  0.00612000  1.0
  C  C80  1  0.52708000  0.02711000  0.54434000  1.0
  C  C81  1  0.47292000  0.52711000  0.95567000  1.0
  C  C82  1  0.47292000  0.97289000  0.45567000  1.0
  C  C83  1  0.52708000  0.47289000  0.04434000  1.0
  C  C84  1  0.86810000  0.50978000  0.58743000  1.0
  C  C85  1  0.13190000  0.00978000  0.91257000  1.0
  C  C86  1  0.13190000  0.49022000  0.41257000  1.0
  C  C87  1  0.86810000  0.99022000  0.08743000  1.0
  C  C88  1  0.69923000  0.09584000  0.50451000  1.0
  C  C89  1  0.30077000  0.59584000  0.99549000  1.0
  C  C90  1  0.30077000  0.90416000  0.49549000  1.0
  C  C91  1  0.69923000  0.40416000  0.00451000  1.0
  C  C92  1  0.81835000  0.94571000  0.58196000  1.0
  C  C93  1  0.18165000  0.44571000  0.91804000  1.0
  C  C94  1  0.18165000  0.05429000  0.41804000  1.0
  C  C95  1  0.81835000  0.55429000  0.08196000  1.0
  C  C96  1  0.56469000  0.09150000  0.68645000  1.0
  C  C97  1  0.43531000  0.59150000  0.81355000  1.0
  C  C98  1  0.43531000  0.90850000  0.31355000  1.0
  C  C99  1  0.56469000  0.40850000  0.18645000  1.0
  C  C100  1  0.65265000  0.12185000  0.65499000  1.0
  C  C101  1  0.34735000  0.62184000  0.84501000  1.0
  C  C102  1  0.34736000  0.87815000  0.34501000  1.0
  C  C103  1  0.65265000  0.37816000  0.15499000  1.0
  C  C104  1  0.89374000  0.87135000  0.57838000  1.0
  C  C105  1  0.10626000  0.37135000  0.92162000  1.0
  C  C106  1  0.10626000  0.12865000  0.42162000  1.0
  C  C107  1  0.89374000  0.62865000  0.07838000  1.0
  C  C108  1  0.94227000  0.58442000  0.58255000  1.0
  C  C109  1  0.05773000  0.08442000  0.91745000  1.0
  C  C110  1  0.05773000  0.41558000  0.41745000  1.0
  C  C111  1  0.94227000  0.91558000  0.08255000  1.0
  C  C112  1  0.53247000  0.48078000  0.54770000  1.0
  C  C113  1  0.46753000  0.98078000  0.95230000  1.0
  C  C114  1  0.46753000  0.51922000  0.45230000  1.0
  C  C115  1  0.53247000  0.01922000  0.04770000  1.0
  C  C116  1  0.77880000  0.47900000  0.50266000  1.0
  C  C117  1  0.22120000  0.97900000  0.99734000  1.0
  C  C118  1  0.22120000  0.52100000  0.49734000  1.0
  C  C119  1  0.77880000  0.02100000  0.00266000  1.0
  C  C120  1  0.84572000  0.59927000  0.41604000  1.0
  C  C121  1  0.15428000  0.09927000  0.08396000  1.0
  C  C122  1  0.15428000  0.40073000  0.58396000  1.0
  C  C123  1  0.84572000  0.90073000  0.91604000  1.0
  C  C124  1  0.77825000  0.01163000  0.50482000  1.0
  C  C125  1  0.22174000  0.51163000  0.99518000  1.0
  C  C126  1  0.22174000  0.98837000  0.49518000  1.0
  C  C127  1  0.77825000  0.48837000  0.00482000  1.0
  C  C128  1  0.89093000  0.92310000  0.42767000  1.0
  C  C129  1  0.10907000  0.42310000  0.07233000  1.0
  C  C130  1  0.10907000  0.07690000  0.57233000  1.0
  C  C131  1  0.89093000  0.57690000  0.92767000  1.0
  C  C132  1  0.81728000  0.99983000  0.42700000  1.0
  C  C133  1  0.18272000  0.49983000  0.07300000  1.0
  C  C134  1  0.18272000  0.00017000  0.57300000  1.0
  C  C135  1  0.81728000  0.50017000  0.92700000  1.0
  C  C136  1  0.76837000  0.52514000  0.41536000  1.0
  C  C137  1  0.23163000  0.02514000  0.08464000  1.0
  C  C138  1  0.23163000  0.47486000  0.58464000  1.0
  C  C139  1  0.76837000  0.97486000  0.91536000  1.0
  N  N140  1  0.50514000  0.49361000  0.62706000  1.0
  N  N141  1  0.49486000  0.99361000  0.87294000  1.0
  N  N142  1  0.49486000  0.50639000  0.37294000  1.0
  N  N143  1  0.50514000  0.00639000  0.12706000  1.0
  N  N144  1  0.93110000  0.62861000  0.49805000  1.0
  N  N145  1  0.06890000  0.12861000  0.00195000  1.0
  N  N146  1  0.06890000  0.37139000  0.50195000  1.0
  N  N147  1  0.93110000  0.87139000  0.99805000  1.0
  N  N148  1  0.63126000  0.42345000  0.56882000  1.0
  N  N149  1  0.36874000  0.92345000  0.93118000  1.0
  N  N150  1  0.36874000  0.57656000  0.43118000  1.0
  N  N151  1  0.63126000  0.07655000  0.06882000  1.0
  N  N152  1  0.48737000  0.03284000  0.61781000  1.0
  N  N153  1  0.51263000  0.53284000  0.88219000  1.0
  N  N154  1  0.51263000  0.96716000  0.38219000  1.0
  N  N155  1  0.48737000  0.46716000  0.11781000  1.0
  N  N156  1  0.62829000  0.08116000  0.56430000  1.0
  N  N157  1  0.37171000  0.58116000  0.93570000  1.0
  N  N158  1  0.37171000  0.91884000  0.43570000  1.0
  N  N159  1  0.62829000  0.41884000  0.06430000  1.0
  N  N160  1  0.92870000  0.85958000  0.50197000  1.0
  N  N161  1  0.07130000  0.35958000  0.99803000  1.0
  N  N162  1  0.07130000  0.14042000  0.49803000  1.0
  N  N163  1  0.92870000  0.64042000  0.00197000  1.0
  Cl  Cl164  1  0.04908000  0.75187000  0.34698000  1.0
  Cl  Cl165  1  0.95092000  0.25187000  0.15302000  1.0
  Cl  Cl166  1  0.95092000  0.24813000  0.65302000  1.0
  Cl  Cl167  1  0.04908000  0.74813000  0.84698000  1.0
  Cl  Cl168  1  0.18916000  0.74293000  0.63138000  1.0
  Cl  Cl169  1  0.81085000  0.24293000  0.86862000  1.0
  Cl  Cl170  1  0.81084000  0.25707000  0.36862000  1.0
  Cl  Cl171  1  0.18916000  0.75707000  0.13138000  1.0
