# generated using pymatgen
data_ZnH16C28N6O7
_symmetry_space_group_name_H-M   'P 1'
_cell_length_a   12.12920000
_cell_length_b   12.92620000
_cell_length_c   15.78880000
_cell_angle_alpha   90.41030000
_cell_angle_beta   93.22110000
_cell_angle_gamma   95.33570000
_symmetry_Int_Tables_number   1
_chemical_formula_structural   ZnH16C28N6O7
_chemical_formula_sum   'Zn2 H32 C56 N12 O14'
_cell_volume   2460.62744036
_cell_formula_units_Z   2
loop_
 _symmetry_equiv_pos_site_id
 _symmetry_equiv_pos_as_xyz
  1  'x, y, z'
loop_
 _atom_site_type_symbol
 _atom_site_label
 _atom_site_symmetry_multiplicity
 _atom_site_fract_x
 _atom_site_fract_y
 _atom_site_fract_z
 _atom_site_occupancy
  Zn  Zn0  1  0.61879000  0.48523000  0.49601000  1.0
  Zn  Zn1  1  0.37070000  0.49882000  0.50171000  1.0
  H  H2  1  0.77242000  0.47767000  0.63350000  1.0
  H  H3  1  0.74580000  0.84827000  0.11701000  1.0
  H  H4  1  0.74352000  0.91463000  0.01864000  1.0
  H  H5  1  0.61992000  0.89353000  0.07443000  1.0
  H  H6  1  0.74229000  0.31239000  0.01554000  1.0
  H  H7  1  0.60981000  0.26117000  0.97050000  1.0
  H  H8  1  0.58689000  0.13896000  0.09245000  1.0
  H  H9  1  0.71132000  0.12101000  0.04149000  1.0
  H  H10  1  0.71680000  0.19036000  0.13975000  1.0
  H  H11  1  0.40485000  0.74378000  0.02770000  1.0
  H  H12  1  0.27593000  0.68719000  0.97983000  1.0
  H  H13  1  0.22475000  0.56308000  0.36418000  1.0
  H  H14  1  0.30203000  0.80915000  0.85532000  1.0
  H  H15  1  0.29491000  0.87738000  0.95318000  1.0
  H  H16  1  0.42542000  0.86885000  0.90848000  1.0
  H  H17  1  0.71111000  0.44199000  0.26893000  1.0
  H  H18  1  0.70462000  0.37706000  0.36772000  1.0
  H  H19  1  0.89361000  0.31400000  0.34881000  1.0
  H  H20  1  0.79744000  0.27104000  0.26484000  1.0
  H  H21  1  0.89833000  0.37787000  0.24856000  1.0
  H  H22  1  0.23985000  0.35486000  0.62433000  1.0
  H  H23  1  0.10120000  0.35579000  0.65605000  1.0
  H  H24  1  0.27792000  0.28749000  0.00827000  1.0
  H  H25  1  0.23634000  0.32009000  0.77825000  1.0
  H  H26  1  0.31070000  0.44279000  0.76234000  1.0
  H  H27  1  0.17186000  0.43614000  0.79630000  1.0
  H  H28  1  0.40571000  0.24200000  0.04712000  1.0
  H  H29  1  0.39485000  0.11271000  0.92652000  1.0
  H  H30  1  0.27283000  0.09535000  0.98453000  1.0
  H  H31  1  0.26935000  0.16001000  0.88552000  1.0
  H  H32  1  0.61478000  0.76626000  0.95310000  1.0
  H  H33  1  0.74383000  0.72351000  0.99268000  1.0
  C  C34  1  0.44943000  0.29338000  0.47385000  1.0
  C  C35  1  0.45171000  0.96338000  0.51734000  1.0
  C  C36  1  0.05177000  0.55192000  0.39235000  1.0
  C  C37  1  0.94543000  0.50300000  0.60789000  1.0
  C  C38  1  0.16432000  0.54979000  0.41237000  1.0
  C  C39  1  0.83315000  0.48912000  0.58532000  1.0
  C  C40  1  0.13881000  0.51477000  0.55546000  1.0
  C  C41  1  0.85906000  0.50779000  0.44077000  1.0
  C  C42  1  0.02122000  0.51698000  0.54177000  1.0
  C  C43  1  0.97697000  0.52852000  0.45771000  1.0
  C  C44  1  0.51663000  0.46849000  0.65728000  1.0
  C  C45  1  0.53732000  0.68810000  0.52038000  1.0
  C  C46  1  0.48386000  0.51724000  0.34059000  1.0
  C  C47  1  0.56118000  0.42356000  0.03824000  1.0
  C  C48  1  0.46153000  0.58281000  0.95993000  1.0
  C  C49  1  0.45983000  0.41034000  0.96892000  1.0
  C  C50  1  0.56264000  0.59608000  0.02974000  1.0
  C  C51  1  0.52828000  0.47452000  0.74834000  1.0
  C  C52  1  0.48588000  0.51926000  0.24977000  1.0
  C  C53  1  0.62314000  0.51010000  0.98084000  1.0
  C  C54  1  0.39959000  0.49608000  0.01753000  1.0
  C  C55  1  0.52061000  0.49658000  0.91317000  1.0
  C  C56  1  0.35569000  0.01429000  0.53516000  1.0
  C  C57  1  0.50238000  0.50966000  0.08507000  1.0
  C  C58  1  0.52724000  0.48597000  0.82484000  1.0
  C  C59  1  0.49408000  0.51552000  0.17344000  1.0
  C  C60  1  0.54765000  0.80480000  0.51226000  1.0
  C  C61  1  0.43933000  0.17582000  0.47603000  1.0
  C  C62  1  0.35171000  0.25133000  0.98977000  1.0
  C  C63  1  0.32069000  0.14895000  0.94367000  1.0
  C  C64  1  0.66843000  0.75733000  0.01075000  1.0
  C  C65  1  0.69572000  0.85933000  0.05825000  1.0
  C  C66  1  0.66040000  0.27522000  0.03032000  1.0
  C  C67  1  0.62605000  0.96194000  0.44365000  1.0
  C  C68  1  0.66924000  0.17579000  0.07904000  1.0
  C  C69  1  0.35688000  0.72788000  0.96691000  1.0
  C  C70  1  0.34426000  0.82651000  0.91780000  1.0
  C  C71  1  0.28779000  0.48768000  0.04034000  1.0
  C  C72  1  0.73577000  0.51682000  0.96035000  1.0
  C  C73  1  0.40015000  0.81174000  0.60825000  1.0
  C  C74  1  0.57797000  0.16542000  0.37255000  1.0
  C  C75  1  0.72400000  0.80409000  0.44207000  1.0
  C  C76  1  0.25204000  0.16536000  0.53495000  1.0
  C  C77  1  0.25863000  0.95874000  0.56486000  1.0
  C  C78  1  0.35140000  0.12016000  0.51682000  1.0
  C  C79  1  0.71870000  0.01249000  0.40394000  1.0
  C  C80  1  0.76075000  0.41278000  0.32198000  1.0
  C  C81  1  0.84335000  0.34042000  0.29442000  1.0
  C  C82  1  0.18588000  0.39432000  0.66476000  1.0
  C  C83  1  0.22851000  0.39974000  0.75615000  1.0
  C  C84  1  0.01910000  0.58033000  0.30814000  1.0
  C  C85  1  0.97701000  0.50529000  0.69615000  1.0
  C  C86  1  0.63156000  0.85694000  0.46540000  1.0
  C  C87  1  0.52006000  0.12022000  0.44150000  1.0
  C  C88  1  0.46502000  0.85995000  0.54401000  1.0
  C  C89  1  0.53318000  0.01531000  0.46574000  1.0
  N  N90  1  0.79097000  0.48735000  0.50357000  1.0
  N  N91  1  0.79936000  0.04950000  0.37472000  1.0
  N  N92  1  0.00174000  0.60853000  0.23895000  1.0
  N  N93  1  0.99521000  0.50788000  0.76963000  1.0
  N  N94  1  0.20561000  0.52702000  0.49105000  1.0
  N  N95  1  0.19625000  0.47947000  0.06107000  1.0
  N  N96  1  0.82897000  0.52245000  0.94376000  1.0
  N  N97  1  0.35769000  0.77555000  0.66720000  1.0
  N  N98  1  0.61067000  0.19225000  0.30726000  1.0
  N  N99  1  0.80145000  0.76363000  0.42338000  1.0
  N  N100  1  0.16398000  0.18791000  0.54973000  1.0
  N  N101  1  0.17433000  0.91669000  0.58396000  1.0
  O  O102  1  0.54374000  0.33599000  0.45677000  1.0
  O  O103  1  0.60992000  0.68535000  0.06751000  1.0
  O  O104  1  0.60726000  0.34758000  0.08305000  1.0
  O  O105  1  0.41567000  0.65882000  0.91530000  1.0
  O  O106  1  0.82191000  0.50752000  0.36054000  1.0
  O  O107  1  0.18493000  0.50208000  0.63271000  1.0
  O  O108  1  0.43912000  0.65023000  0.50001000  1.0
  O  O109  1  0.36565000  0.33687000  0.49500000  1.0
  O  O110  1  0.62160000  0.64182000  0.54065000  1.0
  O  O111  1  0.59762000  0.43980000  0.61723000  1.0
  O  O112  1  0.39080000  0.49528000  0.37265000  1.0
  O  O113  1  0.42480000  0.49327000  0.62472000  1.0
  O  O114  1  0.57790000  0.53698000  0.38091000  1.0
  O  O115  1  0.41123000  0.32093000  0.93175000  1.0
