# generated using pymatgen
data_ZnH18C26(NO3)2
_symmetry_space_group_name_H-M   'P 1'
_cell_length_a   9.76733000
_cell_length_b   10.91570000
_cell_length_c   27.63473409
_cell_angle_alpha   89.17629002
_cell_angle_beta   82.89760190
_cell_angle_gamma   87.25380000
_symmetry_Int_Tables_number   1
_chemical_formula_structural   ZnH18C26(NO3)2
_chemical_formula_sum   'Zn2 H36 C52 N4 O12'
_cell_volume   2920.26734672
_cell_formula_units_Z   2
loop_
 _symmetry_equiv_pos_site_id
 _symmetry_equiv_pos_as_xyz
  1  'x, y, z'
loop_
 _atom_site_type_symbol
 _atom_site_label
 _atom_site_symmetry_multiplicity
 _atom_site_fract_x
 _atom_site_fract_y
 _atom_site_fract_z
 _atom_site_occupancy
  Zn  Zn0  1  0.87446000  0.48966000  0.48673000  1.0
  Zn  Zn1  1  0.13137000  0.50457000  0.51489000  1.0
  H  H2  1  0.37415000  0.51125000  0.36681000  1.0
  H  H3  1  0.54425000  0.45710000  0.72303000  1.0
  H  H4  1  0.35061000  0.19247000  0.11968000  1.0
  H  H5  1  0.62189000  0.80630000  0.87861000  1.0
  H  H6  1  0.03505000  0.54463000  0.66910000  1.0
  H  H7  1  0.96311000  0.47659000  0.33085000  1.0
  H  H8  1  0.94477000  0.54507000  0.75819000  1.0
  H  H9  1  0.05354000  0.47528000  0.24172000  1.0
  H  H10  1  0.60560000  0.19264000  0.87553000  1.0
  H  H11  1  0.43129000  0.79877000  0.12727000  1.0
  H  H12  1  0.52193000  0.18776000  0.96382000  1.0
  H  H13  1  0.63520000  0.45802000  0.63405000  1.0
  H  H14  1  0.50863000  0.80417000  0.03854000  1.0
  H  H15  1  0.43495000  0.18948000  0.03142000  1.0
  H  H16  1  0.54511000  0.80825000  0.96746000  1.0
  H  H17  1  0.48412000  0.86325000  0.40095000  1.0
  H  H18  1  0.39985000  0.76980000  0.36274000  1.0
  H  H19  1  0.46790000  0.91000000  0.33996000  1.0
  H  H20  1  0.20931000  0.93074000  0.36068000  1.0
  H  H21  1  0.29222000  0.02875000  0.39688000  1.0
  H  H22  1  0.27514000  0.87434000  0.46471000  1.0
  H  H23  1  0.19538000  0.77292000  0.42972000  1.0
  H  H24  1  0.86478000  0.91590000  0.49301000  1.0
  H  H25  1  0.81003000  0.30283000  0.38066000  1.0
  H  H26  1  0.81964000  0.17692000  0.34053000  1.0
  H  H27  1  0.66473000  0.20918000  0.37980000  1.0
  H  H28  1  0.79860000  0.03185000  0.41401000  1.0
  H  H29  1  0.79179000  0.15983000  0.45303000  1.0
  H  H30  1  0.02359000  0.21955000  0.40837000  1.0
  H  H31  1  0.03482000  0.07584000  0.37875000  1.0
  H  H32  1  0.12449000  0.07768000  0.52371000  1.0
  H  H33  1  0.59915000  0.58581000  0.52329000  1.0
  H  H34  1  0.40687000  0.41005000  0.47462000  1.0
  H  H35  1  0.65163000  0.38616000  0.45263000  1.0
  H  H36  1  0.35790000  0.60827000  0.54583000  1.0
  H  H37  1  0.46511000  0.51370000  0.27778000  1.0
  C  C38  1  0.05781000  0.26136000  0.50073000  1.0
  C  C39  1  0.61484000  0.38753000  0.87195000  1.0
  C  C40  1  0.16338000  0.49321000  0.35391000  1.0
  C  C41  1  0.84039000  0.50222000  0.64641000  1.0
  C  C42  1  0.51963000  0.38399000  0.97333000  1.0
  C  C43  1  0.49012000  0.61033000  0.02762000  1.0
  C  C44  1  0.53283000  0.61169000  0.97498000  1.0
  C  C45  1  0.46785000  0.38370000  0.02533000  1.0
  C  C46  1  0.54881000  0.49824000  0.94920000  1.0
  C  C47  1  0.45624000  0.49665000  0.05144000  1.0
  C  C48  1  0.54148000  0.27604000  0.94611000  1.0
  C  C49  1  0.96365000  0.73236000  0.48932000  1.0
  C  C50  1  0.48096000  0.71688000  0.05571000  1.0
  C  C51  1  0.58870000  0.27734000  0.89630000  1.0
  C  C52  1  0.43766000  0.71522000  0.10579000  1.0
  C  C53  1  0.10759000  0.49273000  0.40704000  1.0
  C  C54  1  0.89680000  0.50180000  0.59331000  1.0
  C  C55  1  0.42899000  0.27630000  0.05064000  1.0
  C  C56  1  0.55886000  0.72058000  0.94876000  1.0
  C  C57  1  0.07854000  0.12684000  0.49456000  1.0
  C  C58  1  0.96167000  0.86620000  0.48004000  1.0
  C  C59  1  0.04809000  0.06482000  0.45571000  1.0
  C  C60  1  0.40954000  0.49594000  0.10262000  1.0
  C  C61  1  0.06777000  0.92842000  0.45729000  1.0
  C  C62  1  0.43121000  0.48313000  0.49861000  1.0
  C  C63  1  0.57581000  0.51210000  0.49939000  1.0
  C  C64  1  0.32112000  0.38187000  0.17931000  1.0
  C  C65  1  0.66941000  0.61497000  0.82021000  1.0
  C  C66  1  0.35316000  0.60795000  0.18237000  1.0
  C  C67  1  0.66451000  0.38580000  0.81912000  1.0
  C  C68  1  0.12297000  0.48373000  0.26936000  1.0
  C  C69  1  0.87760000  0.52605000  0.73078000  1.0
  C  C70  1  0.07288000  0.48371000  0.31870000  1.0
  C  C71  1  0.59514000  0.49908000  0.89798000  1.0
  C  C72  1  0.92766000  0.52626000  0.68142000  1.0
  C  C73  1  0.30485000  0.50345000  0.33910000  1.0
  C  C74  1  0.70202000  0.47768000  0.66149000  1.0
  C  C75  1  0.35548000  0.50451000  0.28972000  1.0
  C  C76  1  0.65137000  0.47717000  0.71090000  1.0
  C  C77  1  0.26402000  0.49423000  0.25520000  1.0
  C  C78  1  0.73968000  0.50147000  0.74520000  1.0
  C  C79  1  0.20555000  0.87092000  0.43608000  1.0
  C  C80  1  0.27647000  0.93163000  0.38988000  1.0
  C  C81  1  0.41478000  0.86529000  0.37239000  1.0
  C  C82  1  0.37177000  0.38485000  0.12661000  1.0
  C  C83  1  0.99163000  0.12443000  0.41227000  1.0
  C  C84  1  0.83283000  0.12591000  0.41657000  1.0
  C  C85  1  0.77812000  0.20815000  0.37735000  1.0
  C  C86  1  0.62153000  0.61151000  0.87316000  1.0
  C  C87  1  0.38118000  0.27657000  0.10038000  1.0
  C  C88  1  0.60208000  0.72091000  0.89865000  1.0
  C  C89  1  0.40093000  0.60630000  0.12941000  1.0
  N  N90  1  0.31530000  0.49463000  0.20393000  1.0
  N  N91  1  0.68855000  0.50077000  0.79651000  1.0
  N  N92  1  0.33055000  0.53944000  0.52450000  1.0
  N  N93  1  0.67734000  0.45533000  0.47418000  1.0
  O  O94  1  0.94665000  0.31165000  0.48823000  1.0
  O  O95  1  0.69202000  0.71118000  0.79759000  1.0
  O  O96  1  0.68494000  0.29035000  0.79571000  1.0
  O  O97  1  0.34509000  0.70194000  0.20677000  1.0
  O  O98  1  0.07834000  0.68036000  0.49779000  1.0
  O  O99  1  0.15122000  0.31765000  0.51873000  1.0
  O  O100  1  0.85083000  0.67769000  0.48904000  1.0
  O  O101  1  0.97641000  0.50153000  0.41699000  1.0
  O  O102  1  0.02564000  0.51818000  0.58315000  1.0
  O  O103  1  0.19410000  0.48375000  0.43793000  1.0
  O  O104  1  0.81306000  0.48488000  0.56241000  1.0
  O  O105  1  0.28573000  0.28731000  0.20112000  1.0
