# generated using pymatgen
data_CoH8C11NO4
_symmetry_space_group_name_H-M   'P 1'
_cell_length_a   10.39470000
_cell_length_b   10.96670711
_cell_length_c   11.05070000
_cell_angle_alpha   68.64551740
_cell_angle_beta   65.80350000
_cell_angle_gamma   69.81728838
_symmetry_Int_Tables_number   1
_chemical_formula_structural   CoH8C11NO4
_chemical_formula_sum   'Co4 H32 C44 N4 O16'
_cell_volume   1041.36691970
_cell_formula_units_Z   4
loop_
 _symmetry_equiv_pos_site_id
 _symmetry_equiv_pos_as_xyz
  1  'x, y, z'
loop_
 _atom_site_type_symbol
 _atom_site_label
 _atom_site_symmetry_multiplicity
 _atom_site_fract_x
 _atom_site_fract_y
 _atom_site_fract_z
 _atom_site_occupancy
  Co  Co0  1  0.86256000  0.24093000  0.85103000  1.0
  Co  Co1  1  0.83822000  0.98460000  0.06261000  1.0
  Co  Co2  1  0.13733000  0.75916000  0.14887000  1.0
  Co  Co3  1  0.16159000  0.01549000  0.93740000  1.0
  H  H4  1  0.92227000  0.16541000  0.07705000  1.0
  H  H5  1  0.67708000  0.85397000  0.86300000  1.0
  H  H6  1  0.68069000  0.85981000  0.46918000  1.0
  H  H7  1  0.88767000  0.12348000  0.49622000  1.0
  H  H8  1  0.55411000  0.57373000  0.87424000  1.0
  H  H9  1  0.63462000  0.66733000  0.91252000  1.0
  H  H10  1  0.82252000  0.71530000  0.03208000  1.0
  H  H11  1  0.65506000  0.55784000  0.15235000  1.0
  H  H12  1  0.42390000  0.79300000  0.45050000  1.0
  H  H13  1  0.59164000  0.94252000  0.31310000  1.0
  H  H14  1  0.43535000  0.49532000  0.33907000  1.0
  H  H15  1  0.27661000  0.68791000  0.52803000  1.0
  H  H16  1  0.26205000  0.38617000  0.43786000  1.0
  H  H17  1  0.06751000  0.26301000  0.58374000  1.0
  H  H18  1  0.87515000  0.51571000  0.84280000  1.0
  H  H19  1  0.06188000  0.65301000  0.70656000  1.0
  H  H20  1  0.07740000  0.83455000  0.92310000  1.0
  H  H21  1  0.32293000  0.14601000  0.13698000  1.0
  H  H22  1  0.31933000  0.14018000  0.53079000  1.0
  H  H23  1  0.11240000  0.87647000  0.50373000  1.0
  H  H24  1  0.44599000  0.42621000  0.12575000  1.0
  H  H25  1  0.36551000  0.33262000  0.08744000  1.0
  H  H26  1  0.17757000  0.28472000  0.96790000  1.0
  H  H27  1  0.34510000  0.44212000  0.84767000  1.0
  H  H28  1  0.57622000  0.20698000  0.54952000  1.0
  H  H29  1  0.40845000  0.05749000  0.68687000  1.0
  H  H30  1  0.56487000  0.50455000  0.66104000  1.0
  H  H31  1  0.72348000  0.31202000  0.47201000  1.0
  H  H32  1  0.73805000  0.61373000  0.56222000  1.0
  H  H33  1  0.93247000  0.73703000  0.41622000  1.0
  H  H34  1  0.12482000  0.48435000  0.15713000  1.0
  H  H35  1  0.93820000  0.34693000  0.29348000  1.0
  C  C36  1  0.81787000  0.04312000  0.77709000  1.0
  C  C37  1  0.78504000  0.99242000  0.68721000  1.0
  C  C38  1  0.70857000  0.89003000  0.75169000  1.0
  C  C39  1  0.67159000  0.84239000  0.67226000  1.0
  C  C40  1  0.70991000  0.89780000  0.53016000  1.0
  C  C41  1  0.78816000  0.99823000  0.46542000  1.0
  C  C42  1  0.82568000  0.04634000  0.54478000  1.0
  C  C43  1  0.55624000  0.67628000  0.86448000  1.0
  C  C44  1  0.40668000  0.74869000  0.94197000  1.0
  C  C45  1  0.83281000  0.04827000  0.31068000  1.0
  C  C46  1  0.73094000  0.72880000  0.12470000  1.0
  C  C47  1  0.63695000  0.64220000  0.19197000  1.0
  C  C48  1  0.51958000  0.66301000  0.31121000  1.0
  C  C49  1  0.50848000  0.77097000  0.35762000  1.0
  C  C50  1  0.60392000  0.85431000  0.28285000  1.0
  C  C51  1  0.41444000  0.57943000  0.38043000  1.0
  C  C52  1  0.29430000  0.60367000  0.48850000  1.0
  C  C53  1  0.18197000  0.52900000  0.56196000  1.0
  C  C54  1  0.17961000  0.41885000  0.52689000  1.0
  C  C55  1  0.07143000  0.34964000  0.60689000  1.0
  C  C56  1  0.96342000  0.49131000  0.75213000  1.0
  C  C57  1  0.06713000  0.56661000  0.67631000  1.0
  C  C58  1  0.18184000  0.95706000  0.22292000  1.0
  C  C59  1  0.21491000  0.00761000  0.31276000  1.0
  C  C60  1  0.29147000  0.10994000  0.24827000  1.0
  C  C61  1  0.32850000  0.15754000  0.32770000  1.0
  C  C62  1  0.29011000  0.10218000  0.46982000  1.0
  C  C63  1  0.21180000  0.00178000  0.53457000  1.0
  C  C64  1  0.17432000  0.95366000  0.45519000  1.0
  C  C65  1  0.44386000  0.32366000  0.13550000  1.0
  C  C66  1  0.59339000  0.25132000  0.05798000  1.0
  C  C67  1  0.16694000  0.95180000  0.68932000  1.0
  C  C68  1  0.26913000  0.27122000  0.87527000  1.0
  C  C69  1  0.36318000  0.35776000  0.80805000  1.0
  C  C70  1  0.48055000  0.33694000  0.68883000  1.0
  C  C71  1  0.49162000  0.22901000  0.64239000  1.0
  C  C72  1  0.39613000  0.14572000  0.71712000  1.0
  C  C73  1  0.58573000  0.42048000  0.61965000  1.0
  C  C74  1  0.70584000  0.39623000  0.51157000  1.0
  C  C75  1  0.81816000  0.47090000  0.43811000  1.0
  C  C76  1  0.82049000  0.58107000  0.47318000  1.0
  C  C77  1  0.92860000  0.65035000  0.39311000  1.0
  C  C78  1  0.03661000  0.50870000  0.24785000  1.0
  C  C79  1  0.93297000  0.43332000  0.32373000  1.0
  N  N80  1  0.71441000  0.83511000  0.16758000  1.0
  N  N81  1  0.96611000  0.38202000  0.72070000  1.0
  N  N82  1  0.28561000  0.16493000  0.83237000  1.0
  N  N83  1  0.03388000  0.61800000  0.27927000  1.0
  O  O84  1  0.85159000  0.15791000  0.72789000  1.0
  O  O85  1  0.80867000  0.96993000  0.89777000  1.0
  O  O86  1  0.60172000  0.73961000  0.72112000  1.0
  O  O87  1  0.33734000  0.67336000  0.05326000  1.0
  O  O88  1  0.36345000  0.87235000  0.89388000  1.0
  O  O89  1  0.84196000  0.96227000  0.25185000  1.0
  O  O90  1  0.85866000  0.16380000  0.25049000  1.0
  O  O91  1  0.95386000  0.13838000  0.98941000  1.0
  O  O92  1  0.14785000  0.84239000  0.27212000  1.0
  O  O93  1  0.19114000  0.03025000  0.10223000  1.0
  O  O94  1  0.39843000  0.26027000  0.27886000  1.0
  O  O95  1  0.66244000  0.32660000  0.94645000  1.0
  O  O96  1  0.63684000  0.12776000  0.10631000  1.0
  O  O97  1  0.15745000  0.03789000  0.74823000  1.0
  O  O98  1  0.14127000  0.83620000  0.74944000  1.0
  O  O99  1  0.04585000  0.86164000  0.01067000  1.0
