# generated using pymatgen
data_CdH16C16(NO5)2
_symmetry_space_group_name_H-M   'P 1'
_cell_length_a   7.41749000
_cell_length_b   7.43445000
_cell_length_c   17.55950000
_cell_angle_alpha   90.00020000
_cell_angle_beta   90.00000000
_cell_angle_gamma   118.17800000
_symmetry_Int_Tables_number   1
_chemical_formula_structural   CdH16C16(NO5)2
_chemical_formula_sum   'Cd2 H32 C32 N4 O20'
_cell_volume   853.55754231
_cell_formula_units_Z   2
loop_
 _symmetry_equiv_pos_site_id
 _symmetry_equiv_pos_as_xyz
  1  'x, y, z'
loop_
 _atom_site_type_symbol
 _atom_site_label
 _atom_site_symmetry_multiplicity
 _atom_site_fract_x
 _atom_site_fract_y
 _atom_site_fract_z
 _atom_site_occupancy
  Cd  Cd0  1  0.00000000  0.50000000  0.50000000  1.0
  Cd  Cd1  1  0.50000000  0.50000000  0.00000000  1.0
  H  H2  1  0.91461000  0.41595000  0.16683000  1.0
  H  H3  1  0.58539000  0.58406000  0.66683000  1.0
  H  H4  1  0.08539000  0.58406000  0.83317000  1.0
  H  H5  1  0.41461000  0.41594000  0.33317000  1.0
  H  H6  1  0.83727000  0.84666000  0.10084000  1.0
  H  H7  1  0.66273000  0.15335000  0.60084000  1.0
  H  H8  1  0.16273000  0.15334000  0.89916000  1.0
  H  H9  1  0.33726000  0.84665000  0.39916000  1.0
  H  H10  1  0.89992000  0.76467000  0.23438000  1.0
  H  H11  1  0.60008000  0.23534000  0.73438000  1.0
  H  H12  1  0.10008000  0.23534000  0.76563000  1.0
  H  H13  1  0.39991000  0.76466000  0.26562000  1.0
  H  H14  1  0.95698000  0.02023000  0.33800000  1.0
  H  H15  1  0.54302000  0.97977000  0.83800000  1.0
  H  H16  1  0.04302000  0.97978000  0.66200000  1.0
  H  H17  1  0.45698000  0.02022000  0.16200000  1.0
  H  H18  1  0.74687000  0.26568000  0.06060000  1.0
  H  H19  1  0.75312000  0.73432000  0.56059000  1.0
  H  H20  1  0.25313000  0.73432000  0.93941000  1.0
  H  H21  1  0.24688000  0.26568000  0.43941000  1.0
  H  H22  1  0.69954000  0.01704000  0.03307000  1.0
  H  H23  1  0.80046000  0.98296000  0.53307000  1.0
  H  H24  1  0.30046000  0.98296000  0.96693000  1.0
  H  H25  1  0.19953000  0.01704000  0.46693000  1.0
  H  H26  1  0.22416000  0.30020000  0.56809000  1.0
  H  H27  1  0.27584000  0.69980000  0.06810000  1.0
  H  H28  1  0.77584000  0.69981000  0.43191000  1.0
  H  H29  1  0.72416000  0.30019000  0.93191000  1.0
  H  H30  1  0.07528000  0.34182000  0.62347000  1.0
  H  H31  1  0.42473000  0.65818000  0.12347000  1.0
  H  H32  1  0.92473000  0.65818000  0.37653000  1.0
  H  H33  1  0.57527000  0.34182000  0.87653000  1.0
  C  C34  1  0.97952000  0.39696000  0.32050000  1.0
  C  C35  1  0.52048000  0.60304000  0.82050000  1.0
  C  C36  1  0.02048000  0.60304000  0.67950000  1.0
  C  C37  1  0.47952000  0.39696000  0.17950000  1.0
  C  C38  1  0.94782000  0.24008000  0.26024000  1.0
  C  C39  1  0.55218000  0.75993000  0.76024000  1.0
  C  C40  1  0.05218000  0.75993000  0.73976000  1.0
  C  C41  1  0.44782000  0.24007000  0.23976000  1.0
  C  C42  1  0.91404000  0.27582000  0.18533000  1.0
  C  C43  1  0.58596000  0.72418000  0.68533000  1.0
  C  C44  1  0.08596000  0.72418000  0.81467000  1.0
  C  C45  1  0.41405000  0.27582000  0.31467000  1.0
  C  C46  1  0.86996000  0.95219000  0.14805000  1.0
  C  C47  1  0.63004000  0.04782000  0.64805000  1.0
  C  C48  1  0.13004000  0.04782000  0.85195000  1.0
  C  C49  1  0.36995000  0.95218000  0.35195000  1.0
  C  C50  1  0.90417000  0.91001000  0.22181000  1.0
  C  C51  1  0.59583000  0.08999000  0.72181000  1.0
  C  C52  1  0.09583000  0.08999000  0.77819000  1.0
  C  C53  1  0.40417000  0.91001000  0.27819000  1.0
  C  C54  1  0.93927000  0.05321000  0.27881000  1.0
  C  C55  1  0.56073000  0.94679000  0.77881000  1.0
  C  C56  1  0.06073000  0.94679000  0.72119000  1.0
  C  C57  1  0.43927000  0.05320000  0.22119000  1.0
  C  C58  1  0.81622000  0.16511000  0.05465000  1.0
  C  C59  1  0.68378000  0.83489000  0.55465000  1.0
  C  C60  1  0.18378000  0.83489000  0.94535000  1.0
  C  C61  1  0.31621000  0.16511000  0.44535000  1.0
  C  C62  1  0.99525000  0.25798000  0.99845000  1.0
  C  C63  1  0.50474000  0.74202000  0.49845000  1.0
  C  C64  1  0.00475000  0.74202000  0.00155000  1.0
  C  C65  1  0.49525000  0.25798000  0.50155000  1.0
  N  N66  1  0.87133000  0.13084000  0.13162000  1.0
  N  N67  1  0.62866000  0.86916000  0.63162000  1.0
  N  N68  1  0.12866000  0.86916000  0.86838000  1.0
  N  N69  1  0.37134000  0.13084000  0.36838000  1.0
  O  O70  1  0.04425000  0.37143000  0.38461000  1.0
  O  O71  1  0.45576000  0.62857000  0.88461000  1.0
  O  O72  1  0.95576000  0.62857000  0.61539000  1.0
  O  O73  1  0.54424000  0.37143000  0.11539000  1.0
  O  O74  1  0.93632000  0.53710000  0.30236000  1.0
  O  O75  1  0.56368000  0.46291000  0.80236000  1.0
  O  O76  1  0.06368000  0.46290000  0.69764000  1.0
  O  O77  1  0.43632000  0.53710000  0.19764000  1.0
  O  O78  1  0.16015000  0.25712000  0.01738000  1.0
  O  O79  1  0.33985000  0.74289000  0.51738000  1.0
  O  O80  1  0.83985000  0.74289000  0.98262000  1.0
  O  O81  1  0.66014000  0.25711000  0.48261000  1.0
  O  O82  1  0.95811000  0.32148000  0.93676000  1.0
  O  O83  1  0.54188000  0.67852000  0.43676000  1.0
  O  O84  1  0.04188000  0.67852000  0.06324000  1.0
  O  O85  1  0.45812000  0.32148000  0.56323000  1.0
  O  O86  1  0.08001000  0.27989000  0.57264000  1.0
  O  O87  1  0.41999000  0.72012000  0.07264000  1.0
  O  O88  1  0.91999000  0.72012000  0.42736000  1.0
  O  O89  1  0.58001000  0.27988000  0.92736000  1.0
