# generated using pymatgen
data_ZnH7C9NO4
_symmetry_space_group_name_H-M   'P 1'
_cell_length_a   7.41173000
_cell_length_b   8.21620000
_cell_length_c   8.21619000
_cell_angle_alpha   116.53300000
_cell_angle_beta   102.45100000
_cell_angle_gamma   102.45100000
_symmetry_Int_Tables_number   1
_chemical_formula_structural   ZnH7C9NO4
_chemical_formula_sum   'Zn2 H14 C18 N2 O8'
_cell_volume   408.30094383
_cell_formula_units_Z   2
loop_
 _symmetry_equiv_pos_site_id
 _symmetry_equiv_pos_as_xyz
  1  'x, y, z'
loop_
 _atom_site_type_symbol
 _atom_site_label
 _atom_site_symmetry_multiplicity
 _atom_site_fract_x
 _atom_site_fract_y
 _atom_site_fract_z
 _atom_site_occupancy
  Zn  Zn0  1  0.75000000  0.91630000  0.08370000  1.0
  Zn  Zn1  1  0.25000000  0.08370000  0.91630000  1.0
  H  H2  1  0.25001000  0.50689000  0.49311000  1.0
  H  H3  1  0.75000000  0.49311000  0.50689000  1.0
  H  H4  1  0.11644000  0.38569000  0.05251000  1.0
  H  H5  1  0.38356000  0.94748000  0.61430000  1.0
  H  H6  1  0.88356000  0.61431000  0.94748000  1.0
  H  H7  1  0.61644000  0.05252000  0.38570000  1.0
  H  H8  1  0.20470000  0.62931000  0.10146000  1.0
  H  H9  1  0.29530000  0.89854000  0.37068000  1.0
  H  H10  1  0.79530000  0.37069000  0.89854000  1.0
  H  H11  1  0.70470000  0.10146000  0.62932000  1.0
  H  H12  1  0.37184000  0.52408000  0.16560000  1.0
  H  H13  1  0.12817000  0.83440000  0.47591000  1.0
  H  H14  1  0.62816000  0.47592000  0.83440000  1.0
  H  H15  1  0.87184000  0.16560000  0.52409000  1.0
  C  C16  1  0.29570000  0.73691000  0.87000000  1.0
  C  C17  1  0.20430000  0.13001000  0.26309000  1.0
  C  C18  1  0.70430000  0.26309000  0.13001000  1.0
  C  C19  1  0.79569000  0.86998000  0.73691000  1.0
  C  C20  1  0.26035000  0.52270000  0.76399000  1.0
  C  C21  1  0.23965000  0.23602000  0.47730000  1.0
  C  C22  1  0.73964000  0.47730000  0.23601000  1.0
  C  C23  1  0.76035000  0.76398000  0.52270000  1.0
  C  C24  1  0.25000000  0.42898000  0.57103000  1.0
  C  C25  1  0.75000000  0.57102000  0.42897000  1.0
  C  C26  1  0.25078000  0.41603000  0.85834000  1.0
  C  C27  1  0.24922000  0.14166000  0.58397000  1.0
  C  C28  1  0.74922000  0.58397000  0.14166000  1.0
  C  C29  1  0.75078000  0.85834000  0.41603000  1.0
  C  C30  1  0.23513000  0.49457000  0.05564000  1.0
  C  C31  1  0.26487000  0.94436000  0.50543000  1.0
  C  C32  1  0.76486000  0.50543000  0.94436000  1.0
  C  C33  1  0.73513000  0.05564000  0.49457000  1.0
  N  N34  1  0.25000000  0.23167000  0.76833000  1.0
  N  N35  1  0.75000000  0.76833000  0.23167000  1.0
  O  O36  1  0.42849000  0.84406000  0.03713000  1.0
  O  O37  1  0.07151000  0.96288000  0.15594000  1.0
  O  O38  1  0.57151000  0.15594000  0.96286000  1.0
  O  O39  1  0.92849000  0.03713000  0.84406000  1.0
  O  O40  1  0.19048000  0.79659000  0.77943000  1.0
  O  O41  1  0.30953000  0.22057000  0.20341000  1.0
  O  O42  1  0.80952000  0.20341000  0.22057000  1.0
  O  O43  1  0.69048000  0.77943000  0.79659000  1.0
