# generated using pymatgen
data_ZnH15C12N4ClO2
_symmetry_space_group_name_H-M   'P 1'
_cell_length_a   9.95203000
_cell_length_b   11.37500000
_cell_length_c   12.85830000
_cell_angle_alpha   89.99950000
_cell_angle_beta   74.14800000
_cell_angle_gamma   89.99920000
_symmetry_Int_Tables_number   1
_chemical_formula_structural   ZnH15C12N4ClO2
_chemical_formula_sum   'Zn4 H60 C48 N16 Cl4 O8'
_cell_volume   1400.25903188
_cell_formula_units_Z   4
loop_
 _symmetry_equiv_pos_site_id
 _symmetry_equiv_pos_as_xyz
  1  'x, y, z'
loop_
 _atom_site_type_symbol
 _atom_site_label
 _atom_site_symmetry_multiplicity
 _atom_site_fract_x
 _atom_site_fract_y
 _atom_site_fract_z
 _atom_site_occupancy
  Zn  Zn0  1  0.38189000  0.70101000  0.51226000  1.0
  Zn  Zn1  1  0.11811000  0.20102000  0.98774000  1.0
  Zn  Zn2  1  0.61811000  0.29898000  0.48775000  1.0
  Zn  Zn3  1  0.88189000  0.79898000  0.01226000  1.0
  H  H4  1  0.48812000  0.54384000  0.15852000  1.0
  H  H5  1  0.01189000  0.04384000  0.34148000  1.0
  H  H6  1  0.51189000  0.45616000  0.84149000  1.0
  H  H7  1  0.98811000  0.95616000  0.65852000  1.0
  H  H8  1  0.58457000  0.68183000  0.01016000  1.0
  H  H9  1  0.91543000  0.18183000  0.48984000  1.0
  H  H10  1  0.41542000  0.31817000  0.98984000  1.0
  H  H11  1  0.08457000  0.81817000  0.51017000  1.0
  H  H12  1  0.41280000  0.71606000  0.08898000  1.0
  H  H13  1  0.08720000  0.21605000  0.41102000  1.0
  H  H14  1  0.58720000  0.28394000  0.91102000  1.0
  H  H15  1  0.91279000  0.78395000  0.58899000  1.0
  H  H16  1  0.73593000  0.67663000  0.20213000  1.0
  H  H17  1  0.76407000  0.17662000  0.29787000  1.0
  H  H18  1  0.26407000  0.32338000  0.79787000  1.0
  H  H19  1  0.23594000  0.82338000  0.70213000  1.0
  H  H20  1  0.68161000  0.53240000  0.24252000  1.0
  H  H21  1  0.81839000  0.03240000  0.25749000  1.0
  H  H22  1  0.31839000  0.46760000  0.75749000  1.0
  H  H23  1  0.18162000  0.96761000  0.74251000  1.0
  H  H24  1  0.98203000  0.59345000  0.83569000  1.0
  H  H25  1  0.51797000  0.09345000  0.66431000  1.0
  H  H26  1  0.01797000  0.40656000  0.16431000  1.0
  H  H27  1  0.48203000  0.90654000  0.33569000  1.0
  H  H28  1  0.89454000  0.36180000  0.88564000  1.0
  H  H29  1  0.60545000  0.86179000  0.61436000  1.0
  H  H30  1  0.10545000  0.63821000  0.11435000  1.0
  H  H31  1  0.39455000  0.13820000  0.38564000  1.0
  H  H32  1  0.68864000  0.35712000  0.18175000  1.0
  H  H33  1  0.81135000  0.85711000  0.31825000  1.0
  H  H34  1  0.31136000  0.64289000  0.81825000  1.0
  H  H35  1  0.18865000  0.14289000  0.68175000  1.0
  H  H36  1  0.79309000  0.26723000  0.07606000  1.0
  H  H37  1  0.70690000  0.76722000  0.42394000  1.0
  H  H38  1  0.20691000  0.73278000  0.92394000  1.0
  H  H39  1  0.29309000  0.23278000  0.57605000  1.0
  H  H40  1  0.62312000  0.31511000  0.07206000  1.0
  H  H41  1  0.87688000  0.81510000  0.42794000  1.0
  H  H42  1  0.37689000  0.68489000  0.92794000  1.0
  H  H43  1  0.12312000  0.18489000  0.57205000  1.0
  H  H44  1  0.78420000  0.05305000  0.08320000  1.0
  H  H45  1  0.71581000  0.55305000  0.41679000  1.0
  H  H46  1  0.21581000  0.94695000  0.91678000  1.0
  H  H47  1  0.28419000  0.44695000  0.58322000  1.0
  H  H48  1  0.50069000  0.11402000  0.16020000  1.0
  H  H49  1  0.99931000  0.61401000  0.33978000  1.0
  H  H50  1  0.49931000  0.88599000  0.83979000  1.0
  H  H51  1  0.00069000  0.38598000  0.66021000  1.0
  H  H52  1  0.28730000  0.89494000  0.09733000  1.0
  H  H53  1  0.21272000  0.39493000  0.40265000  1.0
  H  H54  1  0.71271000  0.10506000  0.90267000  1.0
  H  H55  1  0.78730000  0.60507000  0.59733000  1.0
  H  H56  1  0.28251000  0.01076000  0.19073000  1.0
  H  H57  1  0.21749000  0.51075000  0.30925000  1.0
  H  H58  1  0.71750000  0.98924000  0.80927000  1.0
  H  H59  1  0.78251000  0.48925000  0.69074000  1.0
  H  H60  1  0.28701000  0.85972000  0.23266000  1.0
  H  H61  1  0.21299000  0.35971000  0.26732000  1.0
  H  H62  1  0.71299000  0.14028000  0.76733000  1.0
  H  H63  1  0.78701000  0.64029000  0.73267000  1.0
  C  C64  1  0.44336000  0.66097000  0.29029000  1.0
  C  C65  1  0.05664000  0.16097000  0.20971000  1.0
  C  C66  1  0.55664000  0.33903000  0.70972000  1.0
  C  C67  1  0.94336000  0.83904000  0.79029000  1.0
  C  C68  1  0.53541000  0.62597000  0.17779000  1.0
  C  C69  1  0.96459000  0.12596000  0.32221000  1.0
  C  C70  1  0.46458000  0.37403000  0.82221000  1.0
  C  C71  1  0.03541000  0.87404000  0.67780000  1.0
  C  C72  1  0.52291000  0.71482000  0.08933000  1.0
  C  C73  1  0.97709000  0.21482000  0.41067000  1.0
  C  C74  1  0.47709000  0.28518000  0.91067000  1.0
  C  C75  1  0.02291000  0.78518000  0.58934000  1.0
  C  C76  1  0.68616000  0.59815000  0.17928000  1.0
  C  C77  1  0.81383000  0.09815000  0.32072000  1.0
  C  C78  1  0.31384000  0.40185000  0.82073000  1.0
  C  C79  1  0.18617000  0.90186000  0.67927000  1.0
  C  C80  1  0.77363000  0.55614000  0.07331000  1.0
  C  C81  1  0.72637000  0.05613000  0.42670000  1.0
  C  C82  1  0.22637000  0.44387000  0.92669000  1.0
  C  C83  1  0.27363000  0.94386000  0.57330000  1.0
  C  C84  1  0.91157000  0.55698000  0.90788000  1.0
  C  C85  1  0.58843000  0.05697000  0.59212000  1.0
  C  C86  1  0.08843000  0.44303000  0.09212000  1.0
  C  C87  1  0.41157000  0.94302000  0.40788000  1.0
  C  C88  1  0.86839000  0.44326000  0.93059000  1.0
  C  C89  1  0.63160000  0.94325000  0.56940000  1.0
  C  C90  1  0.13161000  0.55675000  0.06941000  1.0
  C  C91  1  0.36840000  0.05674000  0.43059000  1.0
  C  C92  1  0.71800000  0.33986000  0.09463000  1.0
  C  C93  1  0.78200000  0.83985000  0.40537000  1.0
  C  C94  1  0.28200000  0.66015000  0.90537000  1.0
  C  C95  1  0.21800000  0.16014000  0.59463000  1.0
  C  C96  1  0.56691000  0.83862000  0.10063000  1.0
  C  C97  1  0.93310000  0.33861000  0.39937000  1.0
  C  C98  1  0.43310000  0.16138000  0.89937000  1.0
  C  C99  1  0.06690000  0.66138000  0.60064000  1.0
  C  C100  1  0.69040000  0.99982000  0.09709000  1.0
  C  C101  1  0.80960000  0.49982000  0.40290000  1.0
  C  C102  1  0.30960000  0.00018000  0.90290000  1.0
  C  C103  1  0.19040000  0.50018000  0.59710000  1.0
  C  C104  1  0.55225000  0.03093000  0.13423000  1.0
  C  C105  1  0.94775000  0.53092000  0.36577000  1.0
  C  C106  1  0.44776000  0.96907000  0.86576000  1.0
  C  C107  1  0.05224000  0.46907000  0.63423000  1.0
  C  C108  1  0.32371000  0.92270000  0.16658000  1.0
  C  C109  1  0.17630000  0.42269000  0.33341000  1.0
  C  C110  1  0.67630000  0.07730000  0.83342000  1.0
  C  C111  1  0.82370000  0.57731000  0.66658000  1.0
  N  N112  1  0.85178000  0.62605000  0.99668000  1.0
  N  N113  1  0.64821000  0.12605000  0.50333000  1.0
  N  N114  1  0.14822000  0.37396000  0.00333000  1.0
  N  N115  1  0.35178000  0.87394000  0.49667000  1.0
  N  N116  1  0.78191000  0.44382000  0.03526000  1.0
  N  N117  1  0.71809000  0.94381000  0.46474000  1.0
  N  N118  1  0.21809000  0.55618000  0.96474000  1.0
  N  N119  1  0.28191000  0.05618000  0.53525000  1.0
  N  N120  1  0.69821000  0.88066000  0.07576000  1.0
  N  N121  1  0.80179000  0.38065000  0.42424000  1.0
  N  N122  1  0.30179000  0.11934000  0.92424000  1.0
  N  N123  1  0.19821000  0.61934000  0.57577000  1.0
  N  N124  1  0.47606000  0.92912000  0.13596000  1.0
  N  N125  1  0.02394000  0.42912000  0.36404000  1.0
  N  N126  1  0.52394000  0.07088000  0.86404000  1.0
  N  N127  1  0.97605000  0.57088000  0.63596000  1.0
  Cl  Cl128  1  0.50639000  0.65779000  0.63125000  1.0
  Cl  Cl129  1  0.99361000  0.15779000  0.86876000  1.0
  Cl  Cl130  1  0.49362000  0.34221000  0.36876000  1.0
  Cl  Cl131  1  0.00639000  0.84222000  0.13125000  1.0
  O  O132  1  0.50480000  0.66194000  0.36709000  1.0
  O  O133  1  0.99519000  0.16194000  0.13291000  1.0
  O  O134  1  0.49519000  0.33805000  0.63292000  1.0
  O  O135  1  0.00483000  0.83806000  0.86709000  1.0
  O  O136  1  0.31738000  0.68416000  0.30162000  1.0
  O  O137  1  0.18261000  0.18416000  0.19838000  1.0
  O  O138  1  0.68262000  0.31584000  0.69839000  1.0
  O  O139  1  0.81740000  0.81584000  0.80163000  1.0
