# generated using pymatgen
data_NiH10C10(NO2)2
_symmetry_space_group_name_H-M   'P 1'
_cell_length_a   6.23798000
_cell_length_b   8.13790000
_cell_length_c   24.84660000
_cell_angle_alpha   89.99820000
_cell_angle_beta   89.99840000
_cell_angle_gamma   92.48840000
_symmetry_Int_Tables_number   1
_chemical_formula_structural   NiH10C10(NO2)2
_chemical_formula_sum   'Ni4 H40 C40 N8 O16'
_cell_volume   1260.12484978
_cell_formula_units_Z   4
loop_
 _symmetry_equiv_pos_site_id
 _symmetry_equiv_pos_as_xyz
  1  'x, y, z'
loop_
 _atom_site_type_symbol
 _atom_site_label
 _atom_site_symmetry_multiplicity
 _atom_site_fract_x
 _atom_site_fract_y
 _atom_site_fract_z
 _atom_site_occupancy
  Ni  Ni0  1  0.92949000  0.80993000  0.26782000  1.0
  Ni  Ni1  1  0.43258000  0.29530000  0.19105000  1.0
  Ni  Ni2  1  0.07049000  0.19007000  0.76783000  1.0
  Ni  Ni3  1  0.56741000  0.70471000  0.69107000  1.0
  H  H4  1  0.84474000  0.67946000  0.10473000  1.0
  H  H5  1  0.61017000  0.78619000  0.11647000  1.0
  H  H6  1  0.95868000  0.95804000  0.12191000  1.0
  H  H7  1  0.18225000  0.92303000  0.19664000  1.0
  H  H8  1  0.12213000  0.72218000  0.18134000  1.0
  H  H9  1  0.39031000  0.47408000  0.34777000  1.0
  H  H10  1  0.14595000  0.35735000  0.34508000  1.0
  H  H11  1  0.47162000  0.18903000  0.33969000  1.0
  H  H12  1  0.69159000  0.21016000  0.26343000  1.0
  H  H13  1  0.64344000  0.41292000  0.27142000  1.0
  H  H14  1  0.96420000  0.62818000  0.37617000  1.0
  H  H15  1  0.73184000  0.58138000  0.45758000  1.0
  H  H16  1  0.26765000  0.88637000  0.38042000  1.0
  H  H17  1  0.51299000  0.91018000  0.30390000  1.0
  H  H18  1  0.40199000  0.62473000  0.50554000  1.0
  H  H19  1  0.97814000  0.58385000  0.65594000  1.0
  H  H20  1  0.23146000  0.61098000  0.58041000  1.0
  H  H21  1  0.78500000  0.93301000  0.50432000  1.0
  H  H22  1  0.54817000  0.88886000  0.58505000  1.0
  H  H23  1  0.10951000  0.88136000  0.45655000  1.0
  H  H24  1  0.15530000  0.32057000  0.60473000  1.0
  H  H25  1  0.38987000  0.21381000  0.61648000  1.0
  H  H26  1  0.04132000  0.04199000  0.62191000  1.0
  H  H27  1  0.81773000  0.07697000  0.69665000  1.0
  H  H28  1  0.87785000  0.27784000  0.68134000  1.0
  H  H29  1  0.60969000  0.52587000  0.84779000  1.0
  H  H30  1  0.85406000  0.64263000  0.84509000  1.0
  H  H31  1  0.52837000  0.81093000  0.83971000  1.0
  H  H32  1  0.30841000  0.78983000  0.76345000  1.0
  H  H33  1  0.35656000  0.58706000  0.77143000  1.0
  H  H34  1  0.03578000  0.37180000  0.87617000  1.0
  H  H35  1  0.26816000  0.41863000  0.95758000  1.0
  H  H36  1  0.73234000  0.11363000  0.88043000  1.0
  H  H37  1  0.48701000  0.08979000  0.80391000  1.0
  H  H38  1  0.59804000  0.37529000  0.00553000  1.0
  H  H39  1  0.02185000  0.41616000  0.15592000  1.0
  H  H40  1  0.76853000  0.38901000  0.08040000  1.0
  H  H41  1  0.21500000  0.06701000  0.00432000  1.0
  H  H42  1  0.45182000  0.11118000  0.08505000  1.0
  H  H43  1  0.89049000  0.11862000  0.95655000  1.0
  C  C44  1  0.68314000  0.61144000  0.17726000  1.0
  C  C45  1  0.75552000  0.74318000  0.13614000  1.0
  C  C46  1  0.89251000  0.88996000  0.15690000  1.0
  C  C47  1  0.75099000  0.00985000  0.18758000  1.0
  C  C48  1  0.20812000  0.51116000  0.27672000  1.0
  C  C49  1  0.28698000  0.39734000  0.32105000  1.0
  C  C50  1  0.40654000  0.24703000  0.30345000  1.0
  C  C51  1  0.25075000  0.11748000  0.27696000  1.0
  C  C52  1  0.80840000  0.68277000  0.37985000  1.0
  C  C53  1  0.67760000  0.65767000  0.42463000  1.0
  C  C54  1  0.47898000  0.73353000  0.42804000  1.0
  C  C55  1  0.42057000  0.82745000  0.38333000  1.0
  C  C56  1  0.55791000  0.84316000  0.33964000  1.0
  C  C57  1  0.34556000  0.71233000  0.47590000  1.0
  C  C58  1  0.93980000  0.65651000  0.62070000  1.0
  C  C59  1  0.08018000  0.67249000  0.57759000  1.0
  C  C60  1  0.02881000  0.77200000  0.53358000  1.0
  C  C61  1  0.83393000  0.85306000  0.53691000  1.0
  C  C62  1  0.70068000  0.82916000  0.58133000  1.0
  C  C63  1  0.16451000  0.79317000  0.48617000  1.0
  C  C64  1  0.31685000  0.38858000  0.67727000  1.0
  C  C65  1  0.24450000  0.25685000  0.63615000  1.0
  C  C66  1  0.10755000  0.11004000  0.65691000  1.0
  C  C67  1  0.24898000  0.99015000  0.68759000  1.0
  C  C68  1  0.79188000  0.48882000  0.77672000  1.0
  C  C69  1  0.71303000  0.60264000  0.82107000  1.0
  C  C70  1  0.59347000  0.75296000  0.80346000  1.0
  C  C71  1  0.74926000  0.88251000  0.77697000  1.0
  C  C72  1  0.19160000  0.31721000  0.87986000  1.0
  C  C73  1  0.32243000  0.34233000  0.92464000  1.0
  C  C74  1  0.52104000  0.26648000  0.92805000  1.0
  C  C75  1  0.57943000  0.17255000  0.88334000  1.0
  C  C76  1  0.44208000  0.15683000  0.83965000  1.0
  C  C77  1  0.65442000  0.28767000  0.97590000  1.0
  C  C78  1  0.06021000  0.34351000  0.12068000  1.0
  C  C79  1  0.91984000  0.32752000  0.07758000  1.0
  C  C80  1  0.97120000  0.22801000  0.03358000  1.0
  C  C81  1  0.16611000  0.14695000  0.03692000  1.0
  C  C82  1  0.29933000  0.17086000  0.08132000  1.0
  C  C83  1  0.83546000  0.20684000  0.98617000  1.0
  N  N84  1  0.06287000  0.83265000  0.19223000  1.0
  N  N85  1  0.57715000  0.29692000  0.26525000  1.0
  N  N86  1  0.75115000  0.77563000  0.33765000  1.0
  N  N87  1  0.75139000  0.73145000  0.62286000  1.0
  N  N88  1  0.93713000  0.16736000  0.69224000  1.0
  N  N89  1  0.42286000  0.70306000  0.76526000  1.0
  N  N90  1  0.24883000  0.22435000  0.83765000  1.0
  N  N91  1  0.24861000  0.26857000  0.12285000  1.0
  O  O92  1  0.71340000  0.62793000  0.22754000  1.0
  O  O93  1  0.59232000  0.48582000  0.15486000  1.0
  O  O94  1  0.74418000  0.99677000  0.23879000  1.0
  O  O95  1  0.64813000  0.11072000  0.15998000  1.0
  O  O96  1  0.12673000  0.63872000  0.29648000  1.0
  O  O97  1  0.22334000  0.47860000  0.22697000  1.0
  O  O98  1  0.13641000  0.02190000  0.30631000  1.0
  O  O99  1  0.24901000  0.11672000  0.22556000  1.0
  O  O100  1  0.28661000  0.37207000  0.72755000  1.0
  O  O101  1  0.40764000  0.51420000  0.65488000  1.0
  O  O102  1  0.25580000  0.00320000  0.73879000  1.0
  O  O103  1  0.35184000  0.88929000  0.65999000  1.0
  O  O104  1  0.87329000  0.36126000  0.79650000  1.0
  O  O105  1  0.77663000  0.52139000  0.72699000  1.0
  O  O106  1  0.86356000  0.97809000  0.80633000  1.0
  O  O107  1  0.75097000  0.88329000  0.72557000  1.0
