# generated using pymatgen
data_Ag2H6C3(NCl)2
_symmetry_space_group_name_H-M   'P 1'
_cell_length_a   8.50334000
_cell_length_b   9.41585000
_cell_length_c   16.40300000
_cell_angle_alpha   90.00000000
_cell_angle_beta   90.00000000
_cell_angle_gamma   90.00000000
_symmetry_Int_Tables_number   1
_chemical_formula_structural   Ag2H6C3(NCl)2
_chemical_formula_sum   'Ag16 H48 C24 N16 Cl16'
_cell_volume   1313.32545112
_cell_formula_units_Z   8
loop_
 _symmetry_equiv_pos_site_id
 _symmetry_equiv_pos_as_xyz
  1  'x, y, z'
loop_
 _atom_site_type_symbol
 _atom_site_label
 _atom_site_symmetry_multiplicity
 _atom_site_fract_x
 _atom_site_fract_y
 _atom_site_fract_z
 _atom_site_occupancy
  Ag  Ag0  1  0.14588000  0.25000000  0.36059000  1.0
  Ag  Ag1  1  0.35413000  0.75000000  0.86059000  1.0
  Ag  Ag2  1  0.85414000  0.75000000  0.63940000  1.0
  Ag  Ag3  1  0.64588000  0.25000000  0.13941000  1.0
  Ag  Ag4  1  0.24248000  0.75000000  0.41752000  1.0
  Ag  Ag5  1  0.25752000  0.25000000  0.91752000  1.0
  Ag  Ag6  1  0.75752000  0.25000000  0.58248000  1.0
  Ag  Ag7  1  0.74248000  0.75000000  0.08248000  1.0
  Ag  Ag8  1  0.34222000  0.42016000  0.20424000  1.0
  Ag  Ag9  1  0.15778000  0.92017000  0.70424000  1.0
  Ag  Ag10  1  0.34222000  0.07984000  0.20424000  1.0
  Ag  Ag11  1  0.15778000  0.57984000  0.70424000  1.0
  Ag  Ag12  1  0.65778000  0.57983000  0.79576000  1.0
  Ag  Ag13  1  0.84222000  0.07984000  0.29576000  1.0
  Ag  Ag14  1  0.65778000  0.92016000  0.79576000  1.0
  Ag  Ag15  1  0.84222000  0.42016000  0.29576000  1.0
  H  H16  1  0.22696000  0.47310000  0.51305000  1.0
  H  H17  1  0.27303000  0.97310000  0.01305000  1.0
  H  H18  1  0.22696000  0.02690000  0.51305000  1.0
  H  H19  1  0.27303000  0.52690000  0.01305000  1.0
  H  H20  1  0.77304000  0.52690000  0.48695000  1.0
  H  H21  1  0.72697000  0.02691000  0.98695000  1.0
  H  H22  1  0.77304000  0.97310000  0.48695000  1.0
  H  H23  1  0.72697000  0.47309000  0.98695000  1.0
  H  H24  1  0.05630000  0.37786000  0.54568000  1.0
  H  H25  1  0.44370000  0.87786000  0.04567000  1.0
  H  H26  1  0.05630000  0.12214000  0.54568000  1.0
  H  H27  1  0.44370000  0.62213000  0.04567000  1.0
  H  H28  1  0.94371000  0.62214000  0.45432000  1.0
  H  H29  1  0.55630000  0.12213000  0.95433000  1.0
  H  H30  1  0.94371000  0.87786000  0.45432000  1.0
  H  H31  1  0.55630000  0.37787000  0.95433000  1.0
  H  H32  1  0.46131000  0.37814000  0.69162000  1.0
  H  H33  1  0.03869000  0.87814000  0.19162000  1.0
  H  H34  1  0.46131000  0.12186000  0.69162000  1.0
  H  H35  1  0.03869000  0.62186000  0.19162000  1.0
  H  H36  1  0.53869000  0.62186000  0.30838000  1.0
  H  H37  1  0.96130000  0.12186000  0.80838000  1.0
  H  H38  1  0.53869000  0.87814000  0.30838000  1.0
  H  H39  1  0.96130000  0.37814000  0.80838000  1.0
  H  H40  1  0.46071000  0.47308000  0.59766000  1.0
  H  H41  1  0.03929000  0.97309000  0.09766000  1.0
  H  H42  1  0.46071000  0.02692000  0.59766000  1.0
  H  H43  1  0.03929000  0.52692000  0.09766000  1.0
  H  H44  1  0.53929000  0.52692000  0.40234000  1.0
  H  H45  1  0.96071000  0.02692000  0.90234000  1.0
  H  H46  1  0.53929000  0.97308000  0.40234000  1.0
  H  H47  1  0.96071000  0.47309000  0.90234000  1.0
  H  H48  1  0.45742000  0.15580000  0.46949000  1.0
  H  H49  1  0.04257000  0.65580000  0.96949000  1.0
  H  H50  1  0.45742000  0.34420000  0.46949000  1.0
  H  H51  1  0.04257000  0.84419000  0.96948000  1.0
  H  H52  1  0.54258000  0.84419000  0.53051000  1.0
  H  H53  1  0.95743000  0.34420000  0.03051000  1.0
  H  H54  1  0.54258000  0.65580000  0.53051000  1.0
  H  H55  1  0.95743000  0.15581000  0.03051000  1.0
  H  H56  1  0.23238000  0.25000000  0.73465000  1.0
  H  H57  1  0.26762000  0.75000000  0.23465000  1.0
  H  H58  1  0.76763000  0.75000000  0.26535000  1.0
  H  H59  1  0.73237000  0.25000000  0.76535000  1.0
  H  H60  1  0.05872000  0.25000000  0.67162000  1.0
  H  H61  1  0.44128000  0.75000000  0.17162000  1.0
  H  H62  1  0.94128000  0.75000000  0.32838000  1.0
  H  H63  1  0.55872000  0.25000000  0.82838000  1.0
  C  C64  1  0.18530000  0.37778000  0.54491000  1.0
  C  C65  1  0.31470000  0.87778000  0.04490000  1.0
  C  C66  1  0.18530000  0.12222000  0.54491000  1.0
  C  C67  1  0.31469000  0.62222000  0.04490000  1.0
  C  C68  1  0.81470000  0.62222000  0.45509000  1.0
  C  C69  1  0.68531000  0.12222000  0.95510000  1.0
  C  C70  1  0.81470000  0.87778000  0.45509000  1.0
  C  C71  1  0.68531000  0.37778000  0.95510000  1.0
  C  C72  1  0.41764000  0.37740000  0.62867000  1.0
  C  C73  1  0.08236000  0.87741000  0.12867000  1.0
  C  C74  1  0.41764000  0.12260000  0.62867000  1.0
  C  C75  1  0.08235000  0.62260000  0.12867000  1.0
  C  C76  1  0.58236000  0.62259000  0.37133000  1.0
  C  C77  1  0.91764000  0.12260000  0.87133000  1.0
  C  C78  1  0.58236000  0.87741000  0.37133000  1.0
  C  C79  1  0.91764000  0.37740000  0.87133000  1.0
  C  C80  1  0.41432000  0.25000000  0.50188000  1.0
  C  C81  1  0.08567000  0.75000000  0.00187000  1.0
  C  C82  1  0.58568000  0.75000000  0.49813000  1.0
  C  C83  1  0.91433000  0.25000000  0.99812000  1.0
  C  C84  1  0.18783000  0.25000000  0.67185000  1.0
  C  C85  1  0.31216000  0.75000000  0.17185000  1.0
  C  C86  1  0.81217000  0.75000000  0.32815000  1.0
  C  C87  1  0.68783000  0.25000000  0.82816000  1.0
  N  N88  1  0.24130000  0.25000000  0.50150000  1.0
  N  N89  1  0.25870000  0.75000000  0.00149000  1.0
  N  N90  1  0.75870000  0.75000000  0.49850000  1.0
  N  N91  1  0.74130000  0.25000000  0.99850000  1.0
  N  N92  1  0.47677000  0.25000000  0.58597000  1.0
  N  N93  1  0.02323000  0.75000000  0.08597000  1.0
  N  N94  1  0.52323000  0.75000000  0.41403000  1.0
  N  N95  1  0.97677000  0.25000000  0.91403000  1.0
  N  N96  1  0.24378000  0.37998000  0.63008000  1.0
  N  N97  1  0.25622000  0.87998000  0.13008000  1.0
  N  N98  1  0.24378000  0.12002000  0.63008000  1.0
  N  N99  1  0.25622000  0.62002000  0.13008000  1.0
  N  N100  1  0.75622000  0.62002000  0.36992000  1.0
  N  N101  1  0.74378000  0.12002000  0.86992000  1.0
  N  N102  1  0.75622000  0.87998000  0.36992000  1.0
  N  N103  1  0.74378000  0.37998000  0.86992000  1.0
  Cl  Cl104  1  0.16886000  0.52823000  0.33697000  1.0
  Cl  Cl105  1  0.33114000  0.02823000  0.83697000  1.0
  Cl  Cl106  1  0.16886000  0.97177000  0.33697000  1.0
  Cl  Cl107  1  0.33114000  0.47177000  0.83697000  1.0
  Cl  Cl108  1  0.83114000  0.47177000  0.66303000  1.0
  Cl  Cl109  1  0.66886000  0.97177000  0.16303000  1.0
  Cl  Cl110  1  0.83114000  0.02823000  0.66303000  1.0
  Cl  Cl111  1  0.66886000  0.52823000  0.16303000  1.0
  Cl  Cl112  1  0.49319000  0.25000000  0.29730000  1.0
  Cl  Cl113  1  0.00682000  0.75000000  0.79730000  1.0
  Cl  Cl114  1  0.50681000  0.75000000  0.70270000  1.0
  Cl  Cl115  1  0.99319000  0.25000000  0.20270000  1.0
  Cl  Cl116  1  0.16716000  0.75000000  0.56565000  1.0
  Cl  Cl117  1  0.33284000  0.25000000  0.06565000  1.0
  Cl  Cl118  1  0.83284000  0.25000000  0.43435000  1.0
  Cl  Cl119  1  0.66716000  0.75000000  0.93435000  1.0
