# generated using pymatgen
data_ZnH16C26SNO8
_symmetry_space_group_name_H-M   'P 1'
_cell_length_a   14.98450000
_cell_length_b   15.48360000
_cell_length_c   15.95030000
_cell_angle_alpha   89.96840000
_cell_angle_beta   75.11100000
_cell_angle_gamma   81.21420000
_symmetry_Int_Tables_number   1
_chemical_formula_structural   ZnH16C26SNO8
_chemical_formula_sum   'Zn2 H32 C52 S2 N2 O16'
_cell_volume   3531.57676446
_cell_formula_units_Z   2
loop_
 _symmetry_equiv_pos_site_id
 _symmetry_equiv_pos_as_xyz
  1  'x, y, z'
loop_
 _atom_site_type_symbol
 _atom_site_label
 _atom_site_symmetry_multiplicity
 _atom_site_fract_x
 _atom_site_fract_y
 _atom_site_fract_z
 _atom_site_occupancy
  Zn  Zn0  1  0.60291000  0.51172000  0.48398000  1.0
  Zn  Zn1  1  0.41570000  0.47433000  0.50903000  1.0
  H  H2  1  0.57431000  0.37084000  0.06530000  1.0
  H  H3  1  0.46342000  0.21193000  0.53048000  1.0
  H  H4  1  0.53633000  0.35874000  0.93308000  1.0
  H  H5  1  0.62553000  0.83791000  0.54065000  1.0
  H  H6  1  0.36818000  0.14367000  0.58716000  1.0
  H  H7  1  0.19900000  0.90471000  0.61848000  1.0
  H  H8  1  0.96908000  0.42724000  0.72316000  1.0
  H  H9  1  0.76470000  0.49034000  0.56153000  1.0
  H  H10  1  0.68792000  0.64771000  0.37497000  1.0
  H  H11  1  0.01237000  0.67781000  0.34132000  1.0
  H  H12  1  0.13461000  0.40264000  0.72911000  1.0
  H  H13  1  0.62906000  0.41590000  0.88707000  1.0
  H  H14  1  0.30266000  0.41372000  0.65618000  1.0
  H  H15  1  0.34387000  0.54549000  0.98136000  1.0
  H  H16  1  0.84991000  0.47693000  0.64522000  1.0
  H  H17  1  0.13470000  0.60024000  0.40214000  1.0
  H  H18  1  0.84548000  0.69606000  0.32842000  1.0
  H  H19  1  0.37194000  0.42993000  0.97811000  1.0
  H  H20  1  0.36113000  0.54725000  0.12289000  1.0
  H  H21  1  0.46343000  0.63789000  0.92882000  1.0
  H  H22  1  0.59951000  0.60393000  0.03344000  1.0
  H  H23  1  0.79159000  0.76990000  0.47849000  1.0
  H  H24  1  0.65205000  0.44470000  0.02394000  1.0
  H  H25  1  0.19110000  0.35551000  0.33696000  1.0
  H  H26  1  0.40455000  0.40741000  0.19565000  1.0
  H  H27  1  0.67226000  0.55431000  0.87992000  1.0
  H  H28  1  0.47993000  0.64905000  0.06913000  1.0
  H  H29  1  0.53216000  0.76497000  0.53199000  1.0
  H  H30  1  0.24237000  0.74302000  0.58968000  1.0
  H  H31  1  0.24647000  0.05088000  0.61994000  1.0
  H  H32  1  0.79747000  0.07805000  0.46453000  1.0
  H  H33  1  0.75238000  0.23682000  0.45021000  1.0
  C  C34  1  0.57335000  0.32842000  0.48175000  1.0
  C  C35  1  0.39087000  0.74642000  0.55860000  1.0
  C  C36  1  0.72379000  0.10644000  0.47975000  1.0
  C  C37  1  0.50352000  0.48231000  0.66313000  1.0
  C  C38  1  0.69914000  0.19514000  0.47169000  1.0
  C  C39  1  0.53578000  0.18042000  0.51820000  1.0
  C  C40  1  0.55805000  0.08997000  0.52806000  1.0
  C  C41  1  0.65489000  0.05170000  0.50731000  1.0
  C  C42  1  0.48527000  0.03628000  0.55416000  1.0
  C  C43  1  0.51023000  0.94442000  0.55224000  1.0
  C  C44  1  0.60645000  0.90785000  0.53525000  1.0
  C  C45  1  0.58111000  0.43084000  0.02899000  1.0
  C  C46  1  0.67573000  0.95871000  0.51474000  1.0
  C  C47  1  0.38841000  0.07291000  0.58083000  1.0
  C  C48  1  0.31994000  0.02112000  0.59928000  1.0
  C  C49  1  0.42028000  0.65071000  0.53635000  1.0
  C  C50  1  0.34229000  0.92827000  0.58951000  1.0
  C  C51  1  0.43853000  0.88926000  0.56599000  1.0
  C  C52  1  0.27227000  0.87418000  0.59975000  1.0
  C  C53  1  0.29570000  0.78485000  0.58397000  1.0
  C  C54  1  0.46013000  0.79801000  0.55167000  1.0
  C  C55  1  0.15469000  0.42496000  0.66309000  1.0
  C  C56  1  0.51047000  0.50792000  0.08109000  1.0
  C  C57  1  0.24730000  0.42707000  0.62283000  1.0
  C  C58  1  0.21160000  0.46678000  0.49326000  1.0
  C  C59  1  0.11385000  0.48461000  0.53317000  1.0
  C  C60  1  0.08581000  0.45346000  0.61915000  1.0
  C  C61  1  0.53284000  0.51607000  0.33188000  1.0
  C  C62  1  0.04247000  0.52912000  0.49523000  1.0
  C  C63  1  0.94787000  0.52065000  0.53324000  1.0
  C  C64  1  0.92315000  0.48029000  0.61471000  1.0
  C  C65  1  0.98910000  0.45202000  0.65813000  1.0
  C  C66  1  0.06330000  0.58762000  0.42619000  1.0
  C  C67  1  0.52863000  0.59301000  0.03323000  1.0
  C  C68  1  0.99513000  0.63103000  0.39176000  1.0
  C  C69  1  0.90165000  0.61414000  0.41997000  1.0
  C  C70  1  0.87795000  0.55751000  0.49014000  1.0
  C  C71  1  0.83047000  0.65061000  0.38068000  1.0
  C  C72  1  0.74375000  0.62473000  0.40573000  1.0
  C  C73  1  0.56391000  0.41965000  0.93864000  1.0
  C  C74  1  0.78692000  0.53581000  0.51098000  1.0
  C  C75  1  0.39663000  0.49103000  0.98983000  1.0
  C  C76  1  0.40923000  0.49268000  0.08272000  1.0
  C  C77  1  0.53199000  0.51908000  0.24132000  1.0
  C  C78  1  0.51870000  0.58680000  0.93902000  1.0
  C  C79  1  0.49062000  0.49607000  0.92290000  1.0
  C  C80  1  0.38527000  0.41208000  0.13265000  1.0
  C  C81  1  0.60872000  0.60127000  0.87555000  1.0
  C  C82  1  0.52246000  0.51490000  0.16811000  1.0
  C  C83  1  0.48553000  0.48898000  0.83353000  1.0
  C  C84  1  0.49220000  0.48406000  0.75605000  1.0
  C  C85  1  0.60399000  0.23277000  0.49025000  1.0
  S  S86  1  0.79464000  0.90704000  0.49189000  1.0
  S  S87  1  0.26138000  0.45216000  0.37536000  1.0
  N  N88  1  0.27538000  0.44374000  0.53727000  1.0
  N  N89  1  0.72356000  0.56583000  0.46855000  1.0
  O  O90  1  0.63522000  0.37852000  0.46920000  1.0
  O  O91  1  0.84155000  0.94734000  0.54556000  1.0
  O  O92  1  0.78575000  0.81021000  0.52798000  1.0
  O  O93  1  0.27227000  0.53420000  0.33560000  1.0
  O  O94  1  0.33593000  0.37926000  0.36210000  1.0
  O  O95  1  0.17600000  0.41925000  0.34589000  1.0
  O  O96  1  0.34652000  0.35642000  0.10871000  1.0
  O  O97  1  0.61597000  0.65994000  0.82460000  1.0
  O  O98  1  0.48624000  0.35191000  0.48903000  1.0
  O  O99  1  0.58271000  0.49583000  0.61695000  1.0
  O  O100  1  0.43370000  0.46815000  0.63642000  1.0
  O  O101  1  0.50817000  0.62416000  0.51245000  1.0
  O  O102  1  0.35706000  0.60280000  0.54195000  1.0
  O  O103  1  0.60800000  0.52381000  0.35230000  1.0
  O  O104  1  0.45560000  0.50459000  0.38302000  1.0
  O  O105  1  0.83337000  0.89735000  0.39887000  1.0
