# generated using pymatgen
data_MoH4C5NO3
_symmetry_space_group_name_H-M   'P 1'
_cell_length_a   6.81486000
_cell_length_b   9.03036000
_cell_length_c   10.49800000
_cell_angle_alpha   80.75240000
_cell_angle_beta   89.99990000
_cell_angle_gamma   89.99990000
_symmetry_Int_Tables_number   1
_chemical_formula_structural   MoH4C5NO3
_chemical_formula_sum   'Mo4 H16 C20 N4 O12'
_cell_volume   637.65693464
_cell_formula_units_Z   4
loop_
 _symmetry_equiv_pos_site_id
 _symmetry_equiv_pos_as_xyz
  1  'x, y, z'
loop_
 _atom_site_type_symbol
 _atom_site_label
 _atom_site_symmetry_multiplicity
 _atom_site_fract_x
 _atom_site_fract_y
 _atom_site_fract_z
 _atom_site_occupancy
  Mo  Mo0  1  0.25000000  0.00446000  0.18506000  1.0
  Mo  Mo1  1  0.75000000  0.99553000  0.81494000  1.0
  Mo  Mo2  1  0.75000000  0.83931000  0.23560000  1.0
  Mo  Mo3  1  0.25000000  0.16069000  0.76440000  1.0
  H  H4  1  0.25000000  0.99717000  0.49123000  1.0
  H  H5  1  0.75000000  0.00283000  0.50877000  1.0
  H  H6  1  0.25000000  0.81626000  0.69892000  1.0
  H  H7  1  0.75000000  0.18374000  0.30108000  1.0
  H  H8  1  0.25000000  0.53705000  0.68848000  1.0
  H  H9  1  0.75000000  0.46295000  0.31152000  1.0
  H  H10  1  0.25000000  0.45472000  0.47667000  1.0
  H  H11  1  0.75000000  0.54528000  0.52333000  1.0
  H  H12  1  0.25000000  0.39933000  0.29385000  1.0
  H  H13  1  0.75000000  0.60067000  0.70615000  1.0
  H  H14  1  0.25000000  0.35327000  0.06730000  1.0
  H  H15  1  0.75000000  0.64673000  0.93270000  1.0
  H  H16  1  0.25000000  0.57044000  0.88845000  1.0
  H  H17  1  0.75000000  0.42956000  0.11155000  1.0
  H  H18  1  0.25000000  0.83290000  0.94420000  1.0
  H  H19  1  0.75000000  0.16710000  0.05580000  1.0
  C  C20  1  0.25000000  0.87611000  0.49233000  1.0
  C  C21  1  0.75000000  0.12389000  0.50767000  1.0
  C  C22  1  0.25000000  0.77453000  0.60725000  1.0
  C  C23  1  0.75000000  0.22547000  0.39276000  1.0
  C  C24  1  0.25000000  0.62143000  0.60155000  1.0
  C  C25  1  0.75000000  0.37857000  0.39845000  1.0
  C  C26  1  0.25000000  0.57428000  0.48156000  1.0
  C  C27  1  0.75000000  0.42572000  0.51845000  1.0
  C  C28  1  0.25000000  0.68189000  0.36988000  1.0
  C  C29  1  0.75000000  0.31811000  0.63012000  1.0
  C  C30  1  0.25000000  0.64228000  0.23893000  1.0
  C  C31  1  0.75000000  0.35772000  0.76108000  1.0
  C  C32  1  0.25000000  0.49410000  0.21544000  1.0
  C  C33  1  0.75000000  0.50590000  0.78456000  1.0
  C  C34  1  0.25000000  0.46747000  0.08849000  1.0
  C  C35  1  0.75000000  0.53252000  0.91151000  1.0
  C  C36  1  0.25000000  0.58902000  0.98813000  1.0
  C  C37  1  0.75000000  0.41098000  0.01187000  1.0
  C  C38  1  0.25000000  0.73338000  0.01808000  1.0
  C  C39  1  0.75000000  0.26661000  0.98192000  1.0
  N  N40  1  0.25000000  0.83048000  0.37670000  1.0
  N  N41  1  0.75000000  0.16952000  0.62330000  1.0
  N  N42  1  0.25000000  0.75913000  0.14051000  1.0
  N  N43  1  0.75000000  0.24087000  0.85949000  1.0
  O  O44  1  0.25000000  0.14951000  0.27264000  1.0
  O  O45  1  0.75000000  0.85049000  0.72735000  1.0
  O  O46  1  0.25000000  0.08220000  0.02313000  1.0
  O  O47  1  0.75000000  0.91779000  0.97687000  1.0
  O  O48  1  0.97159000  0.95693000  0.19998000  1.0
  O  O49  1  0.47159000  0.04307000  0.80002000  1.0
  O  O50  1  0.02841000  0.04307000  0.80002000  1.0
  O  O51  1  0.52841000  0.95693000  0.19998000  1.0
  O  O52  1  0.75000000  0.78924000  0.40063000  1.0
  O  O53  1  0.25000000  0.21076000  0.59937000  1.0
  O  O54  1  0.75000000  0.67079000  0.17870000  1.0
  O  O55  1  0.25000000  0.32921000  0.82130000  1.0
