# generated using pymatgen
data_CdH18C16(SN2)2
_symmetry_space_group_name_H-M   'P 1'
_cell_length_a   5.80314000
_cell_length_b   8.72769000
_cell_length_c   18.24610000
_cell_angle_alpha   90.00070000
_cell_angle_beta   90.00380000
_cell_angle_gamma   97.55040000
_symmetry_Int_Tables_number   1
_chemical_formula_structural   CdH18C16(SN2)2
_chemical_formula_sum   'Cd2 H36 C32 S4 N8'
_cell_volume   916.11608907
_cell_formula_units_Z   2
loop_
 _symmetry_equiv_pos_site_id
 _symmetry_equiv_pos_as_xyz
  1  'x, y, z'
loop_
 _atom_site_type_symbol
 _atom_site_label
 _atom_site_symmetry_multiplicity
 _atom_site_fract_x
 _atom_site_fract_y
 _atom_site_fract_z
 _atom_site_occupancy
  Cd  Cd0  1  0.49999000  0.49999000  0.00000000  1.0
  Cd  Cd1  1  0.50003000  0.00000000  0.50000000  1.0
  H  H2  1  0.85968000  0.80993000  0.97780000  1.0
  H  H3  1  0.14036000  0.69006000  0.47780000  1.0
  H  H4  1  0.14030000  0.19004000  0.02220000  1.0
  H  H5  1  0.85966000  0.30996000  0.52220000  1.0
  H  H6  1  0.92799000  0.04501000  0.89850000  1.0
  H  H7  1  0.07204000  0.45498000  0.39850000  1.0
  H  H8  1  0.07201000  0.95497000  0.10151000  1.0
  H  H9  1  0.92794000  0.54505000  0.60150000  1.0
  H  H10  1  0.25364000  0.90437000  0.80195000  1.0
  H  H11  1  0.74639000  0.59562000  0.30195000  1.0
  H  H12  1  0.74639000  0.09562000  0.19805000  1.0
  H  H13  1  0.25361000  0.40437000  0.69805000  1.0
  H  H14  1  0.21140000  0.67702000  0.88614000  1.0
  H  H15  1  0.78863000  0.82298000  0.38615000  1.0
  H  H16  1  0.78859000  0.32297000  0.11385000  1.0
  H  H17  1  0.21141000  0.17701000  0.61385000  1.0
  H  H18  1  0.66923000  0.23562000  0.82219000  1.0
  H  H19  1  0.33077000  0.26437000  0.32218000  1.0
  H  H20  1  0.33080000  0.76438000  0.17782000  1.0
  H  H21  1  0.66922000  0.73564000  0.67781000  1.0
  H  H22  1  0.47551000  0.13346000  0.75872000  1.0
  H  H23  1  0.52449000  0.36652000  0.25873000  1.0
  H  H24  1  0.52450000  0.86656000  0.24129000  1.0
  H  H25  1  0.47548000  0.63349000  0.74127000  1.0
  H  H26  1  0.85926000  0.21195000  0.69980000  1.0
  H  H27  1  0.14072000  0.28804000  0.19979000  1.0
  H  H28  1  0.14074000  0.78806000  0.30021000  1.0
  H  H29  1  0.85924000  0.71197000  0.80021000  1.0
  H  H30  1  0.81035000  0.00779000  0.70652000  1.0
  H  H31  1  0.18965000  0.49219000  0.20652000  1.0
  H  H32  1  0.18964000  0.99223000  0.29347000  1.0
  H  H33  1  0.81029000  0.50781000  0.79349000  1.0
  H  H34  1  0.00269000  0.11725000  0.76906000  1.0
  H  H35  1  0.99730000  0.38275000  0.26905000  1.0
  H  H36  1  0.99731000  0.88275000  0.23094000  1.0
  H  H37  1  0.00266000  0.61725000  0.73096000  1.0
  C  C38  1  0.99077000  0.39184000  0.91614000  1.0
  C  C39  1  0.00923000  0.10814000  0.41614000  1.0
  C  C40  1  0.00921000  0.60814000  0.08386000  1.0
  C  C41  1  0.99084000  0.89186000  0.58387000  1.0
  C  C42  1  0.72958000  0.83588000  0.93810000  1.0
  C  C43  1  0.27044000  0.66411000  0.43810000  1.0
  C  C44  1  0.27040000  0.16409000  0.06190000  1.0
  C  C45  1  0.72957000  0.33590000  0.56190000  1.0
  C  C46  1  0.76600000  0.96634000  0.89390000  1.0
  C  C47  1  0.23402000  0.53365000  0.39389000  1.0
  C  C48  1  0.23401000  0.03366000  0.10611000  1.0
  C  C49  1  0.76598000  0.46637000  0.60610000  1.0
  C  C50  1  0.59578000  0.99416000  0.84268000  1.0
  C  C51  1  0.40424000  0.50584000  0.34268000  1.0
  C  C52  1  0.40422000  0.00585000  0.15732000  1.0
  C  C53  1  0.59575000  0.49417000  0.65732000  1.0
  C  C54  1  0.39174000  0.88894000  0.84074000  1.0
  C  C55  1  0.60827000  0.61106000  0.34074000  1.0
  C  C56  1  0.60827000  0.11105000  0.15927000  1.0
  C  C57  1  0.39172000  0.38894000  0.65926000  1.0
  C  C58  1  0.36743000  0.76165000  0.88726000  1.0
  C  C59  1  0.63258000  0.73834000  0.38726000  1.0
  C  C60  1  0.63257000  0.23834000  0.11274000  1.0
  C  C61  1  0.36745000  0.26166000  0.61274000  1.0
  C  C62  1  0.63497000  0.12780000  0.79049000  1.0
  C  C63  1  0.36504000  0.37219000  0.29049000  1.0
  C  C64  1  0.36505000  0.87221000  0.20952000  1.0
  C  C65  1  0.63494000  0.62782000  0.70951000  1.0
  C  C66  1  0.83914000  0.11495000  0.73851000  1.0
  C  C67  1  0.16085000  0.38505000  0.23851000  1.0
  C  C68  1  0.16086000  0.88506000  0.26149000  1.0
  C  C69  1  0.83910000  0.61496000  0.76150000  1.0
  S  S70  1  0.23797000  0.34791000  0.88546000  1.0
  S  S71  1  0.76201000  0.15208000  0.38547000  1.0
  S  S72  1  0.76201000  0.65208000  0.11453000  1.0
  S  S73  1  0.23805000  0.84791000  0.61454000  1.0
  N  N74  1  0.81200000  0.42480000  0.93806000  1.0
  N  N75  1  0.18798000  0.07517000  0.43806000  1.0
  N  N76  1  0.18798000  0.57519000  0.06194000  1.0
  N  N77  1  0.81207000  0.92483000  0.56195000  1.0
  N  N78  1  0.53450000  0.73385000  0.93459000  1.0
  N  N79  1  0.46552000  0.76614000  0.43459000  1.0
  N  N80  1  0.46547000  0.26613000  0.06540000  1.0
  N  N81  1  0.53450000  0.23387000  0.56540000  1.0
