# generated using pymatgen
data_ZnH11C18NO4
_symmetry_space_group_name_H-M   'P 1'
_cell_length_a   10.20170000
_cell_length_b   12.03380000
_cell_length_c   13.07810000
_cell_angle_alpha   93.51560000
_cell_angle_beta   111.84900000
_cell_angle_gamma   96.12040000
_symmetry_Int_Tables_number   1
_chemical_formula_structural   ZnH11C18NO4
_chemical_formula_sum   'Zn4 H44 C72 N4 O16'
_cell_volume   1472.81264542
_cell_formula_units_Z   4
loop_
 _symmetry_equiv_pos_site_id
 _symmetry_equiv_pos_as_xyz
  1  'x, y, z'
loop_
 _atom_site_type_symbol
 _atom_site_label
 _atom_site_symmetry_multiplicity
 _atom_site_fract_x
 _atom_site_fract_y
 _atom_site_fract_z
 _atom_site_occupancy
  Zn  Zn0  1  0.16001000  0.49396000  0.20592000  1.0
  Zn  Zn1  1  0.83999000  0.50603000  0.79408000  1.0
  Zn  Zn2  1  0.92669000  0.49674000  0.34323000  1.0
  Zn  Zn3  1  0.07331000  0.50326000  0.65677000  1.0
  H  H4  1  0.43465000  0.53846000  0.17296000  1.0
  H  H5  1  0.56535000  0.46154000  0.82705000  1.0
  H  H6  1  0.66599000  0.66743000  0.26382000  1.0
  H  H7  1  0.33401000  0.33257000  0.73618000  1.0
  H  H8  1  0.69924000  0.80165000  0.42814000  1.0
  H  H9  1  0.30076000  0.19835000  0.57186000  1.0
  H  H10  1  0.27253000  0.67099000  0.39437000  1.0
  H  H11  1  0.72747000  0.32901000  0.60563000  1.0
  H  H12  1  0.39255000  0.81465000  0.53314000  1.0
  H  H13  1  0.60745000  0.18535000  0.46687000  1.0
  H  H14  1  0.69734000  0.91384000  0.56255000  1.0
  H  H15  1  0.30266000  0.08617000  0.43745000  1.0
  H  H16  1  0.81180000  0.06710000  0.69869000  1.0
  H  H17  1  0.18820000  0.93290000  0.30131000  1.0
  H  H18  1  0.83019000  0.19118000  0.86273000  1.0
  H  H19  1  0.16981000  0.80882000  0.13727000  1.0
  H  H20  1  0.41908000  0.02969000  0.83746000  1.0
  H  H21  1  0.58092000  0.97031000  0.16254000  1.0
  H  H22  1  0.40034000  0.90868000  0.67523000  1.0
  H  H23  1  0.59967000  0.09132000  0.32477000  1.0
  H  H24  1  0.75222000  0.24466000  0.99903000  1.0
  H  H25  1  0.24778000  0.75534000  0.00097000  1.0
  H  H26  1  0.45735000  0.13577000  0.98665000  1.0
  H  H27  1  0.54264000  0.86423000  0.01335000  1.0
  H  H28  1  0.37859000  0.21145000  0.12274000  1.0
  H  H29  1  0.62141000  0.78856000  0.87726000  1.0
  H  H30  1  0.42791000  0.32537000  0.30258000  1.0
  H  H31  1  0.57210000  0.67463000  0.69742000  1.0
  H  H32  1  0.67297000  0.43566000  0.40312000  1.0
  H  H33  1  0.32703000  0.56434000  0.59688000  1.0
  H  H34  1  0.81175000  0.32378000  0.15985000  1.0
  H  H35  1  0.18825000  0.67622000  0.84015000  1.0
  H  H36  1  0.84785000  0.11573000  0.50002000  1.0
  H  H37  1  0.15215000  0.88427000  0.49998000  1.0
  H  H38  1  0.80140000  0.95300000  0.35786000  1.0
  H  H39  1  0.19860000  0.04700000  0.64213000  1.0
  H  H40  1  0.05023000  0.14895000  0.21199000  1.0
  H  H41  1  0.94977000  0.85105000  0.78801000  1.0
  H  H42  1  0.91142000  0.81530000  0.28996000  1.0
  H  H43  1  0.08859000  0.18470000  0.71004000  1.0
  H  H44  1  0.85700000  0.90976000  0.91360000  1.0
  H  H45  1  0.14301000  0.09024000  0.08640000  1.0
  H  H46  1  0.86632000  0.05888000  0.05463000  1.0
  H  H47  1  0.13368000  0.94113000  0.94537000  1.0
  C  C48  1  0.45375000  0.59867000  0.24438000  1.0
  C  C49  1  0.54625000  0.40133000  0.75562000  1.0
  C  C50  1  0.58136000  0.67133000  0.29535000  1.0
  C  C51  1  0.41864000  0.32867000  0.70466000  1.0
  C  C52  1  0.59880000  0.74613000  0.38617000  1.0
  C  C53  1  0.40120000  0.25387000  0.61383000  1.0
  C  C54  1  0.48707000  0.74941000  0.42448000  1.0
  C  C55  1  0.51293000  0.25059000  0.57552000  1.0
  C  C56  1  0.36285000  0.67243000  0.36859000  1.0
  C  C57  1  0.63715000  0.32757000  0.63141000  1.0
  C  C58  1  0.49012000  0.82516000  0.51633000  1.0
  C  C59  1  0.50989000  0.17485000  0.48367000  1.0
  C  C60  1  0.60029000  0.90370000  0.58017000  1.0
  C  C61  1  0.39971000  0.09630000  0.41983000  1.0
  C  C62  1  0.60541000  0.97719000  0.67414000  1.0
  C  C63  1  0.39459000  0.02281000  0.32586000  1.0
  C  C64  1  0.72563000  0.05873000  0.72926000  1.0
  C  C65  1  0.27437000  0.94127000  0.27074000  1.0
  C  C66  1  0.73631000  0.12852000  0.82144000  1.0
  C  C67  1  0.26369000  0.87148000  0.17856000  1.0
  C  C68  1  0.62778000  0.11948000  0.86407000  1.0
  C  C69  1  0.37222000  0.88052000  0.13593000  1.0
  C  C70  1  0.50581000  0.03927000  0.80756000  1.0
  C  C71  1  0.49419000  0.96073000  0.19245000  1.0
  C  C72  1  0.49508000  0.97052000  0.71531000  1.0
  C  C73  1  0.50492000  0.02948000  0.28469000  1.0
  C  C74  1  0.64983000  0.18971000  0.96498000  1.0
  C  C75  1  0.35016000  0.81029000  0.03502000  1.0
  C  C76  1  0.56057000  0.18961000  0.02019000  1.0
  C  C77  1  0.43942000  0.81039000  0.97981000  1.0
  C  C78  1  0.58967000  0.25699000  0.12458000  1.0
  C  C79  1  0.41032000  0.74301000  0.87542000  1.0
  C  C80  1  0.48326000  0.25950000  0.16864000  1.0
  C  C81  1  0.51674000  0.74051000  0.83137000  1.0
  C  C82  1  0.51030000  0.32269000  0.26872000  1.0
  C  C83  1  0.48970000  0.67731000  0.73128000  1.0
  C  C84  1  0.64479000  0.38385000  0.32466000  1.0
  C  C85  1  0.35521000  0.61616000  0.67534000  1.0
  C  C86  1  0.72253000  0.32112000  0.18707000  1.0
  C  C87  1  0.27746000  0.67888000  0.81293000  1.0
  C  C88  1  0.97138000  0.22329000  0.43483000  1.0
  C  C89  1  0.02862000  0.77671000  0.56517000  1.0
  C  C90  1  0.89136000  0.12107000  0.43566000  1.0
  C  C91  1  0.10864000  0.87893000  0.56434000  1.0
  C  C92  1  0.86609000  0.03063000  0.35658000  1.0
  C  C93  1  0.13391000  0.96937000  0.64341000  1.0
  C  C94  1  0.91895000  0.04074000  0.27211000  1.0
  C  C95  1  0.08104000  0.95926000  0.72789000  1.0
  C  C96  1  0.00446000  0.14091000  0.27452000  1.0
  C  C97  1  0.99555000  0.85909000  0.72548000  1.0
  C  C98  1  0.03200000  0.23245000  0.35446000  1.0
  C  C99  1  0.96800000  0.76755000  0.64554000  1.0
  C  C100  1  0.89176000  0.94888000  0.18356000  1.0
  C  C101  1  0.10824000  0.05112000  0.81643000  1.0
  C  C102  1  0.89500000  0.83681000  0.20673000  1.0
  C  C103  1  0.10500000  0.16319000  0.79327000  1.0
  C  C104  1  0.89389000  0.75245000  0.12784000  1.0
  C  C105  1  0.10612000  0.24755000  0.87216000  1.0
  C  C106  1  0.88462000  0.77832000  0.02229000  1.0
  C  C107  1  0.11538000  0.22168000  0.97771000  1.0
  C  C108  1  0.86895000  0.88857000  0.99620000  1.0
  C  C109  1  0.13106000  0.11143000  0.00380000  1.0
  C  C110  1  0.87361000  0.97290000  0.07564000  1.0
  C  C111  1  0.12639000  0.02710000  0.92436000  1.0
  C  C112  1  0.12955000  0.33147000  0.34486000  1.0
  C  C113  1  0.87045000  0.66853000  0.65515000  1.0
  C  C114  1  0.98457000  0.31815000  0.51820000  1.0
  C  C115  1  0.01543000  0.68185000  0.48180000  1.0
  C  C116  1  0.92605000  0.64000000  0.16580000  1.0
  C  C117  1  0.07395000  0.36000000  0.83420000  1.0
  C  C118  1  0.90179000  0.69295000  0.94069000  1.0
  C  C119  1  0.09821000  0.30705000  0.05931000  1.0
  N  N120  1  0.34697000  0.59890000  0.28182000  1.0
  N  N121  1  0.65303000  0.40110000  0.71819000  1.0
  N  N122  1  0.74809000  0.38251000  0.28355000  1.0
  N  N123  1  0.25191000  0.61750000  0.71645000  1.0
  O  O124  1  0.07631000  0.42492000  0.31120000  1.0
  O  O125  1  0.92368000  0.57507000  0.68880000  1.0
  O  O126  1  0.25171000  0.31854000  0.35504000  1.0
  O  O127  1  0.74829000  0.68146000  0.64497000  1.0
  O  O128  1  0.07795000  0.40566000  0.52935000  1.0
  O  O129  1  0.92205000  0.59434000  0.47066000  1.0
  O  O130  1  0.90667000  0.31296000  0.57314000  1.0
  O  O131  1  0.09333000  0.68704000  0.42686000  1.0
  O  O132  1  0.85787000  0.59629000  0.22045000  1.0
  O  O133  1  0.14213000  0.40371000  0.77955000  1.0
  O  O134  1  0.02472000  0.60123000  0.14321000  1.0
  O  O135  1  0.97528000  0.39877000  0.85679000  1.0
  O  O136  1  0.80524000  0.60516000  0.90358000  1.0
  O  O137  1  0.19476000  0.39484000  0.09642000  1.0
  O  O138  1  0.00519000  0.71279000  0.91211000  1.0
  O  O139  1  0.99481000  0.28721000  0.08788000  1.0
