# generated using pymatgen
data_TbH(CO2)3
_symmetry_space_group_name_H-M   'P 1'
_cell_length_a   6.60851000
_cell_length_b   7.05032000
_cell_length_c   10.60640000
_cell_angle_alpha   90.00000000
_cell_angle_beta   90.00000000
_cell_angle_gamma   90.00000000
_symmetry_Int_Tables_number   1
_chemical_formula_structural   TbH(CO2)3
_chemical_formula_sum   'Tb4 H4 C12 O24'
_cell_volume   494.17455787
_cell_formula_units_Z   4
loop_
 _symmetry_equiv_pos_site_id
 _symmetry_equiv_pos_as_xyz
  1  'x, y, z'
loop_
 _atom_site_type_symbol
 _atom_site_label
 _atom_site_symmetry_multiplicity
 _atom_site_fract_x
 _atom_site_fract_y
 _atom_site_fract_z
 _atom_site_occupancy
  Tb  Tb0  1  0.63372000  0.20013000  0.75000000  1.0
  Tb  Tb1  1  0.13371000  0.29987000  0.25000000  1.0
  Tb  Tb2  1  0.36629000  0.79987000  0.25000000  1.0
  Tb  Tb3  1  0.86628000  0.70013000  0.75000000  1.0
  H  H4  1  0.38008000  0.78113000  0.75000000  1.0
  H  H5  1  0.88008000  0.71887000  0.25000000  1.0
  H  H6  1  0.61992000  0.21887000  0.25000000  1.0
  H  H7  1  0.11992000  0.28113000  0.75000000  1.0
  C  C8  1  0.37007000  0.62582000  0.75000000  1.0
  C  C9  1  0.87007000  0.87418000  0.25000000  1.0
  C  C10  1  0.62993000  0.37418000  0.25000000  1.0
  C  C11  1  0.12993000  0.12582000  0.75000000  1.0
  C  C12  1  0.45212000  0.09527000  0.47956000  1.0
  C  C13  1  0.95210000  0.40473000  0.52045000  1.0
  C  C14  1  0.54790000  0.90473000  0.97955000  1.0
  C  C15  1  0.04788000  0.59527000  0.02044000  1.0
  C  C16  1  0.54790000  0.90473000  0.52045000  1.0
  C  C17  1  0.04789000  0.59527000  0.47956000  1.0
  C  C18  1  0.45211000  0.09528000  0.02044000  1.0
  C  C19  1  0.95210000  0.40473000  0.97955000  1.0
  O  O20  1  0.53724000  0.53294000  0.75000000  1.0
  O  O21  1  0.03724000  0.96706000  0.25000000  1.0
  O  O22  1  0.46276000  0.46706000  0.25000000  1.0
  O  O23  1  0.96276000  0.03294000  0.75000000  1.0
  O  O24  1  0.19702000  0.55186000  0.75000000  1.0
  O  O25  1  0.69702000  0.94814000  0.25000000  1.0
  O  O26  1  0.80298000  0.44814000  0.25000000  1.0
  O  O27  1  0.30298000  0.05186000  0.75000000  1.0
  O  O28  1  0.47980000  0.23864000  0.54709000  1.0
  O  O29  1  0.97979000  0.26136000  0.45291000  1.0
  O  O30  1  0.52021000  0.76136000  0.04709000  1.0
  O  O31  1  0.02020000  0.73864000  0.95291000  1.0
  O  O32  1  0.52021000  0.76137000  0.45291000  1.0
  O  O33  1  0.02020000  0.73864000  0.54709000  1.0
  O  O34  1  0.47980000  0.23863000  0.95291000  1.0
  O  O35  1  0.97979000  0.26136000  0.04709000  1.0
  O  O36  1  0.35118000  0.08891000  0.37675000  1.0
  O  O37  1  0.85116000  0.41109000  0.62325000  1.0
  O  O38  1  0.64884000  0.91109000  0.87675000  1.0
  O  O39  1  0.14883000  0.58891000  0.12325000  1.0
  O  O40  1  0.64884000  0.91109000  0.62325000  1.0
  O  O41  1  0.14882000  0.58891000  0.37675000  1.0
  O  O42  1  0.35118000  0.08891000  0.12324000  1.0
  O  O43  1  0.85116000  0.41109000  0.87675000  1.0
