# generated using pymatgen
data_NiH16C16(N2O3)2
_symmetry_space_group_name_H-M   'P 1'
_cell_length_a   9.18449000
_cell_length_b   13.35280000
_cell_length_c   18.71473279
_cell_angle_alpha   110.88500415
_cell_angle_beta   102.99788822
_cell_angle_gamma   90.00750000
_symmetry_Int_Tables_number   1
_chemical_formula_structural   NiH16C16(N2O3)2
_chemical_formula_sum   'Ni4 H64 C64 N16 O24'
_cell_volume   2081.26495750
_cell_formula_units_Z   4
loop_
 _symmetry_equiv_pos_site_id
 _symmetry_equiv_pos_as_xyz
  1  'x, y, z'
loop_
 _atom_site_type_symbol
 _atom_site_label
 _atom_site_symmetry_multiplicity
 _atom_site_fract_x
 _atom_site_fract_y
 _atom_site_fract_z
 _atom_site_occupancy
  Ni  Ni0  1  0.94811000  0.41427000  0.26030000  1.0
  Ni  Ni1  1  0.55175000  0.15406000  0.73967000  1.0
  Ni  Ni2  1  0.05189000  0.58573000  0.73970000  1.0
  Ni  Ni3  1  0.44825000  0.84595000  0.26033000  1.0
  H  H4  1  0.61474000  0.43272000  0.23545000  1.0
  H  H5  1  0.88521000  0.19711000  0.76455000  1.0
  H  H6  1  0.38526000  0.56728000  0.76455000  1.0
  H  H7  1  0.11479000  0.80290000  0.23545000  1.0
  H  H8  1  0.16024000  0.33261000  0.20695000  1.0
  H  H9  1  0.33961000  0.12566000  0.79295000  1.0
  H  H10  1  0.83977000  0.66739000  0.79305000  1.0
  H  H11  1  0.66039000  0.87434000  0.20705000  1.0
  H  H12  1  0.16324000  0.45619000  0.21612000  1.0
  H  H13  1  0.33683000  0.24017000  0.78392000  1.0
  H  H14  1  0.83676000  0.54381000  0.78388000  1.0
  H  H15  1  0.66318000  0.75985000  0.21609000  1.0
  H  H16  1  0.83365000  0.60660000  0.25077000  1.0
  H  H17  1  0.66612000  0.35594000  0.74924000  1.0
  H  H18  1  0.16636000  0.39340000  0.74923000  1.0
  H  H19  1  0.33388000  0.64405000  0.25075000  1.0
  H  H20  1  0.77968000  0.51934000  0.16725000  1.0
  H  H21  1  0.72029000  0.35205000  0.83272000  1.0
  H  H22  1  0.22033000  0.48065000  0.83275000  1.0
  H  H23  1  0.27971000  0.64795000  0.16728000  1.0
  H  H24  1  0.35533000  0.20811000  0.37798000  1.0
  H  H25  1  0.14456000  0.82999000  0.62207000  1.0
  H  H26  1  0.64467000  0.79189000  0.62202000  1.0
  H  H27  1  0.85544000  0.17001000  0.37793000  1.0
  H  H28  1  0.12165000  0.31676000  0.58952000  1.0
  H  H29  1  0.37822000  0.72717000  0.41056000  1.0
  H  H30  1  0.87835000  0.68324000  0.41048000  1.0
  H  H31  1  0.62178000  0.27282000  0.58944000  1.0
  H  H32  1  0.95936000  0.45197000  0.42594000  1.0
  H  H33  1  0.54053000  0.02603000  0.57407000  1.0
  H  H34  1  0.04064000  0.54803000  0.57406000  1.0
  H  H35  1  0.45948000  0.97397000  0.42593000  1.0
  H  H36  1  0.78106000  0.48280000  0.51611000  1.0
  H  H37  1  0.71887000  0.96647000  0.48395000  1.0
  H  H38  1  0.21894000  0.51720000  0.48389000  1.0
  H  H39  1  0.28114000  0.03353000  0.51605000  1.0
  H  H40  1  0.09358000  0.30697000  0.44944000  1.0
  H  H41  1  0.40605000  0.85746000  0.55044000  1.0
  H  H42  1  0.90642000  0.69303000  0.55056000  1.0
  H  H43  1  0.59395000  0.14253000  0.44956000  1.0
  H  H44  1  0.42265000  0.45826000  0.31520000  1.0
  H  H45  1  0.07729000  0.14298000  0.68480000  1.0
  H  H46  1  0.57735000  0.54175000  0.68481000  1.0
  H  H47  1  0.92272000  0.85703000  0.31520000  1.0
  H  H48  1  0.37627000  0.20768000  0.51569000  1.0
  H  H49  1  0.12339000  0.69193000  0.48429000  1.0
  H  H50  1  0.62373000  0.79232000  0.48431000  1.0
  H  H51  1  0.87661000  0.30806000  0.51571000  1.0
  H  H52  1  0.66242000  0.03998000  0.14220000  1.0
  H  H53  1  0.83764000  0.89798000  0.85774000  1.0
  H  H54  1  0.33756000  0.96002000  0.85780000  1.0
  H  H55  1  0.16236000  0.10202000  0.14226000  1.0
  H  H56  1  0.84308000  0.19280000  0.24029000  1.0
  H  H57  1  0.65703000  0.95284000  0.75969000  1.0
  H  H58  1  0.15691000  0.80720000  0.75971000  1.0
  H  H59  1  0.34298000  0.04716000  0.24031000  1.0
  H  H60  1  0.55916000  0.23201000  0.99645000  1.0
  H  H61  1  0.94073000  0.23562000  0.00366000  1.0
  H  H62  1  0.44084000  0.76799000  0.00355000  1.0
  H  H63  1  0.05927000  0.76438000  0.99633000  1.0
  H  H64  1  0.76078000  0.37141000  0.09657000  1.0
  H  H65  1  0.73912000  0.27505000  0.90356000  1.0
  H  H66  1  0.23921000  0.62858000  0.90342000  1.0
  H  H67  1  0.26088000  0.72495000  0.09644000  1.0
  C  C68  1  0.64706000  0.44348000  0.29758000  1.0
  C  C69  1  0.85286000  0.14576000  0.70243000  1.0
  C  C70  1  0.35294000  0.55653000  0.70243000  1.0
  C  C71  1  0.14714000  0.85424000  0.29757000  1.0
  C  C72  1  0.25073000  0.24604000  0.38274000  1.0
  C  C73  1  0.24904000  0.86323000  0.61725000  1.0
  C  C74  1  0.74926000  0.75396000  0.61726000  1.0
  C  C75  1  0.75096000  0.13677000  0.38275000  1.0
  C  C76  1  0.22311000  0.27501000  0.58381000  1.0
  C  C77  1  0.27667000  0.69117000  0.41622000  1.0
  C  C78  1  0.77689000  0.72499000  0.41619000  1.0
  C  C79  1  0.72333000  0.30882000  0.58378000  1.0
  C  C80  1  0.83954000  0.45521000  0.40523000  1.0
  C  C81  1  0.66037000  0.04996000  0.59478000  1.0
  C  C82  1  0.16047000  0.54479000  0.59477000  1.0
  C  C83  1  0.33964000  0.95004000  0.40522000  1.0
  C  C84  1  0.58853000  0.47282000  0.42144000  1.0
  C  C85  1  0.91140000  0.05128000  0.57857000  1.0
  C  C86  1  0.41147000  0.52717000  0.57856000  1.0
  C  C87  1  0.08861000  0.94872000  0.42143000  1.0
  C  C88  1  0.74170000  0.47142000  0.45409000  1.0
  C  C89  1  0.75824000  0.01718000  0.54595000  1.0
  C  C90  1  0.25830000  0.52857000  0.54591000  1.0
  C  C91  1  0.24177000  0.98283000  0.45405000  1.0
  C  C92  1  0.19842000  0.26851000  0.44829000  1.0
  C  C93  1  0.30127000  0.82017000  0.55167000  1.0
  C  C94  1  0.80158000  0.73150000  0.55171000  1.0
  C  C95  1  0.69873000  0.17983000  0.44833000  1.0
  C  C96  1  0.54060000  0.45751000  0.34160000  1.0
  C  C97  1  0.95931000  0.11585000  0.65840000  1.0
  C  C98  1  0.45940000  0.54248000  0.65840000  1.0
  C  C99  1  0.04069000  0.88416000  0.34161000  1.0
  C  C100  1  0.30298000  0.25182000  0.65348000  1.0
  C  C101  1  0.19701000  0.59823000  0.34655000  1.0
  C  C102  1  0.69702000  0.74818000  0.34652000  1.0
  C  C103  1  0.80299000  0.40177000  0.65345000  1.0
  C  C104  1  0.17441000  0.27659000  0.31532000  1.0
  C  C105  1  0.32530000  0.96128000  0.68455000  1.0
  C  C106  1  0.82559000  0.72341000  0.68468000  1.0
  C  C107  1  0.67470000  0.03872000  0.31545000  1.0
  C  C108  1  0.27246000  0.24741000  0.51704000  1.0
  C  C109  1  0.22720000  0.73032000  0.48294000  1.0
  C  C110  1  0.72754000  0.75259000  0.48296000  1.0
  C  C111  1  0.77280000  0.26967000  0.51706000  1.0
  C  C112  1  0.67891000  0.11271000  0.13026000  1.0
  C  C113  1  0.82106000  0.98263000  0.86973000  1.0
  C  C114  1  0.32108000  0.88729000  0.86974000  1.0
  C  C115  1  0.17894000  0.01737000  0.13027000  1.0
  C  C116  1  0.59860000  0.12524000  0.06116000  1.0
  C  C117  1  0.90134000  0.06419000  0.93887000  1.0
  C  C118  1  0.40139000  0.87476000  0.93884000  1.0
  C  C119  1  0.09866000  0.93582000  0.06113000  1.0
  C  C120  1  0.77969000  0.19710000  0.18492000  1.0
  C  C121  1  0.72034000  0.01246000  0.81508000  1.0
  C  C122  1  0.22030000  0.80289000  0.81507000  1.0
  C  C123  1  0.27966000  0.98754000  0.18492000  1.0
  C  C124  1  0.62210000  0.22133000  0.04967000  1.0
  C  C125  1  0.87781000  0.17177000  0.95041000  1.0
  C  C126  1  0.37789000  0.77867000  0.95033000  1.0
  C  C127  1  0.12219000  0.82823000  0.04959000  1.0
  C  C128  1  0.73063000  0.29885000  0.10580000  1.0
  C  C129  1  0.76932000  0.19327000  0.89430000  1.0
  C  C130  1  0.26936000  0.70114000  0.89419000  1.0
  C  C131  1  0.23068000  0.80673000  0.10570000  1.0
  N  N132  1  0.79383000  0.44206000  0.32840000  1.0
  N  N133  1  0.70607000  0.11362000  0.67160000  1.0
  N  N134  1  0.20617000  0.55794000  0.67161000  1.0
  N  N135  1  0.29394000  0.88638000  0.32840000  1.0
  N  N136  1  0.80674000  0.28856000  0.17285000  1.0
  N  N137  1  0.69326000  0.11600000  0.82722000  1.0
  N  N138  1  0.19326000  0.71144000  0.82715000  1.0
  N  N139  1  0.30675000  0.88401000  0.17278000  1.0
  N  N140  1  0.47522000  0.48884000  0.46336000  1.0
  N  N141  1  0.02475000  0.02539000  0.53665000  1.0
  N  N142  1  0.52479000  0.51116000  0.53664000  1.0
  N  N143  1  0.97526000  0.97461000  0.46335000  1.0
  N  N144  1  0.49214000  0.04725000  0.00054000  1.0
  N  N145  1  0.00779000  0.04674000  0.99949000  1.0
  N  N146  1  0.50785000  0.95274000  0.99945000  1.0
  N  N147  1  0.99221000  0.95326000  0.00051000  1.0
  O  O148  1  0.10190000  0.38517000  0.18643000  1.0
  O  O149  1  0.39807000  0.19871000  0.81354000  1.0
  O  O150  1  0.89810000  0.61482000  0.81357000  1.0
  O  O151  1  0.60193000  0.80129000  0.18646000  1.0
  O  O152  1  0.23878000  0.26194000  0.25955000  1.0
  O  O153  1  0.26072000  0.00244000  0.74024000  1.0
  O  O154  1  0.76122000  0.73807000  0.74046000  1.0
  O  O155  1  0.73928000  0.99757000  0.25976000  1.0
  O  O156  1  0.41397000  0.19464000  0.64720000  1.0
  O  O157  1  0.08591000  0.54736000  0.35278000  1.0
  O  O158  1  0.58603000  0.80536000  0.35280000  1.0
  O  O159  1  0.91408000  0.45265000  0.64722000  1.0
  O  O160  1  0.86505000  0.53977000  0.21254000  1.0
  O  O161  1  0.63480000  0.32732000  0.78749000  1.0
  O  O162  1  0.13495000  0.46023000  0.78746000  1.0
  O  O163  1  0.36520000  0.67268000  0.21251000  1.0
  O  O164  1  0.04834000  0.31761000  0.32006000  1.0
  O  O165  1  0.45140000  0.99758000  0.67984000  1.0
  O  O166  1  0.95165000  0.68238000  0.67994000  1.0
  O  O167  1  0.54860000  0.00242000  0.32016000  1.0
  O  O168  1  0.25325000  0.28914000  0.71595000  1.0
  O  O169  1  0.24696000  0.57302000  0.28414000  1.0
  O  O170  1  0.74675000  0.71086000  0.28405000  1.0
  O  O171  1  0.75304000  0.42699000  0.71586000  1.0
