# generated using pymatgen
data_Cd3H18C12S4(N6O)2
_symmetry_space_group_name_H-M   'P 1'
_cell_length_a   6.82243000
_cell_length_b   9.58414000
_cell_length_c   9.71662000
_cell_angle_alpha   89.54770000
_cell_angle_beta   70.21300000
_cell_angle_gamma   85.14610000
_symmetry_Int_Tables_number   1
_chemical_formula_structural   Cd3H18C12S4(N6O)2
_chemical_formula_sum   'Cd3 H18 C12 S4 N12 O2'
_cell_volume   595.53983209
_cell_formula_units_Z   1
loop_
 _symmetry_equiv_pos_site_id
 _symmetry_equiv_pos_as_xyz
  1  'x, y, z'
loop_
 _atom_site_type_symbol
 _atom_site_label
 _atom_site_symmetry_multiplicity
 _atom_site_fract_x
 _atom_site_fract_y
 _atom_site_fract_z
 _atom_site_occupancy
  Cd  Cd0  1  0.00000000  0.00000000  0.50000000  1.0
  Cd  Cd1  1  0.50628000  0.18435000  0.49057000  1.0
  Cd  Cd2  1  0.49372000  0.81564000  0.50943000  1.0
  H  H3  1  0.37792000  0.99937000  0.31863000  1.0
  H  H4  1  0.62208000  0.00063000  0.68138000  1.0
  H  H5  1  0.39599000  0.05828000  0.93371000  1.0
  H  H6  1  0.60402000  0.94175000  0.06629000  1.0
  H  H7  1  0.87730000  0.25164000  0.93978000  1.0
  H  H8  1  0.12270000  0.74838000  0.06022000  1.0
  H  H9  1  0.11436000  0.16935000  0.81462000  1.0
  H  H10  1  0.88564000  0.83066000  0.18538000  1.0
  H  H11  1  0.11793000  0.33160000  0.90364000  1.0
  H  H12  1  0.88206000  0.66841000  0.09636000  1.0
  H  H13  1  0.77600000  0.50120000  0.35603000  1.0
  H  H14  1  0.22401000  0.49879000  0.64396000  1.0
  H  H15  1  0.10215000  0.35095000  0.22206000  1.0
  H  H16  1  0.89786000  0.64904000  0.77794000  1.0
  H  H17  1  0.31986000  0.37416000  0.27941000  1.0
  H  H18  1  0.68014000  0.62584000  0.72059000  1.0
  H  H19  1  0.30586000  0.45565000  0.11705000  1.0
  H  H20  1  0.69414000  0.54434000  0.88295000  1.0
  C  C21  1  0.94468000  0.15221000  0.17816000  1.0
  C  C22  1  0.05533000  0.84779000  0.82184000  1.0
  C  C23  1  0.25806000  0.07384000  0.03130000  1.0
  C  C24  1  0.74195000  0.92618000  0.96869000  1.0
  C  C25  1  0.04615000  0.23186000  0.91595000  1.0
  C  C26  1  0.95385000  0.76815000  0.08406000  1.0
  C  C27  1  0.18088000  0.65978000  0.35217000  1.0
  C  C28  1  0.81911000  0.34021000  0.64783000  1.0
  C  C29  1  0.88533000  0.57194000  0.36918000  1.0
  C  C30  1  0.11466000  0.42805000  0.63081000  1.0
  C  C31  1  0.21363000  0.42421000  0.22734000  1.0
  C  C32  1  0.78637000  0.57579000  0.77267000  1.0
  S  S33  1  0.71034000  0.25359000  0.23147000  1.0
  S  S34  1  0.28965000  0.74639000  0.76853000  1.0
  S  S35  1  0.44542000  0.66553000  0.30232000  1.0
  S  S36  1  0.55457000  0.33447000  0.69768000  1.0
  N  N37  1  0.23682000  0.02187000  0.16079000  1.0
  N  N38  1  0.76320000  0.97813000  0.83921000  1.0
  N  N39  1  0.03898000  0.07002000  0.25388000  1.0
  N  N40  1  0.96103000  0.92998000  0.74611000  1.0
  N  N41  1  0.08119000  0.15416000  0.03540000  1.0
  N  N42  1  0.91882000  0.84585000  0.96460000  1.0
  N  N43  1  0.83706000  0.69523000  0.43729000  1.0
  N  N44  1  0.16293000  0.30476000  0.56271000  1.0
  N  N45  1  0.02134000  0.75185000  0.42735000  1.0
  N  N46  1  0.97864000  0.24815000  0.57265000  1.0
  N  N47  1  0.09640000  0.54562000  0.31391000  1.0
  N  N48  1  0.90359000  0.45438000  0.68609000  1.0
  O  O49  1  0.35081000  0.00583000  0.42448000  1.0
  O  O50  1  0.64919000  0.99416000  0.57553000  1.0
