# generated using pymatgen
data_CuH3C4IN
_symmetry_space_group_name_H-M   'P 1'
_cell_length_a   4.14857000
_cell_length_b   8.66270000
_cell_length_c   15.04510000
_cell_angle_alpha   92.02800000
_cell_angle_beta   92.29750000
_cell_angle_gamma   99.93840000
_symmetry_Int_Tables_number   1
_chemical_formula_structural   CuH3C4IN
_chemical_formula_sum   'Cu4 H12 C16 I4 N4'
_cell_volume   531.65444074
_cell_formula_units_Z   4
loop_
 _symmetry_equiv_pos_site_id
 _symmetry_equiv_pos_as_xyz
  1  'x, y, z'
loop_
 _atom_site_type_symbol
 _atom_site_label
 _atom_site_symmetry_multiplicity
 _atom_site_fract_x
 _atom_site_fract_y
 _atom_site_fract_z
 _atom_site_occupancy
  Cu  Cu0  1  0.24275000  0.00006000  0.44508000  1.0
  Cu  Cu1  1  0.75726000  0.99994000  0.55492000  1.0
  Cu  Cu2  1  0.33564000  0.02287000  0.06809000  1.0
  Cu  Cu3  1  0.66436000  0.97712000  0.93191000  1.0
  H  H4  1  0.11898000  0.97925000  0.24886000  1.0
  H  H5  1  0.88101000  0.02075000  0.75114000  1.0
  H  H6  1  0.67434000  0.31173000  0.42428000  1.0
  H  H7  1  0.32566000  0.68827000  0.57572000  1.0
  H  H8  1  0.08368000  0.53159000  0.36192000  1.0
  H  H9  1  0.91632000  0.46841000  0.63808000  1.0
  H  H10  1  0.34525000  0.65405000  0.22942000  1.0
  H  H11  1  0.65476000  0.34595000  0.77058000  1.0
  H  H12  1  0.19397000  0.53295000  0.07861000  1.0
  H  H13  1  0.80603000  0.46704000  0.92139000  1.0
  H  H14  1  0.76566000  0.29268000  0.05639000  1.0
  H  H15  1  0.23434000  0.70732000  0.94361000  1.0
  C  C16  1  0.30817000  0.08387000  0.25785000  1.0
  C  C17  1  0.69183000  0.91613000  0.74215000  1.0
  C  C18  1  0.61477000  0.26815000  0.35545000  1.0
  C  C19  1  0.38523000  0.73184000  0.64455000  1.0
  C  C20  1  0.77129000  0.34440000  0.28377000  1.0
  C  C21  1  0.22871000  0.65560000  0.71623000  1.0
  C  C22  1  0.01343000  0.48138000  0.29496000  1.0
  C  C23  1  0.98657000  0.51861000  0.70503000  1.0
  C  C24  1  0.15786000  0.54878000  0.22148000  1.0
  C  C25  1  0.84215000  0.45122000  0.77852000  1.0
  C  C26  1  0.06903000  0.48017000  0.13535000  1.0
  C  C27  1  0.93097000  0.51983000  0.86465000  1.0
  C  C28  1  0.83276000  0.34690000  0.12248000  1.0
  C  C29  1  0.16724000  0.65310000  0.87752000  1.0
  C  C30  1  0.67782000  0.27745000  0.19631000  1.0
  C  C31  1  0.32218000  0.72255000  0.80369000  1.0
  I  I32  1  0.31090000  0.19368000  0.58493000  1.0
  I  I33  1  0.68910000  0.80632000  0.41507000  1.0
  I  I34  1  0.23634000  0.17174000  0.92252000  1.0
  I  I35  1  0.76366000  0.82826000  0.07748000  1.0
  N  N36  1  0.38746000  0.13937000  0.34300000  1.0
  N  N37  1  0.61254000  0.86063000  0.65700000  1.0
  N  N38  1  0.43983000  0.14493000  0.18543000  1.0
  N  N39  1  0.56017000  0.85507000  0.81457000  1.0
