# generated using pymatgen
data_CdCuH12(CO2)6
_symmetry_space_group_name_H-M   'P 1'
_cell_length_a   6.66672000
_cell_length_b   12.93920000
_cell_length_c   13.97720000
_cell_angle_alpha   90.00000000
_cell_angle_beta   90.00000000
_cell_angle_gamma   90.00000000
_symmetry_Int_Tables_number   1
_chemical_formula_structural   CdCuH12(CO2)6
_chemical_formula_sum   'Cd4 Cu4 H48 C24 O48'
_cell_volume   1205.70155380
_cell_formula_units_Z   4
loop_
 _symmetry_equiv_pos_site_id
 _symmetry_equiv_pos_as_xyz
  1  'x, y, z'
loop_
 _atom_site_type_symbol
 _atom_site_label
 _atom_site_symmetry_multiplicity
 _atom_site_fract_x
 _atom_site_fract_y
 _atom_site_fract_z
 _atom_site_occupancy
  Cd  Cd0  1  0.00000000  0.75000000  0.77615000  1.0
  Cd  Cd1  1  0.50000000  0.25000000  0.72384000  1.0
  Cd  Cd2  1  0.00000000  0.25001000  0.22384000  1.0
  Cd  Cd3  1  0.50000000  0.75000000  0.27616000  1.0
  Cu  Cu4  1  0.99998000  0.50000000  0.00000000  1.0
  Cu  Cu5  1  0.49999000  0.00000000  0.50000000  1.0
  Cu  Cu6  1  0.50000000  0.50000000  0.50000000  1.0
  Cu  Cu7  1  0.00002000  0.00001000  0.00000000  1.0
  H  H8  1  0.13042000  0.38008000  0.72126000  1.0
  H  H9  1  0.36959000  0.88009000  0.77874000  1.0
  H  H10  1  0.63041000  0.61991000  0.77875000  1.0
  H  H11  1  0.86957000  0.11991000  0.72126000  1.0
  H  H12  1  0.86959000  0.61993000  0.27874000  1.0
  H  H13  1  0.63041000  0.11991000  0.22125000  1.0
  H  H14  1  0.36958000  0.38009000  0.22126000  1.0
  H  H15  1  0.13040000  0.88009000  0.27875000  1.0
  H  H16  1  0.91175000  0.37046000  0.79107000  1.0
  H  H17  1  0.58825000  0.87047000  0.70891000  1.0
  H  H18  1  0.41175000  0.62952000  0.70892000  1.0
  H  H19  1  0.08825000  0.12953000  0.79107000  1.0
  H  H20  1  0.08825000  0.62954000  0.20892000  1.0
  H  H21  1  0.41175000  0.12953000  0.29108000  1.0
  H  H22  1  0.58826000  0.37047000  0.29108000  1.0
  H  H23  1  0.91175000  0.87048000  0.20892000  1.0
  H  H24  1  0.21421000  0.80458000  0.93730000  1.0
  H  H25  1  0.28579000  0.30458000  0.56270000  1.0
  H  H26  1  0.71421000  0.19541000  0.56270000  1.0
  H  H27  1  0.78578000  0.69542000  0.93730000  1.0
  H  H28  1  0.78579000  0.19542000  0.06270000  1.0
  H  H29  1  0.71422000  0.69542000  0.43731000  1.0
  H  H30  1  0.28579000  0.80458000  0.43730000  1.0
  H  H31  1  0.21421000  0.30459000  0.06270000  1.0
  H  H32  1  0.30648000  0.69510000  0.91818000  1.0
  H  H33  1  0.19352000  0.19511000  0.58182000  1.0
  H  H34  1  0.80648000  0.30489000  0.58182000  1.0
  H  H35  1  0.69352000  0.80490000  0.91818000  1.0
  H  H36  1  0.69352000  0.30489000  0.08182000  1.0
  H  H37  1  0.80649000  0.80489000  0.41818000  1.0
  H  H38  1  0.19352000  0.69510000  0.41818000  1.0
  H  H39  1  0.30648000  0.19511000  0.08182000  1.0
  H  H40  1  0.64715000  0.34517000  0.93825000  1.0
  H  H41  1  0.85285000  0.84518000  0.56175000  1.0
  H  H42  1  0.14715000  0.65482000  0.56174000  1.0
  H  H43  1  0.35285000  0.15483000  0.93825000  1.0
  H  H44  1  0.35285000  0.65482000  0.06175000  1.0
  H  H45  1  0.14715000  0.15482000  0.43826000  1.0
  H  H46  1  0.85285000  0.34517000  0.43826000  1.0
  H  H47  1  0.64715000  0.84518000  0.06175000  1.0
  H  H48  1  0.48560000  0.40899000  0.99247000  1.0
  H  H49  1  0.01442000  0.90898000  0.50753000  1.0
  H  H50  1  0.98560000  0.59100000  0.50753000  1.0
  H  H51  1  0.51438000  0.09100000  0.99247000  1.0
  H  H52  1  0.51442000  0.59102000  0.00753000  1.0
  H  H53  1  0.98560000  0.09100000  0.49247000  1.0
  H  H54  1  0.01442000  0.40898000  0.49247000  1.0
  H  H55  1  0.48556000  0.90898000  0.00753000  1.0
  C  C56  1  0.04128000  0.51820000  0.79629000  1.0
  C  C57  1  0.45873000  0.01820000  0.70370000  1.0
  C  C58  1  0.54127000  0.48179000  0.70371000  1.0
  C  C59  1  0.95872000  0.98179000  0.79630000  1.0
  C  C60  1  0.95872000  0.48180000  0.20371000  1.0
  C  C61  1  0.54127000  0.98179000  0.29629000  1.0
  C  C62  1  0.45873000  0.51821000  0.29629000  1.0
  C  C63  1  0.04128000  0.01821000  0.20371000  1.0
  C  C64  1  0.06557000  0.40241000  0.79008000  1.0
  C  C65  1  0.43442000  0.90242000  0.70992000  1.0
  C  C66  1  0.56557000  0.59758000  0.70993000  1.0
  C  C67  1  0.93443000  0.09758000  0.79007000  1.0
  C  C68  1  0.93443000  0.59759000  0.20993000  1.0
  C  C69  1  0.56557000  0.09758000  0.29008000  1.0
  C  C70  1  0.43443000  0.40242000  0.29008000  1.0
  C  C71  1  0.06557000  0.90242000  0.20993000  1.0
  C  C72  1  0.17338000  0.34765000  0.87094000  1.0
  C  C73  1  0.32661000  0.84765000  0.62906000  1.0
  C  C74  1  0.67338000  0.65235000  0.62906000  1.0
  C  C75  1  0.82662000  0.15235000  0.87094000  1.0
  C  C76  1  0.82662000  0.65236000  0.12906000  1.0
  C  C77  1  0.67338000  0.15234000  0.37094000  1.0
  C  C78  1  0.32662000  0.34765000  0.37094000  1.0
  C  C79  1  0.17338000  0.84765000  0.12906000  1.0
  O  O80  1  0.99160000  0.56110000  0.87589000  1.0
  O  O81  1  0.50840000  0.06110000  0.62411000  1.0
  O  O82  1  0.49161000  0.43890000  0.62411000  1.0
  O  O83  1  0.00840000  0.93890000  0.87589000  1.0
  O  O84  1  0.00839000  0.43891000  0.12411000  1.0
  O  O85  1  0.49159000  0.93890000  0.37588000  1.0
  O  O86  1  0.50840000  0.56111000  0.37589000  1.0
  O  O87  1  0.99161000  0.06110000  0.12411000  1.0
  O  O88  1  0.06044000  0.57264000  0.72200000  1.0
  O  O89  1  0.43958000  0.07265000  0.77800000  1.0
  O  O90  1  0.56043000  0.42735000  0.77800000  1.0
  O  O91  1  0.93956000  0.92735000  0.72200000  1.0
  O  O92  1  0.93956000  0.42736000  0.27801000  1.0
  O  O93  1  0.56043000  0.92735000  0.22200000  1.0
  O  O94  1  0.43957000  0.57265000  0.22200000  1.0
  O  O95  1  0.06043000  0.07265000  0.27800000  1.0
  O  O96  1  0.25699000  0.75851000  0.88464000  1.0
  O  O97  1  0.24301000  0.25852000  0.61536000  1.0
  O  O98  1  0.75699000  0.24148000  0.61536000  1.0
  O  O99  1  0.74301000  0.74149000  0.88464000  1.0
  O  O100  1  0.74301000  0.24148000  0.11536000  1.0
  O  O101  1  0.75699000  0.74148000  0.38464000  1.0
  O  O102  1  0.24301000  0.75851000  0.38464000  1.0
  O  O103  1  0.25700000  0.25852000  0.11536000  1.0
  O  O104  1  0.26896000  0.26554000  0.85335000  1.0
  O  O105  1  0.23105000  0.76554000  0.64665000  1.0
  O  O106  1  0.76897000  0.73445000  0.64665000  1.0
  O  O107  1  0.73103000  0.23446000  0.85335000  1.0
  O  O108  1  0.73104000  0.73446000  0.14665000  1.0
  O  O109  1  0.76898000  0.23446000  0.35335000  1.0
  O  O110  1  0.23103000  0.26555000  0.35335000  1.0
  O  O111  1  0.26896000  0.76554000  0.14665000  1.0
  O  O112  1  0.15998000  0.38172000  0.95743000  1.0
  O  O113  1  0.34000000  0.88173000  0.54257000  1.0
  O  O114  1  0.65999000  0.61827000  0.54257000  1.0
  O  O115  1  0.84002000  0.11828000  0.95743000  1.0
  O  O116  1  0.84000000  0.61828000  0.04257000  1.0
  O  O117  1  0.66000000  0.11827000  0.45743000  1.0
  O  O118  1  0.34002000  0.38173000  0.45743000  1.0
  O  O119  1  0.16000000  0.88173000  0.04257000  1.0
  O  O120  1  0.62778000  0.39057000  0.99426000  1.0
  O  O121  1  0.87224000  0.89058000  0.50574000  1.0
  O  O122  1  0.12777000  0.60942000  0.50574000  1.0
  O  O123  1  0.37221000  0.10943000  0.99425000  1.0
  O  O124  1  0.37224000  0.60942000  0.00574000  1.0
  O  O125  1  0.12778000  0.10942000  0.49426000  1.0
  O  O126  1  0.87224000  0.39057000  0.49426000  1.0
  O  O127  1  0.62775000  0.89058000  0.00574000  1.0
