# generated using pymatgen
data_CuH4C3N4
_symmetry_space_group_name_H-M   'P 1'
_cell_length_a   5.14666000
_cell_length_b   6.45963000
_cell_length_c   14.79160000
_cell_angle_alpha   90.00070000
_cell_angle_beta   90.00080000
_cell_angle_gamma   103.70100000
_symmetry_Int_Tables_number   1
_chemical_formula_structural   CuH4C3N4
_chemical_formula_sum   'Cu4 H16 C12 N16'
_cell_volume   477.76154481
_cell_formula_units_Z   4
loop_
 _symmetry_equiv_pos_site_id
 _symmetry_equiv_pos_as_xyz
  1  'x, y, z'
loop_
 _atom_site_type_symbol
 _atom_site_label
 _atom_site_symmetry_multiplicity
 _atom_site_fract_x
 _atom_site_fract_y
 _atom_site_fract_z
 _atom_site_occupancy
  Cu  Cu0  1  0.11016000  0.72587000  0.70564000  1.0
  Cu  Cu1  1  0.88983000  0.77413000  0.20563000  1.0
  Cu  Cu2  1  0.88982000  0.27413000  0.29436000  1.0
  Cu  Cu3  1  0.11017000  0.22587000  0.79437000  1.0
  H  H4  1  0.57879000  0.76953000  0.59688000  1.0
  H  H5  1  0.42122000  0.73048000  0.09688000  1.0
  H  H6  1  0.42122000  0.23048000  0.40312000  1.0
  H  H7  1  0.57879000  0.26952000  0.90312000  1.0
  H  H8  1  0.66594000  0.89540000  0.49063000  1.0
  H  H9  1  0.33406000  0.60460000  0.99063000  1.0
  H  H10  1  0.33407000  0.10461000  0.50937000  1.0
  H  H11  1  0.66594000  0.39539000  0.00937000  1.0
  H  H12  1  0.88470000  0.95992000  0.58602000  1.0
  H  H13  1  0.11532000  0.54009000  0.08602000  1.0
  H  H14  1  0.11531000  0.04009000  0.41398000  1.0
  H  H15  1  0.88470000  0.45991000  0.91398000  1.0
  H  H16  1  0.28662000  0.38782000  0.61010000  1.0
  H  H17  1  0.71337000  0.11217000  0.11010000  1.0
  H  H18  1  0.71338000  0.61218000  0.38990000  1.0
  H  H19  1  0.28664000  0.88782000  0.88990000  1.0
  C  C20  1  0.88057000  0.65930000  0.52416000  1.0
  C  C21  1  0.11944000  0.84070000  0.02416000  1.0
  C  C22  1  0.11943000  0.34071000  0.47583000  1.0
  C  C23  1  0.88058000  0.15929000  0.97584000  1.0
  C  C24  1  0.74600000  0.83072000  0.55018000  1.0
  C  C25  1  0.25401000  0.66928000  0.05018000  1.0
  C  C26  1  0.25399000  0.16929000  0.44982000  1.0
  C  C27  1  0.74601000  0.33071000  0.94982000  1.0
  C  C28  1  0.15929000  0.43871000  0.56004000  1.0
  C  C29  1  0.84071000  0.06128000  0.06004000  1.0
  C  C30  1  0.84071000  0.56129000  0.43996000  1.0
  C  C31  1  0.15930000  0.93871000  0.93996000  1.0
  N  N32  1  0.33379000  0.01589000  0.73216000  1.0
  N  N33  1  0.66621000  0.48411000  0.23215000  1.0
  N  N34  1  0.66620000  0.98410000  0.26784000  1.0
  N  N35  1  0.33379000  0.51590000  0.76785000  1.0
  N  N36  1  0.56763000  0.09676000  0.72285000  1.0
  N  N37  1  0.43234000  0.40323000  0.22284000  1.0
  N  N38  1  0.43234000  0.90323000  0.27715000  1.0
  N  N39  1  0.56763000  0.59676000  0.77716000  1.0
  N  N40  1  0.04473000  0.59728000  0.58525000  1.0
  N  N41  1  0.95527000  0.90272000  0.08525000  1.0
  N  N42  1  0.95528000  0.40273000  0.41475000  1.0
  N  N43  1  0.04474000  0.09728000  0.91475000  1.0
  N  N44  1  0.79274000  0.18903000  0.71354000  1.0
  N  N45  1  0.20724000  0.31096000  0.21353000  1.0
  N  N46  1  0.20726000  0.81097000  0.28646000  1.0
  N  N47  1  0.79274000  0.68904000  0.78647000  1.0
