# generated using pymatgen
data_CdH12(C8O3)2
_symmetry_space_group_name_H-M   'P 1'
_cell_length_a   7.53404000
_cell_length_b   7.81877000
_cell_length_c   12.69602690
_cell_angle_alpha   107.93655820
_cell_angle_beta   99.28930566
_cell_angle_gamma   89.98390000
_symmetry_Int_Tables_number   1
_chemical_formula_structural   CdH12(C8O3)2
_chemical_formula_sum   'Cd2 H24 C32 O12'
_cell_volume   701.23037545
_cell_formula_units_Z   2
loop_
 _symmetry_equiv_pos_site_id
 _symmetry_equiv_pos_as_xyz
  1  'x, y, z'
loop_
 _atom_site_type_symbol
 _atom_site_label
 _atom_site_symmetry_multiplicity
 _atom_site_fract_x
 _atom_site_fract_y
 _atom_site_fract_z
 _atom_site_occupancy
  Cd  Cd0  1  0.74993000  0.01562000  0.99992000  1.0
  Cd  Cd1  1  0.25007000  0.98438000  0.00008000  1.0
  H  H2  1  0.57693000  0.84759000  0.32492000  1.0
  H  H3  1  0.92288000  0.52291000  0.67510000  1.0
  H  H4  1  0.42306000  0.15241000  0.67509000  1.0
  H  H5  1  0.07712000  0.47709000  0.32491000  1.0
  H  H6  1  0.22647000  0.11994000  0.55462000  1.0
  H  H7  1  0.27368000  0.56481000  0.44544000  1.0
  H  H8  1  0.77352000  0.88006000  0.44538000  1.0
  H  H9  1  0.72632000  0.43519000  0.55456000  1.0
  H  H10  1  0.98206000  0.07919000  0.39433000  1.0
  H  H11  1  0.51796000  0.68443000  0.60580000  1.0
  H  H12  1  0.01793000  0.92081000  0.60567000  1.0
  H  H13  1  0.48204000  0.31557000  0.39420000  1.0
  H  H14  1  0.47780000  0.57786000  0.16821000  1.0
  H  H15  1  0.02225000  0.40954000  0.83170000  1.0
  H  H16  1  0.52220000  0.42214000  0.83179000  1.0
  H  H17  1  0.97776000  0.59046000  0.16830000  1.0
  H  H18  1  0.61154000  0.76198000  0.15765000  1.0
  H  H19  1  0.88851000  0.60430000  0.84237000  1.0
  H  H20  1  0.38846000  0.23801000  0.84234000  1.0
  H  H21  1  0.11150000  0.39571000  0.15764000  1.0
  H  H22  1  0.46830000  0.62140000  0.03585000  1.0
  H  H23  1  0.03169000  0.58529000  0.96414000  1.0
  H  H24  1  0.53169000  0.37860000  0.96415000  1.0
  H  H25  1  0.96831000  0.41471000  0.03587000  1.0
  C  C26  1  0.98361000  0.93957000  0.17868000  1.0
  C  C27  1  0.51626000  0.76057000  0.82144000  1.0
  C  C28  1  0.01639000  0.06043000  0.82132000  1.0
  C  C29  1  0.48374000  0.23943000  0.17856000  1.0
  C  C30  1  0.13661000  0.94303000  0.26933000  1.0
  C  C31  1  0.36331000  0.67345000  0.73074000  1.0
  C  C32  1  0.86339000  0.05697000  0.73067000  1.0
  C  C33  1  0.63669000  0.32655000  0.26926000  1.0
  C  C34  1  0.30723000  0.87619000  0.25140000  1.0
  C  C35  1  0.19266000  0.62469000  0.74864000  1.0
  C  C36  1  0.69277000  0.12381000  0.74860000  1.0
  C  C37  1  0.80734000  0.37531000  0.25136000  1.0
  C  C38  1  0.44640000  0.89651000  0.34206000  1.0
  C  C39  1  0.05348000  0.55451000  0.65797000  1.0
  C  C40  1  0.55359000  0.10349000  0.65794000  1.0
  C  C41  1  0.94653000  0.44549000  0.34203000  1.0
  C  C42  1  0.42353000  0.98626000  0.45296000  1.0
  C  C43  1  0.07646000  0.53320000  0.54705000  1.0
  C  C44  1  0.57647000  0.01373000  0.54704000  1.0
  C  C45  1  0.92355000  0.46679000  0.45295000  1.0
  C  C46  1  0.25254000  0.05022000  0.47062000  1.0
  C  C47  1  0.24751000  0.57922000  0.52942000  1.0
  C  C48  1  0.74746000  0.94977000  0.52937000  1.0
  C  C49  1  0.75249000  0.42078000  0.47058000  1.0
  C  C50  1  0.11353000  0.02759000  0.38063000  1.0
  C  C51  1  0.38647000  0.64659000  0.61945000  1.0
  C  C52  1  0.88646000  0.97241000  0.61937000  1.0
  C  C53  1  0.61353000  0.35341000  0.38055000  1.0
  C  C54  1  0.48361000  0.68149000  0.12671000  1.0
  C  C55  1  0.01645000  0.55467000  0.87329000  1.0
  C  C56  1  0.51639000  0.31851000  0.87329000  1.0
  C  C57  1  0.98355000  0.44533000  0.12671000  1.0
  O  O58  1  0.01258000  0.91251000  0.07623000  1.0
  O  O59  1  0.48737000  0.83578000  0.92393000  1.0
  O  O60  1  0.98742000  0.08748000  0.92377000  1.0
  O  O61  1  0.51263000  0.16422000  0.07607000  1.0
  O  O62  1  0.82730000  0.96793000  0.20070000  1.0
  O  O63  1  0.67251000  0.76710000  0.79935000  1.0
  O  O64  1  0.17270000  0.03207000  0.79930000  1.0
  O  O65  1  0.32749000  0.23292000  0.20066000  1.0
  O  O66  1  0.33109000  0.79231000  0.14287000  1.0
  O  O67  1  0.16891000  0.64935000  0.85718000  1.0
  O  O68  1  0.66891000  0.20769000  0.85713000  1.0
  O  O69  1  0.83109000  0.35065000  0.14282000  1.0
