# generated using pymatgen
data_Zn3H18C28(N3O2)4
_symmetry_space_group_name_H-M   'P 1'
_cell_length_a   13.09650000
_cell_length_b   13.21630000
_cell_length_c   13.21630000
_cell_angle_alpha   73.47160000
_cell_angle_beta   84.61810000
_cell_angle_gamma   84.61810000
_symmetry_Int_Tables_number   1
_chemical_formula_structural   Zn3H18C28(N3O2)4
_chemical_formula_sum   'Zn6 H36 C56 N24 O16'
_cell_volume   2177.97649950
_cell_formula_units_Z   2
loop_
 _symmetry_equiv_pos_site_id
 _symmetry_equiv_pos_as_xyz
  1  'x, y, z'
loop_
 _atom_site_type_symbol
 _atom_site_label
 _atom_site_symmetry_multiplicity
 _atom_site_fract_x
 _atom_site_fract_y
 _atom_site_fract_z
 _atom_site_occupancy
  Zn  Zn0  1  0.25000000  0.36058000  0.63942000  1.0
  Zn  Zn1  1  0.75000000  0.63942000  0.36058000  1.0
  Zn  Zn2  1  0.00937000  0.61219000  0.72574000  1.0
  Zn  Zn3  1  0.49064000  0.27426000  0.38780000  1.0
  Zn  Zn4  1  0.99063000  0.38781000  0.27426000  1.0
  Zn  Zn5  1  0.50937000  0.72573000  0.61220000  1.0
  H  H6  1  0.19508000  0.65915000  0.55003000  1.0
  H  H7  1  0.30491000  0.44997000  0.34085000  1.0
  H  H8  1  0.80492000  0.34086000  0.44997000  1.0
  H  H9  1  0.69508000  0.55003000  0.65915000  1.0
  H  H10  1  0.01148000  0.86204000  0.69869000  1.0
  H  H11  1  0.48852000  0.30131000  0.13796000  1.0
  H  H12  1  0.98852000  0.13796000  0.30131000  1.0
  H  H13  1  0.51148000  0.69869000  0.86204000  1.0
  H  H14  1  0.25723000  0.86294000  0.46322000  1.0
  H  H15  1  0.24276000  0.53678000  0.13706000  1.0
  H  H16  1  0.74276000  0.13706000  0.53678000  1.0
  H  H17  1  0.75724000  0.46322000  0.86295000  1.0
  H  H18  1  0.06342000  0.01898000  0.70092000  1.0
  H  H19  1  0.43659000  0.29908000  0.98102000  1.0
  H  H20  1  0.93658000  0.98102000  0.29908000  1.0
  H  H21  1  0.56341000  0.70092000  0.01898000  1.0
  H  H22  1  0.05322000  0.21451000  0.65194000  1.0
  H  H23  1  0.44679000  0.34806000  0.78549000  1.0
  H  H24  1  0.94678000  0.78548000  0.34806000  1.0
  H  H25  1  0.55321000  0.65194000  0.21452000  1.0
  H  H26  1  0.19125000  0.22161000  0.34075000  1.0
  H  H27  1  0.30874000  0.65925000  0.77839000  1.0
  H  H28  1  0.80874000  0.77839000  0.65926000  1.0
  H  H29  1  0.69127000  0.34075000  0.22161000  1.0
  H  H30  1  0.19788000  0.02773000  0.38727000  1.0
  H  H31  1  0.30212000  0.61272000  0.97226000  1.0
  H  H32  1  0.80212000  0.97227000  0.61273000  1.0
  H  H33  1  0.69789000  0.38728000  0.02774000  1.0
  H  H34  1  0.05538000  0.46856000  0.93703000  1.0
  H  H35  1  0.44462000  0.06296000  0.53144000  1.0
  H  H36  1  0.94462000  0.53144000  0.06297000  1.0
  H  H37  1  0.55538000  0.93704000  0.46856000  1.0
  H  H38  1  0.18582000  0.25528000  0.98737000  1.0
  H  H39  1  0.31418000  0.01263000  0.74472000  1.0
  H  H40  1  0.81418000  0.74472000  0.01263000  1.0
  H  H41  1  0.68582000  0.98737000  0.25528000  1.0
  C  C42  1  0.16829000  0.73229000  0.56888000  1.0
  C  C43  1  0.33171000  0.43112000  0.26771000  1.0
  C  C44  1  0.83171000  0.26771000  0.43112000  1.0
  C  C45  1  0.66829000  0.56888000  0.73229000  1.0
  C  C46  1  0.07153000  0.83526000  0.64811000  1.0
  C  C47  1  0.42847000  0.35189000  0.16474000  1.0
  C  C48  1  0.92847000  0.16474000  0.35189000  1.0
  C  C49  1  0.57153000  0.64811000  0.83526000  1.0
  C  C50  1  0.19711000  0.83297000  0.52328000  1.0
  C  C51  1  0.30289000  0.47671000  0.16703000  1.0
  C  C52  1  0.80289000  0.16703000  0.47671000  1.0
  C  C53  1  0.69711000  0.52329000  0.83297000  1.0
  C  C54  1  0.13161000  0.01041000  0.54733000  1.0
  C  C55  1  0.36839000  0.45267000  0.98959000  1.0
  C  C56  1  0.86839000  0.98959000  0.45268000  1.0
  C  C57  1  0.63161000  0.54732000  0.01041000  1.0
  C  C58  1  0.09048000  0.06317000  0.62161000  1.0
  C  C59  1  0.40952000  0.37838000  0.93683000  1.0
  C  C60  1  0.90952000  0.93682000  0.37839000  1.0
  C  C61  1  0.59048000  0.62161000  0.06318000  1.0
  C  C62  1  0.08562000  0.17312000  0.59447000  1.0
  C  C63  1  0.41439000  0.40552000  0.82687000  1.0
  C  C64  1  0.91438000  0.82687000  0.40553000  1.0
  C  C65  1  0.58561000  0.59447000  0.17313000  1.0
  C  C66  1  0.12229000  0.23149000  0.49353000  1.0
  C  C67  1  0.37771000  0.50647000  0.76851000  1.0
  C  C68  1  0.87771000  0.76851000  0.50648000  1.0
  C  C69  1  0.62229000  0.49353000  0.23149000  1.0
  C  C70  1  0.16386000  0.17779000  0.42003000  1.0
  C  C71  1  0.33614000  0.57997000  0.82221000  1.0
  C  C72  1  0.83613000  0.82222000  0.57997000  1.0
  C  C73  1  0.66387000  0.42003000  0.17779000  1.0
  C  C74  1  0.16792000  0.06786000  0.44640000  1.0
  C  C75  1  0.33208000  0.55360000  0.93213000  1.0
  C  C76  1  0.83208000  0.93214000  0.55360000  1.0
  C  C77  1  0.66792000  0.44640000  0.06787000  1.0
  C  C78  1  0.11749000  0.34721000  0.46613000  1.0
  C  C79  1  0.38251000  0.53386000  0.65278000  1.0
  C  C80  1  0.88251000  0.65279000  0.53387000  1.0
  C  C81  1  0.61749000  0.46613000  0.34721000  1.0
  C  C82  1  0.14185000  0.41129000  0.81099000  1.0
  C  C83  1  0.35816000  0.18901000  0.58871000  1.0
  C  C84  1  0.85815000  0.58871000  0.18901000  1.0
  C  C85  1  0.64184000  0.81099000  0.41129000  1.0
  C  C86  1  0.10629000  0.40330000  0.92240000  1.0
  C  C87  1  0.39372000  0.07759000  0.59670000  1.0
  C  C88  1  0.89371000  0.59670000  0.07760000  1.0
  C  C89  1  0.60629000  0.92241000  0.40330000  1.0
  C  C90  1  0.13583000  0.32089000  0.00263000  1.0
  C  C91  1  0.36417000  0.99736000  0.67911000  1.0
  C  C92  1  0.86417000  0.67911000  0.99737000  1.0
  C  C93  1  0.63583000  0.00264000  0.32089000  1.0
  C  C94  1  0.09855000  0.31097000  0.11490000  1.0
  C  C95  1  0.40145000  0.88510000  0.68903000  1.0
  C  C96  1  0.90145000  0.68903000  0.88510000  1.0
  C  C97  1  0.59855000  0.11491000  0.31096000  1.0
  N  N98  1  0.09024000  0.73513000  0.64664000  1.0
  N  N99  1  0.40976000  0.35335000  0.26487000  1.0
  N  N100  1  0.90975000  0.26487000  0.35335000  1.0
  N  N101  1  0.59024000  0.64664000  0.73513000  1.0
  N  N102  1  0.13500000  0.89805000  0.57374000  1.0
  N  N103  1  0.36500000  0.42626000  0.10195000  1.0
  N  N104  1  0.86500000  0.10195000  0.42626000  1.0
  N  N105  1  0.63500000  0.57373000  0.89806000  1.0
  N  N106  1  0.07751000  0.41451000  0.38015000  1.0
  N  N107  1  0.42249000  0.61985000  0.58548000  1.0
  N  N108  1  0.92249000  0.58549000  0.61985000  1.0
  N  N109  1  0.57752000  0.38015000  0.41451000  1.0
  N  N110  1  0.08837000  0.51408000  0.38593000  1.0
  N  N111  1  0.41162000  0.61407000  0.48592000  1.0
  N  N112  1  0.91163000  0.48592000  0.61407000  1.0
  N  N113  1  0.58838000  0.38593000  0.51408000  1.0
  N  N114  1  0.13339000  0.50763000  0.47141000  1.0
  N  N115  1  0.36661000  0.52859000  0.49236000  1.0
  N  N116  1  0.86661000  0.49237000  0.52859000  1.0
  N  N117  1  0.63339000  0.47141000  0.50763000  1.0
  N  N118  1  0.15259000  0.40389000  0.52357000  1.0
  N  N119  1  0.34741000  0.47643000  0.59610000  1.0
  N  N120  1  0.84741000  0.59611000  0.47644000  1.0
  N  N121  1  0.65259000  0.52357000  0.40390000  1.0
  O  O122  1  0.11859000  0.49512000  0.73779000  1.0
  O  O123  1  0.38141000  0.26220000  0.50487000  1.0
  O  O124  1  0.88141000  0.50488000  0.26221000  1.0
  O  O125  1  0.61859000  0.73780000  0.49513000  1.0
  O  O126  1  0.19814000  0.33459000  0.79009000  1.0
  O  O127  1  0.30186000  0.20991000  0.66540000  1.0
  O  O128  1  0.80186000  0.66541000  0.20991000  1.0
  O  O129  1  0.69814000  0.79009000  0.33459000  1.0
  O  O130  1  0.10845000  0.22308000  0.18230000  1.0
  O  O131  1  0.39155000  0.81770000  0.77693000  1.0
  O  O132  1  0.89155000  0.77693000  0.81770000  1.0
  O  O133  1  0.60845000  0.18230000  0.22307000  1.0
  O  O134  1  0.05572000  0.39743000  0.13412000  1.0
  O  O135  1  0.44428000  0.86587000  0.60258000  1.0
  O  O136  1  0.94428000  0.60258000  0.86588000  1.0
  O  O137  1  0.55572000  0.13413000  0.39742000  1.0
