# generated using pymatgen
data_ZnH24C30(NO2)2
_symmetry_space_group_name_H-M   'P 1'
_cell_length_a   15.45380000
_cell_length_b   21.82480000
_cell_length_c   21.82480000
_cell_angle_alpha   120.00000000
_cell_angle_beta   90.00000000
_cell_angle_gamma   90.00000000
_symmetry_Int_Tables_number   1
_chemical_formula_structural   ZnH24C30(NO2)2
_chemical_formula_sum   'Zn6 H144 C180 N12 O24'
_cell_volume   6374.79853599
_cell_formula_units_Z   6
loop_
 _symmetry_equiv_pos_site_id
 _symmetry_equiv_pos_as_xyz
  1  'x, y, z'
loop_
 _atom_site_type_symbol
 _atom_site_label
 _atom_site_symmetry_multiplicity
 _atom_site_fract_x
 _atom_site_fract_y
 _atom_site_fract_z
 _atom_site_occupancy
  Zn  Zn0  1  0.24791000  0.00257000  0.50017000  1.0
  Zn  Zn1  1  0.24791000  0.49760000  0.99743000  1.0
  Zn  Zn2  1  0.24791000  0.49983000  0.50240000  1.0
  Zn  Zn3  1  0.75209000  0.99743000  0.49983000  1.0
  Zn  Zn4  1  0.75209000  0.50240000  0.00257000  1.0
  Zn  Zn5  1  0.75209000  0.50017000  0.49760000  1.0
  H  H6  1  0.45167000  0.39548000  0.48448000  1.0
  H  H7  1  0.45167000  0.08900000  0.60453000  1.0
  H  H8  1  0.45167000  0.51553000  0.91101000  1.0
  H  H9  1  0.54833000  0.60452000  0.51552000  1.0
  H  H10  1  0.54833000  0.91100000  0.39547000  1.0
  H  H11  1  0.54833000  0.48447000  0.08899000  1.0
  H  H12  1  0.05102000  0.61330000  0.52897000  1.0
  H  H13  1  0.05102000  0.91567000  0.38670000  1.0
  H  H14  1  0.05102000  0.47103000  0.08433000  1.0
  H  H15  1  0.94898000  0.38670000  0.47103000  1.0
  H  H16  1  0.94898000  0.08433000  0.61330000  1.0
  H  H17  1  0.94898000  0.52897000  0.91567000  1.0
  H  H18  1  0.93723000  0.53104000  0.52438000  1.0
  H  H19  1  0.93723000  0.99334000  0.46896000  1.0
  H  H20  1  0.93723000  0.47562000  0.00666000  1.0
  H  H21  1  0.06277000  0.46896000  0.47562000  1.0
  H  H22  1  0.06277000  0.00666000  0.53104000  1.0
  H  H23  1  0.06277000  0.52438000  0.99334000  1.0
  H  H24  1  0.29838000  0.86737000  0.59447000  1.0
  H  H25  1  0.29838000  0.72710000  0.13263000  1.0
  H  H26  1  0.29838000  0.40553000  0.27290000  1.0
  H  H27  1  0.70162000  0.13263000  0.40553000  1.0
  H  H28  1  0.70162000  0.27290000  0.86737000  1.0
  H  H29  1  0.70162000  0.59447000  0.72710000  1.0
  H  H30  1  0.20278000  0.13688000  0.40417000  1.0
  H  H31  1  0.20278000  0.26729000  0.86311000  1.0
  H  H32  1  0.20278000  0.59582000  0.73270000  1.0
  H  H33  1  0.79722000  0.86312000  0.59583000  1.0
  H  H34  1  0.79722000  0.73271000  0.13689000  1.0
  H  H35  1  0.79722000  0.40418000  0.26730000  1.0
  H  H36  1  0.56457000  0.47945000  0.49113000  1.0
  H  H37  1  0.56457000  0.01168000  0.52054000  1.0
  H  H38  1  0.56457000  0.50886000  0.98831000  1.0
  H  H39  1  0.43543000  0.52055000  0.50887000  1.0
  H  H40  1  0.43543000  0.98832000  0.47946000  1.0
  H  H41  1  0.43543000  0.49114000  0.01169000  1.0
  H  H42  1  0.07197000  0.84042000  0.44829000  1.0
  H  H43  1  0.07197000  0.60787000  0.15958000  1.0
  H  H44  1  0.07197000  0.55171000  0.39213000  1.0
  H  H45  1  0.92803000  0.15958000  0.55171000  1.0
  H  H46  1  0.92803000  0.39213000  0.84042000  1.0
  H  H47  1  0.92803000  0.44829000  0.60787000  1.0
  H  H48  1  0.85097000  0.71961000  0.47688000  1.0
  H  H49  1  0.85097000  0.75727000  0.28038000  1.0
  H  H50  1  0.85097000  0.52311000  0.24272000  1.0
  H  H51  1  0.14903000  0.28039000  0.52312000  1.0
  H  H52  1  0.14903000  0.24273000  0.71961000  1.0
  H  H53  1  0.14903000  0.47689000  0.75728000  1.0
  H  H54  1  0.96459000  0.74939000  0.43262000  1.0
  H  H55  1  0.96459000  0.68323000  0.25061000  1.0
  H  H56  1  0.96459000  0.56738000  0.31677000  1.0
  H  H57  1  0.03541000  0.25061000  0.56738000  1.0
  H  H58  1  0.03541000  0.31677000  0.74939000  1.0
  H  H59  1  0.03541000  0.43262000  0.68323000  1.0
  H  H60  1  0.38151000  0.30593000  0.43797000  1.0
  H  H61  1  0.38151000  0.13204000  0.69407000  1.0
  H  H62  1  0.38151000  0.56203000  0.86796000  1.0
  H  H63  1  0.61849000  0.69407000  0.56203000  1.0
  H  H64  1  0.61849000  0.86796000  0.30593000  1.0
  H  H65  1  0.61849000  0.43797000  0.13204000  1.0
  H  H66  1  0.27427000  0.21902000  0.42613000  1.0
  H  H67  1  0.27427000  0.20711000  0.78098000  1.0
  H  H68  1  0.27427000  0.57387000  0.79289000  1.0
  H  H69  1  0.72573000  0.78098000  0.57387000  1.0
  H  H70  1  0.72573000  0.79289000  0.21902000  1.0
  H  H71  1  0.72573000  0.42613000  0.20711000  1.0
  H  H72  1  0.65966000  0.26805000  0.49640000  1.0
  H  H73  1  0.65966000  0.22835000  0.73195000  1.0
  H  H74  1  0.65966000  0.50360000  0.77165000  1.0
  H  H75  1  0.34034000  0.73195000  0.50360000  1.0
  H  H76  1  0.34034000  0.77165000  0.26805000  1.0
  H  H77  1  0.34034000  0.49640000  0.22835000  1.0
  H  H78  1  0.01823000  0.04904000  0.39386000  1.0
  H  H79  1  0.01823000  0.34482000  0.95096000  1.0
  H  H80  1  0.01823000  0.60614000  0.65518000  1.0
  H  H81  1  0.98177000  0.95096000  0.60614000  1.0
  H  H82  1  0.98177000  0.65518000  0.04904000  1.0
  H  H83  1  0.98177000  0.39386000  0.34482000  1.0
  H  H84  1  0.07668000  0.08799000  0.35154000  1.0
  H  H85  1  0.07668000  0.26355000  0.91201000  1.0
  H  H86  1  0.07668000  0.64846000  0.73645000  1.0
  H  H87  1  0.92332000  0.91201000  0.64846000  1.0
  H  H88  1  0.92332000  0.73645000  0.08799000  1.0
  H  H89  1  0.92332000  0.35154000  0.26355000  1.0
  H  H90  1  0.07368000  0.99404000  0.31392000  1.0
  H  H91  1  0.07368000  0.31988000  0.00596000  1.0
  H  H92  1  0.07368000  0.68608000  0.68012000  1.0
  H  H93  1  0.92632000  0.00596000  0.68608000  1.0
  H  H94  1  0.92632000  0.68012000  0.99404000  1.0
  H  H95  1  0.92632000  0.31392000  0.31988000  1.0
  H  H96  1  0.10191000  0.71862000  0.58747000  1.0
  H  H97  1  0.10191000  0.86885000  0.28138000  1.0
  H  H98  1  0.10191000  0.41253000  0.13115000  1.0
  H  H99  1  0.89809000  0.28138000  0.41253000  1.0
  H  H100  1  0.89809000  0.13115000  0.71862000  1.0
  H  H101  1  0.89809000  0.58747000  0.86885000  1.0
  H  H102  1  0.74753000  0.62841000  0.47017000  1.0
  H  H103  1  0.74753000  0.84177000  0.37160000  1.0
  H  H104  1  0.74753000  0.52983000  0.15823000  1.0
  H  H105  1  0.25247000  0.37160000  0.52983000  1.0
  H  H106  1  0.25247000  0.15823000  0.62840000  1.0
  H  H107  1  0.25247000  0.47017000  0.84177000  1.0
  H  H108  1  0.20660000  0.80951000  0.60323000  1.0
  H  H109  1  0.20660000  0.79372000  0.19049000  1.0
  H  H110  1  0.20660000  0.39677000  0.20628000  1.0
  H  H111  1  0.79340000  0.19049000  0.39677000  1.0
  H  H112  1  0.79340000  0.20627000  0.80950000  1.0
  H  H113  1  0.79340000  0.60323000  0.79372000  1.0
  H  H114  1  0.56277000  0.22030000  0.52683000  1.0
  H  H115  1  0.56277000  0.30653000  0.77970000  1.0
  H  H116  1  0.56277000  0.47317000  0.69347000  1.0
  H  H117  1  0.43723000  0.77970000  0.47317000  1.0
  H  H118  1  0.43723000  0.69347000  0.22030000  1.0
  H  H119  1  0.43723000  0.52683000  0.30653000  1.0
  H  H120  1  0.45302000  0.13285000  0.51446000  1.0
  H  H121  1  0.45302000  0.38161000  0.86715000  1.0
  H  H122  1  0.45302000  0.48554000  0.61839000  1.0
  H  H123  1  0.54698000  0.86715000  0.48554000  1.0
  H  H124  1  0.54698000  0.61839000  0.13285000  1.0
  H  H125  1  0.54698000  0.51446000  0.38161000  1.0
  H  H126  1  0.47391000  0.97923000  0.62665000  1.0
  H  H127  1  0.47391000  0.64742000  0.02076000  1.0
  H  H128  1  0.47391000  0.37334000  0.35258000  1.0
  H  H129  1  0.52609000  0.02076000  0.37334000  1.0
  H  H130  1  0.52609000  0.35258000  0.97924000  1.0
  H  H131  1  0.52609000  0.62666000  0.64743000  1.0
  H  H132  1  0.42235000  0.92053000  0.65007000  1.0
  H  H133  1  0.42235000  0.72954000  0.07948000  1.0
  H  H134  1  0.42235000  0.34993000  0.27046000  1.0
  H  H135  1  0.57765000  0.07947000  0.34993000  1.0
  H  H136  1  0.57765000  0.27046000  0.92052000  1.0
  H  H137  1  0.57765000  0.65007000  0.72954000  1.0
  H  H138  1  0.40191000  0.01340000  0.69927000  1.0
  H  H139  1  0.40191000  0.68587000  0.98660000  1.0
  H  H140  1  0.40191000  0.30073000  0.31413000  1.0
  H  H141  1  0.59809000  0.98660000  0.30073000  1.0
  H  H142  1  0.59809000  0.31413000  0.01340000  1.0
  H  H143  1  0.59809000  0.69927000  0.68587000  1.0
  H  H144  1  0.76177000  0.36058000  0.50638000  1.0
  H  H145  1  0.76177000  0.14580000  0.63942000  1.0
  H  H146  1  0.76177000  0.49362000  0.85420000  1.0
  H  H147  1  0.23823000  0.63942000  0.49362000  1.0
  H  H148  1  0.23823000  0.85420000  0.36058000  1.0
  H  H149  1  0.23823000  0.50638000  0.14580000  1.0
  C  C150  1  0.51948000  0.38447000  0.48901000  1.0
  C  C151  1  0.51948000  0.10454000  0.61553000  1.0
  C  C152  1  0.51948000  0.51099000  0.89546000  1.0
  C  C153  1  0.48052000  0.61553000  0.51099000  1.0
  C  C154  1  0.48052000  0.89546000  0.38447000  1.0
  C  C155  1  0.48052000  0.48901000  0.10454000  1.0
  C  C156  1  0.20614000  0.88979000  0.53517000  1.0
  C  C157  1  0.20614000  0.64538000  0.11021000  1.0
  C  C158  1  0.20614000  0.46483000  0.35462000  1.0
  C  C159  1  0.79386000  0.11021000  0.46483000  1.0
  C  C160  1  0.79386000  0.35461000  0.88978000  1.0
  C  C161  1  0.79386000  0.53517000  0.64538000  1.0
  C  C162  1  0.98464000  0.62007000  0.51625000  1.0
  C  C163  1  0.98464000  0.89618000  0.37992000  1.0
  C  C164  1  0.98464000  0.48374000  0.10381000  1.0
  C  C165  1  0.01536000  0.37992000  0.48374000  1.0
  C  C166  1  0.01536000  0.10382000  0.62008000  1.0
  C  C167  1  0.01536000  0.51626000  0.89619000  1.0
  C  C168  1  0.29387000  0.11331000  0.46332000  1.0
  C  C169  1  0.29387000  0.35001000  0.88670000  1.0
  C  C170  1  0.29387000  0.53668000  0.64999000  1.0
  C  C171  1  0.70613000  0.88669000  0.53668000  1.0
  C  C172  1  0.70613000  0.64999000  0.11330000  1.0
  C  C173  1  0.70613000  0.46331000  0.35000000  1.0
  C  C174  1  0.35603000  0.16875000  0.46925000  1.0
  C  C175  1  0.35603000  0.30050000  0.83126000  1.0
  C  C176  1  0.35603000  0.53076000  0.69951000  1.0
  C  C177  1  0.64397000  0.83125000  0.53075000  1.0
  C  C178  1  0.64397000  0.69950000  0.16874000  1.0
  C  C179  1  0.64397000  0.46924000  0.30049000  1.0
  C  C180  1  0.96095000  0.67470000  0.50323000  1.0
  C  C181  1  0.96095000  0.82853000  0.32530000  1.0
  C  C182  1  0.96095000  0.49677000  0.17147000  1.0
  C  C183  1  0.03905000  0.32530000  0.49677000  1.0
  C  C184  1  0.03905000  0.17147000  0.67470000  1.0
  C  C185  1  0.03905000  0.50323000  0.82853000  1.0
  C  C186  1  0.92198000  0.57312000  0.51305000  1.0
  C  C187  1  0.92198000  0.93994000  0.42688000  1.0
  C  C188  1  0.92198000  0.48694000  0.06006000  1.0
  C  C189  1  0.07802000  0.42688000  0.48694000  1.0
  C  C190  1  0.07802000  0.06006000  0.57312000  1.0
  C  C191  1  0.07802000  0.51306000  0.93994000  1.0
  C  C192  1  0.54524000  0.32307000  0.48986000  1.0
  C  C193  1  0.54523000  0.16679000  0.67693000  1.0
  C  C194  1  0.54523000  0.51014000  0.83321000  1.0
  C  C195  1  0.45476000  0.67693000  0.51014000  1.0
  C  C196  1  0.45477000  0.83321000  0.32307000  1.0
  C  C197  1  0.45477000  0.48986000  0.16679000  1.0
  C  C198  1  0.14723000  0.83120000  0.52595000  1.0
  C  C199  1  0.14723000  0.69475000  0.16881000  1.0
  C  C200  1  0.14723000  0.47406000  0.30526000  1.0
  C  C201  1  0.85277000  0.16880000  0.47405000  1.0
  C  C202  1  0.85277000  0.30525000  0.83119000  1.0
  C  C203  1  0.85277000  0.52594000  0.69474000  1.0
  C  C204  1  0.28262000  0.90338000  0.57528000  1.0
  C  C205  1  0.28262000  0.67190000  0.09662000  1.0
  C  C206  1  0.28262000  0.42472000  0.32810000  1.0
  C  C207  1  0.71738000  0.09662000  0.42472000  1.0
  C  C208  1  0.71738000  0.32810000  0.90339000  1.0
  C  C209  1  0.71738000  0.57528000  0.67190000  1.0
  C  C210  1  0.21633000  0.10178000  0.42486000  1.0
  C  C211  1  0.21633000  0.32308000  0.89822000  1.0
  C  C212  1  0.21633000  0.57514000  0.67692000  1.0
  C  C213  1  0.78367000  0.89822000  0.57514000  1.0
  C  C214  1  0.78367000  0.67692000  0.10178000  1.0
  C  C215  1  0.78367000  0.42486000  0.32308000  1.0
  C  C216  1  0.15591000  0.04643000  0.40578000  1.0
  C  C217  1  0.15591000  0.35935000  0.95356000  1.0
  C  C218  1  0.15591000  0.59421000  0.64064000  1.0
  C  C219  1  0.84409000  0.95357000  0.59422000  1.0
  C  C220  1  0.84409000  0.64065000  0.04644000  1.0
  C  C221  1  0.84409000  0.40579000  0.35936000  1.0
  C  C222  1  0.58172000  0.43206000  0.49308000  1.0
  C  C223  1  0.58172000  0.06102000  0.56793000  1.0
  C  C224  1  0.58172000  0.50691000  0.93897000  1.0
  C  C225  1  0.41828000  0.56794000  0.50692000  1.0
  C  C226  1  0.41828000  0.93898000  0.43207000  1.0
  C  C227  1  0.41828000  0.49309000  0.06103000  1.0
  C  C228  1  0.33916000  0.96179000  0.59783000  1.0
  C  C229  1  0.33915000  0.63604000  0.03821000  1.0
  C  C230  1  0.33916000  0.40217000  0.36396000  1.0
  C  C231  1  0.66084000  0.03821000  0.40217000  1.0
  C  C232  1  0.66085000  0.36396000  0.96179000  1.0
  C  C233  1  0.66084000  0.59783000  0.63604000  1.0
  C  C234  1  0.02500000  0.72734000  0.50929000  1.0
  C  C235  1  0.02500000  0.78195000  0.27266000  1.0
  C  C236  1  0.02500000  0.49071000  0.21805000  1.0
  C  C237  1  0.97500000  0.27266000  0.49071000  1.0
  C  C238  1  0.97500000  0.21805000  0.72734000  1.0
  C  C239  1  0.97500000  0.50929000  0.78195000  1.0
  C  C240  1  0.48106000  0.27014000  0.48315000  1.0
  C  C241  1  0.48106000  0.21301000  0.72986000  1.0
  C  C242  1  0.48106000  0.51685000  0.78699000  1.0
  C  C243  1  0.51894000  0.72986000  0.51685000  1.0
  C  C244  1  0.51894000  0.78699000  0.27014000  1.0
  C  C245  1  0.51894000  0.48315000  0.21301000  1.0
  C  C246  1  0.07785000  0.81306000  0.47829000  1.0
  C  C247  1  0.07785000  0.66523000  0.18693000  1.0
  C  C248  1  0.07785000  0.52170000  0.33476000  1.0
  C  C249  1  0.92215000  0.18694000  0.52171000  1.0
  C  C250  1  0.92215000  0.33477000  0.81307000  1.0
  C  C251  1  0.92215000  0.47830000  0.66524000  1.0
  C  C252  1  0.87391000  0.67761000  0.48601000  1.0
  C  C253  1  0.87391000  0.80840000  0.32239000  1.0
  C  C254  1  0.87391000  0.51399000  0.19160000  1.0
  C  C255  1  0.12609000  0.32239000  0.51399000  1.0
  C  C256  1  0.12609000  0.19160000  0.67761000  1.0
  C  C257  1  0.12609000  0.48601000  0.80840000  1.0
  C  C258  1  0.01758000  0.76236000  0.47021000  1.0
  C  C259  1  0.01758000  0.70785000  0.23764000  1.0
  C  C260  1  0.01758000  0.52979000  0.29215000  1.0
  C  C261  1  0.98242000  0.23764000  0.52979000  1.0
  C  C262  1  0.98242000  0.29215000  0.76236000  1.0
  C  C263  1  0.98242000  0.47020000  0.70784000  1.0
  C  C264  1  0.39838000  0.26827000  0.45509000  1.0
  C  C265  1  0.39838000  0.18682000  0.73173000  1.0
  C  C266  1  0.39838000  0.54491000  0.81318000  1.0
  C  C267  1  0.60162000  0.73173000  0.54491000  1.0
  C  C268  1  0.60162000  0.81318000  0.26827000  1.0
  C  C269  1  0.60162000  0.45509000  0.18682000  1.0
  C  C270  1  0.33733000  0.21843000  0.44810000  1.0
  C  C271  1  0.33733000  0.22967000  0.78157000  1.0
  C  C272  1  0.33733000  0.55190000  0.77033000  1.0
  C  C273  1  0.66267000  0.78157000  0.55190000  1.0
  C  C274  1  0.66267000  0.77033000  0.21843000  1.0
  C  C275  1  0.66267000  0.44810000  0.22967000  1.0
  C  C276  1  0.63446000  0.31468000  0.49639000  1.0
  C  C277  1  0.63446000  0.18171000  0.68532000  1.0
  C  C278  1  0.63446000  0.50361000  0.81828000  1.0
  C  C279  1  0.36554000  0.68532000  0.50361000  1.0
  C  C280  1  0.36554000  0.81829000  0.31468000  1.0
  C  C281  1  0.36554000  0.49639000  0.18172000  1.0
  C  C282  1  0.07707000  0.04495000  0.36368000  1.0
  C  C283  1  0.07707000  0.31873000  0.95505000  1.0
  C  C284  1  0.07707000  0.63632000  0.68127000  1.0
  C  C285  1  0.92293000  0.95505000  0.63632000  1.0
  C  C286  1  0.92293000  0.68127000  0.04495000  1.0
  C  C287  1  0.92293000  0.36368000  0.31873000  1.0
  C  C288  1  0.09523000  0.74460000  0.55611000  1.0
  C  C289  1  0.09523000  0.81151000  0.25539000  1.0
  C  C290  1  0.09523000  0.44388000  0.18848000  1.0
  C  C291  1  0.90477000  0.25540000  0.44389000  1.0
  C  C292  1  0.90477000  0.18849000  0.74461000  1.0
  C  C293  1  0.90477000  0.55612000  0.81152000  1.0
  C  C294  1  0.81561000  0.62768000  0.48309000  1.0
  C  C295  1  0.81561000  0.85541000  0.37232000  1.0
  C  C296  1  0.81561000  0.51691000  0.14459000  1.0
  C  C297  1  0.18439000  0.37232000  0.51691000  1.0
  C  C298  1  0.18439000  0.14459000  0.62768000  1.0
  C  C299  1  0.18439000  0.48309000  0.85541000  1.0
  C  C300  1  0.15490000  0.79589000  0.56462000  1.0
  C  C301  1  0.15490000  0.76873000  0.20411000  1.0
  C  C302  1  0.15490000  0.43538000  0.23127000  1.0
  C  C303  1  0.84510000  0.20411000  0.43538000  1.0
  C  C304  1  0.84510000  0.23127000  0.79589000  1.0
  C  C305  1  0.84510000  0.56462000  0.76873000  1.0
  C  C306  1  0.49986000  0.22025000  0.50414000  1.0
  C  C307  1  0.49986000  0.28389000  0.77975000  1.0
  C  C308  1  0.49986000  0.49586000  0.71611000  1.0
  C  C309  1  0.50014000  0.77975000  0.49586000  1.0
  C  C310  1  0.50014000  0.71611000  0.22025000  1.0
  C  C311  1  0.50014000  0.50414000  0.28389000  1.0
  C  C312  1  0.43842000  0.17089000  0.49751000  1.0
  C  C313  1  0.43842000  0.32662000  0.82911000  1.0
  C  C314  1  0.43842000  0.50249000  0.67338000  1.0
  C  C315  1  0.56158000  0.82911000  0.50249000  1.0
  C  C316  1  0.56158000  0.67338000  0.17089000  1.0
  C  C317  1  0.56158000  0.49751000  0.32662000  1.0
  C  C318  1  0.41359000  0.96819000  0.64596000  1.0
  C  C319  1  0.41359000  0.67777000  0.03181000  1.0
  C  C320  1  0.41359000  0.35404000  0.32223000  1.0
  C  C321  1  0.58640000  0.03181000  0.35404000  1.0
  C  C322  1  0.58640000  0.32223000  0.96819000  1.0
  C  C323  1  0.58640000  0.64596000  0.67777000  1.0
  C  C324  1  0.69230000  0.36574000  0.50131000  1.0
  C  C325  1  0.69230000  0.13557000  0.63426000  1.0
  C  C326  1  0.69230000  0.49869000  0.86443000  1.0
  C  C327  1  0.30770000  0.63426000  0.49869000  1.0
  C  C328  1  0.30770000  0.86443000  0.36574000  1.0
  C  C329  1  0.30770000  0.50131000  0.13557000  1.0
  N  N330  1  0.66666667  0.42345000  0.49920000  1.0
  N  N331  1  0.66666667  0.07575000  0.57655000  1.0
  N  N332  1  0.66666667  0.50080000  0.92425000  1.0
  N  N333  1  0.33327000  0.57655000  0.50080000  1.0
  N  N334  1  0.33327000  0.92425000  0.42345000  1.0
  N  N335  1  0.33327000  0.49920000  0.07575000  1.0
  N  N336  1  0.83887000  0.57649000  0.49685000  1.0
  N  N337  1  0.83887000  0.92037000  0.42351000  1.0
  N  N338  1  0.83887000  0.50314000  0.07963000  1.0
  N  N339  1  0.16113000  0.42351000  0.50315000  1.0
  N  N340  1  0.16113000  0.07963000  0.57649000  1.0
  N  N341  1  0.16113000  0.49685000  0.92036000  1.0
  O  O342  1  0.17972000  0.92419000  0.50548000  1.0
  O  O343  1  0.17972000  0.58129000  0.07581000  1.0
  O  O344  1  0.17972000  0.49452000  0.41871000  1.0
  O  O345  1  0.82028000  0.07581000  0.49453000  1.0
  O  O346  1  0.82028000  0.41871000  0.92419000  1.0
  O  O347  1  0.82028000  0.50548000  0.58129000  1.0
  O  O348  1  0.31829000  0.07949000  0.49421000  1.0
  O  O349  1  0.31829000  0.41473000  0.92052000  1.0
  O  O350  1  0.31829000  0.50579000  0.58528000  1.0
  O  O351  1  0.68171000  0.92051000  0.50579000  1.0
  O  O352  1  0.68171000  0.58528000  0.07949000  1.0
  O  O353  1  0.68171000  0.49421000  0.41472000  1.0
  O  O354  1  0.33235000  0.01112000  0.58274000  1.0
  O  O355  1  0.33235000  0.57162000  0.98888000  1.0
  O  O356  1  0.33235000  0.41726000  0.42838000  1.0
  O  O357  1  0.66764000  0.98888000  0.41726000  1.0
  O  O358  1  0.66765000  0.42838000  0.01112000  1.0
  O  O359  1  0.66765000  0.58274000  0.57162000  1.0
  O  O360  1  0.16163000  0.99653000  0.42014000  1.0
  O  O361  1  0.16163000  0.42361000  0.00347000  1.0
  O  O362  1  0.16163000  0.57986000  0.57639000  1.0
  O  O363  1  0.83837000  0.00347000  0.57986000  1.0
  O  O364  1  0.83837000  0.57639000  0.99653000  1.0
  O  O365  1  0.83837000  0.42014000  0.42361000  1.0
