# generated using pymatgen
data_TbH21(C9O2)3
_symmetry_space_group_name_H-M   'P 1'
_cell_length_a   7.56517000
_cell_length_b   13.28220000
_cell_length_c   13.28230000
_cell_angle_alpha   116.48000000
_cell_angle_beta   100.94100000
_cell_angle_gamma   100.94100000
_symmetry_Int_Tables_number   1
_chemical_formula_structural   TbH21(C9O2)3
_chemical_formula_sum   'Tb2 H42 C54 O12'
_cell_volume   1114.25111008
_cell_formula_units_Z   2
loop_
 _symmetry_equiv_pos_site_id
 _symmetry_equiv_pos_as_xyz
  1  'x, y, z'
loop_
 _atom_site_type_symbol
 _atom_site_label
 _atom_site_symmetry_multiplicity
 _atom_site_fract_x
 _atom_site_fract_y
 _atom_site_fract_z
 _atom_site_occupancy
  Tb  Tb0  1  0.83256000  0.00005000  0.00005000  1.0
  Tb  Tb1  1  0.33255000  0.00005000  0.00005000  1.0
  H  H2  1  0.26141000  0.65234000  0.82495000  1.0
  H  H3  1  0.60872000  0.17261000  0.34760000  1.0
  H  H4  1  0.43628000  0.17514000  0.82746000  1.0
  H  H5  1  0.93628000  0.82746000  0.17514000  1.0
  H  H6  1  0.76141000  0.82496000  0.65234000  1.0
  H  H7  1  0.10872000  0.34760000  0.17261000  1.0
  H  H8  1  0.59927000  0.62201000  0.96703000  1.0
  H  H9  1  0.97685000  0.34497000  0.37784000  1.0
  H  H10  1  0.63193000  0.03295000  0.65504000  1.0
  H  H11  1  0.13193000  0.65504000  0.03295000  1.0
  H  H12  1  0.09927000  0.96703000  0.62201000  1.0
  H  H13  1  0.47685000  0.37784000  0.34497000  1.0
  H  H14  1  0.52880000  0.47467000  0.01923000  1.0
  H  H15  1  0.05394000  0.54449000  0.52525000  1.0
  H  H16  1  0.50961000  0.98084000  0.45552000  1.0
  H  H17  1  0.00961000  0.45552000  0.98084000  1.0
  H  H18  1  0.02880000  0.01923000  0.47467000  1.0
  H  H19  1  0.55394000  0.52525000  0.54449000  1.0
  H  H20  1  0.32676000  0.28540000  0.98498000  1.0
  H  H21  1  0.04148000  0.69946000  0.71462000  1.0
  H  H22  1  0.34179000  0.01511000  0.30051000  1.0
  H  H23  1  0.84179000  0.30051000  0.01511000  1.0
  H  H24  1  0.82676000  0.98498000  0.28540000  1.0
  H  H25  1  0.54148000  0.71462000  0.69946000  1.0
  H  H26  1  0.01304000  0.18009000  0.82752000  1.0
  H  H27  1  0.83304000  0.64732000  0.82000000  1.0
  H  H28  1  0.18535000  0.17246000  0.35255000  1.0
  H  H29  1  0.68534000  0.35255000  0.17246000  1.0
  H  H30  1  0.51304000  0.82752000  0.18009000  1.0
  H  H31  1  0.33304000  0.82000000  0.64733000  1.0
  H  H32  1  0.90465000  0.26745000  0.70398000  1.0
  H  H33  1  0.63716000  0.43650000  0.73257000  1.0
  H  H34  1  0.20032000  0.29598000  0.56339000  1.0
  H  H35  1  0.70032000  0.56339000  0.29598000  1.0
  H  H36  1  0.40465000  0.70398000  0.26745000  1.0
  H  H37  1  0.13716000  0.73257000  0.43650000  1.0
  H  H38  1  0.10469000  0.45717000  0.73904000  1.0
  H  H39  1  0.64714000  0.28187000  0.54276000  1.0
  H  H40  1  0.36510000  0.26085000  0.71807000  1.0
  H  H41  1  0.86510000  0.71807000  0.26086000  1.0
  H  H42  1  0.60469000  0.73904000  0.45717000  1.0
  H  H43  1  0.14714000  0.54276000  0.28187000  1.0
  C  C44  1  0.54214000  0.78378000  0.91539000  1.0
  C  C45  1  0.75821000  0.13163000  0.21620000  1.0
  C  C46  1  0.62666000  0.08466000  0.86845000  1.0
  C  C47  1  0.12666000  0.86844000  0.08466000  1.0
  C  C48  1  0.04214000  0.91540000  0.78378000  1.0
  C  C49  1  0.25821000  0.21619000  0.13163000  1.0
  C  C50  1  0.40486000  0.66961000  0.87655000  1.0
  C  C51  1  0.73484000  0.20696000  0.33029000  1.0
  C  C52  1  0.52810000  0.12351000  0.79313000  1.0
  C  C53  1  0.02810000  0.79313000  0.12351000  1.0
  C  C54  1  0.90486000  0.87655000  0.66961000  1.0
  C  C55  1  0.23484000  0.33029000  0.20695000  1.0
  C  C56  1  0.45396000  0.59393000  0.90997000  1.0
  C  C57  1  0.85963000  0.31603000  0.40595000  1.0
  C  C58  1  0.54374000  0.09006000  0.68402000  1.0
  C  C59  1  0.04374000  0.68402000  0.09006000  1.0
  C  C60  1  0.95396000  0.90997000  0.59393000  1.0
  C  C61  1  0.35963000  0.40595000  0.31603000  1.0
  C  C62  1  0.33098000  0.48054000  0.88288000  1.0
  C  C63  1  0.85017000  0.40231000  0.51939000  1.0
  C  C64  1  0.44792000  0.11717000  0.59771000  1.0
  C  C65  1  0.94792000  0.59771000  0.11717000  1.0
  C  C66  1  0.83098000  0.88288000  0.48054000  1.0
  C  C67  1  0.35017000  0.51939000  0.40231000  1.0
  C  C68  1  0.39165000  0.42923000  0.95028000  1.0
  C  C69  1  0.96225000  0.52099000  0.57073000  1.0
  C  C70  1  0.44138000  0.04980000  0.47903000  1.0
  C  C71  1  0.94138000  0.47903000  0.04980000  1.0
  C  C72  1  0.89165000  0.95028000  0.42923000  1.0
  C  C73  1  0.46224000  0.57073000  0.52099000  1.0
  C  C74  1  0.27753000  0.32278000  0.93105000  1.0
  C  C75  1  0.95475000  0.60820000  0.67724000  1.0
  C  C76  1  0.34640000  0.06900000  0.39180000  1.0
  C  C77  1  0.84640000  0.39180000  0.06900000  1.0
  C  C78  1  0.77754000  0.93105000  0.32278000  1.0
  C  C79  1  0.45475000  0.67724000  0.60820000  1.0
  C  C80  1  0.10175000  0.26362000  0.84246000  1.0
  C  C81  1  0.83816000  0.57877000  0.73643000  1.0
  C  C82  1  0.25909000  0.15755000  0.42117000  1.0
  C  C83  1  0.75909000  0.42117000  0.15755000  1.0
  C  C84  1  0.60175000  0.84246000  0.26362000  1.0
  C  C85  1  0.33816000  0.73643000  0.57877000  1.0
  C  C86  1  0.04104000  0.31298000  0.77369000  1.0
  C  C87  1  0.72803000  0.46065000  0.68703000  1.0
  C  C88  1  0.26707000  0.22632000  0.53926000  1.0
  C  C89  1  0.76707000  0.53926000  0.22632000  1.0
  C  C90  1  0.54104000  0.77369000  0.31298000  1.0
  C  C91  1  0.22803000  0.68703000  0.46065000  1.0
  C  C92  1  0.15351000  0.42027000  0.79366000  1.0
  C  C93  1  0.73304000  0.37334000  0.57969000  1.0
  C  C94  1  0.35949000  0.20631000  0.62658000  1.0
  C  C95  1  0.85949000  0.62658000  0.20632000  1.0
  C  C96  1  0.65351000  0.79366000  0.42027000  1.0
  C  C97  1  0.23304000  0.57969000  0.37334000  1.0
  O  O98  1  0.48738000  0.86232000  0.89589000  1.0
  O  O99  1  0.62504000  0.03355000  0.13766000  1.0
  O  O100  1  0.59144000  0.10415000  0.96650000  1.0
  O  O101  1  0.09144000  0.96650000  0.10415000  1.0
  O  O102  1  0.98738000  0.89590000  0.86231000  1.0
  O  O103  1  0.12504000  0.13766000  0.03354000  1.0
  O  O104  1  0.71709000  0.80748000  0.96702000  1.0
  O  O105  1  0.90956000  0.15958000  0.19259000  1.0
  O  O106  1  0.74998000  0.03304000  0.84049000  1.0
  O  O107  1  0.24998000  0.84049000  0.03304000  1.0
  O  O108  1  0.21709000  0.96702000  0.80748000  1.0
  O  O109  1  0.40956000  0.19259000  0.15958000  1.0
