# generated using pymatgen
data_U2NiH30C22(N2O9)2
_symmetry_space_group_name_H-M   'P 1'
_cell_length_a   13.34900000
_cell_length_b   15.50440000
_cell_length_c   17.64420000
_cell_angle_alpha   89.99990000
_cell_angle_beta   80.24340000
_cell_angle_gamma   89.99970000
_symmetry_Int_Tables_number   1
_chemical_formula_structural   U2NiH30C22(N2O9)2
_chemical_formula_sum   'U8 Ni4 H120 C88 N16 O72'
_cell_volume   3598.97145696
_cell_formula_units_Z   4
loop_
 _symmetry_equiv_pos_site_id
 _symmetry_equiv_pos_as_xyz
  1  'x, y, z'
loop_
 _atom_site_type_symbol
 _atom_site_label
 _atom_site_symmetry_multiplicity
 _atom_site_fract_x
 _atom_site_fract_y
 _atom_site_fract_z
 _atom_site_occupancy
  U  U0  1  0.87861000  0.83966000  0.38642000  1.0
  U  U1  1  0.12139000  0.33966000  0.11358000  1.0
  U  U2  1  0.12138000  0.16034000  0.61358000  1.0
  U  U3  1  0.87861000  0.66034000  0.88642000  1.0
  U  U4  1  0.61177000  0.14598000  0.11141000  1.0
  U  U5  1  0.38821000  0.64599000  0.38859000  1.0
  U  U6  1  0.38822000  0.85401000  0.88858000  1.0
  U  U7  1  0.61178000  0.35401000  0.61141000  1.0
  Ni  Ni8  1  0.00000000  0.00000000  0.00000000  1.0
  Ni  Ni9  1  0.00000000  0.50000000  0.50000000  1.0
  Ni  Ni10  1  0.50000000  0.00000000  0.50000000  1.0
  Ni  Ni11  1  0.50000000  0.50000000  0.00000000  1.0
  H  H12  1  0.07822000  0.93942000  0.14455000  1.0
  H  H13  1  0.92177000  0.43942000  0.35546000  1.0
  H  H14  1  0.92178000  0.06059000  0.85545000  1.0
  H  H15  1  0.07822000  0.56059000  0.64455000  1.0
  H  H16  1  0.99450000  0.86462000  0.11411000  1.0
  H  H17  1  0.00549000  0.36462000  0.38589000  1.0
  H  H18  1  0.00550000  0.13538000  0.88589000  1.0
  H  H19  1  0.99450000  0.63538000  0.61411000  1.0
  H  H20  1  0.78750000  0.99035000  0.17539000  1.0
  H  H21  1  0.21250000  0.49035000  0.32461000  1.0
  H  H22  1  0.21250000  0.00965000  0.82461000  1.0
  H  H23  1  0.78750000  0.50966000  0.67539000  1.0
  H  H24  1  0.82698000  0.90327000  0.11147000  1.0
  H  H25  1  0.17302000  0.40327000  0.38854000  1.0
  H  H26  1  0.17302000  0.09673000  0.88854000  1.0
  H  H27  1  0.82698000  0.59673000  0.61146000  1.0
  H  H28  1  0.98613000  0.07307000  0.20612000  1.0
  H  H29  1  0.01386000  0.57308000  0.29389000  1.0
  H  H30  1  0.01386000  0.92693000  0.79389000  1.0
  H  H31  1  0.98613000  0.42693000  0.70611000  1.0
  H  H32  1  0.88853000  0.11480000  0.16080000  1.0
  H  H33  1  0.11147000  0.61480000  0.33920000  1.0
  H  H34  1  0.11147000  0.88520000  0.83920000  1.0
  H  H35  1  0.88853000  0.38521000  0.66080000  1.0
  H  H36  1  0.67501000  0.09016000  0.38659000  1.0
  H  H37  1  0.32499000  0.59015000  0.11341000  1.0
  H  H38  1  0.32498000  0.90985000  0.61341000  1.0
  H  H39  1  0.67501000  0.40984000  0.88660000  1.0
  H  H40  1  0.71351000  0.00060000  0.32523000  1.0
  H  H41  1  0.28648000  0.50060000  0.17477000  1.0
  H  H42  1  0.28648000  0.99940000  0.67477000  1.0
  H  H43  1  0.71352000  0.49939000  0.82523000  1.0
  H  H44  1  0.50840000  0.12976000  0.38488000  1.0
  H  H45  1  0.49161000  0.62976000  0.11512000  1.0
  H  H46  1  0.49161000  0.87024000  0.61511000  1.0
  H  H47  1  0.50840000  0.37024000  0.88488000  1.0
  H  H48  1  0.42278000  0.05518000  0.35719000  1.0
  H  H49  1  0.57722000  0.55518000  0.14282000  1.0
  H  H50  1  0.57722000  0.94482000  0.64282000  1.0
  H  H51  1  0.42279000  0.44482000  0.85718000  1.0
  H  H52  1  0.61220000  0.88168000  0.33232000  1.0
  H  H53  1  0.38780000  0.38168000  0.16768000  1.0
  H  H54  1  0.38780000  0.11832000  0.66768000  1.0
  H  H55  1  0.61221000  0.61832000  0.83232000  1.0
  H  H56  1  0.50130000  0.91956000  0.30172000  1.0
  H  H57  1  0.49870000  0.41956000  0.19828000  1.0
  H  H58  1  0.49869000  0.08044000  0.69828000  1.0
  H  H59  1  0.50132000  0.58043000  0.80172000  1.0
  H  H60  1  0.70196000  0.63153000  0.47741000  1.0
  H  H61  1  0.29804000  0.13153000  0.02259000  1.0
  H  H62  1  0.29804000  0.36847000  0.52259000  1.0
  H  H63  1  0.70197000  0.86847000  0.97741000  1.0
  H  H64  1  0.63856000  0.72325000  0.45084000  1.0
  H  H65  1  0.36144000  0.22325000  0.04916000  1.0
  H  H66  1  0.36144000  0.27675000  0.54916000  1.0
  H  H67  1  0.63857000  0.77675000  0.95084000  1.0
  H  H68  1  0.54130000  0.60101000  0.55824000  1.0
  H  H69  1  0.45869000  0.10101000  0.94176000  1.0
  H  H70  1  0.45869000  0.39899000  0.44176000  1.0
  H  H71  1  0.54131000  0.89899000  0.05824000  1.0
  H  H72  1  0.50510000  0.71100000  0.55997000  1.0
  H  H73  1  0.49490000  0.21100000  0.94003000  1.0
  H  H74  1  0.49490000  0.28900000  0.44003000  1.0
  H  H75  1  0.50510000  0.78900000  0.05997000  1.0
  H  H76  1  0.55401000  0.71229000  0.68431000  1.0
  H  H77  1  0.44600000  0.21228000  0.81570000  1.0
  H  H78  1  0.44599000  0.28771000  0.31570000  1.0
  H  H79  1  0.55401000  0.78771000  0.18430000  1.0
  H  H80  1  0.63411000  0.62020000  0.66247000  1.0
  H  H81  1  0.36589000  0.12020000  0.83753000  1.0
  H  H82  1  0.36589000  0.37980000  0.33753000  1.0
  H  H83  1  0.63411000  0.87981000  0.16247000  1.0
  H  H84  1  0.77469000  0.73189000  0.71097000  1.0
  H  H85  1  0.22531000  0.23189000  0.78903000  1.0
  H  H86  1  0.22531000  0.26811000  0.28903000  1.0
  H  H87  1  0.77469000  0.76811000  0.21097000  1.0
  H  H88  1  0.69084000  0.82058000  0.71172000  1.0
  H  H89  1  0.30917000  0.32058000  0.78829000  1.0
  H  H90  1  0.30916000  0.17942000  0.28828000  1.0
  H  H91  1  0.69084000  0.67942000  0.21171000  1.0
  H  H92  1  0.80894000  0.81945000  0.64484000  1.0
  H  H93  1  0.19107000  0.31945000  0.85517000  1.0
  H  H94  1  0.19106000  0.18055000  0.35516000  1.0
  H  H95  1  0.80894000  0.68055000  0.14483000  1.0
  H  H96  1  0.84698000  0.26382000  0.04081000  1.0
  H  H97  1  0.15301000  0.76383000  0.45919000  1.0
  H  H98  1  0.15305000  0.73615000  0.95917000  1.0
  H  H99  1  0.84698000  0.23618000  0.54081000  1.0
  H  H100  1  0.77576000  0.35397000  0.02104000  1.0
  H  H101  1  0.22423000  0.85398000  0.47896000  1.0
  H  H102  1  0.22427000  0.64600000  0.97896000  1.0
  H  H103  1  0.77576000  0.14602000  0.52104000  1.0
  H  H104  1  0.97531000  0.28814000  0.93105000  1.0
  H  H105  1  0.02468000  0.78815000  0.56896000  1.0
  H  H106  1  0.02471000  0.71184000  0.06894000  1.0
  H  H107  1  0.97532000  0.21186000  0.43105000  1.0
  H  H108  1  0.92917000  0.39536000  0.93594000  1.0
  H  H109  1  0.07081000  0.89536000  0.56406000  1.0
  H  H110  1  0.07084000  0.60463000  0.06406000  1.0
  H  H111  1  0.92918000  0.10464000  0.43594000  1.0
  H  H112  1  0.83835000  0.37225000  0.83142000  1.0
  H  H113  1  0.16165000  0.87226000  0.66858000  1.0
  H  H114  1  0.16165000  0.62775000  0.16858000  1.0
  H  H115  1  0.83835000  0.12774000  0.33142000  1.0
  H  H116  1  0.92155000  0.28240000  0.80934000  1.0
  H  H117  1  0.07845000  0.78241000  0.69066000  1.0
  H  H118  1  0.07845000  0.71760000  0.19065000  1.0
  H  H119  1  0.92156000  0.21759000  0.30934000  1.0
  H  H120  1  0.67042000  0.16879000  0.85066000  1.0
  H  H121  1  0.32959000  0.66879000  0.64934000  1.0
  H  H122  1  0.32958000  0.83122000  0.14934000  1.0
  H  H123  1  0.67042000  0.33121000  0.35066000  1.0
  H  H124  1  0.78570000  0.17313000  0.78109000  1.0
  H  H125  1  0.21430000  0.67313000  0.71891000  1.0
  H  H126  1  0.21429000  0.82688000  0.21890000  1.0
  H  H127  1  0.78571000  0.32687000  0.28109000  1.0
  H  H128  1  0.69712000  0.25905000  0.78643000  1.0
  H  H129  1  0.30288000  0.75905000  0.71357000  1.0
  H  H130  1  0.30288000  0.74096000  0.21357000  1.0
  H  H131  1  0.69713000  0.24095000  0.28642000  1.0
  C  C132  1  0.99740000  0.92215000  0.14998000  1.0
  C  C133  1  0.00260000  0.42215000  0.35002000  1.0
  C  C134  1  0.00259000  0.07785000  0.85003000  1.0
  C  C135  1  0.99741000  0.57785000  0.64998000  1.0
  C  C136  1  0.95709000  0.89789000  0.23309000  1.0
  C  C137  1  0.04290000  0.39789000  0.26692000  1.0
  C  C138  1  0.04291000  0.10211000  0.76692000  1.0
  C  C139  1  0.95709000  0.60211000  0.73308000  1.0
  C  C140  1  0.83485000  0.97302000  0.12029000  1.0
  C  C141  1  0.16515000  0.47302000  0.37971000  1.0
  C  C142  1  0.16515000  0.02699000  0.87972000  1.0
  C  C143  1  0.83485000  0.52699000  0.62028000  1.0
  C  C144  1  0.79489000  0.01764000  0.05444000  1.0
  C  C145  1  0.20511000  0.51764000  0.44557000  1.0
  C  C146  1  0.20511000  0.98236000  0.94557000  1.0
  C  C147  1  0.79488000  0.48237000  0.55443000  1.0
  C  C148  1  0.96063000  0.07860000  0.15045000  1.0
  C  C149  1  0.03937000  0.57860000  0.34956000  1.0
  C  C150  1  0.03937000  0.92140000  0.84956000  1.0
  C  C151  1  0.96063000  0.42140000  0.65044000  1.0
  C  C152  1  0.03469000  0.13397000  0.09577000  1.0
  C  C153  1  0.96530000  0.63398000  0.40424000  1.0
  C  C154  1  0.96531000  0.86603000  0.90424000  1.0
  C  C155  1  0.03469000  0.36603000  0.59576000  1.0
  C  C156  1  0.66666667  0.02013000  0.37984000  1.0
  C  C157  1  0.33333333  0.52013000  0.12016000  1.0
  C  C158  1  0.33333333  0.97987000  0.62016000  1.0
  C  C159  1  0.66666667  0.47986000  0.87984000  1.0
  C  C160  1  0.70630000  0.97823000  0.44726000  1.0
  C  C161  1  0.29370000  0.47822000  0.05274000  1.0
  C  C162  1  0.29369000  0.02178000  0.55274000  1.0
  C  C163  1  0.70631000  0.52178000  0.94726000  1.0
  C  C164  1  0.50396000  0.07145000  0.35025000  1.0
  C  C165  1  0.49603000  0.57145000  0.14975000  1.0
  C  C166  1  0.49602000  0.92855000  0.64976000  1.0
  C  C167  1  0.50397000  0.42855000  0.85025000  1.0
  C  C168  1  0.54230000  0.09341000  0.26672000  1.0
  C  C169  1  0.45769000  0.59341000  0.23328000  1.0
  C  C170  1  0.45769000  0.90659000  0.73328000  1.0
  C  C171  1  0.54231000  0.40659000  0.76672000  1.0
  C  C172  1  0.53945000  0.91473000  0.35195000  1.0
  C  C173  1  0.46054000  0.41473000  0.14805000  1.0
  C  C174  1  0.46054000  0.08527000  0.64805000  1.0
  C  C175  1  0.53946000  0.58527000  0.85195000  1.0
  C  C176  1  0.47772000  0.85558000  0.41124000  1.0
  C  C177  1  0.52228000  0.35558000  0.08876000  1.0
  C  C178  1  0.52228000  0.14442000  0.58876000  1.0
  C  C179  1  0.47773000  0.64442000  0.91124000  1.0
  C  C180  1  0.72672000  0.74395000  0.54088000  1.0
  C  C181  1  0.27328000  0.24395000  0.95912000  1.0
  C  C182  1  0.27328000  0.25605000  0.45912000  1.0
  C  C183  1  0.72672000  0.75605000  0.04088000  1.0
  C  C184  1  0.65900000  0.68916000  0.50041000  1.0
  C  C185  1  0.34100000  0.18916000  0.99959000  1.0
  C  C186  1  0.34100000  0.31084000  0.49959000  1.0
  C  C187  1  0.65900000  0.81084000  0.00041000  1.0
  C  C188  1  0.56851000  0.66691000  0.56354000  1.0
  C  C189  1  0.43149000  0.16690000  0.93647000  1.0
  C  C190  1  0.43149000  0.33310000  0.43646000  1.0
  C  C191  1  0.56851000  0.83310000  0.06353000  1.0
  C  C192  1  0.60882000  0.68089000  0.63921000  1.0
  C  C193  1  0.39119000  0.18089000  0.86079000  1.0
  C  C194  1  0.39118000  0.31911000  0.36079000  1.0
  C  C195  1  0.60882000  0.81911000  0.13921000  1.0
  C  C196  1  0.74604000  0.78012000  0.67427000  1.0
  C  C197  1  0.25396000  0.28012000  0.82573000  1.0
  C  C198  1  0.25395000  0.21988000  0.32573000  1.0
  C  C199  1  0.74604000  0.71988000  0.17427000  1.0
  C  C200  1  0.75381000  0.24405000  0.95382000  1.0
  C  C201  1  0.24618000  0.74405000  0.54618000  1.0
  C  C202  1  0.24620000  0.75594000  0.04617000  1.0
  C  C203  1  0.75381000  0.25595000  0.45382000  1.0
  C  C204  1  0.82138000  0.29945000  0.99402000  1.0
  C  C205  1  0.17861000  0.79945000  0.50598000  1.0
  C  C206  1  0.17864000  0.70053000  0.00598000  1.0
  C  C207  1  0.82138000  0.20055000  0.49402000  1.0
  C  C208  1  0.90761000  0.32798000  0.92979000  1.0
  C  C209  1  0.09238000  0.82798000  0.57022000  1.0
  C  C210  1  0.09241000  0.67201000  0.07020000  1.0
  C  C211  1  0.90761000  0.17202000  0.42979000  1.0
  C  C212  1  0.86598000  0.31249000  0.85470000  1.0
  C  C213  1  0.13402000  0.81249000  0.64530000  1.0
  C  C214  1  0.13402000  0.68750000  0.14530000  1.0
  C  C215  1  0.86598000  0.18750000  0.35471000  1.0
  C  C216  1  0.73018000  0.21100000  0.82081000  1.0
  C  C217  1  0.26982000  0.71100000  0.67919000  1.0
  C  C218  1  0.26982000  0.78901000  0.17919000  1.0
  C  C219  1  0.73018000  0.28900000  0.32080000  1.0
  N  N220  1  0.94345000  0.99256000  0.11813000  1.0
  N  N221  1  0.05654000  0.49256000  0.38187000  1.0
  N  N222  1  0.05654000  0.00745000  0.88187000  1.0
  N  N223  1  0.94345000  0.50745000  0.61813000  1.0
  N  N224  1  0.55767000  0.00135000  0.38256000  1.0
  N  N225  1  0.44233000  0.50135000  0.11743000  1.0
  N  N226  1  0.44232000  0.99865000  0.61743000  1.0
  N  N227  1  0.55768000  0.49864000  0.88257000  1.0
  N  N228  1  0.69651000  0.73840000  0.61705000  1.0
  N  N229  1  0.30349000  0.23840000  0.88295000  1.0
  N  N230  1  0.30349000  0.26160000  0.38295000  1.0
  N  N231  1  0.69651000  0.76160000  0.11705000  1.0
  N  N232  1  0.78054000  0.25287000  0.87751000  1.0
  N  N233  1  0.21946000  0.75287000  0.62249000  1.0
  N  N234  1  0.21947000  0.74712000  0.12248000  1.0
  N  N235  1  0.78054000  0.24713000  0.37751000  1.0
  O  O236  1  0.76066000  0.81571000  0.35170000  1.0
  O  O237  1  0.23934000  0.31571000  0.14830000  1.0
  O  O238  1  0.23934000  0.18429000  0.64830000  1.0
  O  O239  1  0.76066000  0.68429000  0.85170000  1.0
  O  O240  1  0.99609000  0.86640000  0.41879000  1.0
  O  O241  1  0.00390000  0.36639000  0.08120000  1.0
  O  O242  1  0.00390000  0.13360000  0.58121000  1.0
  O  O243  1  0.99610000  0.63360000  0.91879000  1.0
  O  O244  1  0.49751000  0.10249000  0.08420000  1.0
  O  O245  1  0.50248000  0.60251000  0.41579000  1.0
  O  O246  1  0.50250000  0.89749000  0.91578000  1.0
  O  O247  1  0.49751000  0.39750000  0.58421000  1.0
  O  O248  1  0.72769000  0.18226000  0.14320000  1.0
  O  O249  1  0.27229000  0.68226000  0.35680000  1.0
  O  O250  1  0.27230000  0.81774000  0.85680000  1.0
  O  O251  1  0.72771000  0.31774000  0.64320000  1.0
  O  O252  1  0.90600000  0.95084000  0.27967000  1.0
  O  O253  1  0.09399000  0.45084000  0.22033000  1.0
  O  O254  1  0.09400000  0.04916000  0.72034000  1.0
  O  O255  1  0.90599000  0.54917000  0.77966000  1.0
  O  O256  1  0.97606000  0.82196000  0.25481000  1.0
  O  O257  1  0.02392000  0.32196000  0.24519000  1.0
  O  O258  1  0.02393000  0.17805000  0.74519000  1.0
  O  O259  1  0.97607000  0.67805000  0.75481000  1.0
  O  O260  1  0.69807000  0.02442000  0.06069000  1.0
  O  O261  1  0.30194000  0.52443000  0.43931000  1.0
  O  O262  1  0.30193000  0.97557000  0.93931000  1.0
  O  O263  1  0.69806000  0.47558000  0.56069000  1.0
  O  O264  1  0.85636000  0.04405000  0.99703000  1.0
  O  O265  1  0.14364000  0.54405000  0.50297000  1.0
  O  O266  1  0.14364000  0.95595000  0.00297000  1.0
  O  O267  1  0.85635000  0.45596000  0.49703000  1.0
  O  O268  1  0.07498000  0.19668000  0.12639000  1.0
  O  O269  1  0.92501000  0.69668000  0.37361000  1.0
  O  O270  1  0.92502000  0.80332000  0.87361000  1.0
  O  O271  1  0.07498000  0.30332000  0.62639000  1.0
  O  O272  1  0.05126000  0.11799000  0.02461000  1.0
  O  O273  1  0.94874000  0.61799000  0.47540000  1.0
  O  O274  1  0.94874000  0.88201000  0.97540000  1.0
  O  O275  1  0.05126000  0.38201000  0.52461000  1.0
  O  O276  1  0.80231000  0.96519000  0.43989000  1.0
  O  O277  1  0.19769000  0.46518000  0.06011000  1.0
  O  O278  1  0.19768000  0.03482000  0.56011000  1.0
  O  O279  1  0.80232000  0.53482000  0.93989000  1.0
  O  O280  1  0.64445000  0.96031000  0.50736000  1.0
  O  O281  1  0.35555000  0.46030000  0.99264000  1.0
  O  O282  1  0.35554000  0.03969000  0.49264000  1.0
  O  O283  1  0.64445000  0.53970000  0.00736000  1.0
  O  O284  1  0.59734000  0.04119000  0.22188000  1.0
  O  O285  1  0.40266000  0.54119000  0.27812000  1.0
  O  O286  1  0.40266000  0.95881000  0.77812000  1.0
  O  O287  1  0.59735000  0.45881000  0.72188000  1.0
  O  O288  1  0.51727000  0.16674000  0.24268000  1.0
  O  O289  1  0.48271000  0.66675000  0.25731000  1.0
  O  O290  1  0.48270000  0.83325000  0.75731000  1.0
  O  O291  1  0.51730000  0.33325000  0.74269000  1.0
  O  O292  1  0.45166000  0.78393000  0.38515000  1.0
  O  O293  1  0.54833000  0.28393000  0.11485000  1.0
  O  O294  1  0.54834000  0.21607000  0.61485000  1.0
  O  O295  1  0.45166000  0.71606000  0.88514000  1.0
  O  O296  1  0.45645000  0.87740000  0.48103000  1.0
  O  O297  1  0.54356000  0.37741000  0.01897000  1.0
  O  O298  1  0.54355000  0.12260000  0.51897000  1.0
  O  O299  1  0.45645000  0.62259000  0.98102000  1.0
  O  O300  1  0.80297000  0.78791000  0.51007000  1.0
  O  O301  1  0.19703000  0.28791000  0.98993000  1.0
  O  O302  1  0.19703000  0.21209000  0.48993000  1.0
  O  O303  1  0.80297000  0.71209000  0.01007000  1.0
  O  O304  1  0.68071000  0.19691000  0.98490000  1.0
  O  O305  1  0.31928000  0.69692000  0.51510000  1.0
  O  O306  1  0.31930000  0.80308000  0.01510000  1.0
  O  O307  1  0.68072000  0.30309000  0.48489000  1.0
