# generated using pymatgen
data_ZnH15C11N2ClO2
_symmetry_space_group_name_H-M   'P 1'
_cell_length_a   10.52510000
_cell_length_b   17.58823168
_cell_length_c   17.58750000
_cell_angle_alpha   119.99987154
_cell_angle_beta   90.00000000
_cell_angle_gamma   89.99990000
_symmetry_Int_Tables_number   1
_chemical_formula_structural   ZnH15C11N2ClO2
_chemical_formula_sum   'Zn6 H90 C66 N12 Cl6 O12'
_cell_volume   2819.57539951
_cell_formula_units_Z   6
loop_
 _symmetry_equiv_pos_site_id
 _symmetry_equiv_pos_as_xyz
  1  'x, y, z'
loop_
 _atom_site_type_symbol
 _atom_site_label
 _atom_site_symmetry_multiplicity
 _atom_site_fract_x
 _atom_site_fract_y
 _atom_site_fract_z
 _atom_site_occupancy
  Zn  Zn0  1  0.87843000  0.53579000  0.45960000  1.0
  Zn  Zn1  1  0.71188000  0.45962000  0.92380000  1.0
  Zn  Zn2  1  0.54514000  0.92379000  0.46425000  1.0
  Zn  Zn3  1  0.37843000  0.46421000  0.54040000  1.0
  Zn  Zn4  1  0.21188000  0.54038000  0.07620000  1.0
  Zn  Zn5  1  0.04514000  0.07621000  0.53574000  1.0
  H  H6  1  0.98574000  0.45604000  0.53011000  1.0
  H  H7  1  0.81917000  0.53008000  0.07411000  1.0
  H  H8  1  0.65246000  0.07412000  0.54398000  1.0
  H  H9  1  0.48574000  0.54396000  0.46989000  1.0
  H  H10  1  0.31917000  0.46992000  0.92589000  1.0
  H  H11  1  0.15246000  0.92588000  0.45602000  1.0
  H  H12  1  0.17870000  0.22313000  0.53397000  1.0
  H  H13  1  0.01205000  0.53398000  0.31090000  1.0
  H  H14  1  0.84543000  0.31090000  0.77667000  1.0
  H  H15  1  0.67870000  0.77687000  0.46603000  1.0
  H  H16  1  0.51205000  0.46602000  0.68910000  1.0
  H  H17  1  0.34543000  0.68910000  0.22333000  1.0
  H  H18  1  0.83307000  0.10192000  0.43475000  1.0
  H  H19  1  0.66654000  0.43459000  0.33287000  1.0
  H  H20  1  0.50010000  0.33293000  0.89825000  1.0
  H  H21  1  0.33307000  0.89808000  0.56525000  1.0
  H  H22  1  0.16655000  0.56541000  0.66713000  1.0
  H  H23  1  0.00010000  0.66707000  0.10175000  1.0
  H  H24  1  0.77763000  0.20778000  0.38397000  1.0
  H  H25  1  0.61113000  0.38373000  0.17621000  1.0
  H  H26  1  0.44449000  0.17632000  0.79245000  1.0
  H  H27  1  0.27763000  0.79222000  0.61603000  1.0
  H  H28  1  0.11113000  0.61627000  0.82379000  1.0
  H  H29  1  0.94449000  0.82369000  0.20756000  1.0
  H  H30  1  0.13978000  0.33390000  0.48777000  1.0
  H  H31  1  0.97301000  0.48789000  0.15398000  1.0
  H  H32  1  0.80643000  0.15391000  0.66602000  1.0
  H  H33  1  0.63978000  0.66610000  0.51223000  1.0
  H  H34  1  0.47301000  0.51211000  0.84602000  1.0
  H  H35  1  0.30643000  0.84609000  0.33398000  1.0
  H  H36  1  0.99949000  0.36304000  0.37840000  1.0
  H  H37  1  0.83301000  0.37841000  0.01546000  1.0
  H  H38  1  0.66647000  0.01550000  0.63702000  1.0
  H  H39  1  0.49949000  0.63696000  0.62160000  1.0
  H  H40  1  0.33301000  0.62159000  0.98454000  1.0
  H  H41  1  0.16647000  0.98450000  0.36298000  1.0
  H  H42  1  0.83484000  0.33749000  0.37417000  1.0
  H  H43  1  0.66835000  0.37410000  0.03666000  1.0
  H  H44  1  0.50181000  0.03665000  0.66258000  1.0
  H  H45  1  0.33484000  0.66251000  0.62583000  1.0
  H  H46  1  0.16834000  0.62590000  0.96334000  1.0
  H  H47  1  0.00181000  0.96335000  0.33742000  1.0
  H  H48  1  0.76718000  0.37008000  0.52888000  1.0
  H  H49  1  0.60058000  0.52880000  0.15881000  1.0
  H  H50  1  0.43382000  0.15879000  0.62995000  1.0
  H  H51  1  0.26718000  0.62992000  0.47112000  1.0
  H  H52  1  0.10058000  0.47120000  0.84119000  1.0
  H  H53  1  0.93382000  0.84121000  0.37005000  1.0
  H  H54  1  0.73401000  0.48121000  0.68003000  1.0
  H  H55  1  0.56738000  0.67993000  0.19900000  1.0
  H  H56  1  0.40064000  0.19882000  0.51885000  1.0
  H  H57  1  0.23401000  0.51879000  0.31997000  1.0
  H  H58  1  0.06738000  0.32007000  0.80100000  1.0
  H  H59  1  0.90064000  0.80118000  0.48115000  1.0
  H  H60  1  0.87610000  0.60702000  0.76059000  1.0
  H  H61  1  0.70893000  0.76061000  0.15357000  1.0
  H  H62  1  0.54246000  0.15349000  0.39289000  1.0
  H  H63  1  0.37610000  0.39298000  0.23941000  1.0
  H  H64  1  0.20893000  0.23939000  0.84643000  1.0
  H  H65  1  0.04246000  0.84651000  0.60711000  1.0
  H  H66  1  0.79433000  0.61721000  0.67775000  1.0
  H  H67  1  0.62709000  0.67769000  0.06065000  1.0
  H  H68  1  0.46068000  0.06053000  0.38283000  1.0
  H  H69  1  0.29433000  0.38279000  0.32225000  1.0
  H  H70  1  0.12709000  0.32231000  0.93935000  1.0
  H  H71  1  0.96068000  0.93947000  0.61717000  1.0
  H  H72  1  0.95527000  0.58526000  0.66200000  1.0
  H  H73  1  0.78816000  0.66209000  0.07666000  1.0
  H  H74  1  0.62169000  0.07664000  0.41458000  1.0
  H  H75  1  0.45527000  0.41474000  0.33800000  1.0
  H  H76  1  0.28816000  0.33791000  0.92334000  1.0
  H  H77  1  0.12169000  0.92336000  0.58542000  1.0
  H  H78  1  0.01573000  0.42977000  0.64499000  1.0
  H  H79  1  0.84928000  0.64502000  0.21512000  1.0
  H  H80  1  0.68244000  0.21525000  0.57017000  1.0
  H  H81  1  0.51573000  0.57023000  0.35501000  1.0
  H  H82  1  0.34928000  0.35498000  0.78488000  1.0
  H  H83  1  0.18243000  0.78475000  0.42983000  1.0
  H  H84  1  0.89019000  0.35988000  0.64008000  1.0
  H  H85  1  0.72392000  0.64012000  0.28023000  1.0
  H  H86  1  0.55691000  0.28023000  0.64005000  1.0
  H  H87  1  0.39018000  0.64012000  0.35992000  1.0
  H  H88  1  0.22392000  0.35988000  0.71977000  1.0
  H  H89  1  0.05691000  0.71977000  0.35995000  1.0
  H  H90  1  0.92522000  0.45661000  0.74075000  1.0
  H  H91  1  0.75878000  0.74076000  0.28408000  1.0
  H  H92  1  0.59185000  0.28410000  0.54328000  1.0
  H  H93  1  0.42522000  0.54339000  0.25925000  1.0
  H  H94  1  0.25878000  0.25924000  0.71592000  1.0
  H  H95  1  0.09185000  0.71590000  0.45672000  1.0
  C  C96  1  0.09080000  0.22319000  0.50142000  1.0
  C  C97  1  0.92415000  0.50143000  0.27830000  1.0
  C  C98  1  0.75757000  0.27831000  0.77673000  1.0
  C  C99  1  0.59080000  0.77681000  0.49858000  1.0
  C  C100  1  0.42415000  0.49857000  0.72170000  1.0
  C  C101  1  0.25757000  0.72169000  0.22327000  1.0
  C  C102  1  0.89760000  0.15456000  0.44481000  1.0
  C  C103  1  0.73107000  0.44464000  0.29026000  1.0
  C  C104  1  0.56453000  0.29032000  0.84555000  1.0
  C  C105  1  0.39760000  0.84544000  0.55519000  1.0
  C  C106  1  0.23107000  0.55536000  0.70974000  1.0
  C  C107  1  0.06453000  0.70968000  0.15446000  1.0
  C  C108  1  0.86791000  0.21389000  0.41703000  1.0
  C  C109  1  0.70137000  0.41686000  0.20316000  1.0
  C  C110  1  0.53477000  0.20322000  0.78625000  1.0
  C  C111  1  0.36791000  0.78611000  0.58297000  1.0
  C  C112  1  0.20137000  0.58314000  0.79684000  1.0
  C  C113  1  0.03477000  0.79678000  0.21375000  1.0
  C  C114  1  0.95312000  0.28155000  0.43381000  1.0
  C  C115  1  0.78651000  0.43376000  0.15231000  1.0
  C  C116  1  0.61991000  0.15233000  0.71851000  1.0
  C  C117  1  0.45312000  0.71845000  0.56619000  1.0
  C  C118  1  0.28651000  0.56624000  0.84769000  1.0
  C  C119  1  0.11991000  0.84767000  0.28149000  1.0
  C  C120  1  0.06774000  0.28447000  0.47545000  1.0
  C  C121  1  0.90104000  0.47550000  0.19107000  1.0
  C  C122  1  0.73446000  0.19106000  0.71550000  1.0
  C  C123  1  0.56774000  0.71553000  0.52455000  1.0
  C  C124  1  0.40104000  0.52450000  0.80893000  1.0
  C  C125  1  0.23446000  0.80894000  0.28450000  1.0
  C  C126  1  0.92133000  0.35359000  0.41432000  1.0
  C  C127  1  0.75478000  0.41429000  0.06077000  1.0
  C  C128  1  0.58818000  0.06078000  0.64648000  1.0
  C  C129  1  0.42133000  0.64641000  0.58568000  1.0
  C  C130  1  0.25478000  0.58571000  0.93923000  1.0
  C  C131  1  0.08818000  0.93922000  0.35352000  1.0
  C  C132  1  0.67412000  0.47872000  0.53406000  1.0
  C  C133  1  0.50759000  0.53405000  0.05534000  1.0
  C  C134  1  0.34094000  0.05524000  0.52123000  1.0
  C  C135  1  0.17412000  0.52128000  0.46594000  1.0
  C  C136  1  0.00759000  0.46595000  0.94466000  1.0
  C  C137  1  0.84094000  0.94476000  0.47877000  1.0
  C  C138  1  0.79388000  0.43856000  0.55034000  1.0
  C  C139  1  0.62730000  0.55029000  0.11181000  1.0
  C  C140  1  0.46060000  0.11177000  0.56147000  1.0
  C  C141  1  0.29388000  0.56144000  0.44966000  1.0
  C  C142  1  0.12730000  0.44970000  0.88818000  1.0
  C  C143  1  0.96060000  0.88823000  0.43853000  1.0
  C  C144  1  0.82445000  0.48215000  0.64923000  1.0
  C  C145  1  0.65779000  0.64919000  0.16713000  1.0
  C  C146  1  0.49109000  0.16706000  0.51785000  1.0
  C  C147  1  0.32445000  0.51785000  0.35077000  1.0
  C  C148  1  0.15779000  0.35081000  0.83287000  1.0
  C  C149  1  0.99109000  0.83294000  0.48215000  1.0
  C  C150  1  0.86494000  0.57814000  0.68933000  1.0
  C  C151  1  0.69789000  0.68933000  0.11121000  1.0
  C  C152  1  0.53139000  0.11114000  0.42182000  1.0
  C  C153  1  0.36494000  0.42186000  0.31067000  1.0
  C  C154  1  0.19789000  0.31067000  0.88879000  1.0
  C  C155  1  0.03139000  0.88886000  0.57818000  1.0
  C  C156  1  0.91975000  0.42886000  0.66931000  1.0
  C  C157  1  0.75330000  0.66932000  0.24041000  1.0
  C  C158  1  0.58643000  0.24044000  0.57106000  1.0
  C  C159  1  0.41974000  0.57114000  0.33069000  1.0
  C  C160  1  0.25330000  0.33068000  0.75959000  1.0
  C  C161  1  0.08643000  0.75956000  0.42894000  1.0
  N  N162  1  0.00636000  0.15968000  0.48749000  1.0
  N  N163  1  0.83976000  0.48741000  0.32785000  1.0
  N  N164  1  0.67321000  0.32788000  0.84032000  1.0
  N  N165  1  0.50636000  0.84032000  0.51251000  1.0
  N  N166  1  0.33976000  0.51259000  0.67215000  1.0
  N  N167  1  0.17321000  0.67212000  0.15968000  1.0
  N  N168  1  0.90126000  0.43906000  0.49612000  1.0
  N  N169  1  0.73470000  0.49608000  0.05709000  1.0
  N  N170  1  0.56802000  0.05710000  0.56100000  1.0
  N  N171  1  0.40126000  0.56094000  0.50388000  1.0
  N  N172  1  0.23470000  0.50392000  0.94291000  1.0
  N  N173  1  0.06802000  0.94290000  0.43900000  1.0
  Cl  Cl174  1  0.88484000  0.68009000  0.55082000  1.0
  Cl  Cl175  1  0.71823000  0.55085000  0.87072000  1.0
  Cl  Cl176  1  0.55177000  0.87072000  0.31994000  1.0
  Cl  Cl177  1  0.38484000  0.31991000  0.44919000  1.0
  Cl  Cl178  1  0.21823000  0.44915000  0.12928000  1.0
  Cl  Cl179  1  0.05177000  0.12928000  0.68005000  1.0
  O  O180  1  0.67926000  0.50907000  0.48169000  1.0
  O  O181  1  0.51279000  0.48179000  0.97261000  1.0
  O  O182  1  0.34616000  0.97254000  0.49091000  1.0
  O  O183  1  0.17926000  0.49093000  0.51831000  1.0
  O  O184  1  0.01278000  0.51821000  0.02739000  1.0
  O  O185  1  0.84616000  0.02746000  0.50909000  1.0
  O  O186  1  0.57603000  0.47730000  0.57477000  1.0
  O  O187  1  0.40945000  0.57471000  0.09745000  1.0
  O  O188  1  0.24278000  0.09729000  0.52254000  1.0
  O  O189  1  0.07603000  0.52270000  0.42523000  1.0
  O  O190  1  0.90945000  0.42529000  0.90255000  1.0
  O  O191  1  0.74278000  0.90271000  0.47746000  1.0
