# generated using pymatgen
data_HgH8C9(SN3)2
_symmetry_space_group_name_H-M   'P 1'
_cell_length_a   9.15333000
_cell_length_b   10.85340000
_cell_length_c   13.91630000
_cell_angle_alpha   90.00000000
_cell_angle_beta   107.23800000
_cell_angle_gamma   90.00000000
_symmetry_Int_Tables_number   1
_chemical_formula_structural   HgH8C9(SN3)2
_chemical_formula_sum   'Hg4 H32 C36 S8 N24'
_cell_volume   1320.41176698
_cell_formula_units_Z   4
loop_
 _symmetry_equiv_pos_site_id
 _symmetry_equiv_pos_as_xyz
  1  'x, y, z'
loop_
 _atom_site_type_symbol
 _atom_site_label
 _atom_site_symmetry_multiplicity
 _atom_site_fract_x
 _atom_site_fract_y
 _atom_site_fract_z
 _atom_site_occupancy
  Hg  Hg0  1  0.65043000  0.90610000  0.33386000  1.0
  Hg  Hg1  1  0.84957000  0.40610000  0.66614000  1.0
  Hg  Hg2  1  0.34957000  0.09390000  0.66614000  1.0
  Hg  Hg3  1  0.15043000  0.59390000  0.33386000  1.0
  H  H4  1  0.11578000  0.25612000  0.27541000  1.0
  H  H5  1  0.38422000  0.75612000  0.72459000  1.0
  H  H6  1  0.88422000  0.74388000  0.72459000  1.0
  H  H7  1  0.61578000  0.24388000  0.27541000  1.0
  H  H8  1  0.06109000  0.27455000  0.14076000  1.0
  H  H9  1  0.43891000  0.77456000  0.85924000  1.0
  H  H10  1  0.93891000  0.72545000  0.85924000  1.0
  H  H11  1  0.56109000  0.22545000  0.14076000  1.0
  H  H12  1  0.96082000  0.10906000  0.34883000  1.0
  H  H13  1  0.53918000  0.60907000  0.65117000  1.0
  H  H14  1  0.03918000  0.89093000  0.65117000  1.0
  H  H15  1  0.46082000  0.39093000  0.34884000  1.0
  H  H16  1  0.66484000  0.95493000  0.08283000  1.0
  H  H17  1  0.83515000  0.45493000  0.91717000  1.0
  H  H18  1  0.33515000  0.04507000  0.91717000  1.0
  H  H19  1  0.16485000  0.54507000  0.08284000  1.0
  H  H20  1  0.87246000  0.11306000  0.03222000  1.0
  H  H21  1  0.62754000  0.61306000  0.96778000  1.0
  H  H22  1  0.12754000  0.88694000  0.96778000  1.0
  H  H23  1  0.37246000  0.38694000  0.03222000  1.0
  H  H24  1  0.33497000  0.10282000  0.35548000  1.0
  H  H25  1  0.16504000  0.60282000  0.64452000  1.0
  H  H26  1  0.66504000  0.89718000  0.64452000  1.0
  H  H27  1  0.83496000  0.39718000  0.35548000  1.0
  H  H28  1  0.42309000  0.96610000  0.09383000  1.0
  H  H29  1  0.07691000  0.46610000  0.90617000  1.0
  H  H30  1  0.57692000  0.03391000  0.90617000  1.0
  H  H31  1  0.92308000  0.53390000  0.09383000  1.0
  H  H32  1  0.16863000  0.12251000  0.03736000  1.0
  H  H33  1  0.33137000  0.62251000  0.96264000  1.0
  H  H34  1  0.83137000  0.87750000  0.96264000  1.0
  H  H35  1  0.66863000  0.37749000  0.03736000  1.0
  C  C36  1  0.08722000  0.20834000  0.20299000  1.0
  C  C37  1  0.41278000  0.70834000  0.79701000  1.0
  C  C38  1  0.91278000  0.79166000  0.79701000  1.0
  C  C39  1  0.58722000  0.29166000  0.20299000  1.0
  C  C40  1  0.90596000  0.08583000  0.27044000  1.0
  C  C41  1  0.59404000  0.58583000  0.72956000  1.0
  C  C42  1  0.09404000  0.91417000  0.72956000  1.0
  C  C43  1  0.40596000  0.41417000  0.27044000  1.0
  C  C44  1  0.75547000  0.01124000  0.13025000  1.0
  C  C45  1  0.74453000  0.51124000  0.86975000  1.0
  C  C46  1  0.24453000  0.98876000  0.86975000  1.0
  C  C47  1  0.25547000  0.48876000  0.13025000  1.0
  C  C48  1  0.85844000  0.08583000  0.10395000  1.0
  C  C49  1  0.64156000  0.58583000  0.89605000  1.0
  C  C50  1  0.14156000  0.91417000  0.89605000  1.0
  C  C51  1  0.35844000  0.41417000  0.10395000  1.0
  C  C52  1  0.32782000  0.08560000  0.27739000  1.0
  C  C53  1  0.17219000  0.58561000  0.72261000  1.0
  C  C54  1  0.67218000  0.91439000  0.72261000  1.0
  C  C55  1  0.82781000  0.41439000  0.27739000  1.0
  C  C56  1  0.36836000  0.01857000  0.13964000  1.0
  C  C57  1  0.13164000  0.51857000  0.86036000  1.0
  C  C58  1  0.63164000  0.98143000  0.86036000  1.0
  C  C59  1  0.86836000  0.48143000  0.13964000  1.0
  C  C60  1  0.24154000  0.09266000  0.11020000  1.0
  C  C61  1  0.25846000  0.59266000  0.88980000  1.0
  C  C62  1  0.75846000  0.90734000  0.88980000  1.0
  C  C63  1  0.74154000  0.40734000  0.11020000  1.0
  C  C64  1  0.67960000  0.14681000  0.46735000  1.0
  C  C65  1  0.82040000  0.64681000  0.53266000  1.0
  C  C66  1  0.32040000  0.85319000  0.53265000  1.0
  C  C67  1  0.17960000  0.35319000  0.46734000  1.0
  C  C68  1  0.55818000  0.72891000  0.14666000  1.0
  C  C69  1  0.94182000  0.22890000  0.85334000  1.0
  C  C70  1  0.44182000  0.27109000  0.85334000  1.0
  C  C71  1  0.05818000  0.77110000  0.14666000  1.0
  S  S72  1  0.76369000  0.01074000  0.49740000  1.0
  S  S73  1  0.73631000  0.51075000  0.50261000  1.0
  S  S74  1  0.23631000  0.98925000  0.50260000  1.0
  S  S75  1  0.26369000  0.48925000  0.49740000  1.0
  S  S76  1  0.60573000  0.69323000  0.26786000  1.0
  S  S77  1  0.89427000  0.19323000  0.73215000  1.0
  S  S78  1  0.39427000  0.30677000  0.73214000  1.0
  S  S79  1  0.10573000  0.80677000  0.26786000  1.0
  N  N80  1  0.95298000  0.13219000  0.19347000  1.0
  N  N81  1  0.54702000  0.63220000  0.80653000  1.0
  N  N82  1  0.04702000  0.86780000  0.80653000  1.0
  N  N83  1  0.45298000  0.36781000  0.19347000  1.0
  N  N84  1  0.78561000  0.01301000  0.23380000  1.0
  N  N85  1  0.71439000  0.51301000  0.76620000  1.0
  N  N86  1  0.21439000  0.98699000  0.76620000  1.0
  N  N87  1  0.28561000  0.48699000  0.23380000  1.0
  N  N88  1  0.21723000  0.13423000  0.19822000  1.0
  N  N89  1  0.28277000  0.63423000  0.80178000  1.0
  N  N90  1  0.78277000  0.86577000  0.80178000  1.0
  N  N91  1  0.71723000  0.36577000  0.19822000  1.0
  N  N92  1  0.42144000  0.01567000  0.24380000  1.0
  N  N93  1  0.07856000  0.51567000  0.75620000  1.0
  N  N94  1  0.57856000  0.98433000  0.75620000  1.0
  N  N95  1  0.92144000  0.48433000  0.24380000  1.0
  N  N96  1  0.62208000  0.24466000  0.44845000  1.0
  N  N97  1  0.87793000  0.74467000  0.55156000  1.0
  N  N98  1  0.37793000  0.75533000  0.55155000  1.0
  N  N99  1  0.12208000  0.25533000  0.44844000  1.0
  N  N100  1  0.52381000  0.75119000  0.05973000  1.0
  N  N101  1  0.97619000  0.25118000  0.94027000  1.0
  N  N102  1  0.47619000  0.24881000  0.94027000  1.0
  N  N103  1  0.02381000  0.74882000  0.05973000  1.0
