# generated using pymatgen
data_ZnH8C12N3O2
_symmetry_space_group_name_H-M   'P 1'
_cell_length_a   10.78820000
_cell_length_b   11.26550000
_cell_length_c   11.81190000
_cell_angle_alpha   104.58700000
_cell_angle_beta   90.00000000
_cell_angle_gamma   89.99980000
_symmetry_Int_Tables_number   1
_chemical_formula_structural   ZnH8C12N3O2
_chemical_formula_sum   'Zn4 H32 C48 N12 O8'
_cell_volume   1389.27984307
_cell_formula_units_Z   4
loop_
 _symmetry_equiv_pos_site_id
 _symmetry_equiv_pos_as_xyz
  1  'x, y, z'
loop_
 _atom_site_type_symbol
 _atom_site_label
 _atom_site_symmetry_multiplicity
 _atom_site_fract_x
 _atom_site_fract_y
 _atom_site_fract_z
 _atom_site_occupancy
  Zn  Zn0  1  0.55140000  0.34967000  0.92020000  1.0
  Zn  Zn1  1  0.05140000  0.15033000  0.57980000  1.0
  Zn  Zn2  1  0.44860000  0.65033000  0.07980000  1.0
  Zn  Zn3  1  0.94860000  0.84967000  0.42020000  1.0
  H  H4  1  0.68356000  0.43936000  0.72638000  1.0
  H  H5  1  0.18356000  0.06064000  0.77362000  1.0
  H  H6  1  0.31644000  0.56063000  0.27362000  1.0
  H  H7  1  0.81644000  0.93936000  0.22638000  1.0
  H  H8  1  0.62325000  0.80417000  0.95168000  1.0
  H  H9  1  0.12325000  0.69583000  0.54832000  1.0
  H  H10  1  0.37675000  0.19583000  0.04832000  1.0
  H  H11  1  0.87675000  0.30417000  0.45168000  1.0
  H  H12  1  0.58297000  0.21280000  0.54948000  1.0
  H  H13  1  0.08297000  0.28720000  0.95052000  1.0
  H  H14  1  0.41703000  0.78720000  0.45051000  1.0
  H  H15  1  0.91703000  0.71279000  0.04948000  1.0
  H  H16  1  0.41784000  0.91335000  0.65868000  1.0
  H  H17  1  0.91784000  0.58665000  0.84132000  1.0
  H  H18  1  0.58215000  0.08665000  0.34132000  1.0
  H  H19  1  0.08216000  0.41335000  0.15868000  1.0
  H  H20  1  0.89906000  0.60677000  0.45502000  1.0
  H  H21  1  0.39906000  0.89324000  0.04499000  1.0
  H  H22  1  0.10095000  0.39323000  0.54498000  1.0
  H  H23  1  0.60094000  0.10677000  0.95502000  1.0
  H  H24  1  0.75165000  0.95070000  0.60254000  1.0
  H  H25  1  0.25165000  0.54931000  0.89747000  1.0
  H  H26  1  0.24835000  0.04930000  0.39747000  1.0
  H  H27  1  0.74835000  0.45070000  0.10253000  1.0
  H  H28  1  0.65731000  0.88132000  0.76642000  1.0
  H  H29  1  0.15731000  0.61868000  0.73358000  1.0
  H  H30  1  0.34269000  0.11868000  0.23358000  1.0
  H  H31  1  0.84269000  0.38132000  0.26642000  1.0
  H  H32  1  0.81622000  0.52280000  0.61604000  1.0
  H  H33  1  0.31623000  0.97721000  0.88396000  1.0
  H  H34  1  0.18378000  0.47720000  0.38395000  1.0
  H  H35  1  0.68377000  0.02280000  0.11604000  1.0
  C  C36  1  0.67689000  0.64577000  0.79877000  1.0
  C  C37  1  0.17689000  0.85423000  0.70124000  1.0
  C  C38  1  0.32311000  0.35423000  0.20123000  1.0
  C  C39  1  0.82311000  0.14577000  0.29876000  1.0
  C  C40  1  0.66107000  0.52061000  0.79486000  1.0
  C  C41  1  0.16107000  0.97939000  0.70514000  1.0
  C  C42  1  0.33893000  0.47939000  0.20514000  1.0
  C  C43  1  0.83893000  0.02061000  0.29486000  1.0
  C  C44  1  0.72771000  0.69436000  0.70600000  1.0
  C  C45  1  0.22771000  0.80565000  0.79401000  1.0
  C  C46  1  0.27229000  0.30564000  0.29401000  1.0
  C  C47  1  0.77229000  0.19436000  0.20599000  1.0
  C  C48  1  0.49966000  0.07058000  0.61628000  1.0
  C  C49  1  0.99966000  0.42941000  0.88372000  1.0
  C  C50  1  0.50035000  0.92941000  0.38372000  1.0
  C  C51  1  0.00034000  0.57058000  0.11628000  1.0
  C  C52  1  0.63025000  0.70696000  0.90944000  1.0
  C  C53  1  0.13025000  0.79304000  0.59056000  1.0
  C  C54  1  0.36975000  0.29304000  0.09055000  1.0
  C  C55  1  0.86975000  0.20696000  0.40944000  1.0
  C  C56  1  0.54667000  0.11955000  0.52689000  1.0
  C  C57  1  0.04667000  0.38045000  0.97311000  1.0
  C  C58  1  0.45334000  0.88045000  0.47311000  1.0
  C  C59  1  0.95333000  0.61954000  0.02689000  1.0
  C  C60  1  0.45335000  0.95046000  0.58841000  1.0
  C  C61  1  0.95335000  0.54954000  0.91159000  1.0
  C  C62  1  0.54665000  0.04954000  0.41159000  1.0
  C  C63  1  0.04665000  0.45046000  0.08841000  1.0
  C  C64  1  0.49964000  0.14487000  0.74111000  1.0
  C  C65  1  0.99965000  0.35512000  0.75889000  1.0
  C  C66  1  0.50036000  0.85512000  0.25889000  1.0
  C  C67  1  0.00035000  0.64487000  0.24111000  1.0
  C  C68  1  0.84310000  0.66294000  0.52551000  1.0
  C  C69  1  0.34310000  0.83706000  0.97450000  1.0
  C  C70  1  0.15690000  0.33706000  0.47450000  1.0
  C  C71  1  0.65690000  0.16294000  0.02550000  1.0
  C  C72  1  0.76271000  0.85620000  0.60860000  1.0
  C  C73  1  0.26271000  0.64380000  0.89141000  1.0
  C  C74  1  0.23729000  0.14380000  0.39141000  1.0
  C  C75  1  0.73729000  0.35620000  0.10859000  1.0
  C  C76  1  0.71126000  0.81684000  0.70047000  1.0
  C  C77  1  0.21126000  0.68317000  0.79953000  1.0
  C  C78  1  0.28874000  0.18316000  0.29953000  1.0
  C  C79  1  0.78874000  0.31683000  0.20047000  1.0
  C  C80  1  0.79557000  0.61706000  0.61448000  1.0
  C  C81  1  0.29557000  0.88294000  0.88552000  1.0
  C  C82  1  0.20443000  0.38294000  0.38552000  1.0
  C  C83  1  0.70443000  0.11706000  0.11448000  1.0
  N  N84  1  0.60812000  0.50943000  0.89416000  1.0
  N  N85  1  0.10812000  0.99057000  0.60584000  1.0
  N  N86  1  0.39188000  0.49057000  0.10584000  1.0
  N  N87  1  0.89188000  0.00943000  0.39415000  1.0
  N  N88  1  0.82836000  0.78128000  0.52220000  1.0
  N  N89  1  0.32835000  0.71873000  0.97781000  1.0
  N  N90  1  0.17165000  0.21872000  0.47781000  1.0
  N  N91  1  0.67164000  0.28128000  0.02219000  1.0
  N  N92  1  0.58995000  0.62445000  0.96589000  1.0
  N  N93  1  0.08995000  0.87555000  0.53411000  1.0
  N  N94  1  0.41005000  0.37555000  0.03411000  1.0
  N  N95  1  0.91005000  0.12445000  0.46589000  1.0
  O  O96  1  0.54684000  0.25411000  0.75795000  1.0
  O  O97  1  0.04684000  0.24589000  0.74205000  1.0
  O  O98  1  0.45315000  0.74589000  0.24205000  1.0
  O  O99  1  0.95315000  0.75411000  0.25795000  1.0
  O  O100  1  0.45762000  0.10126000  0.82118000  1.0
  O  O101  1  0.95762000  0.39874000  0.67882000  1.0
  O  O102  1  0.54238000  0.89873000  0.17881000  1.0
  O  O103  1  0.04238000  0.60126000  0.32118000  1.0
