# generated using pymatgen
data_NiH10C10(NCl)2
_symmetry_space_group_name_H-M   'P 1'
_cell_length_a   3.60218000
_cell_length_b   17.03500000
_cell_length_c   18.87190000
_cell_angle_alpha   116.52800000
_cell_angle_beta   89.99970000
_cell_angle_gamma   89.99970000
_symmetry_Int_Tables_number   1
_chemical_formula_structural   NiH10C10(NCl)2
_chemical_formula_sum   'Ni4 H40 C40 N8 Cl8'
_cell_volume   1036.11622995
_cell_formula_units_Z   4
loop_
 _symmetry_equiv_pos_site_id
 _symmetry_equiv_pos_as_xyz
  1  'x, y, z'
loop_
 _atom_site_type_symbol
 _atom_site_label
 _atom_site_symmetry_multiplicity
 _atom_site_fract_x
 _atom_site_fract_y
 _atom_site_fract_z
 _atom_site_occupancy
  Ni  Ni0  1  0.43202000  0.25000000  0.00000000  1.0
  Ni  Ni1  1  0.56798000  0.75000000  0.00000000  1.0
  Ni  Ni2  1  0.83557000  0.75000000  0.50000000  1.0
  Ni  Ni3  1  0.16445000  0.25000000  0.50000000  1.0
  H  H4  1  0.58306000  0.14832000  0.82789000  1.0
  H  H5  1  0.58306000  0.35168000  0.17211000  1.0
  H  H6  1  0.41693000  0.85168000  0.17211000  1.0
  H  H7  1  0.41694000  0.64832000  0.82789000  1.0
  H  H8  1  0.27446000  0.07757000  0.00177000  1.0
  H  H9  1  0.27445000  0.42243000  0.99823000  1.0
  H  H10  1  0.72555000  0.92243000  0.99823000  1.0
  H  H11  1  0.72556000  0.57757000  0.00177000  1.0
  H  H12  1  0.57484000  0.99117000  0.72289000  1.0
  H  H13  1  0.57485000  0.50884000  0.27711000  1.0
  H  H14  1  0.42515000  0.00883000  0.27711000  1.0
  H  H15  1  0.42516000  0.49117000  0.72290000  1.0
  H  H16  1  0.25169000  0.91783000  0.90529000  1.0
  H  H17  1  0.25168000  0.58217000  0.09470000  1.0
  H  H18  1  0.74833000  0.08217000  0.09471000  1.0
  H  H19  1  0.74832000  0.41783000  0.90529000  1.0
  H  H20  1  0.40623000  0.87406000  0.76260000  1.0
  H  H21  1  0.40624000  0.62594000  0.23739000  1.0
  H  H22  1  0.59377000  0.12594000  0.23740000  1.0
  H  H23  1  0.59377000  0.37406000  0.76261000  1.0
  H  H24  1  0.76111000  0.92579000  0.50242000  1.0
  H  H25  1  0.76111000  0.57420000  0.49758000  1.0
  H  H26  1  0.23890000  0.07420000  0.49757000  1.0
  H  H27  1  0.23891000  0.42580000  0.50243000  1.0
  H  H28  1  0.91098000  0.67412000  0.32636000  1.0
  H  H29  1  0.91098000  0.82587000  0.67364000  1.0
  H  H30  1  0.08903000  0.32587000  0.67363000  1.0
  H  H31  1  0.08903000  0.17413000  0.32637000  1.0
  H  H32  1  0.80236000  0.98973000  0.40567000  1.0
  H  H33  1  0.80234000  0.51027000  0.59433000  1.0
  H  H34  1  0.19764000  0.01026000  0.59432000  1.0
  H  H35  1  0.19764000  0.48974000  0.40568000  1.0
  H  H36  1  0.95899000  0.72678000  0.22094000  1.0
  H  H37  1  0.95898000  0.77322000  0.77905000  1.0
  H  H38  1  0.04100000  0.27321000  0.77905000  1.0
  H  H39  1  0.04097000  0.22679000  0.22095000  1.0
  H  H40  1  0.91676000  0.88756000  0.26232000  1.0
  H  H41  1  0.91674000  0.61243000  0.73768000  1.0
  H  H42  1  0.08322000  0.11243000  0.73767000  1.0
  H  H43  1  0.08320000  0.38757000  0.26233000  1.0
  C  C44  1  0.51183000  0.09471000  0.84185000  1.0
  C  C45  1  0.51183000  0.40529000  0.15815000  1.0
  C  C46  1  0.48818000  0.90529000  0.15815000  1.0
  C  C47  1  0.48818000  0.59471000  0.84185000  1.0
  C  C48  1  0.34119000  0.05519000  0.93950000  1.0
  C  C49  1  0.34118000  0.44481000  0.06050000  1.0
  C  C50  1  0.65883000  0.94481000  0.06051000  1.0
  C  C51  1  0.65883000  0.55519000  0.93950000  1.0
  C  C52  1  0.50876000  0.00775000  0.78435000  1.0
  C  C53  1  0.50876000  0.49226000  0.21565000  1.0
  C  C54  1  0.49124000  0.99225000  0.21566000  1.0
  C  C55  1  0.49124000  0.50775000  0.78435000  1.0
  C  C56  1  0.32825000  0.96679000  0.88549000  1.0
  C  C57  1  0.32824000  0.53321000  0.11451000  1.0
  C  C58  1  0.67175000  0.03321000  0.11451000  1.0
  C  C59  1  0.67175000  0.46679000  0.88549000  1.0
  C  C60  1  0.41358000  0.94255000  0.80646000  1.0
  C  C61  1  0.41358000  0.55745000  0.19354000  1.0
  C  C62  1  0.58642000  0.05745000  0.19354000  1.0
  C  C63  1  0.58642000  0.44255000  0.80646000  1.0
  C  C64  1  0.80824000  0.88449000  0.43958000  1.0
  C  C65  1  0.80823000  0.61551000  0.56042000  1.0
  C  C66  1  0.19177000  0.11551000  0.56041000  1.0
  C  C67  1  0.19177000  0.38449000  0.43959000  1.0
  C  C68  1  0.89008000  0.74333000  0.34066000  1.0
  C  C69  1  0.89009000  0.75667000  0.65933000  1.0
  C  C70  1  0.10992000  0.25666000  0.65933000  1.0
  C  C71  1  0.10992000  0.24334000  0.34067000  1.0
  C  C72  1  0.83213000  0.91927000  0.38560000  1.0
  C  C73  1  0.83211000  0.58073000  0.61440000  1.0
  C  C74  1  0.16785000  0.08073000  0.61440000  1.0
  C  C75  1  0.16785000  0.41928000  0.38560000  1.0
  C  C76  1  0.91866000  0.77283000  0.28302000  1.0
  C  C77  1  0.91865000  0.72716000  0.71697000  1.0
  C  C78  1  0.08132000  0.22716000  0.71696000  1.0
  C  C79  1  0.08133000  0.27284000  0.28304000  1.0
  C  C80  1  0.89276000  0.86252000  0.30603000  1.0
  C  C81  1  0.89275000  0.63748000  0.69396000  1.0
  C  C82  1  0.10723000  0.13747000  0.69396000  1.0
  C  C83  1  0.10721000  0.36253000  0.30604000  1.0
  N  N84  1  0.42985000  0.11860000  0.91836000  1.0
  N  N85  1  0.42984000  0.38140000  0.08164000  1.0
  N  N86  1  0.57016000  0.88140000  0.08164000  1.0
  N  N87  1  0.57016000  0.61860000  0.91837000  1.0
  N  N88  1  0.84001000  0.79805000  0.41786000  1.0
  N  N89  1  0.84001000  0.70195000  0.58213000  1.0
  N  N90  1  0.16000000  0.20195000  0.58213000  1.0
  N  N91  1  0.16000000  0.29805000  0.41787000  1.0
  Cl  Cl92  1  0.93250000  0.22176000  0.07341000  1.0
  Cl  Cl93  1  0.93250000  0.27824000  0.92659000  1.0
  Cl  Cl94  1  0.06752000  0.77824000  0.92658000  1.0
  Cl  Cl95  1  0.06752000  0.72177000  0.07342000  1.0
  Cl  Cl96  1  0.33958000  0.85178000  0.57271000  1.0
  Cl  Cl97  1  0.33959000  0.64822000  0.42729000  1.0
  Cl  Cl98  1  0.66045000  0.14822000  0.42729000  1.0
  Cl  Cl99  1  0.66044000  0.35178000  0.57271000  1.0
