# generated using pymatgen
data_ErH20C30N3O7
_symmetry_space_group_name_H-M   'P 1'
_cell_length_a   8.40839000
_cell_length_b   11.36090000
_cell_length_c   14.60200000
_cell_angle_alpha   69.51800000
_cell_angle_beta   73.37940000
_cell_angle_gamma   82.68890000
_symmetry_Int_Tables_number   1
_chemical_formula_structural   ErH20C30N3O7
_chemical_formula_sum   'Er2 H40 C60 N6 O14'
_cell_volume   1251.53398174
_cell_formula_units_Z   2
loop_
 _symmetry_equiv_pos_site_id
 _symmetry_equiv_pos_as_xyz
  1  'x, y, z'
loop_
 _atom_site_type_symbol
 _atom_site_label
 _atom_site_symmetry_multiplicity
 _atom_site_fract_x
 _atom_site_fract_y
 _atom_site_fract_z
 _atom_site_occupancy
  Er  Er0  1  0.13981000  0.50440000  0.08137000  1.0
  Er  Er1  1  0.86019000  0.49560000  0.91864000  1.0
  H  H2  1  0.18909000  0.29709000  0.30606000  1.0
  H  H3  1  0.81091000  0.70291000  0.69395000  1.0
  H  H4  1  0.26012000  0.30033000  0.45857000  1.0
  H  H5  1  0.73987000  0.69968000  0.54143000  1.0
  H  H6  1  0.11633000  0.69504000  0.37650000  1.0
  H  H7  1  0.88367000  0.30497000  0.62350000  1.0
  H  H8  1  0.04126000  0.67154000  0.22925000  1.0
  H  H9  1  0.95874000  0.32846000  0.77075000  1.0
  H  H10  1  0.30049000  0.31640000  0.58432000  1.0
  H  H11  1  0.69951000  0.68361000  0.41568000  1.0
  H  H12  1  0.39748000  0.57197000  0.71917000  1.0
  H  H13  1  0.60252000  0.42803000  0.28083000  1.0
  H  H14  1  0.39226000  0.98349000  0.68692000  1.0
  H  H15  1  0.60773000  0.01651000  0.31309000  1.0
  H  H16  1  0.40594000  0.76014000  0.70683000  1.0
  H  H17  1  0.59405000  0.23986000  0.29317000  1.0
  H  H18  1  0.16629000  0.85466000  0.46339000  1.0
  H  H19  1  0.83371000  0.14534000  0.53661000  1.0
  H  H20  1  0.16522000  0.07852000  0.45231000  1.0
  H  H21  1  0.83479000  0.92149000  0.54769000  1.0
  H  H22  1  0.54031000  0.23396000  0.62521000  1.0
  H  H23  1  0.45969000  0.76604000  0.37479000  1.0
  H  H24  1  0.65560000  0.05489000  0.74346000  1.0
  H  H25  1  0.34440000  0.94510000  0.25654000  1.0
  H  H26  1  0.61823000  0.04814000  0.92117000  1.0
  H  H27  1  0.38177000  0.95185000  0.07883000  1.0
  H  H28  1  0.44181000  0.21424000  0.98196000  1.0
  H  H29  1  0.55819000  0.78575000  0.01804000  1.0
  H  H30  1  0.16234000  0.06580000  0.19374000  1.0
  H  H31  1  0.83765000  0.93420000  0.80626000  1.0
  H  H32  1  0.11421000  0.84914000  0.20297000  1.0
  H  H33  1  0.88579000  0.15086000  0.79703000  1.0
  H  H34  1  0.88514000  0.81488000  0.13777000  1.0
  H  H35  1  0.11487000  0.18512000  0.86222000  1.0
  H  H36  1  0.70085000  0.99405000  0.07335000  1.0
  H  H37  1  0.29915000  0.00595000  0.92665000  1.0
  H  H38  1  0.45701000  0.36186000  0.11272000  1.0
  H  H39  1  0.54298000  0.63813000  0.88728000  1.0
  H  H40  1  0.49183000  0.50611000  0.08628000  1.0
  H  H41  1  0.50816000  0.49389000  0.91372000  1.0
  C  C42  1  0.17315000  0.38316000  0.32519000  1.0
  C  C43  1  0.82685000  0.61684000  0.67481000  1.0
  C  C44  1  0.21400000  0.38667000  0.40993000  1.0
  C  C45  1  0.78600000  0.61334000  0.59007000  1.0
  C  C46  1  0.19802000  0.50103000  0.42925000  1.0
  C  C47  1  0.80198000  0.49897000  0.57075000  1.0
  C  C48  1  0.13358000  0.60534000  0.36318000  1.0
  C  C49  1  0.86642000  0.39467000  0.63682000  1.0
  C  C50  1  0.09296000  0.59278000  0.28149000  1.0
  C  C51  1  0.90704000  0.40722000  0.71851000  1.0
  C  C52  1  0.24893000  0.51497000  0.51398000  1.0
  C  C53  1  0.75108000  0.48503000  0.48601000  1.0
  C  C54  1  0.30219000  0.41136000  0.58594000  1.0
  C  C55  1  0.69781000  0.58864000  0.41406000  1.0
  C  C56  1  0.35472000  0.43016000  0.66227000  1.0
  C  C57  1  0.64529000  0.56984000  0.33773000  1.0
  C  C58  1  0.35224000  0.55364000  0.66274000  1.0
  C  C59  1  0.64777000  0.44636000  0.33726000  1.0
  C  C60  1  0.29378000  0.65253000  0.58955000  1.0
  C  C61  1  0.70622000  0.34748000  0.41045000  1.0
  C  C62  1  0.34407000  0.95312000  0.63707000  1.0
  C  C63  1  0.65593000  0.04688000  0.36294000  1.0
  C  C64  1  0.35110000  0.82545000  0.64836000  1.0
  C  C65  1  0.64890000  0.17455000  0.35164000  1.0
  C  C66  1  0.28808000  0.78594000  0.58504000  1.0
  C  C67  1  0.71192000  0.21407000  0.41496000  1.0
  C  C68  1  0.21889000  0.88018000  0.51368000  1.0
  C  C69  1  0.78111000  0.11982000  0.48632000  1.0
  C  C70  1  0.21850000  0.00513000  0.50807000  1.0
  C  C71  1  0.78151000  0.99488000  0.49193000  1.0
  C  C72  1  0.41713000  0.32274000  0.73656000  1.0
  C  C73  1  0.58287000  0.67726000  0.26344000  1.0
  C  C74  1  0.51435000  0.22786000  0.70412000  1.0
  C  C75  1  0.48565000  0.77214000  0.29588000  1.0
  C  C76  1  0.58342000  0.12858000  0.77036000  1.0
  C  C77  1  0.41658000  0.87142000  0.22963000  1.0
  C  C78  1  0.56120000  0.12443000  0.86987000  1.0
  C  C79  1  0.43880000  0.87556000  0.13013000  1.0
  C  C80  1  0.46385000  0.21723000  0.90387000  1.0
  C  C81  1  0.53615000  0.78277000  0.09613000  1.0
  C  C82  1  0.38751000  0.31405000  0.83882000  1.0
  C  C83  1  0.61249000  0.68595000  0.16118000  1.0
  C  C84  1  0.25833000  0.39406000  0.88613000  1.0
  C  C85  1  0.74167000  0.60595000  0.11387000  1.0
  C  C86  1  0.00785000  0.27539000  0.12048000  1.0
  C  C87  1  0.99215000  0.72461000  0.87952000  1.0
  C  C88  1  0.96266000  0.15041000  0.12722000  1.0
  C  C89  1  0.03734000  0.84958000  0.87277000  1.0
  C  C90  1  0.06186000  0.04733000  0.16773000  1.0
  C  C91  1  0.93814000  0.95267000  0.83226000  1.0
  C  C92  1  0.03362000  0.92715000  0.17299000  1.0
  C  C93  1  0.96639000  0.07285000  0.82701000  1.0
  C  C94  1  0.90552000  0.90818000  0.13684000  1.0
  C  C95  1  0.09449000  0.09182000  0.86316000  1.0
  C  C96  1  0.80339000  0.00929000  0.09899000  1.0
  C  C97  1  0.19661000  0.99070000  0.90100000  1.0
  C  C98  1  0.82919000  0.13064000  0.09433000  1.0
  C  C99  1  0.17081000  0.86936000  0.90567000  1.0
  C  C100  1  0.70398000  0.23199000  0.06073000  1.0
  C  C101  1  0.29602000  0.76801000  0.93928000  1.0
  N  N102  1  0.11526000  0.48469000  0.26049000  1.0
  N  N103  1  0.88474000  0.51531000  0.73951000  1.0
  N  N104  1  0.24260000  0.63220000  0.51718000  1.0
  N  N105  1  0.75741000  0.36780000  0.48282000  1.0
  N  N106  1  0.28027000  0.04360000  0.56797000  1.0
  N  N107  1  0.71973000  0.95641000  0.43204000  1.0
  O  O108  1  0.11962000  0.41020000  0.86430000  1.0
  O  O109  1  0.88038000  0.58979000  0.13570000  1.0
  O  O110  1  0.29378000  0.43308000  0.94999000  1.0
  O  O111  1  0.70622000  0.56691000  0.05001000  1.0
  O  O112  1  0.11349000  0.28481000  0.16469000  1.0
  O  O113  1  0.88651000  0.71518000  0.83531000  1.0
  O  O114  1  0.94576000  0.37732000  0.06653000  1.0
  O  O115  1  0.05424000  0.62268000  0.93347000  1.0
  O  O116  1  0.56479000  0.22951000  0.12310000  1.0
  O  O117  1  0.43522000  0.77049000  0.87691000  1.0
  O  O118  1  0.74431000  0.31104000  0.97040000  1.0
  O  O119  1  0.25568000  0.68896000  0.02960000  1.0
  O  O120  1  0.40147000  0.44594000  0.11296000  1.0
  O  O121  1  0.59852000  0.55406000  0.88704000  1.0
