# generated using pymatgen
data_CuH6C3S2Cl
_symmetry_space_group_name_H-M   'P 1'
_cell_length_a   6.84633000
_cell_length_b   7.06192000
_cell_length_c   7.24080000
_cell_angle_alpha   86.39230000
_cell_angle_beta   82.49880000
_cell_angle_gamma   61.03550000
_symmetry_Int_Tables_number   1
_chemical_formula_structural   CuH6C3S2Cl
_chemical_formula_sum   'Cu2 H12 C6 S4 Cl2'
_cell_volume   303.67065328
_cell_formula_units_Z   2
loop_
 _symmetry_equiv_pos_site_id
 _symmetry_equiv_pos_as_xyz
  1  'x, y, z'
loop_
 _atom_site_type_symbol
 _atom_site_label
 _atom_site_symmetry_multiplicity
 _atom_site_fract_x
 _atom_site_fract_y
 _atom_site_fract_z
 _atom_site_occupancy
  Cu  Cu0  1  0.10277000  0.98042000  0.26815000  1.0
  Cu  Cu1  1  0.08327000  0.01987000  0.76819000  1.0
  H  H2  1  0.39251000  0.59885000  0.54143000  1.0
  H  H3  1  0.99066000  0.40213000  0.04206000  1.0
  H  H4  1  0.29619000  0.39860000  0.56801000  1.0
  H  H5  1  0.69398000  0.60168000  0.06846000  1.0
  H  H6  1  0.65882000  0.80797000  0.70385000  1.0
  H  H7  1  0.46686000  0.19152000  0.20349000  1.0
  H  H8  1  0.73053000  0.99427000  0.57434000  1.0
  H  H9  1  0.72493000  0.00549000  0.07405000  1.0
  H  H10  1  0.73349000  0.76719000  0.33713000  1.0
  H  H11  1  0.50121000  0.23243000  0.83673000  1.0
  H  H12  1  0.87965000  0.52465000  0.46850000  1.0
  H  H13  1  0.40453000  0.47500000  0.96835000  1.0
  C  C14  1  0.24826000  0.57030000  0.54663000  1.0
  C  C15  1  0.81806000  0.43013000  0.04702000  1.0
  C  C16  1  0.79004000  0.82343000  0.61017000  1.0
  C  C17  1  0.61357000  0.17631000  0.10997000  1.0
  C  C18  1  0.85799000  0.68737000  0.43634000  1.0
  C  C19  1  0.54564000  0.31238000  0.93618000  1.0
  S  S20  1  0.12792000  0.65599000  0.32929000  1.0
  S  S21  1  0.78410000  0.34415000  0.82946000  1.0
  S  S22  1  0.03637000  0.73066000  0.73667000  1.0
  S  S23  1  0.76678000  0.26933000  0.23676000  1.0
  Cl  Cl24  1  0.27094000  0.06720000  0.48469000  1.0
  Cl  Cl25  1  0.33804000  0.93269000  0.98473000  1.0
