# generated using pymatgen
data_SmAgH12C14N2O13
_symmetry_space_group_name_H-M   'P 1'
_cell_length_a   6.53801000
_cell_length_b   6.53803000
_cell_length_c   20.28900000
_cell_angle_alpha   96.05670000
_cell_angle_beta   96.05660000
_cell_angle_gamma   103.11700000
_symmetry_Int_Tables_number   1
_chemical_formula_structural   SmAgH12C14N2O13
_chemical_formula_sum   'Sm2 Ag2 H24 C28 N4 O26'
_cell_volume   832.38705761
_cell_formula_units_Z   2
loop_
 _symmetry_equiv_pos_site_id
 _symmetry_equiv_pos_as_xyz
  1  'x, y, z'
loop_
 _atom_site_type_symbol
 _atom_site_label
 _atom_site_symmetry_multiplicity
 _atom_site_fract_x
 _atom_site_fract_y
 _atom_site_fract_z
 _atom_site_occupancy
  Sm  Sm0  1  0.96559000  0.03441000  0.25000000  1.0
  Sm  Sm1  1  0.03441000  0.96559000  0.75000000  1.0
  Ag  Ag2  1  0.38115000  0.61885000  0.25000000  1.0
  Ag  Ag3  1  0.61886000  0.38115000  0.75000000  1.0
  H  H4  1  0.37139000  0.42696000  0.50036000  1.0
  H  H5  1  0.57303000  0.62861000  0.99964000  1.0
  H  H6  1  0.62861000  0.57304000  0.49964000  1.0
  H  H7  1  0.42697000  0.37139000  0.00036000  1.0
  H  H8  1  0.71558000  0.12213000  0.50547000  1.0
  H  H9  1  0.87787000  0.28442000  0.99452000  1.0
  H  H10  1  0.28442000  0.87786000  0.49453000  1.0
  H  H11  1  0.12213000  0.71558000  0.00547000  1.0
  H  H12  1  0.22717000  0.43616000  0.59419000  1.0
  H  H13  1  0.56383000  0.77283000  0.90581000  1.0
  H  H14  1  0.77284000  0.56384000  0.40581000  1.0
  H  H15  1  0.43617000  0.22716000  0.09418000  1.0
  H  H16  1  0.02782000  0.72136000  0.34768000  1.0
  H  H17  1  0.27864000  0.97219000  0.15231000  1.0
  H  H18  1  0.97219000  0.27865000  0.65232000  1.0
  H  H19  1  0.72136000  0.02781000  0.84768000  1.0
  H  H20  1  0.25589000  0.84974000  0.34463000  1.0
  H  H21  1  0.15026000  0.74411000  0.15537000  1.0
  H  H22  1  0.74412000  0.15026000  0.65537000  1.0
  H  H23  1  0.84973000  0.25588000  0.84463000  1.0
  H  H24  1  0.74223000  0.41381000  0.23149000  1.0
  H  H25  1  0.58618000  0.25777000  0.26851000  1.0
  H  H26  1  0.25777000  0.58618000  0.76851000  1.0
  H  H27  1  0.41382000  0.74223000  0.73149000  1.0
  C  C28  1  0.36198000  0.32845000  0.36464000  1.0
  C  C29  1  0.67156000  0.63803000  0.13536000  1.0
  C  C30  1  0.63803000  0.67155000  0.63536000  1.0
  C  C31  1  0.32844000  0.36197000  0.86464000  1.0
  C  C32  1  0.18443000  0.27766000  0.40655000  1.0
  C  C33  1  0.72233000  0.81557000  0.09345000  1.0
  C  C34  1  0.81558000  0.72234000  0.59345000  1.0
  C  C35  1  0.27766000  0.18442000  0.90655000  1.0
  C  C36  1  0.21746000  0.33975000  0.47495000  1.0
  C  C37  1  0.66024000  0.78254000  0.02505000  1.0
  C  C38  1  0.78254000  0.66025000  0.52505000  1.0
  C  C39  1  0.33975000  0.21745000  0.97495000  1.0
  C  C40  1  0.04884000  0.28762000  0.51211000  1.0
  C  C41  1  0.71238000  0.95117000  0.98790000  1.0
  C  C42  1  0.95116000  0.71238000  0.48790000  1.0
  C  C43  1  0.28762000  0.04884000  0.01210000  1.0
  C  C44  1  0.85119000  0.17009000  0.47877000  1.0
  C  C45  1  0.82991000  0.14881000  0.02123000  1.0
  C  C46  1  0.14881000  0.82991000  0.52123000  1.0
  C  C47  1  0.17009000  0.85118000  0.97877000  1.0
  C  C48  1  0.83501000  0.11049000  0.40996000  1.0
  C  C49  1  0.88951000  0.16499000  0.09004000  1.0
  C  C50  1  0.16500000  0.88951000  0.59004000  1.0
  C  C51  1  0.11048000  0.83501000  0.90996000  1.0
  C  C52  1  0.63570000  0.96940000  0.37007000  1.0
  C  C53  1  0.03061000  0.36430000  0.12993000  1.0
  C  C54  1  0.36431000  0.03061000  0.62994000  1.0
  C  C55  1  0.96938000  0.63570000  0.87007000  1.0
  N  N56  1  0.99650000  0.16501000  0.37424000  1.0
  N  N57  1  0.83499000  0.00350000  0.12576000  1.0
  N  N58  1  0.00351000  0.83499000  0.62576000  1.0
  N  N59  1  0.16501000  0.99649000  0.87424000  1.0
  O  O60  1  0.32103000  0.24905000  0.30230000  1.0
  O  O61  1  0.75095000  0.67897000  0.19770000  1.0
  O  O62  1  0.67897000  0.75096000  0.69770000  1.0
  O  O63  1  0.24904000  0.32103000  0.80230000  1.0
  O  O64  1  0.53599000  0.44373000  0.39239000  1.0
  O  O65  1  0.55628000  0.46401000  0.10761000  1.0
  O  O66  1  0.46401000  0.55627000  0.60761000  1.0
  O  O67  1  0.44372000  0.53599000  0.89239000  1.0
  O  O68  1  0.07676000  0.34990000  0.57866000  1.0
  O  O69  1  0.65010000  0.92324000  0.92134000  1.0
  O  O70  1  0.92324000  0.65011000  0.42134000  1.0
  O  O71  1  0.34990000  0.07676000  0.07866000  1.0
  O  O72  1  0.46867000  0.93047000  0.39664000  1.0
  O  O73  1  0.06954000  0.53133000  0.10336000  1.0
  O  O74  1  0.53134000  0.06954000  0.60336000  1.0
  O  O75  1  0.93045000  0.46867000  0.89664000  1.0
  O  O76  1  0.65487000  0.89628000  0.30987000  1.0
  O  O77  1  0.10373000  0.34513000  0.19013000  1.0
  O  O78  1  0.34514000  0.10373000  0.69013000  1.0
  O  O79  1  0.89627000  0.65486000  0.80987000  1.0
  O  O80  1  0.11475000  0.78777000  0.31521000  1.0
  O  O81  1  0.21223000  0.88526000  0.18479000  1.0
  O  O82  1  0.88527000  0.21223000  0.68479000  1.0
  O  O83  1  0.78777000  0.11474000  0.81521000  1.0
  O  O84  1  0.72231000  0.27770000  0.25000000  1.0
  O  O85  1  0.27769000  0.72230000  0.75000000  1.0
