# generated using pymatgen
data_ZnH16C22(NO)4
_symmetry_space_group_name_H-M   'P 1'
_cell_length_a   9.24539000
_cell_length_b   10.36500000
_cell_length_c   13.03100000
_cell_angle_alpha   101.04700000
_cell_angle_beta   101.02300000
_cell_angle_gamma   114.04200000
_symmetry_Int_Tables_number   1
_chemical_formula_structural   ZnH16C22(NO)4
_chemical_formula_sum   'Zn2 H32 C44 N8 O8'
_cell_volume   1067.57706030
_cell_formula_units_Z   2
loop_
 _symmetry_equiv_pos_site_id
 _symmetry_equiv_pos_as_xyz
  1  'x, y, z'
loop_
 _atom_site_type_symbol
 _atom_site_label
 _atom_site_symmetry_multiplicity
 _atom_site_fract_x
 _atom_site_fract_y
 _atom_site_fract_z
 _atom_site_occupancy
  Zn  Zn0  1  0.24653000  0.15220000  0.22141000  1.0
  Zn  Zn1  1  0.75348000  0.84780000  0.77860000  1.0
  H  H2  1  0.80744000  0.22337000  0.05157000  1.0
  H  H3  1  0.19255000  0.77662000  0.94842000  1.0
  H  H4  1  0.73882000  0.31877000  0.74512000  1.0
  H  H5  1  0.26118000  0.68123000  0.25488000  1.0
  H  H6  1  0.83070000  0.64605000  0.04073000  1.0
  H  H7  1  0.16929000  0.35394000  0.95926000  1.0
  H  H8  1  0.98624000  0.49726000  0.22126000  1.0
  H  H9  1  0.01376000  0.50273000  0.77874000  1.0
  H  H10  1  0.87956000  0.60489000  0.21020000  1.0
  H  H11  1  0.12044000  0.39510000  0.78979000  1.0
  H  H12  1  0.52186000  0.40354000  0.15161000  1.0
  H  H13  1  0.47814000  0.59646000  0.84840000  1.0
  H  H14  1  0.59538000  0.15196000  0.35485000  1.0
  H  H15  1  0.40464000  0.84805000  0.64515000  1.0
  H  H16  1  0.90013000  0.32310000  0.32045000  1.0
  H  H17  1  0.09988000  0.67690000  0.67955000  1.0
  H  H18  1  0.89670000  0.93760000  0.04521000  1.0
  H  H19  1  0.10331000  0.06240000  0.95479000  1.0
  H  H20  1  0.60011000  0.81314000  0.04351000  1.0
  H  H21  1  0.39990000  0.18686000  0.95649000  1.0
  H  H22  1  0.53673000  0.84765000  0.22371000  1.0
  H  H23  1  0.46328000  0.15235000  0.77629000  1.0
  H  H24  1  0.76759000  0.00627000  0.39453000  1.0
  H  H25  1  0.23241000  0.99374000  0.60547000  1.0
  H  H26  1  0.96854000  0.15863000  0.52744000  1.0
  H  H27  1  0.03146000  0.84138000  0.47256000  1.0
  H  H28  1  0.22492000  0.32344000  0.68153000  1.0
  H  H29  1  0.77507000  0.67658000  0.31847000  1.0
  H  H30  1  0.50259000  0.41950000  0.64323000  1.0
  H  H31  1  0.49741000  0.58052000  0.35678000  1.0
  H  H32  1  0.50429000  0.34147000  0.45070000  1.0
  H  H33  1  0.49571000  0.65854000  0.54931000  1.0
  C  C34  1  0.82029000  0.43973000  0.06020000  1.0
  C  C35  1  0.17971000  0.56025000  0.93980000  1.0
  C  C36  1  0.79754000  0.29915000  0.00620000  1.0
  C  C37  1  0.20247000  0.70084000  0.99379000  1.0
  C  C38  1  0.76665000  0.25500000  0.89262000  1.0
  C  C39  1  0.23335000  0.74500000  0.10737000  1.0
  C  C40  1  0.75897000  0.35240000  0.83328000  1.0
  C  C41  1  0.24102000  0.64759000  0.16671000  1.0
  C  C42  1  0.78212000  0.49293000  0.88617000  1.0
  C  C43  1  0.21787000  0.50705000  0.11382000  1.0
  C  C44  1  0.81025000  0.53511000  0.99983000  1.0
  C  C45  1  0.18975000  0.46488000  0.00016000  1.0
  C  C46  1  0.79026000  0.60134000  0.82236000  1.0
  C  C47  1  0.20974000  0.39865000  0.17764000  1.0
  C  C48  1  0.75104000  0.10803000  0.83333000  1.0
  C  C49  1  0.24896000  0.89197000  0.16666000  1.0
  C  C50  1  0.86645000  0.49241000  0.18347000  1.0
  C  C51  1  0.13355000  0.50758000  0.81653000  1.0
  C  C52  1  0.58276000  0.35969000  0.20437000  1.0
  C  C53  1  0.41724000  0.64031000  0.79563000  1.0
  C  C54  1  0.62769000  0.23227000  0.31004000  1.0
  C  C55  1  0.37232000  0.76774000  0.68997000  1.0
  C  C56  1  0.77693000  0.31412000  0.29382000  1.0
  C  C57  1  0.22309000  0.68590000  0.70619000  1.0
  C  C58  1  0.86310000  0.95149000  0.12075000  1.0
  C  C59  1  0.13691000  0.04851000  0.87925000  1.0
  C  C60  1  0.69815000  0.88097000  0.12056000  1.0
  C  C61  1  0.30185000  0.11903000  0.87944000  1.0
  C  C62  1  0.66362000  0.90088000  0.22026000  1.0
  C  C63  1  0.33638000  0.09912000  0.77974000  1.0
  C  C64  1  0.79345000  0.99082000  0.31626000  1.0
  C  C65  1  0.20655000  0.00919000  0.68374000  1.0
  C  C66  1  0.95521000  0.06010000  0.30998000  1.0
  C  C67  1  0.04479000  0.93990000  0.69002000  1.0
  C  C68  1  0.10124000  0.15996000  0.40677000  1.0
  C  C69  1  0.89876000  0.84004000  0.59323000  1.0
  C  C70  1  0.08872000  0.19992000  0.51235000  1.0
  C  C71  1  0.91126000  0.80008000  0.48764000  1.0
  C  C72  1  0.23281000  0.29326000  0.59886000  1.0
  C  C73  1  0.76717000  0.70675000  0.40114000  1.0
  C  C74  1  0.38605000  0.34599000  0.57875000  1.0
  C  C75  1  0.61394000  0.65403000  0.42125000  1.0
  C  C76  1  0.38811000  0.30237000  0.47129000  1.0
  C  C77  1  0.61190000  0.69764000  0.52872000  1.0
  N  N78  1  0.98725000  0.03876000  0.21308000  1.0
  N  N79  1  0.01275000  0.96123000  0.78692000  1.0
  N  N80  1  0.25025000  0.21207000  0.38797000  1.0
  N  N81  1  0.74976000  0.78793000  0.61203000  1.0
  N  N82  1  0.50824000  0.26239000  0.25433000  1.0
  N  N83  1  0.49177000  0.73762000  0.74568000  1.0
  N  N84  1  0.74587000  0.39399000  0.22674000  1.0
  N  N85  1  0.25413000  0.60600000  0.77325000  1.0
  O  O86  1  0.78062000  0.03042000  0.89309000  1.0
  O  O87  1  0.21938000  0.96958000  0.10692000  1.0
  O  O88  1  0.71278000  0.06845000  0.73017000  1.0
  O  O89  1  0.28721000  0.93154000  0.26982000  1.0
  O  O90  1  0.77485000  0.71449000  0.87010000  1.0
  O  O91  1  0.22515000  0.28550000  0.12989000  1.0
  O  O92  1  0.81179000  0.57652000  0.72968000  1.0
  O  O93  1  0.18820000  0.42347000  0.27032000  1.0
