# generated using pymatgen
data_AlH11C14O5
_symmetry_space_group_name_H-M   'P 1'
_cell_length_a   6.62637000
_cell_length_b   17.91750000
_cell_length_c   18.23220000
_cell_angle_alpha   89.96340000
_cell_angle_beta   89.99930000
_cell_angle_gamma   90.00060000
_symmetry_Int_Tables_number   1
_chemical_formula_structural   AlH11C14O5
_chemical_formula_sum   'Al4 H44 C56 O20'
_cell_volume   2164.67191661
_cell_formula_units_Z   4
loop_
 _symmetry_equiv_pos_site_id
 _symmetry_equiv_pos_as_xyz
  1  'x, y, z'
loop_
 _atom_site_type_symbol
 _atom_site_label
 _atom_site_symmetry_multiplicity
 _atom_site_fract_x
 _atom_site_fract_y
 _atom_site_fract_z
 _atom_site_occupancy
  Al  Al0  1  0.29819000  0.75417000  0.25112000  1.0
  Al  Al1  1  0.70177000  0.24617000  0.75073000  1.0
  Al  Al2  1  0.20181000  0.25417000  0.75112000  1.0
  Al  Al3  1  0.79822000  0.74617000  0.25073000  1.0
  H  H4  1  0.21663000  0.44266000  0.61840000  1.0
  H  H5  1  0.78892000  0.56111000  0.38322000  1.0
  H  H6  1  0.28608000  0.93826000  0.38443000  1.0
  H  H7  1  0.72094000  0.05966000  0.61620000  1.0
  H  H8  1  0.71110000  0.06114000  0.88325000  1.0
  H  H9  1  0.28334000  0.94266000  0.11840000  1.0
  H  H10  1  0.77905000  0.55967000  0.11619000  1.0
  H  H11  1  0.21393000  0.43827000  0.88443000  1.0
  H  H12  1  0.36069000  0.55606000  0.55960000  1.0
  H  H13  1  0.64580000  0.44656000  0.44163000  1.0
  H  H14  1  0.13836000  0.05099000  0.44474000  1.0
  H  H15  1  0.86962000  0.94846000  0.55532000  1.0
  H  H16  1  0.85427000  0.94660000  0.94165000  1.0
  H  H17  1  0.13928000  0.05605000  0.05959000  1.0
  H  H18  1  0.63036000  0.44847000  0.05532000  1.0
  H  H19  1  0.36164000  0.55099000  0.94474000  1.0
  H  H20  1  0.52991000  0.33298000  0.48257000  1.0
  H  H21  1  0.67889000  0.27539000  0.54119000  1.0
  H  H22  1  0.50503000  0.33846000  0.57947000  1.0
  H  H23  1  0.48941000  0.66431000  0.51615000  1.0
  H  H24  1  0.49686000  0.66401000  0.41828000  1.0
  H  H25  1  0.33581000  0.72652000  0.46392000  1.0
  H  H26  1  0.00483000  0.84261000  0.51017000  1.0
  H  H27  1  0.84959000  0.77790000  0.46173000  1.0
  H  H28  1  0.00091000  0.84071000  0.41229000  1.0
  H  H29  1  0.01385000  0.16158000  0.48796000  1.0
  H  H30  1  0.00146000  0.15764000  0.58522000  1.0
  H  H31  1  0.16517000  0.22180000  0.54311000  1.0
  H  H32  1  0.01046000  0.16427000  0.01612000  1.0
  H  H33  1  0.16407000  0.22650000  0.96391000  1.0
  H  H34  1  0.00312000  0.16398000  0.91825000  1.0
  H  H35  1  0.97013000  0.83302000  0.98258000  1.0
  H  H36  1  0.99500000  0.83848000  0.07947000  1.0
  H  H37  1  0.82115000  0.77542000  0.04119000  1.0
  H  H38  1  0.48620000  0.66158000  0.98797000  1.0
  H  H39  1  0.33486000  0.72181000  0.04311000  1.0
  H  H40  1  0.49854000  0.65764000  0.08523000  1.0
  H  H41  1  0.49516000  0.34261000  0.01016000  1.0
  H  H42  1  0.49909000  0.34071000  0.91228000  1.0
  H  H43  1  0.65041000  0.27790000  0.96172000  1.0
  H  H44  1  0.53300000  0.65720000  0.22267000  1.0
  H  H45  1  0.46619000  0.34194000  0.71971000  1.0
  H  H46  1  0.96701000  0.15720000  0.72267000  1.0
  H  H47  1  0.03383000  0.84195000  0.21971000  1.0
  C  C48  1  0.55731000  0.83771000  0.35139000  1.0
  C  C49  1  0.44986000  0.16029000  0.64970000  1.0
  C  C50  1  0.95059000  0.33912000  0.64884000  1.0
  C  C51  1  0.05635000  0.66382000  0.35247000  1.0
  C  C52  1  0.05013000  0.66029000  0.14970000  1.0
  C  C53  1  0.94273000  0.33772000  0.85139000  1.0
  C  C54  1  0.44362000  0.16383000  0.85247000  1.0
  C  C55  1  0.54943000  0.83912000  0.14884000  1.0
  C  C56  1  0.93944000  0.39168000  0.58541000  1.0
  C  C57  1  0.06691000  0.61141000  0.41594000  1.0
  C  C58  1  0.56936000  0.89048000  0.41455000  1.0
  C  C59  1  0.43777000  0.10801000  0.58616000  1.0
  C  C60  1  0.43310000  0.11141000  0.91595000  1.0
  C  C61  1  0.56059000  0.89169000  0.08542000  1.0
  C  C62  1  0.06223000  0.60801000  0.08615000  1.0
  C  C63  1  0.93063000  0.39048000  0.91454000  1.0
  C  C64  1  0.23666000  0.55686000  0.52007000  1.0
  C  C65  1  0.76892000  0.44616000  0.48147000  1.0
  C  C66  1  0.26440000  0.05245000  0.48339000  1.0
  C  C67  1  0.74286000  0.94647000  0.51705000  1.0
  C  C68  1  0.73109000  0.94619000  0.98149000  1.0
  C  C69  1  0.26330000  0.05686000  0.02008000  1.0
  C  C70  1  0.75713000  0.44647000  0.01705000  1.0
  C  C71  1  0.23561000  0.55245000  0.98339000  1.0
  C  C72  1  0.23307000  0.61181000  0.46673000  1.0
  C  C73  1  0.77393000  0.39097000  0.53451000  1.0
  C  C74  1  0.26878000  0.10729000  0.53676000  1.0
  C  C75  1  0.73927000  0.89158000  0.46373000  1.0
  C  C76  1  0.72608000  0.89099000  0.03452000  1.0
  C  C77  1  0.26690000  0.11181000  0.96673000  1.0
  C  C78  1  0.76073000  0.39158000  0.96372000  1.0
  C  C79  1  0.23123000  0.60729000  0.03676000  1.0
  C  C80  1  0.91400000  0.55889000  0.42208000  1.0
  C  C81  1  0.09151000  0.44444000  0.57958000  1.0
  C  C82  1  0.59325000  0.05686000  0.57853000  1.0
  C  C83  1  0.41353000  0.94158000  0.42212000  1.0
  C  C84  1  0.40850000  0.94444000  0.07958000  1.0
  C  C85  1  0.58603000  0.05891000  0.92210000  1.0
  C  C86  1  0.08646000  0.44158000  0.92212000  1.0
  C  C87  1  0.90674000  0.55686000  0.07853000  1.0
  C  C88  1  0.91907000  0.50230000  0.47600000  1.0
  C  C89  1  0.08577000  0.50114000  0.52584000  1.0
  C  C90  1  0.58826000  0.00054000  0.52444000  1.0
  C  C91  1  0.41830000  0.99794000  0.47616000  1.0
  C  C92  1  0.41423000  0.00116000  0.02584000  1.0
  C  C93  1  0.58095000  0.00233000  0.97601000  1.0
  C  C94  1  0.08170000  0.49795000  0.97616000  1.0
  C  C95  1  0.91173000  0.50055000  0.02444000  1.0
  C  C96  1  0.61368000  0.33135000  0.53450000  1.0
  C  C97  1  0.39785000  0.66969000  0.46624000  1.0
  C  C98  1  0.90800000  0.83531000  0.46184000  1.0
  C  C99  1  0.10376000  0.16506000  0.53841000  1.0
  C  C100  1  0.10206000  0.16967000  0.96622000  1.0
  C  C101  1  0.88636000  0.83138000  0.03451000  1.0
  C  C102  1  0.39625000  0.66505000  0.03841000  1.0
  C  C103  1  0.59201000  0.33531000  0.96184000  1.0
  O  O104  1  0.71611000  0.81942000  0.17773000  1.0
  O  O105  1  0.27852000  0.19225000  0.83078000  1.0
  O  O106  1  0.77804000  0.30926000  0.82937000  1.0
  O  O107  1  0.21619000  0.67980000  0.17917000  1.0
  O  O108  1  0.22147000  0.69226000  0.33078000  1.0
  O  O109  1  0.78386000  0.31941000  0.67773000  1.0
  O  O110  1  0.28383000  0.17980000  0.67916000  1.0
  O  O111  1  0.72196000  0.80926000  0.32937000  1.0
  O  O112  1  0.38536000  0.82618000  0.32182000  1.0
  O  O113  1  0.62520000  0.17987000  0.67176000  1.0
  O  O114  1  0.12557000  0.31969000  0.67139000  1.0
  O  O115  1  0.88517000  0.67500000  0.32227000  1.0
  O  O116  1  0.87480000  0.67987000  0.17176000  1.0
  O  O117  1  0.11464000  0.32618000  0.82183000  1.0
  O  O118  1  0.61486000  0.17501000  0.82228000  1.0
  O  O119  1  0.37444000  0.81968000  0.17138000  1.0
  O  O120  1  0.54430000  0.70385000  0.24921000  1.0
  O  O121  1  0.45561000  0.29655000  0.74838000  1.0
  O  O122  1  0.95571000  0.20385000  0.74921000  1.0
  O  O123  1  0.04440000  0.79655000  0.24838000  1.0
