# generated using pymatgen
data_Co2H40C48S2N4O13
_symmetry_space_group_name_H-M   'P 1'
_cell_length_a   8.21924000
_cell_length_b   15.64210000
_cell_length_c   21.22710000
_cell_angle_alpha   79.58310000
_cell_angle_beta   78.84120000
_cell_angle_gamma   74.78410000
_symmetry_Int_Tables_number   1
_chemical_formula_structural   Co2H40C48S2N4O13
_chemical_formula_sum   'Co4 H80 C96 S4 N8 O26'
_cell_volume   2559.14831378
_cell_formula_units_Z   2
loop_
 _symmetry_equiv_pos_site_id
 _symmetry_equiv_pos_as_xyz
  1  'x, y, z'
loop_
 _atom_site_type_symbol
 _atom_site_label
 _atom_site_symmetry_multiplicity
 _atom_site_fract_x
 _atom_site_fract_y
 _atom_site_fract_z
 _atom_site_occupancy
  Co  Co0  1  0.59900000  0.14283000  0.72090000  1.0
  Co  Co1  1  0.46298000  0.35720000  0.77914000  1.0
  Co  Co2  1  0.40099000  0.85717000  0.27911000  1.0
  Co  Co3  1  0.53702000  0.64280000  0.22087000  1.0
  H  H4  1  0.76564000  0.26253000  0.70977000  1.0
  H  H5  1  0.73795000  0.23742000  0.79018000  1.0
  H  H6  1  0.23436000  0.73747000  0.29023000  1.0
  H  H7  1  0.26205000  0.76258000  0.20982000  1.0
  H  H8  1  0.08123000  0.28696000  0.53169000  1.0
  H  H9  1  0.90016000  0.21299000  0.96839000  1.0
  H  H10  1  0.91878000  0.71304000  0.46830000  1.0
  H  H11  1  0.09984000  0.78701000  0.03161000  1.0
  H  H12  1  0.98595000  0.21553000  0.35677000  1.0
  H  H13  1  0.55826000  0.28447000  0.14323000  1.0
  H  H14  1  0.01406000  0.78446000  0.64323000  1.0
  H  H15  1  0.44174000  0.71553000  0.85677000  1.0
  H  H16  1  0.73349000  0.12063000  0.54550000  1.0
  H  H17  1  0.40026000  0.37955000  0.95442000  1.0
  H  H18  1  0.26650000  0.87938000  0.45450000  1.0
  H  H19  1  0.59974000  0.62045000  0.04557000  1.0
  H  H20  1  0.67709000  0.49211000  0.31897000  1.0
  H  H21  1  0.48837000  0.00803000  0.18094000  1.0
  H  H22  1  0.32291000  0.50789000  0.68103000  1.0
  H  H23  1  0.51162000  0.99197000  0.81906000  1.0
  H  H24  1  0.57301000  0.37479000  0.40148000  1.0
  H  H25  1  0.34919000  0.12526000  0.09846000  1.0
  H  H26  1  0.42700000  0.62521000  0.59852000  1.0
  H  H27  1  0.65080000  0.87474000  0.90153000  1.0
  H  H28  1  0.09261000  0.46186000  0.32802000  1.0
  H  H29  1  0.88279000  0.03784000  0.17213000  1.0
  H  H30  1  0.90740000  0.53814000  0.67198000  1.0
  H  H31  1  0.11721000  0.96215000  0.82787000  1.0
  H  H32  1  0.21653000  0.57648000  0.24917000  1.0
  H  H33  1  0.04274000  0.92336000  0.25093000  1.0
  H  H34  1  0.78347000  0.42351000  0.75083000  1.0
  H  H35  1  0.95725000  0.07664000  0.74907000  1.0
  H  H36  1  0.23552000  0.02236000  0.34613000  1.0
  H  H37  1  0.60430000  0.47802000  0.15348000  1.0
  H  H38  1  0.76449000  0.97763000  0.65387000  1.0
  H  H39  1  0.39570000  0.52197000  0.84651000  1.0
  H  H40  1  0.31973000  0.10506000  0.42042000  1.0
  H  H41  1  0.84574000  0.39519000  0.07943000  1.0
  H  H42  1  0.68027000  0.89494000  0.57958000  1.0
  H  H43  1  0.15426000  0.60480000  0.92056000  1.0
  H  H44  1  0.84124000  0.95904000  0.36972000  1.0
  H  H45  1  0.17039000  0.54102000  0.13060000  1.0
  H  H46  1  0.15876000  0.04096000  0.63028000  1.0
  H  H47  1  0.82961000  0.45898000  0.86940000  1.0
  H  H48  1  0.73431000  0.88411000  0.29637000  1.0
  H  H49  1  0.91494000  0.61591000  0.20386000  1.0
  H  H50  1  0.26569000  0.11590000  0.70363000  1.0
  H  H51  1  0.08506000  0.38408000  0.79614000  1.0
  H  H52  1  0.34763000  0.30173000  0.45123000  1.0
  H  H53  1  0.10016000  0.19819000  0.04879000  1.0
  H  H54  1  0.65239000  0.69827000  0.54877000  1.0
  H  H55  1  0.89984000  0.80180000  0.95120000  1.0
  H  H56  1  0.15790000  0.38868000  0.46123000  1.0
  H  H57  1  0.00754000  0.11110000  0.03887000  1.0
  H  H58  1  0.84210000  0.61132000  0.53877000  1.0
  H  H59  1  0.99246000  0.88889000  0.96113000  1.0
  H  H60  1  0.53738000  0.12548000  0.47445000  1.0
  H  H61  1  0.13770000  0.37485000  0.02555000  1.0
  H  H62  1  0.46262000  0.87452000  0.52555000  1.0
  H  H63  1  0.86231000  0.62514000  0.97444000  1.0
  H  H64  1  0.70385000  0.02721000  0.48633000  1.0
  H  H65  1  0.21783000  0.47311000  0.01377000  1.0
  H  H66  1  0.29614000  0.97279000  0.51367000  1.0
  H  H67  1  0.78218000  0.52689000  0.98622000  1.0
  H  H68  1  0.46242000  0.14767000  0.93045000  1.0
  H  H69  1  0.54020000  0.35233000  0.56956000  1.0
  H  H70  1  0.53757000  0.85233000  0.06955000  1.0
  H  H71  1  0.45981000  0.64767000  0.43045000  1.0
  H  H72  1  0.70036000  0.09743000  0.99114000  1.0
  H  H73  1  0.78868000  0.40250000  0.50892000  1.0
  H  H74  1  0.29963000  0.90258000  0.00886000  1.0
  H  H75  1  0.21132000  0.59750000  0.49109000  1.0
  H  H76  1  0.05721000  0.19035000  0.86681000  1.0
  H  H77  1  0.11403000  0.30989000  0.63328000  1.0
  H  H78  1  0.94279000  0.80965000  0.13319000  1.0
  H  H79  1  0.88595000  0.69011000  0.36673000  1.0
  H  H80  1  0.16138000  0.20920000  0.92730000  1.0
  H  H81  1  0.29733000  0.29099000  0.57275000  1.0
  H  H82  1  0.83862000  0.79080000  0.07270000  1.0
  H  H83  1  0.70267000  0.70901000  0.42726000  1.0
  C  C84  1  0.90722000  0.20194000  0.54420000  1.0
  C  C85  1  0.65389000  0.29818000  0.95578000  1.0
  C  C86  1  0.09278000  0.79807000  0.45580000  1.0
  C  C87  1  0.34612000  0.70182000  0.04421000  1.0
  C  C88  1  0.02137000  0.25104000  0.50723000  1.0
  C  C89  1  0.77995000  0.24899000  0.99281000  1.0
  C  C90  1  0.97864000  0.74896000  0.49277000  1.0
  C  C91  1  0.22005000  0.75101000  0.00719000  1.0
  C  C92  1  0.05064000  0.25456000  0.43962000  1.0
  C  C93  1  0.74491000  0.24537000  0.06043000  1.0
  C  C94  1  0.94937000  0.74543000  0.56038000  1.0
  C  C95  1  0.25509000  0.75462000  0.93957000  1.0
  C  C96  1  0.96521000  0.21103000  0.40939000  1.0
  C  C97  1  0.58582000  0.28898000  0.09060000  1.0
  C  C98  1  0.03479000  0.78897000  0.59061000  1.0
  C  C99  1  0.41419000  0.71102000  0.90939000  1.0
  C  C100  1  0.85021000  0.16341000  0.44706000  1.0
  C  C101  1  0.46111000  0.33672000  0.05289000  1.0
  C  C102  1  0.14979000  0.83659000  0.55294000  1.0
  C  C103  1  0.53890000  0.66327000  0.94711000  1.0
  C  C104  1  0.82204000  0.15712000  0.51476000  1.0
  C  C105  1  0.49448000  0.34306000  0.98518000  1.0
  C  C106  1  0.17796000  0.84288000  0.48524000  1.0
  C  C107  1  0.50553000  0.65694000  0.01481000  1.0
  C  C108  1  0.54866000  0.48268000  0.32262000  1.0
  C  C109  1  0.35416000  0.01737000  0.17733000  1.0
  C  C110  1  0.45135000  0.51732000  0.67738000  1.0
  C  C111  1  0.64584000  0.98263000  0.82267000  1.0
  C  C112  1  0.48971000  0.41757000  0.36828000  1.0
  C  C113  1  0.27558000  0.08242000  0.13168000  1.0
  C  C114  1  0.51030000  0.58243000  0.63172000  1.0
  C  C115  1  0.72441000  0.91757000  0.86831000  1.0
  C  C116  1  0.32237000  0.41013000  0.37236000  1.0
  C  C117  1  0.10491000  0.08974000  0.12766000  1.0
  C  C118  1  0.67764000  0.58986000  0.62764000  1.0
  C  C119  1  0.89509000  0.91026000  0.87233000  1.0
  C  C120  1  0.22286000  0.46622000  0.32765000  1.0
  C  C121  1  0.01700000  0.03357000  0.17242000  1.0
  C  C122  1  0.77715000  0.53378000  0.67235000  1.0
  C  C123  1  0.98299000  0.96643000  0.82758000  1.0
  C  C124  1  0.29048000  0.52995000  0.28386000  1.0
  C  C125  1  0.10472000  0.96990000  0.21617000  1.0
  C  C126  1  0.70953000  0.47004000  0.71614000  1.0
  C  C127  1  0.89527000  0.03011000  0.78383000  1.0
  C  C128  1  0.36832000  0.01088000  0.35263000  1.0
  C  C129  1  0.73215000  0.48938000  0.14719000  1.0
  C  C130  1  0.63169000  0.98913000  0.64736000  1.0
  C  C131  1  0.26785000  0.51062000  0.85280000  1.0
  C  C132  1  0.41611000  0.05575000  0.39446000  1.0
  C  C133  1  0.86682000  0.44446000  0.10547000  1.0
  C  C134  1  0.58389000  0.94426000  0.60554000  1.0
  C  C135  1  0.13318000  0.55553000  0.89453000  1.0
  C  C136  1  0.58716000  0.03630000  0.40264000  1.0
  C  C137  1  0.02663000  0.46384000  0.09747000  1.0
  C  C138  1  0.41284000  0.96371000  0.59736000  1.0
  C  C139  1  0.97337000  0.53616000  0.90252000  1.0
  C  C140  1  0.70564000  0.97469000  0.36617000  1.0
  C  C141  1  0.04688000  0.52538000  0.13405000  1.0
  C  C142  1  0.29437000  0.02532000  0.63384000  1.0
  C  C143  1  0.95312000  0.47461000  0.86595000  1.0
  C  C144  1  0.64781000  0.93315000  0.32534000  1.0
  C  C145  1  0.90653000  0.56693000  0.17480000  1.0
  C  C146  1  0.35221000  0.06686000  0.67466000  1.0
  C  C147  1  0.09347000  0.43307000  0.82519000  1.0
  C  C148  1  0.86588000  0.20041000  0.61660000  1.0
  C  C149  1  0.68336000  0.29962000  0.88338000  1.0
  C  C150  1  0.13411000  0.79960000  0.38340000  1.0
  C  C151  1  0.31664000  0.70038000  0.11662000  1.0
  C  C152  1  0.24747000  0.34836000  0.42569000  1.0
  C  C153  1  0.02128000  0.15147000  0.07438000  1.0
  C  C154  1  0.75254000  0.65164000  0.57431000  1.0
  C  C155  1  0.97872000  0.84853000  0.92562000  1.0
  C  C156  1  0.64515000  0.07899000  0.44928000  1.0
  C  C157  1  0.17392000  0.42125000  0.05077000  1.0
  C  C158  1  0.35485000  0.92101000  0.55072000  1.0
  C  C159  1  0.82608000  0.57874000  0.94922000  1.0
  C  C160  1  0.36259000  0.02842000  0.96440000  1.0
  C  C161  1  0.35530000  0.47166000  0.53559000  1.0
  C  C162  1  0.63739000  0.97159000  0.03560000  1.0
  C  C163  1  0.64470000  0.52834000  0.46442000  1.0
  C  C164  1  0.47619000  0.08305000  0.96083000  1.0
  C  C165  1  0.51985000  0.41694000  0.53917000  1.0
  C  C166  1  0.52380000  0.91695000  0.03917000  1.0
  C  C167  1  0.48016000  0.58306000  0.46085000  1.0
  C  C168  1  0.61213000  0.05450000  0.99576000  1.0
  C  C169  1  0.66224000  0.44544000  0.50426000  1.0
  C  C170  1  0.38786000  0.94551000  0.00425000  1.0
  C  C171  1  0.33776000  0.55456000  0.49575000  1.0
  C  C172  1  0.17696000  0.16997000  0.88764000  1.0
  C  C173  1  0.23424000  0.33022000  0.61242000  1.0
  C  C174  1  0.82304000  0.83003000  0.11237000  1.0
  C  C175  1  0.76575000  0.66978000  0.38758000  1.0
  C  C176  1  0.32115000  0.19413000  0.83586000  1.0
  C  C177  1  0.35096000  0.30596000  0.66417000  1.0
  C  C178  1  0.67885000  0.80588000  0.16414000  1.0
  C  C179  1  0.64902000  0.69405000  0.33584000  1.0
  S  S180  1  0.19249000  0.05411000  0.91967000  1.0
  S  S181  1  0.16613000  0.44608000  0.58039000  1.0
  S  S182  1  0.80749000  0.94589000  0.08033000  1.0
  S  S183  1  0.83386000  0.55392000  0.41962000  1.0
  N  N184  1  0.44991000  0.53946000  0.28177000  1.0
  N  N185  1  0.27156000  0.96050000  0.21821000  1.0
  N  N186  1  0.55010000  0.46055000  0.71824000  1.0
  N  N187  1  0.72843000  0.03950000  0.78180000  1.0
  N  N188  1  0.48153000  0.94948000  0.31940000  1.0
  N  N189  1  0.75062000  0.55069000  0.18054000  1.0
  N  N190  1  0.51848000  0.05053000  0.68059000  1.0
  N  N191  1  0.24937000  0.44932000  0.81945000  1.0
  O  O192  1  0.88190000  0.26577000  0.64080000  1.0
  O  O193  1  0.78859000  0.23416000  0.85922000  1.0
  O  O194  1  0.11809000  0.73424000  0.35920000  1.0
  O  O195  1  0.21141000  0.76585000  0.14077000  1.0
  O  O196  1  0.81329000  0.13271000  0.64935000  1.0
  O  O197  1  0.59600000  0.36735000  0.85059000  1.0
  O  O198  1  0.18671000  0.86730000  0.35065000  1.0
  O  O199  1  0.40398000  0.63265000  0.14941000  1.0
  O  O200  1  0.15920000  0.29992000  0.39818000  1.0
  O  O201  1  0.85703000  0.19977000  0.10193000  1.0
  O  O202  1  0.84083000  0.70007000  0.60182000  1.0
  O  O203  1  0.14297000  0.80023000  0.89807000  1.0
  O  O204  1  0.76917000  0.12560000  0.41269000  1.0
  O  O205  1  0.30801000  0.37457000  0.08728000  1.0
  O  O206  1  0.23083000  0.87440000  0.58731000  1.0
  O  O207  1  0.69199000  0.62543000  0.91271000  1.0
  O  O208  1  0.37873000  0.14781000  0.78966000  1.0
  O  O209  1  0.31630000  0.35223000  0.71036000  1.0
  O  O210  1  0.62127000  0.85220000  0.21034000  1.0
  O  O211  1  0.68369000  0.64776000  0.28965000  1.0
  O  O212  1  0.36699000  0.26220000  0.84423000  1.0
  O  O213  1  0.47303000  0.23783000  0.65575000  1.0
  O  O214  1  0.63301000  0.73781000  0.15577000  1.0
  O  O215  1  0.52696000  0.76217000  0.34425000  1.0
  O  O216  1  0.67945000  0.24999000  0.74998000  1.0
  O  O217  1  0.32056000  0.74999000  0.25002000  1.0
