# generated using pymatgen
data_AlH9C13NO6
_symmetry_space_group_name_H-M   'P 1'
_cell_length_a   6.64570000
_cell_length_b   11.12439545
_cell_length_c   15.16590000
_cell_angle_alpha   91.80084807
_cell_angle_beta   100.76080000
_cell_angle_gamma   106.79147499
_symmetry_Int_Tables_number   1
_chemical_formula_structural   AlH9C13NO6
_chemical_formula_sum   'Al2 H18 C26 N2 O12'
_cell_volume   1050.17247648
_cell_formula_units_Z   2
loop_
 _symmetry_equiv_pos_site_id
 _symmetry_equiv_pos_as_xyz
  1  'x, y, z'
loop_
 _atom_site_type_symbol
 _atom_site_label
 _atom_site_symmetry_multiplicity
 _atom_site_fract_x
 _atom_site_fract_y
 _atom_site_fract_z
 _atom_site_occupancy
  Al  Al0  1  0.00907000  0.50388000  0.51017000  1.0
  Al  Al1  1  0.50903000  0.50366000  0.50846000  1.0
  H  H2  1  0.36697000  0.65460000  0.56557000  1.0
  H  H3  1  0.66234000  0.36122000  0.43771000  1.0
  H  H4  1  0.68422000  0.54404000  0.95803000  1.0
  H  H5  1  0.35601000  0.54634000  0.06051000  1.0
  H  H6  1  0.79517000  0.43738000  0.24342000  1.0
  H  H7  1  0.68712000  0.41834000  0.07611000  1.0
  H  H8  1  0.12654000  0.41256000  0.76751000  1.0
  H  H9  1  0.21515000  0.40474000  0.93366000  1.0
  H  H10  1  0.52744000  0.76402000  0.38296000  1.0
  H  H11  1  0.30853000  0.87221000  0.28772000  1.0
  H  H12  1  0.80091000  0.22540000  0.36992000  1.0
  H  H13  1  0.44772000  0.10582000  0.27987000  1.0
  H  H14  1  0.49938000  0.54424000  0.71842000  1.0
  H  H15  1  0.45046000  0.56487000  0.82676000  1.0
  H  H16  1  0.55384000  0.55075000  0.29968000  1.0
  H  H17  1  0.61982000  0.57864000  0.19458000  1.0
  H  H18  1  0.44960000  0.21767000  0.56225000  1.0
  H  H19  1  0.20804000  0.79300000  0.56482000  1.0
  C  C20  1  0.85645000  0.73310000  0.50148000  1.0
  C  C21  1  0.82874000  0.49227000  0.67060000  1.0
  C  C22  1  0.14920000  0.27424000  0.49940000  1.0
  C  C23  1  0.17957000  0.50549000  0.34592000  1.0
  C  C24  1  0.85861000  0.48219000  0.76812000  1.0
  C  C25  1  0.13263000  0.49915000  0.24686000  1.0
  C  C26  1  0.72285000  0.51435000  0.82176000  1.0
  C  C27  1  0.78036000  0.51286000  0.91640000  1.0
  C  C28  1  0.29650000  0.52683000  0.19514000  1.0
  C  C29  1  0.23173000  0.52016000  0.10041000  1.0
  C  C30  1  0.91614000  0.46223000  0.20204000  1.0
  C  C31  1  0.85603000  0.45343000  0.10911000  1.0
  C  C32  1  0.03287000  0.44261000  0.81070000  1.0
  C  C33  1  0.08374000  0.43985000  0.90305000  1.0
  C  C34  1  0.95834000  0.47853000  0.95758000  1.0
  C  C35  1  0.01643000  0.48407000  0.05694000  1.0
  C  C36  1  0.92863000  0.86856000  0.48859000  1.0
  C  C37  1  0.79005000  0.93181000  0.43654000  1.0
  C  C38  1  0.14052000  0.93694000  0.52901000  1.0
  C  C39  1  0.58660000  0.86556000  0.38279000  1.0
  C  C40  1  0.46336000  0.92667000  0.32869000  1.0
  C  C41  1  0.07653000  0.13558000  0.48599000  1.0
  C  C42  1  0.21543000  0.07141000  0.52786000  1.0
  C  C43  1  0.86643000  0.06596000  0.43424000  1.0
  C  C44  1  0.73845000  0.12506000  0.37613000  1.0
  C  C45  1  0.54063000  0.05748000  0.32465000  1.0
  N  N46  1  0.54750000  0.54953000  0.78645000  1.0
  N  N47  1  0.50923000  0.56431000  0.23393000  1.0
  O  O48  1  0.00327000  0.67691000  0.52329000  1.0
  O  O49  1  0.65784000  0.51614000  0.63002000  1.0
  O  O50  1  0.35463000  0.33052000  0.51913000  1.0
  O  O51  1  0.03728000  0.52225000  0.38702000  1.0
  O  O52  1  0.01224000  0.33416000  0.49380000  1.0
  O  O53  1  0.35942000  0.49150000  0.38553000  1.0
  O  O54  1  0.65832000  0.67527000  0.49407000  1.0
  O  O55  1  0.97598000  0.47966000  0.63067000  1.0
  O  O56  1  0.30750000  0.56403000  0.55174000  1.0
  O  O57  1  0.71265000  0.44683000  0.46609000  1.0
  O  O58  1  0.41791000  0.12639000  0.57227000  1.0
  O  O59  1  0.28422000  0.88590000  0.57435000  1.0
