# generated using pymatgen
data_AlH5C10NO7
_symmetry_space_group_name_H-M   'P 1'
_cell_length_a   6.88636000
_cell_length_b   11.09468325
_cell_length_c   12.88171829
_cell_angle_alpha   79.78359067
_cell_angle_beta   79.75998250
_cell_angle_gamma   73.43615555
_symmetry_Int_Tables_number   1
_chemical_formula_structural   AlH5C10NO7
_chemical_formula_sum   'Al2 H10 C20 N2 O14'
_cell_volume   919.91038213
_cell_formula_units_Z   2
loop_
 _symmetry_equiv_pos_site_id
 _symmetry_equiv_pos_as_xyz
  1  'x, y, z'
loop_
 _atom_site_type_symbol
 _atom_site_label
 _atom_site_symmetry_multiplicity
 _atom_site_fract_x
 _atom_site_fract_y
 _atom_site_fract_z
 _atom_site_occupancy
  Al  Al0  1  0.49994000  0.50011000  0.50014000  1.0
  Al  Al1  1  0.99992000  0.50008000  0.50017000  1.0
  H  H2  1  0.28991000  0.35597000  0.58788000  1.0
  H  H3  1  0.71004000  0.64417000  0.41234000  1.0
  H  H4  1  0.35751000  0.88676000  0.52683000  1.0
  H  H5  1  0.64256000  0.11345000  0.47251000  1.0
  H  H6  1  0.32829000  0.54741000  0.81147000  1.0
  H  H7  1  0.97549000  0.42415000  0.82439000  1.0
  H  H8  1  0.91457000  0.41242000  0.02232000  1.0
  H  H9  1  0.67167000  0.45238000  0.18895000  1.0
  H  H10  1  0.02449000  0.57560000  0.17598000  1.0
  H  H11  1  0.08547000  0.58721000  0.97808000  1.0
  C  C12  1  0.69268000  0.48827000  0.68984000  1.0
  C  C13  1  0.85428000  0.27561000  0.49321000  1.0
  C  C14  1  0.30724000  0.51170000  0.31049000  1.0
  C  C15  1  0.14565000  0.72459000  0.50668000  1.0
  C  C16  1  0.93048000  0.13443000  0.49405000  1.0
  C  C17  1  0.06960000  0.86583000  0.50526000  1.0
  C  C18  1  0.13183000  0.06794000  0.50754000  1.0
  C  C19  1  0.86831000  0.93230000  0.49168000  1.0
  C  C20  1  0.20167000  0.93708000  0.51384000  1.0
  C  C21  1  0.79846000  0.06317000  0.48540000  1.0
  C  C22  1  0.45490000  0.52001000  0.85845000  1.0
  C  C23  1  0.82112000  0.44951000  0.86697000  1.0
  C  C24  1  0.78676000  0.44416000  0.97597000  1.0
  C  C25  1  0.58472000  0.48010000  0.03036000  1.0
  C  C26  1  0.54510000  0.47962000  0.14196000  1.0
  C  C27  1  0.17886000  0.55011000  0.13343000  1.0
  C  C28  1  0.21328000  0.55543000  0.02443000  1.0
  C  C29  1  0.41531000  0.51947000  0.97006000  1.0
  C  C30  1  0.65362000  0.48672000  0.80750000  1.0
  C  C31  1  0.34635000  0.51296000  0.19287000  1.0
  N  N32  1  0.28396000  0.13677000  0.51012000  1.0
  N  N33  1  0.71618000  0.86344000  0.48913000  1.0
  O  O34  1  0.54381000  0.48625000  0.64412000  1.0
  O  O35  1  0.99053000  0.33102000  0.49652000  1.0
  O  O36  1  0.12667000  0.51098000  0.35541000  1.0
  O  O37  1  0.33507000  0.67450000  0.50826000  1.0
  O  O38  1  0.45611000  0.51383000  0.35616000  1.0
  O  O39  1  0.00931000  0.66912000  0.50373000  1.0
  O  O40  1  0.87319000  0.48918000  0.64493000  1.0
  O  O41  1  0.66484000  0.32568000  0.49181000  1.0
  O  O42  1  0.26253000  0.44004000  0.54677000  1.0
  O  O43  1  0.73733000  0.56015000  0.45354000  1.0
  O  O44  1  0.37269000  0.17110000  0.42247000  1.0
  O  O45  1  0.32027000  0.14889000  0.59791000  1.0
  O  O46  1  0.68016000  0.85102000  0.40137000  1.0
  O  O47  1  0.62722000  0.82932000  0.57678000  1.0
