# generated using pymatgen
data_CuH4(C2O3)2
_symmetry_space_group_name_H-M   'P 1'
_cell_length_a   4.96184000
_cell_length_b   9.00210000
_cell_length_c   11.93450000
_cell_angle_alpha   90.00140000
_cell_angle_beta   90.00030000
_cell_angle_gamma   89.99930000
_symmetry_Int_Tables_number   1
_chemical_formula_structural   CuH4(C2O3)2
_chemical_formula_sum   'Cu4 H16 C16 O24'
_cell_volume   533.07807098
_cell_formula_units_Z   4
loop_
 _symmetry_equiv_pos_site_id
 _symmetry_equiv_pos_as_xyz
  1  'x, y, z'
loop_
 _atom_site_type_symbol
 _atom_site_label
 _atom_site_symmetry_multiplicity
 _atom_site_fract_x
 _atom_site_fract_y
 _atom_site_fract_z
 _atom_site_occupancy
  Cu  Cu0  1  0.58555000  0.25694000  0.28949000  1.0
  Cu  Cu1  1  0.41443000  0.25694000  0.71051000  1.0
  Cu  Cu2  1  0.91444000  0.74306000  0.78949000  1.0
  Cu  Cu3  1  0.08555000  0.74306000  0.21051000  1.0
  H  H4  1  0.73520000  0.33427000  0.50714000  1.0
  H  H5  1  0.26492000  0.33423000  0.49286000  1.0
  H  H6  1  0.76499000  0.66579000  0.00714000  1.0
  H  H7  1  0.23529000  0.66569000  0.99285000  1.0
  H  H8  1  0.16305000  0.11348000  0.36295000  1.0
  H  H9  1  0.83695000  0.11348000  0.63706000  1.0
  H  H10  1  0.33694000  0.88653000  0.86294000  1.0
  H  H11  1  0.66305000  0.88652000  0.13705000  1.0
  H  H12  1  0.71917000  0.62479000  0.44872000  1.0
  H  H13  1  0.28080000  0.62478000  0.55128000  1.0
  H  H14  1  0.78079000  0.37522000  0.94871000  1.0
  H  H15  1  0.21916000  0.37519000  0.05128000  1.0
  H  H16  1  0.34349000  0.90543000  0.41789000  1.0
  H  H17  1  0.65652000  0.90543000  0.58211000  1.0
  H  H18  1  0.15650000  0.09458000  0.91789000  1.0
  H  H19  1  0.84348000  0.09457000  0.08212000  1.0
  C  C20  1  0.40407000  0.54097000  0.34513000  1.0
  C  C21  1  0.59591000  0.54097000  0.65486000  1.0
  C  C22  1  0.09590000  0.45903000  0.84513000  1.0
  C  C23  1  0.90407000  0.45901000  0.15487000  1.0
  C  C24  1  0.58881000  0.52601000  0.44741000  1.0
  C  C25  1  0.41117000  0.52601000  0.55259000  1.0
  C  C26  1  0.91116000  0.47400000  0.94741000  1.0
  C  C27  1  0.08881000  0.47398000  0.05260000  1.0
  C  C28  1  0.73904000  0.97913000  0.37355000  1.0
  C  C29  1  0.26097000  0.97913000  0.62645000  1.0
  C  C30  1  0.76095000  0.02090000  0.87355000  1.0
  C  C31  1  0.23903000  0.02089000  0.12645000  1.0
  C  C32  1  0.47308000  0.00140000  0.43633000  1.0
  C  C33  1  0.52692000  0.00140000  0.56367000  1.0
  C  C34  1  0.02691000  0.99861000  0.93633000  1.0
  C  C35  1  0.97308000  0.99860000  0.06367000  1.0
  O  O36  1  0.34474000  0.42855000  0.28527000  1.0
  O  O37  1  0.65523000  0.42856000  0.71473000  1.0
  O  O38  1  0.15524000  0.57145000  0.78528000  1.0
  O  O39  1  0.84475000  0.57145000  0.21473000  1.0
  O  O40  1  0.31034000  0.67045000  0.33207000  1.0
  O  O41  1  0.68964000  0.67046000  0.66792000  1.0
  O  O42  1  0.18962000  0.32955000  0.83207000  1.0
  O  O43  1  0.81034000  0.32955000  0.16792000  1.0
  O  O44  1  0.83728000  0.09258000  0.31850000  1.0
  O  O45  1  0.16272000  0.09258000  0.68150000  1.0
  O  O46  1  0.66271000  0.90742000  0.81850000  1.0
  O  O47  1  0.33727000  0.90741000  0.18150000  1.0
  O  O48  1  0.85633000  0.85815000  0.38078000  1.0
  O  O49  1  0.14369000  0.85815000  0.61922000  1.0
  O  O50  1  0.64367000  0.14184000  0.88078000  1.0
  O  O51  1  0.35631000  0.14184000  0.11922000  1.0
  O  O52  1  0.74674000  0.39382000  0.43852000  1.0
  O  O53  1  0.25324000  0.39382000  0.56147000  1.0
  O  O54  1  0.75324000  0.60619000  0.93854000  1.0
  O  O55  1  0.24675000  0.60616000  0.06149000  1.0
  O  O56  1  0.33999000  0.13724000  0.40051000  1.0
  O  O57  1  0.66001000  0.13724000  0.59950000  1.0
  O  O58  1  0.16001000  0.86277000  0.90050000  1.0
  O  O59  1  0.83998000  0.86276000  0.09949000  1.0
