# generated using pymatgen
data_AgH9C6BrN3O
_symmetry_space_group_name_H-M   'P 1'
_cell_length_a   4.33145000
_cell_length_b   11.61310000
_cell_length_c   17.49310000
_cell_angle_alpha   89.99970000
_cell_angle_beta   89.99980000
_cell_angle_gamma   89.75810000
_symmetry_Int_Tables_number   1
_chemical_formula_structural   AgH9C6BrN3O
_chemical_formula_sum   'Ag4 H36 C24 Br4 N12 O4'
_cell_volume   879.92241181
_cell_formula_units_Z   4
loop_
 _symmetry_equiv_pos_site_id
 _symmetry_equiv_pos_as_xyz
  1  'x, y, z'
loop_
 _atom_site_type_symbol
 _atom_site_label
 _atom_site_symmetry_multiplicity
 _atom_site_fract_x
 _atom_site_fract_y
 _atom_site_fract_z
 _atom_site_occupancy
  Ag  Ag0  1  0.71616000  0.50453000  0.08926000  1.0
  Ag  Ag1  1  0.28382000  0.99547000  0.58926000  1.0
  Ag  Ag2  1  0.28382000  0.49546000  0.91074000  1.0
  Ag  Ag3  1  0.71615000  0.00453000  0.41074000  1.0
  H  H4  1  0.30064000  0.94817000  0.96295000  1.0
  H  H5  1  0.69938000  0.55183000  0.46295000  1.0
  H  H6  1  0.69938000  0.05183000  0.03705000  1.0
  H  H7  1  0.30062000  0.44817000  0.53705000  1.0
  H  H8  1  0.08572000  0.81885000  0.97695000  1.0
  H  H9  1  0.91428000  0.68115000  0.47695000  1.0
  H  H10  1  0.91427000  0.18114000  0.02305000  1.0
  H  H11  1  0.08572000  0.31885000  0.52305000  1.0
  H  H12  1  0.76437000  0.75363000  0.34216000  1.0
  H  H13  1  0.23563000  0.74637000  0.84215000  1.0
  H  H14  1  0.23563000  0.24637000  0.65784000  1.0
  H  H15  1  0.76438000  0.25364000  0.15784000  1.0
  H  H16  1  0.35474000  0.87007000  0.24845000  1.0
  H  H17  1  0.64526000  0.62993000  0.74844000  1.0
  H  H18  1  0.64525000  0.12992000  0.75156000  1.0
  H  H19  1  0.35474000  0.37008000  0.25156000  1.0
  H  H20  1  0.06313000  0.49823000  0.22611000  1.0
  H  H21  1  0.93688000  0.00177000  0.72611000  1.0
  H  H22  1  0.93688000  0.50177000  0.77389000  1.0
  H  H23  1  0.06313000  0.99823000  0.27389000  1.0
  H  H24  1  0.86504000  0.49273000  0.31627000  1.0
  H  H25  1  0.13496000  0.00727000  0.81627000  1.0
  H  H26  1  0.13497000  0.50727000  0.68373000  1.0
  H  H27  1  0.86505000  0.99273000  0.18373000  1.0
  H  H28  1  0.17915000  0.59122000  0.30280000  1.0
  H  H29  1  0.82085000  0.90878000  0.80280000  1.0
  H  H30  1  0.82085000  0.40878000  0.69720000  1.0
  H  H31  1  0.17915000  0.09123000  0.19720000  1.0
  H  H32  1  0.02927000  0.78007000  0.12775000  1.0
  H  H33  1  0.97074000  0.71994000  0.62774000  1.0
  H  H34  1  0.97072000  0.21993000  0.87226000  1.0
  H  H35  1  0.02927000  0.28007000  0.37226000  1.0
  H  H36  1  0.24077000  0.68139000  0.07108000  1.0
  H  H37  1  0.75923000  0.81861000  0.57108000  1.0
  H  H38  1  0.75922000  0.31861000  0.92892000  1.0
  H  H39  1  0.24076000  0.18139000  0.42892000  1.0
  C  C40  1  0.63338000  0.62925000  0.17571000  1.0
  C  C41  1  0.36662000  0.87075000  0.67571000  1.0
  C  C42  1  0.36661000  0.37075000  0.82429000  1.0
  C  C43  1  0.63338000  0.12925000  0.32429000  1.0
  C  C44  1  0.67885000  0.73266000  0.28566000  1.0
  C  C45  1  0.32115000  0.76734000  0.78566000  1.0
  C  C46  1  0.32115000  0.26733000  0.71434000  1.0
  C  C47  1  0.67885000  0.23267000  0.21434000  1.0
  C  C48  1  0.47817000  0.79033000  0.23938000  1.0
  C  C49  1  0.52184000  0.70968000  0.73938000  1.0
  C  C50  1  0.52183000  0.20967000  0.76063000  1.0
  C  C51  1  0.47816000  0.29033000  0.26062000  1.0
  C  C52  1  0.98291000  0.54879000  0.27516000  1.0
  C  C53  1  0.01711000  0.95121000  0.77516000  1.0
  C  C54  1  0.01710000  0.45121000  0.72484000  1.0
  C  C55  1  0.98291000  0.04880000  0.22484000  1.0
  C  C56  1  0.26264000  0.75720000  0.10813000  1.0
  C  C57  1  0.73737000  0.74280000  0.60813000  1.0
  C  C58  1  0.73736000  0.24280000  0.89187000  1.0
  C  C59  1  0.26262000  0.25719000  0.39187000  1.0
  C  C60  1  0.38453000  0.85982000  0.06281000  1.0
  C  C61  1  0.61545000  0.64017000  0.56281000  1.0
  C  C62  1  0.61547000  0.14017000  0.93720000  1.0
  C  C63  1  0.38454000  0.35983000  0.43719000  1.0
  Br  Br64  1  0.19155000  0.36521000  0.05575000  1.0
  Br  Br65  1  0.80844000  0.13479000  0.55575000  1.0
  Br  Br66  1  0.80842000  0.63479000  0.94425000  1.0
  Br  Br67  1  0.19155000  0.86521000  0.44424000  1.0
  N  N68  1  0.77095000  0.63542000  0.24562000  1.0
  N  N69  1  0.22906000  0.86458000  0.74562000  1.0
  N  N70  1  0.22905000  0.36458000  0.75438000  1.0
  N  N71  1  0.77095000  0.13542000  0.25438000  1.0
  N  N72  1  0.45279000  0.72605000  0.17293000  1.0
  N  N73  1  0.54722000  0.77395000  0.67293000  1.0
  N  N74  1  0.54721000  0.27394000  0.82707000  1.0
  N  N75  1  0.45278000  0.22605000  0.32707000  1.0
  N  N76  1  0.24768000  0.87625000  0.99535000  1.0
  N  N77  1  0.75235000  0.62375000  0.49535000  1.0
  N  N78  1  0.75233000  0.12374000  0.00465000  1.0
  N  N79  1  0.24765000  0.37625000  0.50465000  1.0
  O  O80  1  0.58856000  0.92442000  0.08968000  1.0
  O  O81  1  0.41148000  0.57559000  0.58968000  1.0
  O  O82  1  0.41147000  0.07558000  0.91032000  1.0
  O  O83  1  0.58853000  0.42442000  0.41032000  1.0
