# generated using pymatgen
data_SrH7C7NO6
_symmetry_space_group_name_H-M   'P 1'
_cell_length_a   6.61709000
_cell_length_b   6.85664000
_cell_length_c   19.82150000
_cell_angle_alpha   90.00010000
_cell_angle_beta   90.00010000
_cell_angle_gamma   92.04670000
_symmetry_Int_Tables_number   1
_chemical_formula_structural   SrH7C7NO6
_chemical_formula_sum   'Sr4 H28 C28 N4 O24'
_cell_volume   898.74763289
_cell_formula_units_Z   4
loop_
 _symmetry_equiv_pos_site_id
 _symmetry_equiv_pos_as_xyz
  1  'x, y, z'
loop_
 _atom_site_type_symbol
 _atom_site_label
 _atom_site_symmetry_multiplicity
 _atom_site_fract_x
 _atom_site_fract_y
 _atom_site_fract_z
 _atom_site_occupancy
  Sr  Sr0  1  0.62644000  0.41716000  0.68908000  1.0
  Sr  Sr1  1  0.87356000  0.58284000  0.18908000  1.0
  Sr  Sr2  1  0.37356000  0.58284000  0.31092000  1.0
  Sr  Sr3  1  0.12644000  0.41716000  0.81092000  1.0
  H  H4  1  0.25831000  0.72938000  0.69956000  1.0
  H  H5  1  0.24169000  0.27062000  0.19956000  1.0
  H  H6  1  0.74169000  0.27062000  0.30044000  1.0
  H  H7  1  0.75831000  0.72938000  0.80044000  1.0
  H  H8  1  0.41102000  0.74791000  0.76190000  1.0
  H  H9  1  0.08898000  0.25209000  0.26190000  1.0
  H  H10  1  0.58898000  0.25209000  0.23810000  1.0
  H  H11  1  0.91103000  0.74792000  0.73810000  1.0
  H  H12  1  0.65107000  0.94687000  0.68250000  1.0
  H  H13  1  0.84893000  0.05313000  0.18250000  1.0
  H  H14  1  0.34893000  0.05313000  0.31750000  1.0
  H  H15  1  0.15107000  0.94687000  0.81750000  1.0
  H  H16  1  0.58016000  0.00674000  0.75574000  1.0
  H  H17  1  0.91985000  0.99326000  0.25574000  1.0
  H  H18  1  0.41985000  0.99326000  0.24426000  1.0
  H  H19  1  0.08016000  0.00674000  0.74426000  1.0
  H  H20  1  0.24879000  0.29310000  0.49936000  1.0
  H  H21  1  0.25121000  0.70690000  0.99936000  1.0
  H  H22  1  0.75121000  0.70689000  0.50064000  1.0
  H  H23  1  0.74879000  0.29311000  0.00064000  1.0
  H  H24  1  0.66505000  0.14609000  0.41318000  1.0
  H  H25  1  0.83495000  0.85391000  0.91318000  1.0
  H  H26  1  0.33495000  0.85391000  0.58682000  1.0
  H  H27  1  0.16505000  0.14609000  0.08682000  1.0
  H  H28  1  0.51649000  0.19892000  0.52855000  1.0
  H  H29  1  0.98351000  0.80108000  0.02855000  1.0
  H  H30  1  0.48352000  0.80108000  0.47145000  1.0
  H  H31  1  0.01649000  0.19892000  0.97145000  1.0
  C  C32  1  0.11586000  0.33263000  0.62967000  1.0
  C  C33  1  0.38414000  0.66737000  0.12967000  1.0
  C  C34  1  0.88415000  0.66737000  0.37033000  1.0
  C  C35  1  0.61585000  0.33263000  0.87033000  1.0
  C  C36  1  0.99239000  0.28750000  0.56651000  1.0
  C  C37  1  0.50761000  0.71250000  0.06652000  1.0
  C  C38  1  0.00762000  0.71250000  0.43348000  1.0
  C  C39  1  0.49239000  0.28750000  0.93348000  1.0
  C  C40  1  0.08655000  0.26762000  0.50403000  1.0
  C  C41  1  0.41345000  0.73238000  0.00404000  1.0
  C  C42  1  0.91345000  0.73238000  0.49596000  1.0
  C  C43  1  0.58655000  0.26762000  0.99596000  1.0
  C  C44  1  0.96991000  0.21944000  0.44745000  1.0
  C  C45  1  0.53009000  0.78055000  0.94745000  1.0
  C  C46  1  0.03010000  0.78055000  0.55255000  1.0
  C  C47  1  0.46990000  0.21945000  0.05255000  1.0
  C  C48  1  0.06854000  0.20289000  0.37933000  1.0
  C  C49  1  0.43146000  0.79711000  0.87933000  1.0
  C  C50  1  0.93146000  0.79711000  0.62067000  1.0
  C  C51  1  0.56854000  0.20289000  0.12067000  1.0
  C  C52  1  0.76116000  0.18921000  0.45563000  1.0
  C  C53  1  0.73884000  0.81078000  0.95563000  1.0
  C  C54  1  0.23884000  0.81078000  0.54437000  1.0
  C  C55  1  0.26116000  0.18922000  0.04437000  1.0
  C  C56  1  0.67863000  0.21685000  0.51945000  1.0
  C  C57  1  0.82137000  0.78315000  0.01945000  1.0
  C  C58  1  0.32138000  0.78315000  0.48055000  1.0
  C  C59  1  0.17863000  0.21685000  0.98055000  1.0
  N  N60  1  0.79013000  0.26777000  0.57368000  1.0
  N  N61  1  0.70987000  0.73223000  0.07368000  1.0
  N  N62  1  0.20987000  0.73223000  0.42632000  1.0
  N  N63  1  0.29013000  0.26777000  0.92632000  1.0
  O  O64  1  0.01738000  0.36553000  0.68371000  1.0
  O  O65  1  0.48261000  0.63447000  0.18371000  1.0
  O  O66  1  0.98262000  0.63447000  0.31629000  1.0
  O  O67  1  0.51738000  0.36553000  0.81629000  1.0
  O  O68  1  0.30580000  0.33377000  0.62383000  1.0
  O  O69  1  0.19419000  0.66624000  0.12384000  1.0
  O  O70  1  0.69420000  0.66623000  0.37617000  1.0
  O  O71  1  0.80581000  0.33377000  0.87616000  1.0
  O  O72  1  0.25696000  0.24276000  0.37456000  1.0
  O  O73  1  0.24304000  0.75724000  0.87456000  1.0
  O  O74  1  0.74304000  0.75724000  0.62544000  1.0
  O  O75  1  0.75696000  0.24276000  0.12544000  1.0
  O  O76  1  0.95511000  0.15223000  0.32960000  1.0
  O  O77  1  0.54488000  0.84776000  0.82960000  1.0
  O  O78  1  0.04488000  0.84776000  0.67040000  1.0
  O  O79  1  0.45512000  0.15224000  0.17040000  1.0
  O  O80  1  0.35091000  0.65480000  0.72821000  1.0
  O  O81  1  0.14909000  0.34520000  0.22821000  1.0
  O  O82  1  0.64909000  0.34520000  0.27179000  1.0
  O  O83  1  0.85091000  0.65480000  0.77179000  1.0
  O  O84  1  0.61150000  0.05814000  0.71061000  1.0
  O  O85  1  0.88850000  0.94186000  0.21061000  1.0
  O  O86  1  0.38850000  0.94186000  0.28939000  1.0
  O  O87  1  0.11150000  0.05814000  0.78939000  1.0
