# generated using pymatgen
data_CdH6C6INO4
_symmetry_space_group_name_H-M   'P 1'
_cell_length_a   8.44606000
_cell_length_b   10.63580000
_cell_length_c   10.81770000
_cell_angle_alpha   90.86010000
_cell_angle_beta   90.00000000
_cell_angle_gamma   89.99990000
_symmetry_Int_Tables_number   1
_chemical_formula_structural   CdH6C6INO4
_chemical_formula_sum   'Cd4 H24 C24 I4 N4 O16'
_cell_volume   971.65104533
_cell_formula_units_Z   4
loop_
 _symmetry_equiv_pos_site_id
 _symmetry_equiv_pos_as_xyz
  1  'x, y, z'
loop_
 _atom_site_type_symbol
 _atom_site_label
 _atom_site_symmetry_multiplicity
 _atom_site_fract_x
 _atom_site_fract_y
 _atom_site_fract_z
 _atom_site_occupancy
  Cd  Cd0  1  0.09354000  0.33421000  0.45206000  1.0
  Cd  Cd1  1  0.59353000  0.16579000  0.54794000  1.0
  Cd  Cd2  1  0.90646000  0.66579000  0.54794000  1.0
  Cd  Cd3  1  0.40647000  0.83421000  0.45206000  1.0
  H  H4  1  0.43732000  0.63368000  0.84147000  1.0
  H  H5  1  0.93732000  0.86632000  0.15853000  1.0
  H  H6  1  0.56268000  0.36632000  0.15853000  1.0
  H  H7  1  0.06268000  0.13368000  0.84147000  1.0
  H  H8  1  0.35834000  0.50435000  0.02487000  1.0
  H  H9  1  0.85834000  0.99565000  0.97513000  1.0
  H  H10  1  0.64166000  0.49565000  0.97513000  1.0
  H  H11  1  0.14166000  0.00435000  0.02487000  1.0
  H  H12  1  0.12076000  0.36333000  0.00458000  1.0
  H  H13  1  0.62076000  0.13667000  0.99542000  1.0
  H  H14  1  0.87924000  0.63667000  0.99542000  1.0
  H  H15  1  0.37924000  0.86333000  0.00458000  1.0
  H  H16  1  0.97014000  0.36099000  0.80042000  1.0
  H  H17  1  0.47014000  0.13901000  0.19958000  1.0
  H  H18  1  0.02986000  0.63901000  0.19958000  1.0
  H  H19  1  0.52986000  0.86099000  0.80042000  1.0
  H  H20  1  0.08994000  0.91103000  0.41221000  1.0
  H  H21  1  0.58994000  0.58897000  0.58779000  1.0
  H  H22  1  0.91006000  0.08897000  0.58779000  1.0
  H  H23  1  0.41006000  0.41103000  0.41221000  1.0
  H  H24  1  0.19412000  0.02880000  0.37756000  1.0
  H  H25  1  0.69412000  0.47120000  0.62244000  1.0
  H  H26  1  0.80588000  0.97120000  0.62244000  1.0
  H  H27  1  0.30588000  0.52880000  0.37756000  1.0
  C  C28  1  0.28818000  0.65696000  0.62651000  1.0
  C  C29  1  0.78818000  0.84304000  0.37349000  1.0
  C  C30  1  0.71182000  0.34304000  0.37349000  1.0
  C  C31  1  0.21182000  0.15696000  0.62651000  1.0
  C  C32  1  0.24671000  0.56930000  0.72936000  1.0
  C  C33  1  0.74671000  0.93070000  0.27064000  1.0
  C  C34  1  0.75329000  0.43070000  0.27064000  1.0
  C  C35  1  0.25329000  0.06930000  0.72936000  1.0
  C  C36  1  0.33463000  0.57189000  0.83843000  1.0
  C  C37  1  0.83463000  0.92811000  0.16157000  1.0
  C  C38  1  0.66537000  0.42811000  0.16157000  1.0
  C  C39  1  0.16537000  0.07189000  0.83843000  1.0
  C  C40  1  0.29169000  0.49915000  0.93878000  1.0
  C  C41  1  0.79169000  0.00085000  0.06122000  1.0
  C  C42  1  0.70831000  0.50085000  0.06122000  1.0
  C  C43  1  0.20831000  0.99915000  0.93878000  1.0
  C  C44  1  0.15914000  0.42161000  0.92797000  1.0
  C  C45  1  0.65914000  0.07839000  0.07203000  1.0
  C  C46  1  0.84086000  0.57839000  0.07203000  1.0
  C  C47  1  0.34086000  0.92161000  0.92797000  1.0
  C  C48  1  0.07520000  0.41792000  0.81842000  1.0
  C  C49  1  0.57520000  0.08208000  0.18158000  1.0
  C  C50  1  0.92480000  0.58208000  0.18158000  1.0
  C  C51  1  0.42480000  0.91792000  0.81842000  1.0
  I  I52  1  0.36424000  0.70865000  0.22102000  1.0
  I  I53  1  0.86424000  0.79135000  0.77898000  1.0
  I  I54  1  0.63576000  0.29135000  0.77898000  1.0
  I  I55  1  0.13576000  0.20865000  0.22102000  1.0
  N  N56  1  0.11873000  0.49003000  0.72130000  1.0
  N  N57  1  0.61873000  0.00996000  0.27870000  1.0
  N  N58  1  0.88127000  0.50997000  0.27870000  1.0
  N  N59  1  0.38127000  0.99004000  0.72130000  1.0
  O  O60  1  0.18337000  0.96157000  0.43863000  1.0
  O  O61  1  0.68337000  0.53843000  0.56137000  1.0
  O  O62  1  0.81663000  0.03844000  0.56137000  1.0
  O  O63  1  0.31663000  0.46157000  0.43863000  1.0
  O  O64  1  0.43372000  0.68807000  0.61855000  1.0
  O  O65  1  0.93373000  0.81193000  0.38145000  1.0
  O  O66  1  0.56628000  0.31193000  0.38145000  1.0
  O  O67  1  0.06628000  0.18807000  0.61855000  1.0
  O  O68  1  0.18346000  0.70468000  0.55801000  1.0
  O  O69  1  0.68347000  0.79532000  0.44200000  1.0
  O  O70  1  0.81654000  0.29532000  0.44199000  1.0
  O  O71  1  0.31654000  0.20468000  0.55801000  1.0
  O  O72  1  0.03229000  0.48017000  0.61961000  1.0
  O  O73  1  0.53229000  0.01983000  0.38039000  1.0
  O  O74  1  0.96771000  0.51983000  0.38039000  1.0
  O  O75  1  0.46771000  0.98017000  0.61961000  1.0
