# generated using pymatgen
data_AlH27(C4O)12
_symmetry_space_group_name_H-M   'P 1'
_cell_length_a   4.05352000
_cell_length_b   23.49120000
_cell_length_c   23.53340000
_cell_angle_alpha   60.07450000
_cell_angle_beta   88.21630000
_cell_angle_gamma   88.41050000
_symmetry_Int_Tables_number   1
_chemical_formula_structural   AlH27(C4O)12
_chemical_formula_sum   'Al1 H27 C48 O12'
_cell_volume   1940.99643506
_cell_formula_units_Z   1
loop_
 _symmetry_equiv_pos_site_id
 _symmetry_equiv_pos_as_xyz
  1  'x, y, z'
loop_
 _atom_site_type_symbol
 _atom_site_label
 _atom_site_symmetry_multiplicity
 _atom_site_fract_x
 _atom_site_fract_y
 _atom_site_fract_z
 _atom_site_occupancy
  Al  Al0  1  0.96582000  0.50064000  0.50065000  1.0
  H  H1  1  0.74829000  0.32260000  0.67142000  1.0
  H  H2  1  0.73109000  0.20222000  0.73892000  1.0
  H  H3  1  0.24137000  0.97848000  0.84845000  1.0
  H  H4  1  0.19193000  0.66598000  0.31573000  1.0
  H  H5  1  0.19175000  0.72072000  0.19437000  1.0
  H  H6  1  0.68846000  0.76269000  0.11337000  1.0
  H  H7  1  0.72293000  0.82955000  0.99352000  1.0
  H  H8  1  0.51241000  0.88970000  0.89977000  1.0
  H  H9  1  0.77011000  0.50593000  0.32261000  1.0
  H  H10  1  0.75480000  0.55843000  0.20244000  1.0
  H  H11  1  0.26616000  0.67445000  0.97919000  1.0
  H  H12  1  0.15113000  0.52395000  0.66474000  1.0
  H  H13  1  0.14858000  0.59008000  0.72031000  1.0
  H  H14  1  0.66121000  0.62434000  0.76108000  1.0
  H  H15  1  0.71056000  0.67690000  0.82804000  1.0
  H  H16  1  0.49401000  0.71195000  0.88995000  1.0
  H  H17  1  0.73265000  0.67205000  0.50564000  1.0
  H  H18  1  0.71257000  0.73965000  0.55892000  1.0
  H  H19  1  0.22109000  0.84903000  0.67857000  1.0
  H  H20  1  0.20224000  0.31507000  0.52108000  1.0
  H  H21  1  0.20256000  0.19347000  0.58731000  1.0
  H  H22  1  0.70800000  0.11240000  0.62522000  1.0
  H  H23  1  0.74615000  0.99209000  0.67902000  1.0
  H  H24  1  0.49408000  0.89931000  0.71286000  1.0
  H  H25  1  0.81525000  0.84041000  0.63154000  1.0
  H  H26  1  0.83655000  0.03790000  0.83769000  1.0
  H  H27  1  0.87220000  0.62514000  0.03862000  1.0
  C  C28  1  0.47209000  0.39997000  0.55332000  1.0
  C  C29  1  0.44936000  0.55425000  0.54780000  1.0
  C  C30  1  0.47637000  0.54822000  0.40014000  1.0
  C  C31  1  0.62285000  0.29437000  0.65349000  1.0
  C  C32  1  0.61506000  0.22623000  0.69143000  1.0
  C  C33  1  0.33043000  0.07669000  0.76986000  1.0
  C  C34  1  0.34822000  0.00792000  0.79938000  1.0
  C  C35  1  0.32015000  0.64320000  0.29059000  1.0
  C  C36  1  0.31955000  0.67360000  0.22245000  1.0
  C  C37  1  0.59361000  0.74317000  0.08377000  1.0
  C  C38  1  0.61074000  0.78125000  0.01581000  1.0
  C  C39  1  0.47367000  0.32652000  0.59226000  1.0
  C  C40  1  0.46304000  0.18895000  0.66830000  1.0
  C  C41  1  0.46424000  0.11607000  0.70567000  1.0
  C  C42  1  0.49569000  0.97543000  0.76864000  1.0
  C  C43  1  0.50624000  0.90281000  0.80234000  1.0
  C  C44  1  0.51013000  0.86504000  0.87099000  1.0
  C  C45  1  0.63840000  0.55254000  0.29458000  1.0
  C  C46  1  0.63132000  0.58248000  0.22655000  1.0
  C  C47  1  0.34969000  0.65436000  0.07714000  1.0
  C  C48  1  0.36358000  0.69399000  0.00854000  1.0
  C  C49  1  0.27895000  0.57067000  0.64224000  1.0
  C  C50  1  0.27663000  0.60816000  0.67310000  1.0
  C  C51  1  0.56322000  0.67399000  0.74282000  1.0
  C  C52  1  0.58799000  0.70352000  0.78102000  1.0
  C  C53  1  0.47967000  0.58234000  0.32684000  1.0
  C  C54  1  0.46980000  0.64330000  0.18949000  1.0
  C  C55  1  0.47043000  0.67880000  0.11674000  1.0
  C  C56  1  0.49609000  0.75720000  0.97616000  1.0
  C  C57  1  0.50566000  0.79621000  0.90361000  1.0
  C  C58  1  0.49916000  0.76535000  0.86570000  1.0
  C  C59  1  0.59844000  0.65471000  0.55210000  1.0
  C  C60  1  0.58868000  0.69270000  0.58239000  1.0
  C  C61  1  0.30260000  0.77104000  0.65685000  1.0
  C  C62  1  0.32296000  0.79967000  0.69667000  1.0
  C  C63  1  0.32363000  0.29004000  0.56827000  1.0
  C  C64  1  0.32315000  0.22175000  0.60582000  1.0
  C  C65  1  0.60325000  0.08290000  0.67446000  1.0
  C  C66  1  0.62258000  0.01480000  0.70473000  1.0
  C  C67  1  0.44115000  0.59403000  0.58151000  1.0
  C  C68  1  0.42632000  0.66996000  0.64331000  1.0
  C  C69  1  0.42927000  0.70655000  0.67961000  1.0
  C  C70  1  0.46988000  0.76792000  0.75831000  1.0
  C  C71  1  0.49314000  0.80148000  0.79708000  1.0
  C  C72  1  0.49963000  0.87024000  0.76617000  1.0
  C  C73  1  0.15237000  0.81224000  0.59049000  1.0
  C  C74  1  0.17095000  0.10446000  0.80963000  1.0
  C  C75  1  0.20949000  0.58675000  0.10440000  1.0
  O  O76  1  0.70618000  0.56120000  0.42746000  1.0
  O  O77  1  0.71199000  0.42740000  0.51319000  1.0
  O  O78  1  0.68835000  0.51346000  0.56080000  1.0
  O  O79  1  0.24297000  0.50814000  0.42997000  1.0
  O  O80  1  0.21816000  0.56426000  0.50828000  1.0
  O  O81  1  0.23074000  0.42976000  0.56368000  1.0
  O  O82  1  0.90755000  0.85508000  0.58753000  1.0
  O  O83  1  0.24015000  0.81207000  0.54086000  1.0
  O  O84  1  0.92258000  0.06735000  0.85174000  1.0
  O  O85  1  0.25293000  0.15406000  0.80891000  1.0
  O  O86  1  0.96909000  0.58174000  0.06747000  1.0
  O  O87  1  0.30098000  0.53781000  0.15342000  1.0
