# generated using pymatgen
data_RbNiH3(CO2)3
_symmetry_space_group_name_H-M   'P 1'
_cell_length_a   7.25309000
_cell_length_b   7.25309000
_cell_length_c   8.23942000
_cell_angle_alpha   90.00000000
_cell_angle_beta   90.00000000
_cell_angle_gamma   120.00000000
_symmetry_Int_Tables_number   1
_chemical_formula_structural   RbNiH3(CO2)3
_chemical_formula_sum   'Rb2 Ni2 H6 C6 O12'
_cell_volume   375.38196721
_cell_formula_units_Z   2
loop_
 _symmetry_equiv_pos_site_id
 _symmetry_equiv_pos_as_xyz
  1  'x, y, z'
loop_
 _atom_site_type_symbol
 _atom_site_label
 _atom_site_symmetry_multiplicity
 _atom_site_fract_x
 _atom_site_fract_y
 _atom_site_fract_z
 _atom_site_occupancy
  Rb  Rb0  1  0.99999000  0.99999000  0.75000000  1.0
  Rb  Rb1  1  0.00001000  0.00001000  0.25000000  1.0
  Ni  Ni2  1  0.33333333  0.66666667  0.75000000  1.0
  Ni  Ni3  1  0.66666667  0.33333333  0.25000000  1.0
  H  H4  1  0.40027000  0.99999000  1.00000000  1.0
  H  H5  1  0.00000000  0.59972000  0.50000000  1.0
  H  H6  1  0.59972000  0.59972000  0.99999000  1.0
  H  H7  1  0.59973000  0.99999000  0.50001000  1.0
  H  H8  1  0.00001000  0.40028000  0.00000000  1.0
  H  H9  1  0.40027000  0.40027000  0.50000000  1.0
  C  C10  1  0.55238000  1.00000000  0.00001000  1.0
  C  C11  1  1.00000000  0.44761000  0.49999000  1.0
  C  C12  1  0.44762000  0.44762000  0.00001000  1.0
  C  C13  1  0.44762000  1.00000000  0.49999000  1.0
  C  C14  1  1.00000000  0.55239000  0.00001000  1.0
  C  C15  1  0.55238000  0.55237000  0.49999000  1.0
  O  O16  1  0.58138000  0.89130000  0.89242000  1.0
  O  O17  1  0.89133000  0.30993000  0.39244000  1.0
  O  O18  1  0.30991000  0.41861000  0.89243000  1.0
  O  O19  1  0.41861000  0.10867000  0.39244000  1.0
  O  O20  1  0.10869000  0.69008000  0.89243000  1.0
  O  O21  1  0.69008000  0.58139000  0.39244000  1.0
  O  O22  1  0.89132000  0.58139000  0.10756000  1.0
  O  O23  1  0.41861000  0.30993000  0.10756000  1.0
  O  O24  1  0.69007000  0.10867000  0.10756000  1.0
  O  O25  1  0.30991000  0.89130000  0.60757000  1.0
  O  O26  1  0.10870000  0.41861000  0.60757000  1.0
  O  O27  1  0.58139000  0.69008000  0.60757000  1.0
