# generated using pymatgen
data_ZnH4(CO3)2
_symmetry_space_group_name_H-M   'P 1'
_cell_length_a   5.51808000
_cell_length_b   6.49455595
_cell_length_c   8.16659000
_cell_angle_alpha   82.93385549
_cell_angle_beta   70.30470000
_cell_angle_gamma   64.88728068
_symmetry_Int_Tables_number   1
_chemical_formula_structural   ZnH4(CO3)2
_chemical_formula_sum   'Zn2 H8 C4 O12'
_cell_volume   249.43318988
_cell_formula_units_Z   2
loop_
 _symmetry_equiv_pos_site_id
 _symmetry_equiv_pos_as_xyz
  1  'x, y, z'
loop_
 _atom_site_type_symbol
 _atom_site_label
 _atom_site_symmetry_multiplicity
 _atom_site_fract_x
 _atom_site_fract_y
 _atom_site_fract_z
 _atom_site_occupancy
  Zn  Zn0  1  0.82325000  0.75002000  0.24988000  1.0
  Zn  Zn1  1  0.17675000  0.24998000  0.75012000  1.0
  H  H2  1  0.63486000  0.17606000  0.35755000  1.0
  H  H3  1  0.16846000  0.32394000  0.14259000  1.0
  H  H4  1  0.36514000  0.82394000  0.64245000  1.0
  H  H5  1  0.83155000  0.67606000  0.85741000  1.0
  H  H6  1  0.70206000  0.17555000  0.14874000  1.0
  H  H7  1  0.02578000  0.32454000  0.35129000  1.0
  H  H8  1  0.29794000  0.82446000  0.85126000  1.0
  H  H9  1  0.97422000  0.67546000  0.64871000  1.0
  C  C10  1  0.27467000  0.74880000  0.35130000  1.0
  C  C11  1  0.37463000  0.75113000  0.14851000  1.0
  C  C12  1  0.72531000  0.25119000  0.64870000  1.0
  C  C13  1  0.62535000  0.24887000  0.85149000  1.0
  O  O14  1  0.44138000  0.74785000  0.42654000  1.0
  O  O15  1  0.61542000  0.75203000  0.07326000  1.0
  O  O16  1  0.55864000  0.25214000  0.57346000  1.0
  O  O17  1  0.38461000  0.24796000  0.92673000  1.0
  O  O18  1  0.03322000  0.74782000  0.42724000  1.0
  O  O19  1  0.20776000  0.75214000  0.07267000  1.0
  O  O20  1  0.96679000  0.25217000  0.57276000  1.0
  O  O21  1  0.79223000  0.24787000  0.92733000  1.0
  O  O22  1  0.62673000  0.10710000  0.25878000  1.0
  O  O23  1  0.99250000  0.39289000  0.24108000  1.0
  O  O24  1  0.37327000  0.89290000  0.74122000  1.0
  O  O25  1  0.00750000  0.60711000  0.75892000  1.0
