# generated using pymatgen
data_CdH12C16(N5O3)2
_symmetry_space_group_name_H-M   'P 1'
_cell_length_a   7.45164000
_cell_length_b   7.72948000
_cell_length_c   9.61861237
_cell_angle_alpha   67.08607693
_cell_angle_beta   88.94821432
_cell_angle_gamma   80.43350000
_symmetry_Int_Tables_number   1
_chemical_formula_structural   CdH12C16(N5O3)2
_chemical_formula_sum   'Cd1 H12 C16 N10 O6'
_cell_volume   502.53792016
_cell_formula_units_Z   1
loop_
 _symmetry_equiv_pos_site_id
 _symmetry_equiv_pos_as_xyz
  1  'x, y, z'
loop_
 _atom_site_type_symbol
 _atom_site_label
 _atom_site_symmetry_multiplicity
 _atom_site_fract_x
 _atom_site_fract_y
 _atom_site_fract_z
 _atom_site_occupancy
  Cd  Cd0  1  0.49999000  0.00002000  0.50000000  1.0
  H  H1  1  0.47381000  0.64931000  0.03892000  1.0
  H  H2  1  0.52620000  0.35069000  0.96109000  1.0
  H  H3  1  0.26067000  0.61637000  0.97968000  1.0
  H  H4  1  0.73935000  0.38362000  0.02032000  1.0
  H  H5  1  0.35495000  0.46974000  0.16199000  1.0
  H  H6  1  0.64507000  0.53025000  0.83801000  1.0
  H  H7  1  0.83783000  0.94736000  0.23612000  1.0
  H  H8  1  0.16219000  0.05261000  0.76390000  1.0
  H  H9  1  0.04417000  0.14856000  0.28283000  1.0
  H  H10  1  0.95584000  0.85142000  0.71717000  1.0
  H  H11  1  0.49197000  0.86766000  0.14714000  1.0
  H  H12  1  0.50803000  0.13234000  0.85286000  1.0
  C  C13  1  0.24076000  0.69291000  0.56268000  1.0
  C  C14  1  0.75921000  0.30712000  0.43731000  1.0
  C  C15  1  0.27055000  0.40670000  0.53172000  1.0
  C  C16  1  0.72940000  0.59333000  0.46827000  1.0
  C  C17  1  0.33929000  0.61570000  0.07543000  1.0
  C  C18  1  0.66073000  0.38430000  0.92457000  1.0
  C  C19  1  0.24451000  0.75670000  0.13545000  1.0
  C  C20  1  0.75549000  0.24328000  0.86456000  1.0
  C  C21  1  0.05787000  0.78458000  0.16366000  1.0
  C  C22  1  0.94214000  0.21540000  0.83635000  1.0
  C  C23  1  0.98169000  0.92687000  0.21347000  1.0
  C  C24  1  0.01831000  0.07310000  0.78654000  1.0
  C  C25  1  0.09147000  0.03800000  0.24102000  1.0
  C  C26  1  0.90855000  0.96200000  0.75899000  1.0
  C  C27  1  0.34673000  0.87578000  0.16364000  1.0
  C  C28  1  0.65329000  0.12420000  0.83637000  1.0
  N  N29  1  0.27448000  0.81871000  0.59347000  1.0
  N  N30  1  0.72551000  0.18131000  0.40653000  1.0
  N  N31  1  0.18402000  0.56931000  0.52380000  1.0
  N  N32  1  0.81594000  0.43074000  0.47620000  1.0
  N  N33  1  0.33322000  0.25502000  0.53441000  1.0
  N  N34  1  0.66666667  0.74503000  0.46556000  1.0
  N  N35  1  0.93768000  0.66414000  0.14438000  1.0
  N  N36  1  0.06235000  0.33583000  0.85562000  1.0
  N  N37  1  0.27353000  0.01031000  0.21715000  1.0
  N  N38  1  0.72647000  0.98968000  0.78286000  1.0
  O  O39  1  0.77161000  0.73095000  0.11951000  1.0
  O  O40  1  0.22840000  0.26902000  0.88049000  1.0
  O  O41  1  0.00532000  0.50116000  0.15596000  1.0
  O  O42  1  0.99470000  0.49884000  0.84403000  1.0
  O  O43  1  0.37880000  0.11351000  0.24461000  1.0
  O  O44  1  0.62121000  0.88648000  0.75539000  1.0
