# generated using pymatgen
data_CdH8C6(N5O2)2
_symmetry_space_group_name_H-M   'P 1'
_cell_length_a   8.67163000
_cell_length_b   8.67163000
_cell_length_c   8.86893000
_cell_angle_alpha   76.93960000
_cell_angle_beta   76.93950000
_cell_angle_gamma   76.09670000
_symmetry_Int_Tables_number   1
_chemical_formula_structural   CdH8C6(N5O2)2
_chemical_formula_sum   'Cd2 H16 C12 N20 O8'
_cell_volume   620.15221033
_cell_formula_units_Z   2
loop_
 _symmetry_equiv_pos_site_id
 _symmetry_equiv_pos_as_xyz
  1  'x, y, z'
loop_
 _atom_site_type_symbol
 _atom_site_label
 _atom_site_symmetry_multiplicity
 _atom_site_fract_x
 _atom_site_fract_y
 _atom_site_fract_z
 _atom_site_occupancy
  Cd  Cd0  1  0.69976000  0.30024000  0.25000000  1.0
  Cd  Cd1  1  0.30025000  0.69975000  0.75000000  1.0
  H  H2  1  0.29970000  0.97301000  0.42122000  1.0
  H  H3  1  0.02699000  0.70029000  0.07879000  1.0
  H  H4  1  0.70029000  0.02699000  0.57878000  1.0
  H  H5  1  0.97301000  0.29971000  0.92121000  1.0
  H  H6  1  0.48899000  0.01274000  0.31338000  1.0
  H  H7  1  0.98726000  0.51101000  0.18662000  1.0
  H  H8  1  0.51101000  0.98726000  0.68662000  1.0
  H  H9  1  0.01274000  0.48899000  0.81338000  1.0
  H  H10  1  0.98257000  0.28380000  0.63757000  1.0
  H  H11  1  0.71620000  0.01743000  0.86242000  1.0
  H  H12  1  0.01743000  0.71620000  0.36242000  1.0
  H  H13  1  0.28380000  0.98257000  0.13758000  1.0
  H  H14  1  0.08132000  0.08768000  0.60169000  1.0
  H  H15  1  0.91232000  0.91868000  0.89831000  1.0
  H  H16  1  0.91868000  0.91232000  0.39831000  1.0
  H  H17  1  0.08768000  0.08132000  0.10169000  1.0
  C  C18  1  0.34189000  0.20066000  0.40517000  1.0
  C  C19  1  0.79934000  0.65811000  0.09483000  1.0
  C  C20  1  0.65812000  0.79934000  0.59483000  1.0
  C  C21  1  0.20066000  0.34188000  0.90517000  1.0
  C  C22  1  0.05283000  0.21524000  0.54627000  1.0
  C  C23  1  0.78476000  0.94717000  0.95373000  1.0
  C  C24  1  0.94717000  0.78476000  0.45373000  1.0
  C  C25  1  0.21524000  0.05283000  0.04627000  1.0
  C  C26  1  0.95008000  0.23529000  0.42186000  1.0
  C  C27  1  0.76471000  0.04992000  0.07814000  1.0
  C  C28  1  0.04992000  0.76471000  0.57814000  1.0
  C  C29  1  0.23529000  0.95008000  0.92186000  1.0
  N  N30  1  0.20103000  0.27355000  0.48550000  1.0
  N  N31  1  0.72645000  0.79897000  0.01450000  1.0
  N  N32  1  0.79897000  0.72645000  0.51450000  1.0
  N  N33  1  0.27355000  0.20103000  0.98550000  1.0
  N  N34  1  0.21324000  0.42678000  0.49208000  1.0
  N  N35  1  0.57322000  0.78676000  0.00792000  1.0
  N  N36  1  0.78676000  0.57322000  0.50792000  1.0
  N  N37  1  0.42678000  0.21324000  0.99208000  1.0
  N  N38  1  0.35585000  0.44498000  0.42109000  1.0
  N  N39  1  0.55502000  0.64415000  0.07891000  1.0
  N  N40  1  0.64415000  0.55502000  0.57891000  1.0
  N  N41  1  0.44498000  0.35585000  0.92109000  1.0
  N  N42  1  0.44017000  0.30841000  0.36567000  1.0
  N  N43  1  0.69159000  0.55983000  0.13433000  1.0
  N  N44  1  0.55983000  0.69159000  0.63433000  1.0
  N  N45  1  0.30841000  0.44017000  0.86567000  1.0
  N  N46  1  0.37425000  0.05320000  0.37010000  1.0
  N  N47  1  0.94680000  0.62575000  0.12990000  1.0
  N  N48  1  0.62575000  0.94680000  0.62990000  1.0
  N  N49  1  0.05320000  0.37425000  0.87010000  1.0
  O  O50  1  0.81716000  0.18461000  0.47085000  1.0
  O  O51  1  0.81539000  0.18284000  0.02915000  1.0
  O  O52  1  0.18284000  0.81539000  0.52915000  1.0
  O  O53  1  0.18461000  0.81716000  0.97085000  1.0
  O  O54  1  0.99544000  0.29922000  0.28125000  1.0
  O  O55  1  0.70078000  0.00456000  0.21875000  1.0
  O  O56  1  0.00456000  0.70078000  0.71875000  1.0
  O  O57  1  0.29922000  0.99544000  0.78125000  1.0
