# generated using pymatgen
data_CdH15C15(NO2)2
_symmetry_space_group_name_H-M   'P 1'
_cell_length_a   9.40210000
_cell_length_b   12.02340000
_cell_length_c   13.34930000
_cell_angle_alpha   90.00000000
_cell_angle_beta   91.93590000
_cell_angle_gamma   90.00000000
_symmetry_Int_Tables_number   1
_chemical_formula_structural   CdH15C15(NO2)2
_chemical_formula_sum   'Cd4 H60 C60 N8 O16'
_cell_volume   1508.21309952
_cell_formula_units_Z   4
loop_
 _symmetry_equiv_pos_site_id
 _symmetry_equiv_pos_as_xyz
  1  'x, y, z'
loop_
 _atom_site_type_symbol
 _atom_site_label
 _atom_site_symmetry_multiplicity
 _atom_site_fract_x
 _atom_site_fract_y
 _atom_site_fract_z
 _atom_site_occupancy
  Cd  Cd0  1  0.13679000  0.56376000  0.56135000  1.0
  Cd  Cd1  1  0.36321000  0.06376000  0.93865000  1.0
  Cd  Cd2  1  0.86321000  0.43624000  0.43865000  1.0
  Cd  Cd3  1  0.63679000  0.93624000  0.06135000  1.0
  H  H4  1  0.32055000  0.75165000  0.25832000  1.0
  H  H5  1  0.17945000  0.25165000  0.24168000  1.0
  H  H6  1  0.67945000  0.24834000  0.74168000  1.0
  H  H7  1  0.82055000  0.74835000  0.75832000  1.0
  H  H8  1  0.07804000  0.75733000  0.97932000  1.0
  H  H9  1  0.42196000  0.25733000  0.52068000  1.0
  H  H10  1  0.92195000  0.24267000  0.02068000  1.0
  H  H11  1  0.57804000  0.74267000  0.47932000  1.0
  H  H12  1  0.92925000  0.56820000  0.22867000  1.0
  H  H13  1  0.57075000  0.06820000  0.27133000  1.0
  H  H14  1  0.07075000  0.43180000  0.77133000  1.0
  H  H15  1  0.42925000  0.93180000  0.72867000  1.0
  H  H16  1  0.86791000  0.64718000  0.95554000  1.0
  H  H17  1  0.63209000  0.14718000  0.54446000  1.0
  H  H18  1  0.13209000  0.35282000  0.04446000  1.0
  H  H19  1  0.36791000  0.85282000  0.45554000  1.0
  H  H20  1  0.76578000  0.64348000  0.06459000  1.0
  H  H21  1  0.73422000  0.14348000  0.43541000  1.0
  H  H22  1  0.23422000  0.35652000  0.93541000  1.0
  H  H23  1  0.26578000  0.85652000  0.56458000  1.0
  H  H24  1  0.86198000  0.52340000  0.02959000  1.0
  H  H25  1  0.63802000  0.02340000  0.47041000  1.0
  H  H26  1  0.13802000  0.47660000  0.97040000  1.0
  H  H27  1  0.36198000  0.97660000  0.52959000  1.0
  H  H28  1  0.13261000  0.72091000  0.76289000  1.0
  H  H29  1  0.36739000  0.22091000  0.73711000  1.0
  H  H30  1  0.86739000  0.27909000  0.23711000  1.0
  H  H31  1  0.63262000  0.77909000  0.26289000  1.0
  H  H32  1  0.34836000  0.72801000  0.91108000  1.0
  H  H33  1  0.15164000  0.22801000  0.58892000  1.0
  H  H34  1  0.65165000  0.27199000  0.08892000  1.0
  H  H35  1  0.84836000  0.77199000  0.41108000  1.0
  H  H36  1  0.41692000  0.44109000  0.60737000  1.0
  H  H37  1  0.08308000  0.94109000  0.89263000  1.0
  H  H38  1  0.58308000  0.55891000  0.39263000  1.0
  H  H39  1  0.91692000  0.05891000  0.10737000  1.0
  H  H40  1  0.50669000  0.39823000  0.72072000  1.0
  H  H41  1  0.99331000  0.89823000  0.77928000  1.0
  H  H42  1  0.49331000  0.60177000  0.27928000  1.0
  H  H43  1  0.00669000  0.10177000  0.22072000  1.0
  H  H44  1  0.57799000  0.50619000  0.64775000  1.0
  H  H45  1  0.92201000  0.00619000  0.85225000  1.0
  H  H46  1  0.42201000  0.49381000  0.35225000  1.0
  H  H47  1  0.07799000  0.99381000  0.14775000  1.0
  H  H48  1  0.49183000  0.40764000  0.91956000  1.0
  H  H49  1  0.00817000  0.90764000  0.58044000  1.0
  H  H50  1  0.50817000  0.59236000  0.08044000  1.0
  H  H51  1  0.99183000  0.09236000  0.41956000  1.0
  H  H52  1  0.64891000  0.45242000  0.98165000  1.0
  H  H53  1  0.85109000  0.95242000  0.51834000  1.0
  H  H54  1  0.35109000  0.54758000  0.01835000  1.0
  H  H55  1  0.14891000  0.04758000  0.48166000  1.0
  H  H56  1  0.60557000  0.64787000  0.91243000  1.0
  H  H57  1  0.89442000  0.14787000  0.58757000  1.0
  H  H58  1  0.39443000  0.35213000  0.08757000  1.0
  H  H59  1  0.10558000  0.85213000  0.41243000  1.0
  H  H60  1  0.64539000  0.54409000  0.82409000  1.0
  H  H61  1  0.85461000  0.04409000  0.67591000  1.0
  H  H62  1  0.35461000  0.45591000  0.17591000  1.0
  H  H63  1  0.14539000  0.95591000  0.32410000  1.0
  C  C64  1  0.13414000  0.62922000  0.36266000  1.0
  C  C65  1  0.36586000  0.12923000  0.13734000  1.0
  C  C66  1  0.86586000  0.37077000  0.63734000  1.0
  C  C67  1  0.63414000  0.87077000  0.86266000  1.0
  C  C68  1  0.12528000  0.65726000  0.25406000  1.0
  C  C69  1  0.37472000  0.15726000  0.24594000  1.0
  C  C70  1  0.87472000  0.34274000  0.74594000  1.0
  C  C71  1  0.62527000  0.84274000  0.75406000  1.0
  C  C72  1  0.22918000  0.72438000  0.21248000  1.0
  C  C73  1  0.27082000  0.22438000  0.28752000  1.0
  C  C74  1  0.77082000  0.27562000  0.78752000  1.0
  C  C75  1  0.72918000  0.77562000  0.71248000  1.0
  C  C76  1  0.21169000  0.75995000  0.11349000  1.0
  C  C77  1  0.28831000  0.25995000  0.38651000  1.0
  C  C78  1  0.78831000  0.24005000  0.88651000  1.0
  C  C79  1  0.71168000  0.74005000  0.61349000  1.0
  C  C80  1  0.09210000  0.72622000  0.05570000  1.0
  C  C81  1  0.40790000  0.22622000  0.44430000  1.0
  C  C82  1  0.90790000  0.27378000  0.94430000  1.0
  C  C83  1  0.59210000  0.77378000  0.55570000  1.0
  C  C84  1  0.99130000  0.65411000  0.09463000  1.0
  C  C85  1  0.50870000  0.15411000  0.40537000  1.0
  C  C86  1  0.00870000  0.34588000  0.90537000  1.0
  C  C87  1  0.49130000  0.84589000  0.59463000  1.0
  C  C88  1  0.00855000  0.62112000  0.19483000  1.0
  C  C89  1  0.49145000  0.12112000  0.30517000  1.0
  C  C90  1  0.99145000  0.37888000  0.80517000  1.0
  C  C91  1  0.50855000  0.87888000  0.69483000  1.0
  C  C92  1  0.31848000  0.83741000  0.07048000  1.0
  C  C93  1  0.18152000  0.33741000  0.42952000  1.0
  C  C94  1  0.68152000  0.16259000  0.92952000  1.0
  C  C95  1  0.81847000  0.66259000  0.57048000  1.0
  C  C96  1  0.86547000  0.61478000  0.03221000  1.0
  C  C97  1  0.63452000  0.11478000  0.46779000  1.0
  C  C98  1  0.13452000  0.38522000  0.96779000  1.0
  C  C99  1  0.36547000  0.88522000  0.53221000  1.0
  C  C100  1  0.23080000  0.67404000  0.77073000  1.0
  C  C101  1  0.26920000  0.17404000  0.72927000  1.0
  C  C102  1  0.76920000  0.32596000  0.22927000  1.0
  C  C103  1  0.73080000  0.82595000  0.27073000  1.0
  C  C104  1  0.33475000  0.67649000  0.84508000  1.0
  C  C105  1  0.16525000  0.17649000  0.65492000  1.0
  C  C106  1  0.66525000  0.32351000  0.15492000  1.0
  C  C107  1  0.83476000  0.82351000  0.34508000  1.0
  C  C108  1  0.39415000  0.55328000  0.72880000  1.0
  C  C109  1  0.10584000  0.05328000  0.77120000  1.0
  C  C110  1  0.60585000  0.44672000  0.27120000  1.0
  C  C111  1  0.89416000  0.94672000  0.22880000  1.0
  C  C112  1  0.47805000  0.47030000  0.67363000  1.0
  C  C113  1  0.02194000  0.97030000  0.82637000  1.0
  C  C114  1  0.52195000  0.52970000  0.32636000  1.0
  C  C115  1  0.97805000  0.02970000  0.17364000  1.0
  C  C116  1  0.54273000  0.48063000  0.95557000  1.0
  C  C117  1  0.95727000  0.98063000  0.54443000  1.0
  C  C118  1  0.45727000  0.51937000  0.04443000  1.0
  C  C119  1  0.04273000  0.01937000  0.45557000  1.0
  C  C120  1  0.56551000  0.57116000  0.87698000  1.0
  C  C121  1  0.93449000  0.07116000  0.62302000  1.0
  C  C122  1  0.43449000  0.42884000  0.12302000  1.0
  C  C123  1  0.06552000  0.92884000  0.37698000  1.0
  N  N124  1  0.26877000  0.59742000  0.69901000  1.0
  N  N125  1  0.23123000  0.09742000  0.80099000  1.0
  N  N126  1  0.73124000  0.40258000  0.30099000  1.0
  N  N127  1  0.76877000  0.90258000  0.19901000  1.0
  N  N128  1  0.43643000  0.59985000  0.81816000  1.0
  N  N129  1  0.06357000  0.09985000  0.68184000  1.0
  N  N130  1  0.56357000  0.40015000  0.18184000  1.0
  N  N131  1  0.93643000  0.90015000  0.31816000  1.0
  O  O132  1  0.02871000  0.57669000  0.39859000  1.0
  O  O133  1  0.47129000  0.07669000  0.10141000  1.0
  O  O134  1  0.97128000  0.42331000  0.60141000  1.0
  O  O135  1  0.52871000  0.92331000  0.89859000  1.0
  O  O136  1  0.23985000  0.66016000  0.41760000  1.0
  O  O137  1  0.26016000  0.16016000  0.08240000  1.0
  O  O138  1  0.76016000  0.33984000  0.58240000  1.0
  O  O139  1  0.73984000  0.83984000  0.91760000  1.0
  O  O140  1  0.26927000  0.90486000  0.00443000  1.0
  O  O141  1  0.23073000  0.40485000  0.49558000  1.0
  O  O142  1  0.73073000  0.09514000  0.99557000  1.0
  O  O143  1  0.76927000  0.59515000  0.50443000  1.0
  O  O144  1  0.44662000  0.82772000  0.10384000  1.0
  O  O145  1  0.05338000  0.32772000  0.39616000  1.0
  O  O146  1  0.55338000  0.17228000  0.89616000  1.0
  O  O147  1  0.94662000  0.67228000  0.60384000  1.0
