# generated using pymatgen
data_GdH13C21(N3O10)2
_symmetry_space_group_name_H-M   'P 1'
_cell_length_a   9.41761000
_cell_length_b   11.93260000
_cell_length_c   14.12700000
_cell_angle_alpha   114.84600000
_cell_angle_beta   102.49900000
_cell_angle_gamma   97.30400000
_symmetry_Int_Tables_number   1
_chemical_formula_structural   GdH13C21(N3O10)2
_chemical_formula_sum   'Gd2 H26 C42 N12 O40'
_cell_volume   1363.18549481
_cell_formula_units_Z   2
loop_
 _symmetry_equiv_pos_site_id
 _symmetry_equiv_pos_as_xyz
  1  'x, y, z'
loop_
 _atom_site_type_symbol
 _atom_site_label
 _atom_site_symmetry_multiplicity
 _atom_site_fract_x
 _atom_site_fract_y
 _atom_site_fract_z
 _atom_site_occupancy
  Gd  Gd0  1  0.73650000  0.03381000  0.50946000  1.0
  Gd  Gd1  1  0.26350000  0.96619000  0.49054000  1.0
  H  H2  1  0.22483000  0.21882000  0.42665000  1.0
  H  H3  1  0.77517000  0.78118000  0.57336000  1.0
  H  H4  1  0.28666000  0.52881000  0.34441000  1.0
  H  H5  1  0.71334000  0.47119000  0.65559000  1.0
  H  H6  1  0.64259000  0.33955000  0.37833000  1.0
  H  H7  1  0.35741000  0.66045000  0.62167000  1.0
  H  H8  1  0.15338000  0.68396000  0.12017000  1.0
  H  H9  1  0.84662000  0.31604000  0.87983000  1.0
  H  H10  1  0.35143000  0.53224000  0.85836000  1.0
  H  H11  1  0.64857000  0.46776000  0.14164000  1.0
  H  H12  1  0.63351000  0.77921000  0.18985000  1.0
  H  H13  1  0.36649000  0.22079000  0.81015000  1.0
  H  H14  1  0.25271000  0.88496000  0.72597000  1.0
  H  H15  1  0.74729000  0.11504000  0.27403000  1.0
  H  H16  1  0.27115000  0.04297000  0.06703000  1.0
  H  H17  1  0.72884000  0.95703000  0.93297000  1.0
  H  H18  1  0.96204000  0.12608000  0.84506000  1.0
  H  H19  1  0.03796000  0.87392000  0.15493000  1.0
  H  H20  1  0.71444000  0.74915000  0.37843000  1.0
  H  H21  1  0.28556000  0.25085000  0.62157000  1.0
  H  H22  1  0.95685000  0.31404000  0.67596000  1.0
  H  H23  1  0.04315000  0.68596000  0.32404000  1.0
  H  H24  1  0.89285000  0.79888000  0.41814000  1.0
  H  H25  1  0.10715000  0.20111000  0.58186000  1.0
  H  H26  1  0.91668000  0.29588000  0.55634000  1.0
  H  H27  1  0.08332000  0.70412000  0.44365000  1.0
  C  C28  1  0.50269000  0.17545000  0.43718000  1.0
  C  C29  1  0.49731000  0.82455000  0.56283000  1.0
  C  C30  1  0.43949000  0.26807000  0.40426000  1.0
  C  C31  1  0.56051000  0.73193000  0.59575000  1.0
  C  C32  1  0.29385000  0.27961000  0.40541000  1.0
  C  C33  1  0.70615000  0.72039000  0.59459000  1.0
  C  C34  1  0.24217000  0.37387000  0.38476000  1.0
  C  C35  1  0.75782000  0.62613000  0.61524000  1.0
  C  C36  1  0.32856000  0.45570000  0.36035000  1.0
  C  C37  1  0.67144000  0.54430000  0.63965000  1.0
  C  C38  1  0.47169000  0.43938000  0.35740000  1.0
  C  C39  1  0.52831000  0.56062000  0.64261000  1.0
  C  C40  1  0.52911000  0.34778000  0.37917000  1.0
  C  C41  1  0.47089000  0.65222000  0.62084000  1.0
  C  C42  1  0.42067000  0.82972000  0.28802000  1.0
  C  C43  1  0.57933000  0.17028000  0.71198000  1.0
  C  C44  1  0.39581000  0.74265000  0.16773000  1.0
  C  C45  1  0.60419000  0.25736000  0.83227000  1.0
  C  C46  1  0.25289000  0.67722000  0.09296000  1.0
  C  C47  1  0.74711000  0.32278000  0.90704000  1.0
  C  C48  1  0.24059000  0.60182000  0.98303000  1.0
  C  C49  1  0.75941000  0.39818000  0.01697000  1.0
  C  C50  1  0.36471000  0.58983000  0.94457000  1.0
  C  C51  1  0.63530000  0.41016000  0.05543000  1.0
  C  C52  1  0.50470000  0.65386000  0.02148000  1.0
  C  C53  1  0.49530000  0.34614000  0.97852000  1.0
  C  C54  1  0.52249000  0.72919000  0.13167000  1.0
  C  C55  1  0.47751000  0.27081000  0.86833000  1.0
  C  C56  1  0.04361000  0.99885000  0.66437000  1.0
  C  C57  1  0.95639000  0.00115000  0.33563000  1.0
  C  C58  1  0.10365000  0.00711000  0.77532000  1.0
  C  C59  1  0.89635000  0.99289000  0.22468000  1.0
  C  C60  1  0.21289000  0.94300000  0.79299000  1.0
  C  C61  1  0.78711000  0.05700000  0.20700000  1.0
  C  C62  1  0.26735000  0.95432000  0.89717000  1.0
  C  C63  1  0.73265000  0.04568000  0.10283000  1.0
  C  C64  1  0.22373000  0.03249000  0.98568000  1.0
  C  C65  1  0.77627000  0.96751000  0.01432000  1.0
  C  C66  1  0.11316000  0.09278000  0.96439000  1.0
  C  C67  1  0.88684000  0.90722000  0.03561000  1.0
  C  C68  1  0.04995000  0.07948000  0.86029000  1.0
  C  C69  1  0.95005000  0.92052000  0.13971000  1.0
  N  N70  1  0.56980000  0.52642000  0.33665000  1.0
  N  N71  1  0.43020000  0.47358000  0.66335000  1.0
  N  N72  1  0.09086000  0.38905000  0.39094000  1.0
  N  N73  1  0.90913000  0.61094000  0.60906000  1.0
  N  N74  1  0.63918000  0.64326000  0.98527000  1.0
  N  N75  1  0.36083000  0.35674000  0.01473000  1.0
  N  N76  1  0.09238000  0.52876000  0.90264000  1.0
  N  N77  1  0.90763000  0.47124000  0.09736000  1.0
  N  N78  1  0.37187000  0.87891000  0.91529000  1.0
  N  N79  1  0.62813000  0.12109000  0.08470000  1.0
  N  N80  1  0.05781000  0.16980000  0.05430000  1.0
  N  N81  1  0.94219000  0.83020000  0.94570000  1.0
  O  O82  1  0.64152000  0.18079000  0.45048000  1.0
  O  O83  1  0.35848000  0.81921000  0.54952000  1.0
  O  O84  1  0.41397000  0.09943000  0.45180000  1.0
  O  O85  1  0.58603000  0.90057000  0.54820000  1.0
  O  O86  1  0.69322000  0.50622000  0.32780000  1.0
  O  O87  1  0.30678000  0.49378000  0.67220000  1.0
  O  O88  1  0.52571000  0.61866000  0.33187000  1.0
  O  O89  1  0.47428000  0.38134000  0.66813000  1.0
  O  O90  1  0.05255000  0.48145000  0.38370000  1.0
  O  O91  1  0.94745000  0.51855000  0.61630000  1.0
  O  O92  1  0.01124000  0.30851000  0.40359000  1.0
  O  O93  1  0.98875000  0.69149000  0.59641000  1.0
  O  O94  1  0.55258000  0.90003000  0.34041000  1.0
  O  O95  1  0.44742000  0.09997000  0.65959000  1.0
  O  O96  1  0.31068000  0.82573000  0.32570000  1.0
  O  O97  1  0.68932000  0.17427000  0.67429000  1.0
  O  O98  1  0.76108000  0.67595000  0.05669000  1.0
  O  O99  1  0.23893000  0.32405000  0.94331000  1.0
  O  O100  1  0.62415000  0.60270000  0.88629000  1.0
  O  O101  1  0.37585000  0.39731000  0.11371000  1.0
  O  O102  1  0.09147000  0.44558000  0.81175000  1.0
  O  O103  1  0.90854000  0.55442000  0.18825000  1.0
  O  O104  1  0.97896000  0.55242000  0.92893000  1.0
  O  O105  1  0.02105000  0.44758000  0.07107000  1.0
  O  O106  1  0.92698000  0.03881000  0.64828000  1.0
  O  O107  1  0.07302000  0.96119000  0.35172000  1.0
  O  O108  1  0.11420000  0.95325000  0.59614000  1.0
  O  O109  1  0.88579000  0.04675000  0.40385000  1.0
  O  O110  1  0.41172000  0.80953000  0.83712000  1.0
  O  O111  1  0.58828000  0.19047000  0.16288000  1.0
  O  O112  1  0.41385000  0.88849000  0.00861000  1.0
  O  O113  1  0.58615000  0.11151000  0.99138000  1.0
  O  O114  1  0.12900000  0.19569000  0.14875000  1.0
  O  O115  1  0.87100000  0.80431000  0.85125000  1.0
  O  O116  1  0.93988000  0.20074000  0.02978000  1.0
  O  O117  1  0.06012000  0.79926000  0.97022000  1.0
  O  O118  1  0.79829000  0.82330000  0.42810000  1.0
  O  O119  1  0.20171000  0.17670000  0.57190000  1.0
  O  O120  1  0.93653000  0.25023000  0.59934000  1.0
  O  O121  1  0.06347000  0.74977000  0.40066000  1.0
