# generated using pymatgen
data_Zr3H2C24(Cl3O4)4
_symmetry_space_group_name_H-M   'P 1'
_cell_length_a   15.03960000
_cell_length_b   15.03950454
_cell_length_c   15.03950000
_cell_angle_alpha   89.99937650
_cell_angle_beta   120.00020000
_cell_angle_gamma   120.00022993
_symmetry_Int_Tables_number   1
_chemical_formula_structural   Zr3H2C24(Cl3O4)4
_chemical_formula_sum   'Zr6 H4 C48 Cl24 O32'
_cell_volume   2405.40248729
_cell_formula_units_Z   2
loop_
 _symmetry_equiv_pos_site_id
 _symmetry_equiv_pos_as_xyz
  1  'x, y, z'
loop_
 _atom_site_type_symbol
 _atom_site_label
 _atom_site_symmetry_multiplicity
 _atom_site_fract_x
 _atom_site_fract_y
 _atom_site_fract_z
 _atom_site_occupancy
  Zr  Zr0  1  0.76438000  0.88219000  0.38219000  1.0
  Zr  Zr1  1  0.23562000  0.11781000  0.61781000  1.0
  Zr  Zr2  1  0.00000000  0.11780000  0.38220000  1.0
  Zr  Zr3  1  0.00000000  0.88220000  0.61780000  1.0
  Zr  Zr4  1  0.00000000  0.11781000  0.61781000  1.0
  Zr  Zr5  1  0.00000000  0.88219000  0.38219000  1.0
  H  H6  1  0.81503000  0.09248000  0.40752000  1.0
  H  H7  1  0.18497000  0.09249000  0.77745000  1.0
  H  H8  1  0.18497000  0.09248000  0.40752000  1.0
  H  H9  1  0.81503000  0.72255000  0.40751000  1.0
  C  C10  1  0.69914000  0.99735000  0.50265000  1.0
  C  C11  1  0.30086000  0.30351000  0.79821000  1.0
  C  C12  1  0.30086000  0.99735000  0.50265000  1.0
  C  C13  1  0.69914000  0.70179000  0.19650000  1.0
  C  C14  1  0.69915000  0.99736000  0.19650000  1.0
  C  C15  1  0.69914000  0.70179000  0.50265000  1.0
  C  C16  1  0.30086000  0.99735000  0.79821000  1.0
  C  C17  1  0.30086000  0.30351000  0.50265000  1.0
  C  C18  1  0.00530000  0.30351000  0.50265000  1.0
  C  C19  1  0.99471000  0.99736000  0.19650000  1.0
  C  C20  1  0.00530000  0.70179000  0.50265000  1.0
  C  C21  1  0.99471000  0.99736000  0.79821000  1.0
  C  C22  1  0.40270000  0.99832000  0.50169000  1.0
  C  C23  1  0.59731000  0.99832000  0.50169000  1.0
  C  C24  1  0.53274000  0.07893000  0.58099000  1.0
  C  C25  1  0.46727000  0.91901000  0.42107000  1.0
  C  C26  1  0.62718000  0.07893000  0.58100000  1.0
  C  C27  1  0.37282000  0.91901000  0.42107000  1.0
  C  C28  1  0.40269000  0.40438000  0.90101000  1.0
  C  C29  1  0.59731000  0.59900000  0.09562000  1.0
  C  C30  1  0.53274000  0.45381000  0.95174000  1.0
  C  C31  1  0.46727000  0.54826000  0.04619000  1.0
  C  C32  1  0.62719000  0.54826000  0.04619000  1.0
  C  C33  1  0.37282000  0.45381000  0.95174000  1.0
  C  C34  1  0.99664000  0.99832000  0.09562000  1.0
  C  C35  1  0.99663000  0.99832000  0.90101000  1.0
  C  C36  1  0.99794000  0.91901000  0.04619000  1.0
  C  C37  1  0.99795000  0.07894000  0.95175000  1.0
  C  C38  1  0.99794000  0.91901000  0.95175000  1.0
  C  C39  1  0.99794000  0.07893000  0.04619000  1.0
  C  C40  1  0.00337000  0.40438000  0.50169000  1.0
  C  C41  1  0.00337000  0.59899000  0.50168000  1.0
  C  C42  1  0.00206000  0.45381000  0.58100000  1.0
  C  C43  1  0.00207000  0.54826000  0.42107000  1.0
  C  C44  1  0.00207000  0.54826000  0.58099000  1.0
  C  C45  1  0.00206000  0.45381000  0.42107000  1.0
  C  C46  1  0.40270000  0.99832000  0.90101000  1.0
  C  C47  1  0.59730000  0.99831000  0.09562000  1.0
  C  C48  1  0.37282000  0.91901000  0.95175000  1.0
  C  C49  1  0.62719000  0.07893000  0.04619000  1.0
  C  C50  1  0.46727000  0.91901000  0.04619000  1.0
  C  C51  1  0.53274000  0.07893000  0.95175000  1.0
  C  C52  1  0.40270000  0.40438000  0.50169000  1.0
  C  C53  1  0.59731000  0.59900000  0.50169000  1.0
  C  C54  1  0.37282000  0.45381000  0.42107000  1.0
  C  C55  1  0.62719000  0.54826000  0.58099000  1.0
  C  C56  1  0.46726000  0.54826000  0.42107000  1.0
  C  C57  1  0.53274000  0.45381000  0.58100000  1.0
  Cl  Cl58  1  0.58599000  0.18262000  0.68222000  1.0
  Cl  Cl59  1  0.41401000  0.81778000  0.31738000  1.0
  Cl  Cl60  1  0.77885000  0.18262000  0.68222000  1.0
  Cl  Cl61  1  0.22115000  0.81778000  0.31738000  1.0
  Cl  Cl62  1  0.58599000  0.40337000  0.90377000  1.0
  Cl  Cl63  1  0.41401000  0.59623000  0.09663000  1.0
  Cl  Cl64  1  0.77885000  0.59623000  0.09663000  1.0
  Cl  Cl65  1  0.22115000  0.40337000  0.90377000  1.0
  Cl  Cl66  1  0.00040000  0.81778000  0.09663000  1.0
  Cl  Cl67  1  0.00040000  0.18262000  0.90377000  1.0
  Cl  Cl68  1  0.00040000  0.81778000  0.90377000  1.0
  Cl  Cl69  1  0.00039000  0.18262000  0.09663000  1.0
  Cl  Cl70  1  0.99960000  0.40337000  0.68222000  1.0
  Cl  Cl71  1  0.99961000  0.59624000  0.31738000  1.0
  Cl  Cl72  1  0.99960000  0.59623000  0.68222000  1.0
  Cl  Cl73  1  0.99960000  0.40337000  0.31738000  1.0
  Cl  Cl74  1  0.22115000  0.81778000  0.90377000  1.0
  Cl  Cl75  1  0.77886000  0.18263000  0.09663000  1.0
  Cl  Cl76  1  0.41401000  0.81778000  0.09664000  1.0
  Cl  Cl77  1  0.58599000  0.18262000  0.90376000  1.0
  Cl  Cl78  1  0.22115000  0.40337000  0.31738000  1.0
  Cl  Cl79  1  0.77885000  0.59623000  0.68223000  1.0
  Cl  Cl80  1  0.41402000  0.59624000  0.31738000  1.0
  Cl  Cl81  1  0.58599000  0.40337000  0.68222000  1.0
  O  O82  1  0.66488000  0.92280000  0.42823000  1.0
  O  O83  1  0.33513000  0.26335000  0.75792000  1.0
  O  O84  1  0.33512000  0.07178000  0.57720000  1.0
  O  O85  1  0.66488000  0.74208000  0.23666000  1.0
  O  O86  1  0.81386000  0.07178000  0.23666000  1.0
  O  O87  1  0.81386000  0.74208000  0.57720000  1.0
  O  O88  1  0.18615000  0.92280000  0.75793000  1.0
  O  O89  1  0.18615000  0.26335000  0.42822000  1.0
  O  O90  1  0.00543000  0.26335000  0.57720000  1.0
  O  O91  1  0.99458000  0.92280000  0.23666000  1.0
  O  O92  1  0.00542000  0.74208000  0.42822000  1.0
  O  O93  1  0.99458000  0.07178000  0.75792000  1.0
  O  O94  1  0.99458000  0.07178000  0.23666000  1.0
  O  O95  1  0.00543000  0.74208000  0.57720000  1.0
  O  O96  1  0.99458000  0.92280000  0.75793000  1.0
  O  O97  1  0.00543000  0.26335000  0.42822000  1.0
  O  O98  1  0.66488000  0.92280000  0.23666000  1.0
  O  O99  1  0.33513000  0.26335000  0.57720000  1.0
  O  O100  1  0.33512000  0.07178000  0.75792000  1.0
  O  O101  1  0.66488000  0.74208000  0.42822000  1.0
  O  O102  1  0.81386000  0.74208000  0.23666000  1.0
  O  O103  1  0.81386000  0.07178000  0.57720000  1.0
  O  O104  1  0.18615000  0.26335000  0.75792000  1.0
  O  O105  1  0.18614000  0.92280000  0.42823000  1.0
  O  O106  1  0.86768000  0.80152000  0.43384000  1.0
  O  O107  1  0.13232000  0.06616000  0.43384000  1.0
  O  O108  1  0.13232000  0.06616000  0.69848000  1.0
  O  O109  1  0.86768000  0.06616000  0.43384000  1.0
  O  O110  1  0.09742000  0.14613000  0.54870000  1.0
  O  O111  1  0.90259000  0.95129000  0.54871000  1.0
  O  O112  1  0.09742000  0.95129000  0.54872000  1.0
  O  O113  1  0.90259000  0.95130000  0.35387000  1.0
